MODEL 1
REMARK VINA RESULT:      -7.6      0.000      0.000
REMARK  6 active torsions:
REMARK  status: ('A' for Active; 'I' for Inactive)
REMARK    1  A    between atoms: C_1  and  C_2 
REMARK    2  A    between atoms: C_2  and  C_3 
REMARK    3  A    between atoms: C_2  and  C_4 
REMARK    4  A    between atoms: C_7  and  C_10 
REMARK    5  A    between atoms: N_29  and  C_32 
REMARK    6  A    between atoms: C_32  and  C_33 
ROOT
ATOM      1  C   LIG d   1       8.033  -0.151  -6.964  0.00  0.00     0.092 C 
ATOM      2  H   LIG d   1       8.607  -1.057  -7.161  0.00  0.00     0.062 H 
ATOM      3  C   LIG d   1       8.969   1.028  -6.816  0.00  0.00     0.046 A 
ATOM      4  C   LIG d   1       8.793   2.204  -7.458  0.00  0.00    -0.015 A 
ATOM      5  C   LIG d   1       9.883   3.070  -7.057  0.00  0.00     0.003 A 
ATOM      6  C   LIG d   1      10.220   4.386  -7.393  0.00  0.00    -0.052 A 
ATOM      7  C   LIG d   1      11.352   4.903  -6.812  0.00  0.00    -0.061 A 
ATOM      8  C   LIG d   1      12.131   4.167  -5.935  0.00  0.00    -0.060 A 
ATOM      9  C   LIG d   1      11.822   2.864  -5.586  0.00  0.00    -0.038 A 
ATOM     10  C   LIG d   1      10.678   2.312  -6.160  0.00  0.00     0.047 A 
ATOM     11  N   LIG d   1      10.095   1.084  -6.039  0.00  0.00    -0.356 N 
ATOM     12  H   LIG d   1      10.427   0.361  -5.485  0.00  0.00     0.166 HD
ATOM     13  C   LIG d   1       7.662   2.502  -8.407  0.00  0.00     0.002 C 
ATOM     14  C   LIG d   1       6.546   1.471  -8.189  0.00  0.00     0.107 A 
ATOM     15  H   LIG d   1       6.040   1.692  -7.250  0.00  0.00     0.060 H 
ATOM     16  N   LIG d   1       7.137   0.135  -8.104  0.00  0.00    -0.276 N 
ATOM     17  C   LIG d   1       6.906  -0.824  -9.002  0.00  0.00     0.234 A 
ATOM     18  O   LIG d   1       7.501  -1.873  -8.875  0.00  0.00    -0.274 OA
ATOM     19  C   LIG d   1       5.964  -0.693 -10.155  0.00  0.00     0.092 A 
ATOM     20  N   LIG d   1       5.297   0.598 -10.170  0.00  0.00    -0.287 N 
ATOM     21  C   LIG d   1       5.550   1.574  -9.299  0.00  0.00     0.237 A 
ATOM     22  O   LIG d   1       4.930   2.610  -9.411  0.00  0.00    -0.274 OA
ATOM     23  H   LIG d   1       9.617   4.967  -8.075  0.00  0.00     0.062 H 
ATOM     24  H   LIG d   1      11.643   5.916  -7.048  0.00  0.00     0.062 H 
ATOM     25  H   LIG d   1      13.012   4.626  -5.509  0.00  0.00     0.062 H 
ATOM     26  H   LIG d   1      12.437   2.301  -4.901  0.00  0.00     0.064 H 
ATOM     27  H   LIG d   1       7.277   3.504  -8.211  0.00  0.00     0.034 H 
ATOM     28  H   LIG d   1       8.021   2.443  -9.434  0.00  0.00     0.034 H 
ATOM     29  H   LIG d   1       5.212  -1.479 -10.089  0.00  0.00     0.056 H 
ATOM     30  H   LIG d   1       6.522  -0.813 -11.083  0.00  0.00     0.056 H 
ENDROOT
BRANCH   1  31
ATOM     31  C   LIG d   1       7.222  -0.322  -5.704  0.00  0.00    -0.021 A 
ATOM     32  C   LIG d   1       7.319   0.611  -4.690  0.00  0.00    -0.056 A 
ATOM     33  C   LIG d   1       6.576   0.454  -3.534  0.00  0.00    -0.058 A 
ATOM     34  H   LIG d   1       7.975   1.462  -4.798  0.00  0.00     0.062 H 
ATOM     35  C   LIG d   1       5.735  -0.635  -3.395  0.00  0.00    -0.045 A 
ATOM     36  H   LIG d   1       6.652   1.183  -2.740  0.00  0.00     0.062 H 
ATOM     37  C   LIG d   1       5.638  -1.567  -4.411  0.00  0.00    -0.058 A 
ATOM     38  C   LIG d   1       6.379  -1.408  -5.567  0.00  0.00    -0.056 A 
ATOM     39  H   LIG d   1       4.982  -2.418  -4.303  0.00  0.00     0.062 H 
ATOM     40  H   LIG d   1       6.300  -2.134  -6.363  0.00  0.00     0.062 H 
BRANCH  35  41
ATOM     41  C   LIG d   1       4.926  -0.806  -2.135  0.00  0.00    -0.021 C 
ATOM     42  H   LIG d   1       5.590  -1.047  -1.306  0.00  0.00     0.034 H 
BRANCH  41  43
ATOM     43  C   LIG d   1       4.178   0.493  -1.830  0.00  0.00    -0.059 C 
ATOM     44  H   LIG d   1       3.492   0.330  -0.999  0.00  0.00     0.024 H 
ATOM     45  H   LIG d   1       4.894   1.270  -1.562  0.00  0.00     0.024 H 
ATOM     46  H   LIG d   1       3.616   0.805  -2.710  0.00  0.00     0.024 H 
ENDBRANCH  41  43
BRANCH  41  47
ATOM     47  C   LIG d   1       3.918  -1.940  -2.328  0.00  0.00    -0.059 C 
ATOM     48  H   LIG d   1       3.698  -2.399  -1.363  0.00  0.00     0.024 H 
ATOM     49  H   LIG d   1       2.999  -1.541  -2.759  0.00  0.00     0.024 H 
ATOM     50  H   LIG d   1       4.338  -2.691  -2.999  0.00  0.00     0.024 H 
ENDBRANCH  41  47
ENDBRANCH  35  41
ENDBRANCH   1  31
BRANCH  20  51
ATOM     51  C   LIG d   1       4.291   0.843 -11.207  0.00  0.00     0.040 C 
ATOM     52  H   LIG d   1       4.767   0.820 -12.187  0.00  0.00     0.051 H 
ATOM     53  H   LIG d   1       3.835   1.820 -11.047  0.00  0.00     0.051 H 
BRANCH  51  54
ATOM     54  C   LIG d   1       3.230  -0.225 -11.139  0.00  0.00    -0.030 A 
ATOM     55  C   LIG d   1       3.025  -1.064 -12.217  0.00  0.00    -0.054 A 
ATOM     56  C   LIG d   1       2.052  -2.044 -12.157  0.00  0.00    -0.026 A 
ATOM     57  H   LIG d   1       3.626  -0.955 -13.109  0.00  0.00     0.062 H 
ATOM     58  C   LIG d   1       1.282  -2.183 -11.014  0.00  0.00     0.123 A 
ATOM     59  H   LIG d   1       1.892  -2.701 -12.999  0.00  0.00     0.065 H 
ATOM     60  C   LIG d   1       1.488  -1.342  -9.935  0.00  0.00    -0.026 A 
ATOM     61  F   LIG d   1       0.331  -3.142 -10.954  0.00  0.00    -0.205 F 
ATOM     62  C   LIG d   1       2.461  -0.363  -9.999  0.00  0.00    -0.054 A 
ATOM     63  H   LIG d   1       0.888  -1.450  -9.043  0.00  0.00     0.065 H 
ATOM     64  H   LIG d   1       2.619   0.297  -9.157  0.00  0.00     0.062 H 
ENDBRANCH  51  54
ENDBRANCH  20  51
TORSDOF 6
ENDMDL
MODEL 2
REMARK VINA RESULT:      -7.5      2.311      3.274
REMARK  6 active torsions:
REMARK  status: ('A' for Active; 'I' for Inactive)
REMARK    1  A    between atoms: C_1  and  C_2 
REMARK    2  A    between atoms: C_2  and  C_3 
REMARK    3  A    between atoms: C_2  and  C_4 
REMARK    4  A    between atoms: C_7  and  C_10 
REMARK    5  A    between atoms: N_29  and  C_32 
REMARK    6  A    between atoms: C_32  and  C_33 
ROOT
ATOM      1  C   LIG d   1       8.957   0.782  -4.709  0.00  0.00     0.092 C 
ATOM      2  H   LIG d   1       9.757   0.119  -4.378  0.00  0.00     0.062 H 
ATOM      3  C   LIG d   1       9.282   2.209  -4.328  0.00  0.00     0.046 A 
ATOM      4  C   LIG d   1       9.199   3.248  -5.188  0.00  0.00    -0.015 A 
ATOM      5  C   LIG d   1       9.581   4.437  -4.454  0.00  0.00     0.003 A 
ATOM      6  C   LIG d   1       9.682   5.784  -4.818  0.00  0.00    -0.052 A 
ATOM      7  C   LIG d   1      10.088   6.661  -3.842  0.00  0.00    -0.061 A 
ATOM      8  C   LIG d   1      10.387   6.243  -2.556  0.00  0.00    -0.060 A 
ATOM      9  C   LIG d   1      10.296   4.917  -2.168  0.00  0.00    -0.038 A 
ATOM     10  C   LIG d   1       9.886   4.004  -3.138  0.00  0.00     0.047 A 
ATOM     11  N   LIG d   1       9.694   2.653  -3.099  0.00  0.00    -0.356 N 
ATOM     12  H   LIG d   1       9.828   2.093  -2.320  0.00  0.00     0.166 HD
ATOM     13  C   LIG d   1       8.786   3.133  -6.633  0.00  0.00     0.002 C 
ATOM     14  C   LIG d   1       8.073   1.790  -6.841  0.00  0.00     0.107 A 
ATOM     15  H   LIG d   1       7.084   1.842  -6.387  0.00  0.00     0.060 H 
ATOM     16  N   LIG d   1       8.840   0.732  -6.181  0.00  0.00    -0.276 N 
ATOM     17  C   LIG d   1       9.433  -0.262  -6.845  0.00  0.00     0.234 A 
ATOM     18  O   LIG d   1      10.101  -1.047  -6.208  0.00  0.00    -0.274 OA
ATOM     19  C   LIG d   1       9.327  -0.473  -8.320  0.00  0.00     0.092 A 
ATOM     20  N   LIG d   1       8.473   0.518  -8.954  0.00  0.00    -0.287 N 
ATOM     21  C   LIG d   1       7.910   1.535  -8.305  0.00  0.00     0.237 A 
ATOM     22  O   LIG d   1       7.216   2.299  -8.940  0.00  0.00    -0.274 OA
ATOM     23  H   LIG d   1       9.450   6.118  -5.818  0.00  0.00     0.062 H 
ATOM     24  H   LIG d   1      10.177   7.709  -4.087  0.00  0.00     0.062 H 
ATOM     25  H   LIG d   1      10.702   6.978  -1.829  0.00  0.00     0.062 H 
ATOM     26  H   LIG d   1      10.531   4.605  -1.162  0.00  0.00     0.064 H 
ATOM     27  H   LIG d   1       8.107   3.949  -6.884  0.00  0.00     0.034 H 
ATOM     28  H   LIG d   1       9.669   3.183  -7.270  0.00  0.00     0.034 H 
ATOM     29  H   LIG d   1       8.918  -1.466  -8.508  0.00  0.00     0.056 H 
ATOM     30  H   LIG d   1      10.324  -0.413  -8.757  0.00  0.00     0.056 H 
ENDROOT
BRANCH   1  31
ATOM     31  C   LIG d   1       7.654   0.367  -4.076  0.00  0.00    -0.021 A 
ATOM     32  C   LIG d   1       7.311  -0.970  -4.016  0.00  0.00    -0.056 A 
ATOM     33  C   LIG d   1       6.114  -1.351  -3.436  0.00  0.00    -0.058 A 
ATOM     34  H   LIG d   1       7.976  -1.718  -4.422  0.00  0.00     0.062 H 
ATOM     35  C   LIG d   1       5.262  -0.394  -2.916  0.00  0.00    -0.045 A 
ATOM     36  H   LIG d   1       5.846  -2.396  -3.389  0.00  0.00     0.062 H 
ATOM     37  C   LIG d   1       5.607   0.943  -2.975  0.00  0.00    -0.058 A 
ATOM     38  C   LIG d   1       6.805   1.323  -3.552  0.00  0.00    -0.056 A 
ATOM     39  H   LIG d   1       4.942   1.691  -2.570  0.00  0.00     0.062 H 
ATOM     40  H   LIG d   1       7.075   2.368  -3.595  0.00  0.00     0.062 H 
BRANCH  35  41
ATOM     41  C   LIG d   1       3.959  -0.809  -2.284  0.00  0.00    -0.021 C 
ATOM     42  H   LIG d   1       3.929  -0.462  -1.252  0.00  0.00     0.034 H 
BRANCH  41  43
ATOM     43  C   LIG d   1       2.796  -0.195  -3.065  0.00  0.00    -0.059 C 
ATOM     44  H   LIG d   1       3.032   0.839  -3.316  0.00  0.00     0.024 H 
ATOM     45  H   LIG d   1       2.633  -0.763  -3.981  0.00  0.00     0.024 H 
ATOM     46  H   LIG d   1       1.893  -0.224  -2.455  0.00  0.00     0.024 H 
ENDBRANCH  41  43
BRANCH  41  47
ATOM     47  C   LIG d   1       3.842  -2.335  -2.312  0.00  0.00    -0.059 C 
ATOM     48  H   LIG d   1       3.842  -2.681  -3.345  0.00  0.00     0.024 H 
ATOM     49  H   LIG d   1       4.687  -2.774  -1.781  0.00  0.00     0.024 H 
ATOM     50  H   LIG d   1       2.913  -2.637  -1.828  0.00  0.00     0.024 H 
ENDBRANCH  41  47
ENDBRANCH  35  41
ENDBRANCH   1  31
BRANCH  20  51
ATOM     51  C   LIG d   1       8.223   0.394 -10.392  0.00  0.00     0.040 C 
ATOM     52  H   LIG d   1       9.159   0.182 -10.907  0.00  0.00     0.051 H 
ATOM     53  H   LIG d   1       7.803   1.326 -10.769  0.00  0.00     0.051 H 
BRANCH  51  54
ATOM     54  C   LIG d   1       7.250  -0.731 -10.637  0.00  0.00    -0.030 A 
ATOM     55  C   LIG d   1       5.904  -0.548 -10.383  0.00  0.00    -0.054 A 
ATOM     56  C   LIG d   1       5.011  -1.578 -10.608  0.00  0.00    -0.026 A 
ATOM     57  H   LIG d   1       5.549   0.401 -10.009  0.00  0.00     0.062 H 
ATOM     58  C   LIG d   1       5.466  -2.795 -11.088  0.00  0.00     0.123 A 
ATOM     59  H   LIG d   1       3.959  -1.436 -10.410  0.00  0.00     0.065 H 
ATOM     60  C   LIG d   1       6.815  -2.978 -11.342  0.00  0.00    -0.026 A 
ATOM     61  F   LIG d   1       4.594  -3.803 -11.309  0.00  0.00    -0.205 F 
ATOM     62  C   LIG d   1       7.705  -1.945 -11.116  0.00  0.00    -0.054 A 
ATOM     63  H   LIG d   1       7.171  -3.926 -11.717  0.00  0.00     0.065 H 
ATOM     64  H   LIG d   1       8.759  -2.089 -11.311  0.00  0.00     0.062 H 
ENDBRANCH  51  54
ENDBRANCH  20  51
TORSDOF 6
ENDMDL
MODEL 3
REMARK VINA RESULT:      -7.4      3.875      4.964
REMARK  6 active torsions:
REMARK  status: ('A' for Active; 'I' for Inactive)
REMARK    1  A    between atoms: C_1  and  C_2 
REMARK    2  A    between atoms: C_2  and  C_3 
REMARK    3  A    between atoms: C_2  and  C_4 
REMARK    4  A    between atoms: C_7  and  C_10 
REMARK    5  A    between atoms: N_29  and  C_32 
REMARK    6  A    between atoms: C_32  and  C_33 
ROOT
ATOM      1  C   LIG d   1       8.970   0.776  -4.748  0.00  0.00     0.092 C 
ATOM      2  H   LIG d   1       9.787   0.140  -4.407  0.00  0.00     0.062 H 
ATOM      3  C   LIG d   1       9.269   2.221  -4.415  0.00  0.00     0.046 A 
ATOM      4  C   LIG d   1       9.155   3.230  -5.305  0.00  0.00    -0.015 A 
ATOM      5  C   LIG d   1       9.521   4.449  -4.612  0.00  0.00     0.003 A 
ATOM      6  C   LIG d   1       9.590   5.786  -5.017  0.00  0.00    -0.052 A 
ATOM      7  C   LIG d   1       9.988   6.700  -4.074  0.00  0.00    -0.061 A 
ATOM      8  C   LIG d   1      10.310   6.328  -2.779  0.00  0.00    -0.060 A 
ATOM      9  C   LIG d   1      10.250   5.014  -2.350  0.00  0.00    -0.038 A 
ATOM     10  C   LIG d   1       9.849   4.063  -3.287  0.00  0.00     0.047 A 
ATOM     11  N   LIG d   1       9.686   2.710  -3.205  0.00  0.00    -0.356 N 
ATOM     12  H   LIG d   1       9.840   2.176  -2.411  0.00  0.00     0.166 HD
ATOM     13  C   LIG d   1       8.729   3.064  -6.741  0.00  0.00     0.002 C 
ATOM     14  C   LIG d   1       8.042   1.700  -6.900  0.00  0.00     0.107 A 
ATOM     15  H   LIG d   1       7.057   1.746  -6.437  0.00  0.00     0.060 H 
ATOM     16  N   LIG d   1       8.837   0.679  -6.218  0.00  0.00    -0.276 N 
ATOM     17  C   LIG d   1       9.443  -0.322  -6.857  0.00  0.00     0.234 A 
ATOM     18  O   LIG d   1      10.135  -1.074  -6.205  0.00  0.00    -0.274 OA
ATOM     19  C   LIG d   1       9.326  -0.581  -8.324  0.00  0.00     0.092 A 
ATOM     20  N   LIG d   1       8.445   0.373  -8.978  0.00  0.00    -0.287 N 
ATOM     21  C   LIG d   1       7.868   1.397  -8.353  0.00  0.00     0.237 A 
ATOM     22  O   LIG d   1       7.151   2.128  -9.004  0.00  0.00    -0.274 OA
ATOM     23  H   LIG d   1       9.340   6.084  -6.025  0.00  0.00     0.062 H 
ATOM     24  H   LIG d   1      10.053   7.742  -4.351  0.00  0.00     0.062 H 
ATOM     25  H   LIG d   1      10.617   7.092  -2.078  0.00  0.00     0.062 H 
ATOM     26  H   LIG d   1      10.503   4.737  -1.338  0.00  0.00     0.064 H 
ATOM     27  H   LIG d   1       8.031   3.858  -7.008  0.00  0.00     0.034 H 
ATOM     28  H   LIG d   1       9.603   3.112  -7.390  0.00  0.00     0.034 H 
ATOM     29  H   LIG d   1       8.935  -1.587  -8.478  0.00  0.00     0.056 H 
ATOM     30  H   LIG d   1      10.317  -0.513  -8.775  0.00  0.00     0.056 H 
ENDROOT
BRANCH   1  31
ATOM     31  C   LIG d   1       7.682   0.354  -4.088  0.00  0.00    -0.021 A 
ATOM     32  C   LIG d   1       7.340  -0.983  -4.034  0.00  0.00    -0.056 A 
ATOM     33  C   LIG d   1       6.158  -1.371  -3.429  0.00  0.00    -0.058 A 
ATOM     34  H   LIG d   1       7.995  -1.727  -4.464  0.00  0.00     0.062 H 
ATOM     35  C   LIG d   1       5.320  -0.420  -2.878  0.00  0.00    -0.045 A 
ATOM     36  H   LIG d   1       5.891  -2.416  -3.387  0.00  0.00     0.062 H 
ATOM     37  C   LIG d   1       5.664   0.918  -2.932  0.00  0.00    -0.058 A 
ATOM     38  C   LIG d   1       6.846   1.305  -3.533  0.00  0.00    -0.056 A 
ATOM     39  H   LIG d   1       5.009   1.662  -2.502  0.00  0.00     0.062 H 
ATOM     40  H   LIG d   1       7.116   2.350  -3.572  0.00  0.00     0.062 H 
BRANCH  35  41
ATOM     41  C   LIG d   1       4.032  -0.842  -2.219  0.00  0.00    -0.021 C 
ATOM     42  H   LIG d   1       4.066  -0.588  -1.160  0.00  0.00     0.034 H 
BRANCH  41  43
ATOM     43  C   LIG d   1       2.859  -0.117  -2.881  0.00  0.00    -0.059 C 
ATOM     44  H   LIG d   1       2.251  -0.836  -3.430  0.00  0.00     0.024 H 
ATOM     45  H   LIG d   1       2.250   0.364  -2.116  0.00  0.00     0.024 H 
ATOM     46  H   LIG d   1       3.240   0.638  -3.570  0.00  0.00     0.024 H 
ENDBRANCH  41  43
BRANCH  41  47
ATOM     47  C   LIG d   1       3.851  -2.353  -2.376  0.00  0.00    -0.059 C 
ATOM     48  H   LIG d   1       4.603  -2.873  -1.782  0.00  0.00     0.024 H 
ATOM     49  H   LIG d   1       2.856  -2.637  -2.033  0.00  0.00     0.024 H 
ATOM     50  H   LIG d   1       3.965  -2.626  -3.425  0.00  0.00     0.024 H 
ENDBRANCH  41  47
ENDBRANCH  35  41
ENDBRANCH   1  31
BRANCH  20  51
ATOM     51  C   LIG d   1       8.181   0.200 -10.409  0.00  0.00     0.040 C 
ATOM     52  H   LIG d   1       7.404   0.896 -10.722  0.00  0.00     0.051 H 
ATOM     53  H   LIG d   1       7.851  -0.821 -10.596  0.00  0.00     0.051 H 
BRANCH  51  54
ATOM     54  C   LIG d   1       9.442   0.472 -11.188  0.00  0.00    -0.030 A 
ATOM     55  C   LIG d   1      10.040  -0.542 -11.911  0.00  0.00    -0.054 A 
ATOM     56  C   LIG d   1      11.196  -0.294 -12.626  0.00  0.00    -0.026 A 
ATOM     57  H   LIG d   1       9.604  -1.530 -11.918  0.00  0.00     0.062 H 
ATOM     58  C   LIG d   1      11.756   0.973 -12.617  0.00  0.00     0.123 A 
ATOM     59  H   LIG d   1      11.664  -1.086 -13.192  0.00  0.00     0.065 H 
ATOM     60  C   LIG d   1      11.157   1.989 -11.892  0.00  0.00    -0.026 A 
ATOM     61  F   LIG d   1      12.886   1.218 -13.316  0.00  0.00    -0.205 F 
ATOM     62  C   LIG d   1      10.001   1.737 -11.178  0.00  0.00    -0.054 A 
ATOM     63  H   LIG d   1      11.592   2.977 -11.885  0.00  0.00     0.065 H 
ATOM     64  H   LIG d   1       9.535   2.529 -10.608  0.00  0.00     0.062 H 
ENDBRANCH  51  54
ENDBRANCH  20  51
TORSDOF 6
ENDMDL
MODEL 4
REMARK VINA RESULT:      -7.3      5.211      9.003
REMARK  6 active torsions:
REMARK  status: ('A' for Active; 'I' for Inactive)
REMARK    1  A    between atoms: C_1  and  C_2 
REMARK    2  A    between atoms: C_2  and  C_3 
REMARK    3  A    between atoms: C_2  and  C_4 
REMARK    4  A    between atoms: C_7  and  C_10 
REMARK    5  A    between atoms: N_29  and  C_32 
REMARK    6  A    between atoms: C_32  and  C_33 
ROOT
ATOM      1  C   LIG d   1       4.536  -3.757  -5.751  0.00  0.00     0.092 C 
ATOM      2  H   LIG d   1       3.753  -4.459  -5.463  0.00  0.00     0.062 H 
ATOM      3  C   LIG d   1       4.487  -2.538  -4.857  0.00  0.00     0.046 A 
ATOM      4  C   LIG d   1       5.574  -2.018  -4.245  0.00  0.00    -0.015 A 
ATOM      5  C   LIG d   1       5.124  -0.867  -3.490  0.00  0.00     0.003 A 
ATOM      6  C   LIG d   1       5.793   0.051  -2.673  0.00  0.00    -0.052 A 
ATOM      7  C   LIG d   1       5.032   1.040  -2.099  0.00  0.00    -0.061 A 
ATOM      8  C   LIG d   1       3.667   1.134  -2.312  0.00  0.00    -0.060 A 
ATOM      9  C   LIG d   1       2.980   0.241  -3.115  0.00  0.00    -0.038 A 
ATOM     10  C   LIG d   1       3.726  -0.774  -3.711  0.00  0.00     0.047 A 
ATOM     11  N   LIG d   1       3.377  -1.800  -4.541  0.00  0.00    -0.356 N 
ATOM     12  H   LIG d   1       2.479  -1.979  -4.860  0.00  0.00     0.166 HD
ATOM     13  C   LIG d   1       6.969  -2.577  -4.356  0.00  0.00     0.002 C 
ATOM     14  C   LIG d   1       7.036  -3.508  -5.574  0.00  0.00     0.107 A 
ATOM     15  H   LIG d   1       7.024  -2.905  -6.481  0.00  0.00     0.060 H 
ATOM     16  N   LIG d   1       5.863  -4.383  -5.574  0.00  0.00    -0.276 N 
ATOM     17  C   LIG d   1       5.939  -5.706  -5.421  0.00  0.00     0.234 A 
ATOM     18  O   LIG d   1       4.900  -6.330  -5.367  0.00  0.00    -0.274 OA
ATOM     19  C   LIG d   1       7.217  -6.472  -5.312  0.00  0.00     0.092 A 
ATOM     20  N   LIG d   1       8.382  -5.608  -5.424  0.00  0.00    -0.287 N 
ATOM     21  C   LIG d   1       8.313  -4.283  -5.538  0.00  0.00     0.237 A 
ATOM     22  O   LIG d   1       9.354  -3.667  -5.624  0.00  0.00    -0.274 OA
ATOM     23  H   LIG d   1       6.857  -0.015  -2.502  0.00  0.00     0.062 H 
ATOM     24  H   LIG d   1       5.514   1.766  -1.462  0.00  0.00     0.062 H 
ATOM     25  H   LIG d   1       3.119   1.934  -1.834  0.00  0.00     0.062 H 
ATOM     26  H   LIG d   1       1.915   0.326  -3.274  0.00  0.00     0.064 H 
ATOM     27  H   LIG d   1       7.680  -1.759  -4.482  0.00  0.00     0.034 H 
ATOM     28  H   LIG d   1       7.212  -3.136  -3.452  0.00  0.00     0.034 H 
ATOM     29  H   LIG d   1       7.253  -7.218  -6.106  0.00  0.00     0.056 H 
ATOM     30  H   LIG d   1       7.244  -6.979  -4.347  0.00  0.00     0.056 H 
ENDROOT
BRANCH   1  31
ATOM     31  C   LIG d   1       4.351  -3.344  -7.189  0.00  0.00    -0.021 A 
ATOM     32  C   LIG d   1       3.918  -4.267  -8.121  0.00  0.00    -0.056 A 
ATOM     33  C   LIG d   1       3.749  -3.889  -9.441  0.00  0.00    -0.058 A 
ATOM     34  H   LIG d   1       3.712  -5.284  -7.821  0.00  0.00     0.062 H 
ATOM     35  C   LIG d   1       4.012  -2.588  -9.827  0.00  0.00    -0.045 A 
ATOM     36  H   LIG d   1       3.411  -4.611 -10.170  0.00  0.00     0.062 H 
ATOM     37  C   LIG d   1       4.443  -1.665  -8.892  0.00  0.00    -0.058 A 
ATOM     38  C   LIG d   1       4.609  -2.042  -7.573  0.00  0.00    -0.056 A 
ATOM     39  H   LIG d   1       4.649  -0.648  -9.193  0.00  0.00     0.062 H 
ATOM     40  H   LIG d   1       4.943  -1.320  -6.843  0.00  0.00     0.062 H 
BRANCH  35  41
ATOM     41  C   LIG d   1       3.828  -2.176 -11.264  0.00  0.00    -0.021 C 
ATOM     42  H   LIG d   1       4.779  -2.255 -11.789  0.00  0.00     0.034 H 
BRANCH  41  43
ATOM     43  C   LIG d   1       2.800  -3.093 -11.929  0.00  0.00    -0.059 C 
ATOM     44  H   LIG d   1       3.286  -4.016 -12.245  0.00  0.00     0.024 H 
ATOM     45  H   LIG d   1       2.006  -3.326 -11.219  0.00  0.00     0.024 H 
ATOM     46  H   LIG d   1       2.373  -2.592 -12.798  0.00  0.00     0.024 H 
ENDBRANCH  41  43
BRANCH  41  47
ATOM     47  C   LIG d   1       3.332  -0.730 -11.321  0.00  0.00    -0.059 C 
ATOM     48  H   LIG d   1       2.311  -0.680 -10.943  0.00  0.00     0.024 H 
ATOM     49  H   LIG d   1       3.978  -0.100 -10.708  0.00  0.00     0.024 H 
ATOM     50  H   LIG d   1       3.355  -0.377 -12.352  0.00  0.00     0.024 H 
ENDBRANCH  41  47
ENDBRANCH  35  41
ENDBRANCH   1  31
BRANCH  20  51
ATOM     51  C   LIG d   1       9.707  -6.232  -5.403  0.00  0.00     0.040 C 
ATOM     52  H   LIG d   1      10.463  -5.486  -5.646  0.00  0.00     0.051 H 
ATOM     53  H   LIG d   1       9.741  -7.037  -6.137  0.00  0.00     0.051 H 
BRANCH  51  54
ATOM     54  C   LIG d   1       9.977  -6.791  -4.030  0.00  0.00    -0.030 A 
ATOM     55  C   LIG d   1      10.200  -8.145  -3.867  0.00  0.00    -0.054 A 
ATOM     56  C   LIG d   1      10.448  -8.660  -2.609  0.00  0.00    -0.026 A 
ATOM     57  H   LIG d   1      10.180  -8.803  -4.724  0.00  0.00     0.062 H 
ATOM     58  C   LIG d   1      10.472  -7.817  -1.510  0.00  0.00     0.123 A 
ATOM     59  H   LIG d   1      10.622  -9.718  -2.481  0.00  0.00     0.065 H 
ATOM     60  C   LIG d   1      10.250  -6.460  -1.674  0.00  0.00    -0.026 A 
ATOM     61  F   LIG d   1      10.716  -8.318  -0.279  0.00  0.00    -0.205 F 
ATOM     62  C   LIG d   1      10.002  -5.949  -2.934  0.00  0.00    -0.054 A 
ATOM     63  H   LIG d   1      10.269  -5.802  -0.818  0.00  0.00     0.065 H 
ATOM     64  H   LIG d   1       9.823  -4.891  -3.061  0.00  0.00     0.062 H 
ENDBRANCH  51  54
ENDBRANCH  20  51
TORSDOF 6
ENDMDL
MODEL 5
REMARK VINA RESULT:      -7.2      3.984      5.548
REMARK  6 active torsions:
REMARK  status: ('A' for Active; 'I' for Inactive)
REMARK    1  A    between atoms: C_1  and  C_2 
REMARK    2  A    between atoms: C_2  and  C_3 
REMARK    3  A    between atoms: C_2  and  C_4 
REMARK    4  A    between atoms: C_7  and  C_10 
REMARK    5  A    between atoms: N_29  and  C_32 
REMARK    6  A    between atoms: C_32  and  C_33 
ROOT
ATOM      1  C   LIG d   1       5.752  -2.084  -6.944  0.00  0.00     0.092 C 
ATOM      2  H   LIG d   1       6.819  -1.931  -7.111  0.00  0.00     0.062 H 
ATOM      3  C   LIG d   1       5.306  -1.307  -5.725  0.00  0.00     0.046 A 
ATOM      4  C   LIG d   1       4.219  -0.506  -5.708  0.00  0.00    -0.015 A 
ATOM      5  C   LIG d   1       4.124   0.050  -4.373  0.00  0.00     0.003 A 
ATOM      6  C   LIG d   1       3.216   0.932  -3.777  0.00  0.00    -0.052 A 
ATOM      7  C   LIG d   1       3.439   1.253  -2.460  0.00  0.00    -0.061 A 
ATOM      8  C   LIG d   1       4.507   0.735  -1.747  0.00  0.00    -0.060 A 
ATOM      9  C   LIG d   1       5.420  -0.139  -2.312  0.00  0.00    -0.038 A 
ATOM     10  C   LIG d   1       5.220  -0.482  -3.647  0.00  0.00     0.047 A 
ATOM     11  N   LIG d   1       5.911  -1.298  -4.496  0.00  0.00    -0.356 N 
ATOM     12  H   LIG d   1       6.710  -1.796  -4.264  0.00  0.00     0.166 HD
ATOM     13  C   LIG d   1       3.313  -0.265  -6.888  0.00  0.00     0.002 C 
ATOM     14  C   LIG d   1       3.545  -1.372  -7.926  0.00  0.00     0.107 A 
ATOM     15  H   LIG d   1       3.101  -2.297  -7.560  0.00  0.00     0.060 H 
ATOM     16  N   LIG d   1       4.983  -1.574  -8.099  0.00  0.00    -0.276 N 
ATOM     17  C   LIG d   1       5.625  -1.318  -9.240  0.00  0.00     0.234 A 
ATOM     18  O   LIG d   1       6.829  -1.455  -9.255  0.00  0.00    -0.274 OA
ATOM     19  C   LIG d   1       4.958  -0.875 -10.502  0.00  0.00     0.092 A 
ATOM     20  N   LIG d   1       3.515  -0.783 -10.354  0.00  0.00    -0.287 N 
ATOM     21  C   LIG d   1       2.873  -0.999  -9.208  0.00  0.00     0.237 A 
ATOM     22  O   LIG d   1       1.665  -0.893  -9.206  0.00  0.00    -0.274 OA
ATOM     23  H   LIG d   1       2.380   1.340  -4.325  0.00  0.00     0.062 H 
ATOM     24  H   LIG d   1       2.758   1.931  -1.966  0.00  0.00     0.062 H 
ATOM     25  H   LIG d   1       4.632   1.024  -0.713  0.00  0.00     0.062 H 
ATOM     26  H   LIG d   1       6.248  -0.535  -1.745  0.00  0.00     0.064 H 
ATOM     27  H   LIG d   1       2.273  -0.285  -6.559  0.00  0.00     0.034 H 
ATOM     28  H   LIG d   1       3.538   0.706  -7.329  0.00  0.00     0.034 H 
ATOM     29  H   LIG d   1       5.188  -1.589 -11.294  0.00  0.00     0.056 H 
ATOM     30  H   LIG d   1       5.348   0.103 -10.783  0.00  0.00     0.056 H 
ENDROOT
BRANCH   1  31
ATOM     31  C   LIG d   1       5.469  -3.552  -6.747  0.00  0.00    -0.021 A 
ATOM     32  C   LIG d   1       6.014  -4.481  -7.613  0.00  0.00    -0.056 A 
ATOM     33  C   LIG d   1       5.754  -5.827  -7.434  0.00  0.00    -0.058 A 
ATOM     34  H   LIG d   1       6.642  -4.156  -8.430  0.00  0.00     0.062 H 
ATOM     35  C   LIG d   1       4.951  -6.243  -6.389  0.00  0.00    -0.045 A 
ATOM     36  H   LIG d   1       6.180  -6.554  -8.110  0.00  0.00     0.062 H 
ATOM     37  C   LIG d   1       4.407  -5.313  -5.523  0.00  0.00    -0.058 A 
ATOM     38  C   LIG d   1       4.670  -3.967  -5.700  0.00  0.00    -0.056 A 
ATOM     39  H   LIG d   1       3.779  -5.637  -4.706  0.00  0.00     0.062 H 
ATOM     40  H   LIG d   1       4.248  -3.241  -5.021  0.00  0.00     0.062 H 
BRANCH  35  41
ATOM     41  C   LIG d   1       4.668  -7.710  -6.194  0.00  0.00    -0.021 C 
ATOM     42  H   LIG d   1       3.758  -7.830  -5.606  0.00  0.00     0.034 H 
BRANCH  41  43
ATOM     43  C   LIG d   1       4.489  -8.381  -7.557  0.00  0.00    -0.059 C 
ATOM     44  H   LIG d   1       4.676  -7.654  -8.347  0.00  0.00     0.024 H 
ATOM     45  H   LIG d   1       5.192  -9.208  -7.650  0.00  0.00     0.024 H 
ATOM     46  H   LIG d   1       3.470  -8.758  -7.645  0.00  0.00     0.024 H 
ENDBRANCH  41  43
BRANCH  41  47
ATOM     47  C   LIG d   1       5.839  -8.361  -5.456  0.00  0.00    -0.059 C 
ATOM     48  H   LIG d   1       6.731  -8.323  -6.082  0.00  0.00     0.024 H 
ATOM     49  H   LIG d   1       6.026  -7.825  -4.525  0.00  0.00     0.024 H 
ATOM     50  H   LIG d   1       5.597  -9.401  -5.233  0.00  0.00     0.024 H 
ENDBRANCH  41  47
ENDBRANCH  35  41
ENDBRANCH   1  31
BRANCH  20  51
ATOM     51  C   LIG d   1       2.722  -0.425 -11.533  0.00  0.00     0.040 C 
ATOM     52  H   LIG d   1       3.072   0.527 -11.931  0.00  0.00     0.051 H 
ATOM     53  H   LIG d   1       1.673  -0.338 -11.252  0.00  0.00     0.051 H 
BRANCH  51  54
ATOM     54  C   LIG d   1       2.874  -1.495 -12.584  0.00  0.00    -0.030 A 
ATOM     55  C   LIG d   1       2.348  -2.754 -12.369  0.00  0.00    -0.054 A 
ATOM     56  C   LIG d   1       2.486  -3.736 -13.332  0.00  0.00    -0.026 A 
ATOM     57  H   LIG d   1       1.827  -2.972 -11.448  0.00  0.00     0.062 H 
ATOM     58  C   LIG d   1       3.154  -3.456 -14.513  0.00  0.00     0.123 A 
ATOM     59  H   LIG d   1       2.074  -4.720 -13.165  0.00  0.00     0.065 H 
ATOM     60  C   LIG d   1       3.681  -2.195 -14.727  0.00  0.00    -0.026 A 
ATOM     61  F   LIG d   1       3.289  -4.415 -15.455  0.00  0.00    -0.205 F 
ATOM     62  C   LIG d   1       3.541  -1.215 -13.762  0.00  0.00    -0.054 A 
ATOM     63  H   LIG d   1       4.201  -1.976 -15.648  0.00  0.00     0.065 H 
ATOM     64  H   LIG d   1       3.956  -0.231 -13.928  0.00  0.00     0.062 H 
ENDBRANCH  51  54
ENDBRANCH  20  51
TORSDOF 6
ENDMDL
MODEL 6
REMARK VINA RESULT:      -7.2      4.418      9.292
REMARK  6 active torsions:
REMARK  status: ('A' for Active; 'I' for Inactive)
REMARK    1  A    between atoms: C_1  and  C_2 
REMARK    2  A    between atoms: C_2  and  C_3 
REMARK    3  A    between atoms: C_2  and  C_4 
REMARK    4  A    between atoms: C_7  and  C_10 
REMARK    5  A    between atoms: N_29  and  C_32 
REMARK    6  A    between atoms: C_32  and  C_33 
ROOT
ATOM      1  C   LIG d   1       9.200  -0.069  -5.205  0.00  0.00     0.092 C 
ATOM      2  H   LIG d   1       9.906  -0.850  -4.921  0.00  0.00     0.062 H 
ATOM      3  C   LIG d   1       7.908  -0.241  -4.437  0.00  0.00     0.046 A 
ATOM      4  C   LIG d   1       7.289   0.767  -3.785  0.00  0.00    -0.015 A 
ATOM      5  C   LIG d   1       6.093   0.211  -3.185  0.00  0.00     0.003 A 
ATOM      6  C   LIG d   1       5.077   0.770  -2.403  0.00  0.00    -0.052 A 
ATOM      7  C   LIG d   1       4.074  -0.073  -1.994  0.00  0.00    -0.061 A 
ATOM      8  C   LIG d   1       4.058  -1.416  -2.333  0.00  0.00    -0.060 A 
ATOM      9  C   LIG d   1       5.049  -1.996  -3.105  0.00  0.00    -0.038 A 
ATOM     10  C   LIG d   1       6.081  -1.164  -3.534  0.00  0.00     0.047 A 
ATOM     11  N   LIG d   1       7.193  -1.400  -4.291  0.00  0.00    -0.356 N 
ATOM     12  H   LIG d   1       7.439  -2.258  -4.669  0.00  0.00     0.166 HD
ATOM     13  C   LIG d   1       7.794   2.185  -3.721  0.00  0.00     0.002 C 
ATOM     14  C   LIG d   1       8.829   2.394  -4.835  0.00  0.00     0.107 A 
ATOM     15  H   LIG d   1       8.312   2.444  -5.792  0.00  0.00     0.060 H 
ATOM     16  N   LIG d   1       9.750   1.258  -4.854  0.00  0.00    -0.276 N 
ATOM     17  C   LIG d   1      11.049   1.365  -4.570  0.00  0.00     0.234 A 
ATOM     18  O   LIG d   1      11.709   0.348  -4.548  0.00  0.00    -0.274 OA
ATOM     19  C   LIG d   1      11.746   2.654  -4.279  0.00  0.00     0.092 A 
ATOM     20  N   LIG d   1      10.847   3.793  -4.370  0.00  0.00    -0.287 N 
ATOM     21  C   LIG d   1       9.542   3.690  -4.615  0.00  0.00     0.237 A 
ATOM     22  O   LIG d   1       8.892   4.712  -4.667  0.00  0.00    -0.274 OA
ATOM     23  H   LIG d   1       5.082   1.816  -2.134  0.00  0.00     0.062 H 
ATOM     24  H   LIG d   1       3.272   0.324  -1.389  0.00  0.00     0.062 H 
ATOM     25  H   LIG d   1       3.242  -2.032  -1.983  0.00  0.00     0.062 H 
ATOM     26  H   LIG d   1       5.025  -3.044  -3.363  0.00  0.00     0.064 H 
ATOM     27  H   LIG d   1       6.962   2.876  -3.862  0.00  0.00     0.034 H 
ATOM     28  H   LIG d   1       8.257   2.364  -2.751  0.00  0.00     0.034 H 
ATOM     29  H   LIG d   1      12.559   2.787  -4.992  0.00  0.00     0.056 H 
ATOM     30  H   LIG d   1      12.161   2.611  -3.272  0.00  0.00     0.056 H 
ENDROOT
BRANCH   1  31
ATOM     31  C   LIG d   1       8.929  -0.137  -6.686  0.00  0.00    -0.021 A 
ATOM     32  C   LIG d   1       9.910  -0.589  -7.547  0.00  0.00    -0.056 A 
ATOM     33  C   LIG d   1       9.662  -0.651  -8.906  0.00  0.00    -0.058 A 
ATOM     34  H   LIG d   1      10.871  -0.894  -7.160  0.00  0.00     0.062 H 
ATOM     35  C   LIG d   1       8.432  -0.261  -9.403  0.00  0.00    -0.045 A 
ATOM     36  H   LIG d   1      10.429  -1.004  -9.579  0.00  0.00     0.062 H 
ATOM     37  C   LIG d   1       7.450   0.190  -8.540  0.00  0.00    -0.058 A 
ATOM     38  C   LIG d   1       7.698   0.248  -7.181  0.00  0.00    -0.056 A 
ATOM     39  H   LIG d   1       6.489   0.494  -8.927  0.00  0.00     0.062 H 
ATOM     40  H   LIG d   1       6.929   0.597  -6.507  0.00  0.00     0.062 H 
BRANCH  35  41
ATOM     41  C   LIG d   1       8.161  -0.328 -10.883  0.00  0.00    -0.021 C 
ATOM     42  H   LIG d   1       8.399   0.632 -11.340  0.00  0.00     0.034 H 
BRANCH  41  43
ATOM     43  C   LIG d   1       9.028  -1.421 -11.511  0.00  0.00    -0.059 C 
ATOM     44  H   LIG d   1       9.198  -1.191 -12.563  0.00  0.00     0.024 H 
ATOM     45  H   LIG d   1       9.985  -1.470 -10.991  0.00  0.00     0.024 H 
ATOM     46  H   LIG d   1       8.520  -2.382 -11.427  0.00  0.00     0.024 H 
ENDBRANCH  41  43
BRANCH  41  47
ATOM     47  C   LIG d   1       6.685  -0.652 -11.117  0.00  0.00    -0.059 C 
ATOM     48  H   LIG d   1       6.453  -0.549 -12.178  0.00  0.00     0.024 H 
ATOM     49  H   LIG d   1       6.482  -1.675 -10.799  0.00  0.00     0.024 H 
ATOM     50  H   LIG d   1       6.065   0.037 -10.542  0.00  0.00     0.024 H 
ENDBRANCH  41  47
ENDBRANCH  35  41
ENDBRANCH   1  31
BRANCH  20  51
ATOM     51  C   LIG d   1      11.408   5.132  -4.175  0.00  0.00     0.040 C 
ATOM     52  H   LIG d   1      10.893   5.840  -4.823  0.00  0.00     0.051 H 
ATOM     53  H   LIG d   1      12.470   5.120  -4.420  0.00  0.00     0.051 H 
BRANCH  51  54
ATOM     54  C   LIG d   1      11.229   5.547  -2.737  0.00  0.00    -0.030 A 
ATOM     55  C   LIG d   1      12.005   4.969  -1.750  0.00  0.00    -0.054 A 
ATOM     56  C   LIG d   1      11.842   5.349  -0.431  0.00  0.00    -0.026 A 
ATOM     57  H   LIG d   1      12.739   4.221  -2.008  0.00  0.00     0.062 H 
ATOM     58  C   LIG d   1      10.900   6.309  -0.099  0.00  0.00     0.123 A 
ATOM     59  H   LIG d   1      12.448   4.898   0.341  0.00  0.00     0.065 H 
ATOM     60  C   LIG d   1      10.123   6.887  -1.088  0.00  0.00    -0.026 A 
ATOM     61  F   LIG d   1      10.740   6.681   1.190  0.00  0.00    -0.205 F 
ATOM     62  C   LIG d   1      10.289   6.505  -2.406  0.00  0.00    -0.054 A 
ATOM     63  H   LIG d   1       9.389   7.635  -0.831  0.00  0.00     0.065 H 
ATOM     64  H   LIG d   1       9.680   6.953  -3.179  0.00  0.00     0.062 H 
ENDBRANCH  51  54
ENDBRANCH  20  51
TORSDOF 6
ENDMDL
MODEL 7
REMARK VINA RESULT:      -7.0      4.071      8.122
REMARK  6 active torsions:
REMARK  status: ('A' for Active; 'I' for Inactive)
REMARK    1  A    between atoms: C_1  and  C_2 
REMARK    2  A    between atoms: C_2  and  C_3 
REMARK    3  A    between atoms: C_2  and  C_4 
REMARK    4  A    between atoms: C_7  and  C_10 
REMARK    5  A    between atoms: N_29  and  C_32 
REMARK    6  A    between atoms: C_32  and  C_33 
ROOT
ATOM      1  C   LIG d   1       5.944  -0.717  -5.202  0.00  0.00     0.092 C 
ATOM      2  H   LIG d   1       5.295  -0.583  -4.336  0.00  0.00     0.062 H 
ATOM      3  C   LIG d   1       5.164  -0.460  -6.473  0.00  0.00     0.046 A 
ATOM      4  C   LIG d   1       5.603   0.341  -7.468  0.00  0.00    -0.015 A 
ATOM      5  C   LIG d   1       4.589   0.326  -8.502  0.00  0.00     0.003 A 
ATOM      6  C   LIG d   1       4.495   0.957  -9.747  0.00  0.00    -0.052 A 
ATOM      7  C   LIG d   1       3.361   0.712 -10.482  0.00  0.00    -0.061 A 
ATOM      8  C   LIG d   1       2.351  -0.118 -10.023  0.00  0.00    -0.060 A 
ATOM      9  C   LIG d   1       2.418  -0.755  -8.796  0.00  0.00    -0.038 A 
ATOM     10  C   LIG d   1       3.558  -0.525  -8.027  0.00  0.00     0.047 A 
ATOM     11  N   LIG d   1       3.940  -0.981  -6.799  0.00  0.00    -0.356 N 
ATOM     12  H   LIG d   1       3.424  -1.584  -6.242  0.00  0.00     0.166 HD
ATOM     13  C   LIG d   1       6.909   1.092  -7.451  0.00  0.00     0.002 C 
ATOM     14  C   LIG d   1       7.822   0.477  -6.381  0.00  0.00     0.107 A 
ATOM     15  H   LIG d   1       8.187  -0.485  -6.740  0.00  0.00     0.060 H 
ATOM     16  N   LIG d   1       7.051   0.262  -5.157  0.00  0.00    -0.276 N 
ATOM     17  C   LIG d   1       7.299   0.906  -4.015  0.00  0.00     0.234 A 
ATOM     18  O   LIG d   1       6.555   0.705  -3.079  0.00  0.00    -0.274 OA
ATOM     19  C   LIG d   1       8.432   1.859  -3.812  0.00  0.00     0.092 A 
ATOM     20  N   LIG d   1       9.261   1.983  -5.000  0.00  0.00    -0.287 N 
ATOM     21  C   LIG d   1       8.997   1.373  -6.154  0.00  0.00     0.237 A 
ATOM     22  O   LIG d   1       9.761   1.552  -7.078  0.00  0.00    -0.274 OA
ATOM     23  H   LIG d   1       5.277   1.606 -10.112  0.00  0.00     0.062 H 
ATOM     24  H   LIG d   1       3.253   1.182 -11.448  0.00  0.00     0.062 H 
ATOM     25  H   LIG d   1       1.482  -0.274 -10.645  0.00  0.00     0.062 H 
ATOM     26  H   LIG d   1       1.625  -1.401  -8.450  0.00  0.00     0.064 H 
ATOM     27  H   LIG d   1       7.387   1.014  -8.428  0.00  0.00     0.034 H 
ATOM     28  H   LIG d   1       6.725   2.141  -7.217  0.00  0.00     0.034 H 
ATOM     29  H   LIG d   1       9.049   1.505  -2.986  0.00  0.00     0.056 H 
ATOM     30  H   LIG d   1       8.028   2.839  -3.558  0.00  0.00     0.056 H 
ENDROOT
BRANCH   1  31
ATOM     31  C   LIG d   1       6.498  -2.118  -5.215  0.00  0.00    -0.021 A 
ATOM     32  C   LIG d   1       7.296  -2.554  -4.175  0.00  0.00    -0.056 A 
ATOM     33  C   LIG d   1       7.806  -3.840  -4.187  0.00  0.00    -0.058 A 
ATOM     34  H   LIG d   1       7.522  -1.892  -3.352  0.00  0.00     0.062 H 
ATOM     35  C   LIG d   1       7.516  -4.688  -5.240  0.00  0.00    -0.045 A 
ATOM     36  H   LIG d   1       8.429  -4.181  -3.374  0.00  0.00     0.062 H 
ATOM     37  C   LIG d   1       6.717  -4.251  -6.280  0.00  0.00    -0.058 A 
ATOM     38  C   LIG d   1       6.206  -2.967  -6.266  0.00  0.00    -0.056 A 
ATOM     39  H   LIG d   1       6.491  -4.913  -7.103  0.00  0.00     0.062 H 
ATOM     40  H   LIG d   1       5.579  -2.627  -7.077  0.00  0.00     0.062 H 
BRANCH  35  41
ATOM     41  C   LIG d   1       8.072  -6.089  -5.253  0.00  0.00    -0.021 C 
ATOM     42  H   LIG d   1       8.711  -6.218  -6.127  0.00  0.00     0.034 H 
BRANCH  41  43
ATOM     43  C   LIG d   1       8.890  -6.325  -3.983  0.00  0.00    -0.059 C 
ATOM     44  H   LIG d   1       8.229  -6.657  -3.182  0.00  0.00     0.024 H 
ATOM     45  H   LIG d   1       9.642  -7.090  -4.172  0.00  0.00     0.024 H 
ATOM     46  H   LIG d   1       9.380  -5.398  -3.688  0.00  0.00     0.024 H 
ENDBRANCH  41  43
BRANCH  41  47
ATOM     47  C   LIG d   1       6.920  -7.093  -5.312  0.00  0.00    -0.059 C 
ATOM     48  H   LIG d   1       5.998  -6.575  -5.576  0.00  0.00     0.024 H 
ATOM     49  H   LIG d   1       7.138  -7.853  -6.063  0.00  0.00     0.024 H 
ATOM     50  H   LIG d   1       6.802  -7.570  -4.338  0.00  0.00     0.024 H 
ENDBRANCH  41  47
ENDBRANCH  35  41
ENDBRANCH   1  31
BRANCH  20  51
ATOM     51  C   LIG d   1      10.451   2.833  -4.925  0.00  0.00     0.040 C 
ATOM     52  H   LIG d   1      10.763   3.112  -5.931  0.00  0.00     0.051 H 
ATOM     53  H   LIG d   1      11.256   2.288  -4.434  0.00  0.00     0.051 H 
BRANCH  51  54
ATOM     54  C   LIG d   1      10.131   4.076  -4.136  0.00  0.00    -0.030 A 
ATOM     55  C   LIG d   1      10.506   4.168  -2.809  0.00  0.00    -0.054 A 
ATOM     56  C   LIG d   1      10.213   5.308  -2.084  0.00  0.00    -0.026 A 
ATOM     57  H   LIG d   1      11.027   3.348  -2.337  0.00  0.00     0.062 H 
ATOM     58  C   LIG d   1       9.543   6.358  -2.689  0.00  0.00     0.123 A 
ATOM     59  H   LIG d   1      10.506   5.380  -1.047  0.00  0.00     0.065 H 
ATOM     60  C   LIG d   1       9.168   6.266  -4.019  0.00  0.00    -0.026 A 
ATOM     61  F   LIG d   1       9.257   7.474  -1.982  0.00  0.00    -0.205 F 
ATOM     62  C   LIG d   1       9.462   5.125  -4.740  0.00  0.00    -0.054 A 
ATOM     63  H   LIG d   1       8.646   7.085  -4.491  0.00  0.00     0.065 H 
ATOM     64  H   LIG d   1       9.166   5.050  -5.777  0.00  0.00     0.062 H 
ENDBRANCH  51  54
ENDBRANCH  20  51
TORSDOF 6
ENDMDL
MODEL 8
REMARK VINA RESULT:      -7.0      4.608      9.204
REMARK  6 active torsions:
REMARK  status: ('A' for Active; 'I' for Inactive)
REMARK    1  A    between atoms: C_1  and  C_2 
REMARK    2  A    between atoms: C_2  and  C_3 
REMARK    3  A    between atoms: C_2  and  C_4 
REMARK    4  A    between atoms: C_7  and  C_10 
REMARK    5  A    between atoms: N_29  and  C_32 
REMARK    6  A    between atoms: C_32  and  C_33 
ROOT
ATOM      1  C   LIG d   1       3.800  -5.188  -8.109  0.00  0.00     0.092 C 
ATOM      2  H   LIG d   1       3.068  -5.846  -7.640  0.00  0.00     0.062 H 
ATOM      3  C   LIG d   1       3.095  -4.188  -8.998  0.00  0.00     0.046 A 
ATOM      4  C   LIG d   1       3.341  -2.860  -8.967  0.00  0.00    -0.015 A 
ATOM      5  C   LIG d   1       2.481  -2.247  -9.959  0.00  0.00     0.003 A 
ATOM      6  C   LIG d   1       2.301  -0.921 -10.368  0.00  0.00    -0.052 A 
ATOM      7  C   LIG d   1       1.375  -0.698 -11.358  0.00  0.00    -0.061 A 
ATOM      8  C   LIG d   1       0.648  -1.729 -11.930  0.00  0.00    -0.060 A 
ATOM      9  C   LIG d   1       0.806  -3.049 -11.545  0.00  0.00    -0.038 A 
ATOM     10  C   LIG d   1       1.739  -3.305 -10.542  0.00  0.00     0.047 A 
ATOM     11  N   LIG d   1       2.137  -4.463  -9.937  0.00  0.00    -0.356 N 
ATOM     12  H   LIG d   1       1.793  -5.346 -10.141  0.00  0.00     0.166 HD
ATOM     13  C   LIG d   1       4.332  -2.192  -8.048  0.00  0.00     0.002 C 
ATOM     14  C   LIG d   1       5.295  -3.255  -7.500  0.00  0.00     0.107 A 
ATOM     15  H   LIG d   1       5.978  -3.554  -8.294  0.00  0.00     0.060 H 
ATOM     16  N   LIG d   1       4.527  -4.424  -7.073  0.00  0.00    -0.276 N 
ATOM     17  C   LIG d   1       4.453  -4.825  -5.803  0.00  0.00     0.234 A 
ATOM     18  O   LIG d   1       3.733  -5.766  -5.547  0.00  0.00    -0.274 OA
ATOM     19  C   LIG d   1       5.200  -4.193  -4.673  0.00  0.00     0.092 A 
ATOM     20  N   LIG d   1       6.047  -3.100  -5.122  0.00  0.00    -0.287 N 
ATOM     21  C   LIG d   1       6.096  -2.670  -6.382  0.00  0.00     0.237 A 
ATOM     22  O   LIG d   1       6.842  -1.749  -6.638  0.00  0.00    -0.274 OA
ATOM     23  H   LIG d   1       2.864  -0.112  -9.927  0.00  0.00     0.062 H 
ATOM     24  H   LIG d   1       1.210   0.313 -11.699  0.00  0.00     0.062 H 
ATOM     25  H   LIG d   1      -0.067  -1.493 -12.705  0.00  0.00     0.062 H 
ATOM     26  H   LIG d   1       0.233  -3.842 -12.000  0.00  0.00     0.064 H 
ATOM     27  H   LIG d   1       4.895  -1.440  -8.603  0.00  0.00     0.034 H 
ATOM     28  H   LIG d   1       3.801  -1.717  -7.223  0.00  0.00     0.034 H 
ATOM     29  H   LIG d   1       5.821  -4.948  -4.191  0.00  0.00     0.056 H 
ATOM     30  H   LIG d   1       4.483  -3.809  -3.947  0.00  0.00     0.056 H 
ENDROOT
BRANCH   1  31
ATOM     31  C   LIG d   1       4.772  -6.002  -8.924  0.00  0.00    -0.021 A 
ATOM     32  C   LIG d   1       5.297  -5.483 -10.092  0.00  0.00    -0.056 A 
ATOM     33  C   LIG d   1       6.188  -6.229 -10.840  0.00  0.00    -0.058 A 
ATOM     34  H   LIG d   1       5.010  -4.495 -10.422  0.00  0.00     0.062 H 
ATOM     35  C   LIG d   1       6.556  -7.494 -10.419  0.00  0.00    -0.045 A 
ATOM     36  H   LIG d   1       6.598  -5.824 -11.754  0.00  0.00     0.062 H 
ATOM     37  C   LIG d   1       6.031  -8.011  -9.249  0.00  0.00    -0.058 A 
ATOM     38  C   LIG d   1       5.142  -7.264  -8.500  0.00  0.00    -0.056 A 
ATOM     39  H   LIG d   1       6.318  -8.999  -8.919  0.00  0.00     0.062 H 
ATOM     40  H   LIG d   1       4.736  -7.667  -7.584  0.00  0.00     0.062 H 
BRANCH  35  41
ATOM     41  C   LIG d   1       7.527  -8.307 -11.234  0.00  0.00    -0.021 C 
ATOM     42  H   LIG d   1       7.627  -9.300 -10.796  0.00  0.00     0.034 H 
BRANCH  41  43
ATOM     43  C   LIG d   1       7.011  -8.431 -12.669  0.00  0.00    -0.059 C 
ATOM     44  H   LIG d   1       6.661  -7.458 -13.014  0.00  0.00     0.024 H 
ATOM     45  H   LIG d   1       7.816  -8.777 -13.316  0.00  0.00     0.024 H 
ATOM     46  H   LIG d   1       6.188  -9.144 -12.699  0.00  0.00     0.024 H 
ENDBRANCH  41  43
BRANCH  41  47
ATOM     47  C   LIG d   1       8.891  -7.614 -11.242  0.00  0.00    -0.059 C 
ATOM     48  H   LIG d   1       8.806  -6.638 -10.765  0.00  0.00     0.024 H 
ATOM     49  H   LIG d   1       9.612  -8.224 -10.696  0.00  0.00     0.024 H 
ATOM     50  H   LIG d   1       9.229  -7.487 -12.271  0.00  0.00     0.024 H 
ENDBRANCH  41  47
ENDBRANCH  35  41
ENDBRANCH   1  31
BRANCH  20  51
ATOM     51  C   LIG d   1       6.891  -2.430  -4.131  0.00  0.00     0.040 C 
ATOM     52  H   LIG d   1       7.742  -1.968  -4.631  0.00  0.00     0.051 H 
ATOM     53  H   LIG d   1       7.248  -3.159  -3.405  0.00  0.00     0.051 H 
BRANCH  51  54
ATOM     54  C   LIG d   1       6.089  -1.368  -3.424  0.00  0.00    -0.030 A 
ATOM     55  C   LIG d   1       5.026  -1.727  -2.617  0.00  0.00    -0.054 A 
ATOM     56  C   LIG d   1       4.290  -0.754  -1.968  0.00  0.00    -0.026 A 
ATOM     57  H   LIG d   1       4.771  -2.769  -2.492  0.00  0.00     0.062 H 
ATOM     58  C   LIG d   1       4.617   0.582  -2.128  0.00  0.00     0.123 A 
ATOM     59  H   LIG d   1       3.460  -1.035  -1.337  0.00  0.00     0.065 H 
ATOM     60  C   LIG d   1       5.681   0.941  -2.937  0.00  0.00    -0.026 A 
ATOM     61  F   LIG d   1       3.898   1.534  -1.493  0.00  0.00    -0.205 F 
ATOM     62  C   LIG d   1       6.416  -0.034  -3.584  0.00  0.00    -0.054 A 
ATOM     63  H   LIG d   1       5.937   1.983  -3.062  0.00  0.00     0.065 H 
ATOM     64  H   LIG d   1       7.244   0.247  -4.219  0.00  0.00     0.062 H 
ENDBRANCH  51  54
ENDBRANCH  20  51
TORSDOF 6
ENDMDL
MODEL 9
REMARK VINA RESULT:      -6.8      5.184      8.618
REMARK  6 active torsions:
REMARK  status: ('A' for Active; 'I' for Inactive)
REMARK    1  A    between atoms: C_1  and  C_2 
REMARK    2  A    between atoms: C_2  and  C_3 
REMARK    3  A    between atoms: C_2  and  C_4 
REMARK    4  A    between atoms: C_7  and  C_10 
REMARK    5  A    between atoms: N_29  and  C_32 
REMARK    6  A    between atoms: C_32  and  C_33 
ROOT
ATOM      1  C   LIG d   1       5.229  -3.054  -7.666  0.00  0.00     0.092 C 
ATOM      2  H   LIG d   1       6.151  -2.564  -7.979  0.00  0.00     0.062 H 
ATOM      3  C   LIG d   1       4.140  -2.797  -8.683  0.00  0.00     0.046 A 
ATOM      4  C   LIG d   1       3.355  -3.770  -9.197  0.00  0.00    -0.015 A 
ATOM      5  C   LIG d   1       2.442  -3.131 -10.123  0.00  0.00     0.003 A 
ATOM      6  C   LIG d   1       1.418  -3.626 -10.937  0.00  0.00    -0.052 A 
ATOM      7  C   LIG d   1       0.742  -2.712 -11.708  0.00  0.00    -0.061 A 
ATOM      8  C   LIG d   1       1.052  -1.362 -11.689  0.00  0.00    -0.060 A 
ATOM      9  C   LIG d   1       2.059  -0.845 -10.893  0.00  0.00    -0.038 A 
ATOM     10  C   LIG d   1       2.762  -1.749 -10.100  0.00  0.00     0.047 A 
ATOM     11  N   LIG d   1       3.793  -1.586  -9.219  0.00  0.00    -0.356 N 
ATOM     12  H   LIG d   1       4.214  -0.739  -9.005  0.00  0.00     0.166 HD
ATOM     13  C   LIG d   1       3.458  -5.231  -8.844  0.00  0.00     0.002 C 
ATOM     14  C   LIG d   1       4.249  -5.371  -7.535  0.00  0.00     0.107 A 
ATOM     15  H   LIG d   1       3.622  -5.042  -6.708  0.00  0.00     0.060 H 
ATOM     16  N   LIG d   1       5.435  -4.517  -7.598  0.00  0.00    -0.276 N 
ATOM     17  C   LIG d   1       6.680  -4.996  -7.599  0.00  0.00     0.234 A 
ATOM     18  O   LIG d   1       7.590  -4.204  -7.723  0.00  0.00    -0.274 OA
ATOM     19  C   LIG d   1       7.029  -6.441  -7.455  0.00  0.00     0.092 A 
ATOM     20  N   LIG d   1       5.849  -7.273  -7.283  0.00  0.00    -0.287 N 
ATOM     21  C   LIG d   1       4.602  -6.807  -7.320  0.00  0.00     0.237 A 
ATOM     22  O   LIG d   1       3.696  -7.598  -7.163  0.00  0.00    -0.274 OA
ATOM     23  H   LIG d   1       1.170  -4.677 -10.958  0.00  0.00     0.062 H 
ATOM     24  H   LIG d   1      -0.055  -3.057 -12.349  0.00  0.00     0.062 H 
ATOM     25  H   LIG d   1       0.486  -0.689 -12.317  0.00  0.00     0.062 H 
ATOM     26  H   LIG d   1       2.290   0.210 -10.887  0.00  0.00     0.064 H 
ATOM     27  H   LIG d   1       2.457  -5.645  -8.712  0.00  0.00     0.034 H 
ATOM     28  H   LIG d   1       3.972  -5.765  -9.643  0.00  0.00     0.034 H 
ATOM     29  H   LIG d   1       7.679  -6.566  -6.589  0.00  0.00     0.056 H 
ATOM     30  H   LIG d   1       7.563  -6.766  -8.349  0.00  0.00     0.056 H 
ENDROOT
BRANCH   1  31
ATOM     31  C   LIG d   1       4.803  -2.533  -6.317  0.00  0.00    -0.021 A 
ATOM     32  C   LIG d   1       4.313  -1.247  -6.198  0.00  0.00    -0.056 A 
ATOM     33  C   LIG d   1       3.924  -0.768  -4.960  0.00  0.00    -0.058 A 
ATOM     34  H   LIG d   1       4.235  -0.615  -7.070  0.00  0.00     0.062 H 
ATOM     35  C   LIG d   1       4.024  -1.576  -3.843  0.00  0.00    -0.045 A 
ATOM     36  H   LIG d   1       3.541   0.238  -4.867  0.00  0.00     0.062 H 
ATOM     37  C   LIG d   1       4.513  -2.863  -3.964  0.00  0.00    -0.058 A 
ATOM     38  C   LIG d   1       4.899  -3.343  -5.201  0.00  0.00    -0.056 A 
ATOM     39  H   LIG d   1       4.592  -3.495  -3.092  0.00  0.00     0.062 H 
ATOM     40  H   LIG d   1       5.279  -4.350  -5.296  0.00  0.00     0.062 H 
BRANCH  35  41
ATOM     41  C   LIG d   1       3.599  -1.054  -2.495  0.00  0.00    -0.021 C 
ATOM     42  H   LIG d   1       2.712  -1.591  -2.161  0.00  0.00     0.034 H 
BRANCH  41  43
ATOM     43  C   LIG d   1       4.732  -1.261  -1.489  0.00  0.00    -0.059 C 
ATOM     44  H   LIG d   1       4.904  -0.335  -0.940  0.00  0.00     0.024 H 
ATOM     45  H   LIG d   1       4.458  -2.051  -0.790  0.00  0.00     0.024 H 
ATOM     46  H   LIG d   1       5.642  -1.544  -2.018  0.00  0.00     0.024 H 
ENDBRANCH  41  43
BRANCH  41  47
ATOM     47  C   LIG d   1       3.280   0.438  -2.604  0.00  0.00    -0.059 C 
ATOM     48  H   LIG d   1       3.346   0.897  -1.617  0.00  0.00     0.024 H 
ATOM     49  H   LIG d   1       3.995   0.915  -3.275  0.00  0.00     0.024 H 
ATOM     50  H   LIG d   1       2.271   0.568  -2.998  0.00  0.00     0.024 H 
ENDBRANCH  41  47
ENDBRANCH  35  41
ENDBRANCH   1  31
BRANCH  20  51
ATOM     51  C   LIG d   1       6.043  -8.708  -7.061  0.00  0.00     0.040 C 
ATOM     52  H   LIG d   1       6.889  -9.056  -7.654  0.00  0.00     0.051 H 
ATOM     53  H   LIG d   1       5.144  -9.246  -7.360  0.00  0.00     0.051 H 
BRANCH  51  54
ATOM     54  C   LIG d   1       6.317  -8.958  -5.601  0.00  0.00    -0.030 A 
ATOM     55  C   LIG d   1       7.512  -8.546  -5.041  0.00  0.00    -0.054 A 
ATOM     56  C   LIG d   1       7.765  -8.775  -3.702  0.00  0.00    -0.026 A 
ATOM     57  H   LIG d   1       8.249  -8.045  -5.651  0.00  0.00     0.062 H 
ATOM     58  C   LIG d   1       6.819  -9.419  -2.921  0.00  0.00     0.123 A 
ATOM     59  H   LIG d   1       8.697  -8.453  -3.265  0.00  0.00     0.065 H 
ATOM     60  C   LIG d   1       5.623  -9.832  -3.482  0.00  0.00    -0.026 A 
ATOM     61  F   LIG d   1       7.065  -9.643  -1.611  0.00  0.00    -0.205 F 
ATOM     62  C   LIG d   1       5.374  -9.601  -4.822  0.00  0.00    -0.054 A 
ATOM     63  H   LIG d   1       4.885 -10.333  -2.873  0.00  0.00     0.065 H 
ATOM     64  H   LIG d   1       4.441  -9.927  -5.261  0.00  0.00     0.062 H 
ENDBRANCH  51  54
ENDBRANCH  20  51
TORSDOF 6
ENDMDL
MODEL 10
REMARK VINA RESULT:      -6.8      4.420      7.060
REMARK  6 active torsions:
REMARK  status: ('A' for Active; 'I' for Inactive)
REMARK    1  A    between atoms: C_1  and  C_2 
REMARK    2  A    between atoms: C_2  and  C_3 
REMARK    3  A    between atoms: C_2  and  C_4 
REMARK    4  A    between atoms: C_7  and  C_10 
REMARK    5  A    between atoms: N_29  and  C_32 
REMARK    6  A    between atoms: C_32  and  C_33 
ROOT
ATOM      1  C   LIG d   1       5.595  -1.024  -4.970  0.00  0.00     0.092 C 
ATOM      2  H   LIG d   1       4.985  -1.008  -4.066  0.00  0.00     0.062 H 
ATOM      3  C   LIG d   1       6.873  -0.249  -4.742  0.00  0.00     0.046 A 
ATOM      4  C   LIG d   1       8.099  -0.722  -5.058  0.00  0.00    -0.015 A 
ATOM      5  C   LIG d   1       9.054   0.305  -4.696  0.00  0.00     0.003 A 
ATOM      6  C   LIG d   1      10.448   0.377  -4.789  0.00  0.00    -0.052 A 
ATOM      7  C   LIG d   1      11.041   1.530  -4.336  0.00  0.00    -0.061 A 
ATOM      8  C   LIG d   1      10.304   2.578  -3.809  0.00  0.00    -0.060 A 
ATOM      9  C   LIG d   1       8.925   2.534  -3.705  0.00  0.00    -0.038 A 
ATOM     10  C   LIG d   1       8.296   1.375  -4.157  0.00  0.00     0.047 A 
ATOM     11  N   LIG d   1       6.982   1.005  -4.201  0.00  0.00    -0.356 N 
ATOM     12  H   LIG d   1       6.239   1.548  -3.896  0.00  0.00     0.166 HD
ATOM     13  C   LIG d   1       8.365  -2.075  -5.665  0.00  0.00     0.002 C 
ATOM     14  C   LIG d   1       7.058  -2.619  -6.259  0.00  0.00     0.107 A 
ATOM     15  H   LIG d   1       6.828  -2.068  -7.170  0.00  0.00     0.060 H 
ATOM     16  N   LIG d   1       5.973  -2.415  -5.298  0.00  0.00    -0.276 N 
ATOM     17  C   LIG d   1       5.320  -3.419  -4.711  0.00  0.00     0.234 A 
ATOM     18  O   LIG d   1       4.484  -3.139  -3.878  0.00  0.00    -0.274 OA
ATOM     19  C   LIG d   1       5.548  -4.865  -5.010  0.00  0.00     0.092 A 
ATOM     20  N   LIG d   1       6.550  -5.056  -6.046  0.00  0.00    -0.287 N 
ATOM     21  C   LIG d   1       7.233  -4.062  -6.609  0.00  0.00     0.237 A 
ATOM     22  O   LIG d   1       8.045  -4.344  -7.464  0.00  0.00    -0.274 OA
ATOM     23  H   LIG d   1      11.030  -0.435  -5.199  0.00  0.00     0.062 H 
ATOM     24  H   LIG d   1      12.116   1.622  -4.393  0.00  0.00     0.062 H 
ATOM     25  H   LIG d   1      10.825   3.461  -3.468  0.00  0.00     0.062 H 
ATOM     26  H   LIG d   1       8.362   3.358  -3.293  0.00  0.00     0.064 H 
ATOM     27  H   LIG d   1       9.112  -1.980  -6.454  0.00  0.00     0.034 H 
ATOM     28  H   LIG d   1       8.730  -2.756  -4.896  0.00  0.00     0.034 H 
ATOM     29  H   LIG d   1       4.610  -5.312  -5.338  0.00  0.00     0.056 H 
ATOM     30  H   LIG d   1       5.880  -5.366  -4.100  0.00  0.00     0.056 H 
ENDROOT
BRANCH   1  31
ATOM     31  C   LIG d   1       4.826  -0.418  -6.117  0.00  0.00    -0.021 A 
ATOM     32  C   LIG d   1       5.490  -0.033  -7.266  0.00  0.00    -0.056 A 
ATOM     33  C   LIG d   1       4.786   0.524  -8.317  0.00  0.00    -0.058 A 
ATOM     34  H   LIG d   1       6.559  -0.167  -7.343  0.00  0.00     0.062 H 
ATOM     35  C   LIG d   1       3.417   0.695  -8.219  0.00  0.00    -0.045 A 
ATOM     36  H   LIG d   1       5.305   0.825  -9.215  0.00  0.00     0.062 H 
ATOM     37  C   LIG d   1       2.754   0.308  -7.069  0.00  0.00    -0.058 A 
ATOM     38  C   LIG d   1       3.458  -0.251  -6.020  0.00  0.00    -0.056 A 
ATOM     39  H   LIG d   1       1.685   0.442  -6.992  0.00  0.00     0.062 H 
ATOM     40  H   LIG d   1       2.939  -0.556  -5.123  0.00  0.00     0.062 H 
BRANCH  35  41
ATOM     41  C   LIG d   1       2.650   1.302  -9.365  0.00  0.00    -0.021 C 
ATOM     42  H   LIG d   1       1.770   1.816  -8.980  0.00  0.00     0.034 H 
BRANCH  41  43
ATOM     43  C   LIG d   1       3.542   2.299 -10.105  0.00  0.00    -0.059 C 
ATOM     44  H   LIG d   1       3.421   2.167 -11.180  0.00  0.00     0.024 H 
ATOM     45  H   LIG d   1       3.258   3.315  -9.830  0.00  0.00     0.024 H 
ATOM     46  H   LIG d   1       4.584   2.127  -9.833  0.00  0.00     0.024 H 
ENDBRANCH  41  43
BRANCH  41  47
ATOM     47  C   LIG d   1       2.213   0.196 -10.328  0.00  0.00    -0.059 C 
ATOM     48  H   LIG d   1       1.129   0.092 -10.296  0.00  0.00     0.024 H 
ATOM     49  H   LIG d   1       2.524   0.454 -11.341  0.00  0.00     0.024 H 
ATOM     50  H   LIG d   1       2.678  -0.746 -10.036  0.00  0.00     0.024 H 
ENDBRANCH  41  47
ENDBRANCH  35  41
ENDBRANCH   1  31
BRANCH  20  51
ATOM     51  C   LIG d   1       6.829  -6.424  -6.491  0.00  0.00     0.040 C 
ATOM     52  H   LIG d   1       7.611  -6.407  -7.250  0.00  0.00     0.051 H 
ATOM     53  H   LIG d   1       5.924  -6.860  -6.913  0.00  0.00     0.051 H 
BRANCH  51  54
ATOM     54  C   LIG d   1       7.286  -7.251  -5.317  0.00  0.00    -0.030 A 
ATOM     55  C   LIG d   1       6.535  -8.333  -4.901  0.00  0.00    -0.054 A 
ATOM     56  C   LIG d   1       6.953  -9.093  -3.825  0.00  0.00    -0.026 A 
ATOM     57  H   LIG d   1       5.620  -8.587  -5.417  0.00  0.00     0.062 H 
ATOM     58  C   LIG d   1       8.126  -8.768  -3.163  0.00  0.00     0.123 A 
ATOM     59  H   LIG d   1       6.367  -9.939  -3.499  0.00  0.00     0.065 H 
ATOM     60  C   LIG d   1       8.877  -7.683  -3.581  0.00  0.00    -0.026 A 
ATOM     61  F   LIG d   1       8.536  -9.510  -2.111  0.00  0.00    -0.205 F 
ATOM     62  C   LIG d   1       8.456  -6.925  -4.657  0.00  0.00    -0.054 A 
ATOM     63  H   LIG d   1       9.792  -7.429  -3.066  0.00  0.00     0.065 H 
ATOM     64  H   LIG d   1       9.041  -6.076  -4.981  0.00  0.00     0.062 H 
ENDBRANCH  51  54
ENDBRANCH  20  51
TORSDOF 6
ENDMDL
