MODEL 1
REMARK VINA RESULT:      -5.6      0.000      0.000
REMARK  16 active torsions:
REMARK  status: ('A' for Active; 'I' for Inactive)
REMARK    1  A    between atoms: C_1  and  C_2 
REMARK    2  A    between atoms: C_2  and  C_3 
REMARK    3  A    between atoms: N_6  and  S_25 
REMARK    4  A    between atoms: C_9  and  C_11 
REMARK    5  A    between atoms: C_11  and  C_12 
REMARK       I    between atoms: C_12  and  N_14 
REMARK    6  A    between atoms: N_14  and  C_15 
REMARK       I    between atoms: N_14  and  C_17 
REMARK    7  A    between atoms: C_15  and  C_16 
REMARK       I    between atoms: C_17  and  N_19 
REMARK    8  A    between atoms: N_19  and  C_20 
REMARK    9  A    between atoms: C_20  and  C_21 
REMARK   10  A    between atoms: C_21  and  C_22 
REMARK   11  A    between atoms: C_22  and  N_72 
REMARK   12  A    between atoms: C_23  and  N_72 
REMARK   13  A    between atoms: C_24  and  N_72 
REMARK   14  A    between atoms: S_25  and  C_28 
REMARK   15  A    between atoms: C_29  and  C_34 
REMARK   16  A    between atoms: C_32  and  C_33 
ROOT
ATOM      1  C   LIG d   1       8.421  -3.016  -4.292  0.00  0.00    -0.024 C 
ATOM      2  H   LIG d   1       9.226  -3.112  -3.563  0.00  0.00     0.032 H 
ATOM      3  C   LIG d   1       7.375  -2.024  -3.770  0.00  0.00     0.024 C 
ATOM      4  N   LIG d   1       6.237  -2.005  -4.699  0.00  0.00    -0.176 N 
ATOM      5  C   LIG d   1       5.586  -3.275  -5.046  0.00  0.00     0.021 C 
ATOM      6  C   LIG d   1       6.651  -4.252  -5.554  0.00  0.00    -0.035 C 
ATOM      7  C   LIG d   1       7.761  -4.380  -4.507  0.00  0.00    -0.028 C 
ATOM      8  H   LIG d   1       7.335  -4.730  -3.567  0.00  0.00     0.031 H 
ATOM      9  H   LIG d   1       7.036  -2.338  -2.783  0.00  0.00     0.045 H 
ATOM     10  H   LIG d   1       7.815  -1.029  -3.709  0.00  0.00     0.045 H 
ATOM     11  H   LIG d   1       5.101  -3.690  -4.163  0.00  0.00     0.044 H 
ATOM     12  H   LIG d   1       4.845  -3.105  -5.827  0.00  0.00     0.044 H 
ATOM     13  H   LIG d   1       7.074  -3.878  -6.487  0.00  0.00     0.028 H 
ATOM     14  H   LIG d   1       6.198  -5.228  -5.724  0.00  0.00     0.028 H 
ENDROOT
BRANCH   7  15
ATOM     15  C   LIG d   1       8.809  -5.381  -4.995  0.00  0.00     0.028 C 
ATOM     16  H   LIG d   1       9.807  -4.976  -4.825  0.00  0.00     0.036 H 
ATOM     17  H   LIG d   1       8.669  -5.564  -6.060  0.00  0.00     0.036 H 
BRANCH  15  18
ATOM     18  C   LIG d   1       8.658  -6.676  -4.239  0.00  0.00     0.223 C 
ATOM     19  O   LIG d   1       7.890  -7.526  -4.638  0.00  0.00    -0.275 OA
ATOM     20  N   LIG d   1       9.375  -6.890  -3.118  0.00  0.00    -0.226 N 
ATOM     21  C   LIG d   1       9.239  -8.047  -2.441  0.00  0.00     0.308 C 
ATOM     22  O   LIG d   1       8.470  -8.899  -2.842  0.00  0.00    -0.252 OA
ATOM     23  N   LIG d   1       9.961  -8.264  -1.324  0.00  0.00    -0.299 N 
ATOM     24  H   LIG d   1      10.575  -7.583  -1.003  0.00  0.00     0.150 HD
BRANCH  20  25
ATOM     25  C   LIG d   1      10.302  -5.863  -2.635  0.00  0.00     0.021 C 
ATOM     26  H   LIG d   1      11.208  -6.339  -2.260  0.00  0.00     0.047 H 
ATOM     27  H   LIG d   1      10.557  -5.189  -3.453  0.00  0.00     0.047 H 
BRANCH  25  28
ATOM     28  C   LIG d   1       9.640  -5.068  -1.508  0.00  0.00    -0.049 C 
ATOM     29  H   LIG d   1       9.019  -4.281  -1.935  0.00  0.00     0.025 H 
ATOM     30  H   LIG d   1       9.020  -5.734  -0.909  0.00  0.00     0.025 H 
ATOM     31  H   LIG d   1      10.409  -4.622  -0.876  0.00  0.00     0.025 H 
ENDBRANCH  25  28
ENDBRANCH  20  25
BRANCH  23  32
ATOM     32  C   LIG d   1       9.819  -9.524  -0.591  0.00  0.00     0.018 C 
ATOM     33  H   LIG d   1       8.768  -9.689  -0.354  0.00  0.00     0.046 H 
ATOM     34  H   LIG d   1      10.185 -10.345  -1.208  0.00  0.00     0.046 H 
BRANCH  32  35
ATOM     35  C   LIG d   1      10.630  -9.457   0.703  0.00  0.00     0.003 C 
ATOM     36  H   LIG d   1       9.952  -9.475   1.558  0.00  0.00     0.033 H 
ATOM     37  H   LIG d   1      11.302 -10.312   0.756  0.00  0.00     0.033 H 
BRANCH  35  38
ATOM     38  C   LIG d   1      11.448  -8.163   0.727  0.00  0.00    -0.031 C 
ATOM     39  H   LIG d   1      12.379  -8.313   0.181  0.00  0.00     0.082 H 
ATOM     40  H   LIG d   1      10.875  -7.363   0.258  0.00  0.00     0.082 H 
BRANCH  38  41
ATOM     41  N   LIG d   1      11.723  -7.800   2.134  0.00  0.00     0.231 N 
ATOM     42  H   LIG d   1      11.460  -6.819   2.282  0.00  0.00     0.203 HD
BRANCH  41  43
ATOM     43  C   LIG d   1      10.927  -8.654   3.041  0.00  0.00    -0.043 C 
ATOM     44  H   LIG d   1      10.542  -9.523   2.507  0.00  0.00     0.078 H 
ATOM     45  H   LIG d   1      11.561  -8.985   3.863  0.00  0.00     0.078 H 
ATOM     46  H   LIG d   1      10.095  -8.071   3.435  0.00  0.00     0.078 H 
ENDBRANCH  41  43
BRANCH  41  47
ATOM     47  C   LIG d   1      13.163  -7.960   2.423  0.00  0.00    -0.043 C 
ATOM     48  H   LIG d   1      13.361  -9.005   2.663  0.00  0.00     0.078 H 
ATOM     49  H   LIG d   1      13.736  -7.674   1.542  0.00  0.00     0.078 H 
ATOM     50  H   LIG d   1      13.457  -7.334   3.266  0.00  0.00     0.078 H 
ENDBRANCH  41  47
ENDBRANCH  38  41
ENDBRANCH  35  38
ENDBRANCH  32  35
ENDBRANCH  23  32
ENDBRANCH  15  18
ENDBRANCH   7  15
BRANCH   1  51
ATOM     51  C   LIG d   1       8.988  -2.508  -5.618  0.00  0.00    -0.052 C 
ATOM     52  H   LIG d   1       9.698  -3.235  -6.013  0.00  0.00     0.027 H 
ATOM     53  H   LIG d   1       8.176  -2.369  -6.332  0.00  0.00     0.027 H 
BRANCH  51  54
ATOM     54  C   LIG d   1       9.701  -1.173  -5.391  0.00  0.00    -0.065 C 
ATOM     55  H   LIG d   1       9.671  -0.921  -4.331  0.00  0.00     0.023 H 
ATOM     56  H   LIG d   1      10.737  -1.254  -5.717  0.00  0.00     0.023 H 
ATOM     57  H   LIG d   1       9.200  -0.392  -5.964  0.00  0.00     0.023 H 
ENDBRANCH  51  54
ENDBRANCH   1  51
BRANCH   4  58
ATOM     58  S   LIG d   1       5.699  -0.577  -5.343  0.00  0.00     0.066 S 
ATOM     59  O   LIG d   1       6.455   0.457  -4.729  0.00  0.00    -0.153 OA
ATOM     60  O   LIG d   1       5.657  -0.757  -6.752  0.00  0.00    -0.153 OA
BRANCH  58  61
ATOM     61  C   LIG d   1       4.032  -0.363  -4.813  0.00  0.00     0.170 A 
ATOM     62  C   LIG d   1       2.969   0.046  -5.547  0.00  0.00     0.161 A 
ATOM     63  O   LIG d   1       1.916   0.053  -4.719  0.00  0.00    -0.358 OA
ATOM     64  N   LIG d   1       2.226  -0.290  -3.602  0.00  0.00    -0.081 NA
ATOM     65  C   LIG d   1       3.494  -0.574  -3.523  0.00  0.00     0.107 A 
BRANCH  62  66
ATOM     66  C   LIG d   1       2.972   0.419  -7.008  0.00  0.00    -0.002 C 
ATOM     67  H   LIG d   1       2.643   1.452  -7.120  0.00  0.00     0.031 H 
ATOM     68  H   LIG d   1       3.981   0.314  -7.407  0.00  0.00     0.031 H 
ATOM     69  H   LIG d   1       2.295  -0.239  -7.552  0.00  0.00     0.031 H 
ENDBRANCH  62  66
BRANCH  65  70
ATOM     70  C   LIG d   1       4.242  -1.033  -2.297  0.00  0.00    -0.017 C 
ATOM     71  H   LIG d   1       4.935  -1.827  -2.571  0.00  0.00     0.029 H 
ATOM     72  H   LIG d   1       4.796  -0.195  -1.875  0.00  0.00     0.029 H 
ATOM     73  H   LIG d   1       3.533  -1.408  -1.559  0.00  0.00     0.029 H 
ENDBRANCH  65  70
ENDBRANCH  58  61
ENDBRANCH   4  58
TORSDOF 16
ENDMDL
MODEL 2
REMARK VINA RESULT:      -5.4      3.333      4.378
REMARK  16 active torsions:
REMARK  status: ('A' for Active; 'I' for Inactive)
REMARK    1  A    between atoms: C_1  and  C_2 
REMARK    2  A    between atoms: C_2  and  C_3 
REMARK    3  A    between atoms: N_6  and  S_25 
REMARK    4  A    between atoms: C_9  and  C_11 
REMARK    5  A    between atoms: C_11  and  C_12 
REMARK       I    between atoms: C_12  and  N_14 
REMARK    6  A    between atoms: N_14  and  C_15 
REMARK       I    between atoms: N_14  and  C_17 
REMARK    7  A    between atoms: C_15  and  C_16 
REMARK       I    between atoms: C_17  and  N_19 
REMARK    8  A    between atoms: N_19  and  C_20 
REMARK    9  A    between atoms: C_20  and  C_21 
REMARK   10  A    between atoms: C_21  and  C_22 
REMARK   11  A    between atoms: C_22  and  N_72 
REMARK   12  A    between atoms: C_23  and  N_72 
REMARK   13  A    between atoms: C_24  and  N_72 
REMARK   14  A    between atoms: S_25  and  C_28 
REMARK   15  A    between atoms: C_29  and  C_34 
REMARK   16  A    between atoms: C_32  and  C_33 
ROOT
ATOM      1  C   LIG d   1       7.670  -3.336  -4.569  0.00  0.00    -0.024 C 
ATOM      2  H   LIG d   1       8.424  -3.625  -3.837  0.00  0.00     0.032 H 
ATOM      3  C   LIG d   1       6.624  -2.440  -3.901  0.00  0.00     0.024 C 
ATOM      4  N   LIG d   1       5.548  -2.168  -4.864  0.00  0.00    -0.176 N 
ATOM      5  C   LIG d   1       4.883  -3.302  -5.519  0.00  0.00     0.021 C 
ATOM      6  C   LIG d   1       5.949  -4.189  -6.171  0.00  0.00    -0.035 C 
ATOM      7  C   LIG d   1       6.986  -4.590  -5.118  0.00  0.00    -0.028 C 
ATOM      8  H   LIG d   1       6.490  -5.119  -4.304  0.00  0.00     0.031 H 
ATOM      9  H   LIG d   1       6.213  -2.947  -3.028  0.00  0.00     0.045 H 
ATOM     10  H   LIG d   1       7.088  -1.502  -3.596  0.00  0.00     0.045 H 
ATOM     11  H   LIG d   1       4.331  -3.879  -4.779  0.00  0.00     0.044 H 
ATOM     12  H   LIG d   1       4.199  -2.933  -6.283  0.00  0.00     0.044 H 
ATOM     13  H   LIG d   1       6.441  -3.638  -6.973  0.00  0.00     0.028 H 
ATOM     14  H   LIG d   1       5.479  -5.084  -6.577  0.00  0.00     0.028 H 
ENDROOT
BRANCH   7  15
ATOM     15  C   LIG d   1       8.032  -5.505  -5.757  0.00  0.00     0.028 C 
ATOM     16  H   LIG d   1       8.929  -4.928  -5.985  0.00  0.00     0.036 H 
ATOM     17  H   LIG d   1       7.631  -5.930  -6.676  0.00  0.00     0.036 H 
BRANCH  15  18
ATOM     18  C   LIG d   1       8.380  -6.616  -4.799  0.00  0.00     0.223 C 
ATOM     19  O   LIG d   1       9.231  -6.443  -3.953  0.00  0.00    -0.275 OA
ATOM     20  N   LIG d   1       7.746  -7.802  -4.885  0.00  0.00    -0.226 N 
ATOM     21  C   LIG d   1       8.057  -8.796  -4.029  0.00  0.00     0.308 C 
ATOM     22  O   LIG d   1       8.910  -8.622  -3.180  0.00  0.00    -0.252 OA
ATOM     23  N   LIG d   1       7.419  -9.980  -4.110  0.00  0.00    -0.299 N 
ATOM     24  H   LIG d   1       6.739 -10.119  -4.789  0.00  0.00     0.150 HD
BRANCH  20  25
ATOM     25  C   LIG d   1       6.718  -8.012  -5.908  0.00  0.00     0.021 C 
ATOM     26  H   LIG d   1       6.834  -7.268  -6.696  0.00  0.00     0.047 H 
ATOM     27  H   LIG d   1       6.826  -9.010  -6.332  0.00  0.00     0.047 H 
BRANCH  25  28
ATOM     28  C   LIG d   1       5.333  -7.873  -5.275  0.00  0.00    -0.049 C 
ATOM     29  H   LIG d   1       5.057  -6.821  -5.230  0.00  0.00     0.025 H 
ATOM     30  H   LIG d   1       4.603  -8.415  -5.877  0.00  0.00     0.025 H 
ATOM     31  H   LIG d   1       5.350  -8.288  -4.266  0.00  0.00     0.025 H 
ENDBRANCH  25  28
ENDBRANCH  20  25
BRANCH  23  32
ATOM     32  C   LIG d   1       7.753 -11.058  -3.177  0.00  0.00     0.018 C 
ATOM     33  H   LIG d   1       8.329 -11.824  -3.697  0.00  0.00     0.046 H 
ATOM     34  H   LIG d   1       8.344 -10.656  -2.354  0.00  0.00     0.046 H 
BRANCH  32  35
ATOM     35  C   LIG d   1       6.465 -11.674  -2.626  0.00  0.00     0.003 C 
ATOM     36  H   LIG d   1       6.133 -12.473  -3.290  0.00  0.00     0.033 H 
ATOM     37  H   LIG d   1       6.652 -12.082  -1.634  0.00  0.00     0.033 H 
BRANCH  35  38
ATOM     38  C   LIG d   1       5.381 -10.598  -2.540  0.00  0.00    -0.031 C 
ATOM     39  H   LIG d   1       5.234 -10.314  -1.498  0.00  0.00     0.082 H 
ATOM     40  H   LIG d   1       5.689  -9.724  -3.115  0.00  0.00     0.082 H 
BRANCH  38  41
ATOM     41  N   LIG d   1       4.129 -11.136  -3.113  0.00  0.00     0.231 N 
ATOM     42  H   LIG d   1       3.834 -11.952  -2.565  0.00  0.00     0.203 HD
BRANCH  41  43
ATOM     43  C   LIG d   1       3.066 -10.110  -3.055  0.00  0.00    -0.043 C 
ATOM     44  H   LIG d   1       3.362  -9.289  -2.401  0.00  0.00     0.078 H 
ATOM     45  H   LIG d   1       2.889  -9.727  -4.060  0.00  0.00     0.078 H 
ATOM     46  H   LIG d   1       2.153 -10.568  -2.674  0.00  0.00     0.078 H 
ENDBRANCH  41  43
BRANCH  41  47
ATOM     47  C   LIG d   1       4.353 -11.552  -4.513  0.00  0.00    -0.043 C 
ATOM     48  H   LIG d   1       3.609 -11.072  -5.148  0.00  0.00     0.078 H 
ATOM     49  H   LIG d   1       5.350 -11.239  -4.820  0.00  0.00     0.078 H 
ATOM     50  H   LIG d   1       4.267 -12.635  -4.609  0.00  0.00     0.078 H 
ENDBRANCH  41  47
ENDBRANCH  38  41
ENDBRANCH  35  38
ENDBRANCH  32  35
ENDBRANCH  23  32
ENDBRANCH  15  18
ENDBRANCH   7  15
BRANCH   1  51
ATOM     51  C   LIG d   1       8.336  -2.575  -5.717  0.00  0.00    -0.052 C 
ATOM     52  H   LIG d   1       8.881  -3.275  -6.350  0.00  0.00     0.027 H 
ATOM     53  H   LIG d   1       7.573  -2.069  -6.309  0.00  0.00     0.027 H 
BRANCH  51  54
ATOM     54  C   LIG d   1       9.309  -1.540  -5.147  0.00  0.00    -0.065 C 
ATOM     55  H   LIG d   1       9.674  -0.903  -5.952  0.00  0.00     0.023 H 
ATOM     56  H   LIG d   1       8.796  -0.930  -4.404  0.00  0.00     0.023 H 
ATOM     57  H   LIG d   1      10.150  -2.052  -4.678  0.00  0.00     0.023 H 
ENDBRANCH  51  54
ENDBRANCH   1  51
BRANCH   4  58
ATOM     58  S   LIG d   1       5.094  -0.612  -5.204  0.00  0.00     0.066 S 
ATOM     59  O   LIG d   1       6.192  -0.006  -5.872  0.00  0.00    -0.153 OA
ATOM     60  O   LIG d   1       3.797  -0.684  -5.780  0.00  0.00    -0.153 OA
BRANCH  58  61
ATOM     61  C   LIG d   1       4.916   0.228  -3.665  0.00  0.00     0.170 A 
ATOM     62  C   LIG d   1       5.797   1.063  -3.064  0.00  0.00     0.161 A 
ATOM     63  O   LIG d   1       5.224   1.457  -1.918  0.00  0.00    -0.358 OA
ATOM     64  N   LIG d   1       4.133   0.957  -1.771  0.00  0.00    -0.081 NA
ATOM     65  C   LIG d   1       3.823   0.182  -2.770  0.00  0.00     0.107 A 
BRANCH  62  66
ATOM     66  C   LIG d   1       7.153   1.469  -3.582  0.00  0.00    -0.002 C 
ATOM     67  H   LIG d   1       7.050   2.349  -4.217  0.00  0.00     0.031 H 
ATOM     68  H   LIG d   1       7.808   1.702  -2.742  0.00  0.00     0.031 H 
ATOM     69  H   LIG d   1       7.581   0.651  -4.161  0.00  0.00     0.031 H 
ENDBRANCH  62  66
BRANCH  65  70
ATOM     70  C   LIG d   1       2.551  -0.608  -2.939  0.00  0.00    -0.017 C 
ATOM     71  H   LIG d   1       2.553  -1.097  -3.911  0.00  0.00     0.029 H 
ATOM     72  H   LIG d   1       2.485  -1.361  -2.153  0.00  0.00     0.029 H 
ATOM     73  H   LIG d   1       1.695   0.063  -2.870  0.00  0.00     0.029 H 
ENDBRANCH  65  70
ENDBRANCH  58  61
ENDBRANCH   4  58
TORSDOF 16
ENDMDL
MODEL 3
REMARK VINA RESULT:      -5.4      5.877     10.766
REMARK  16 active torsions:
REMARK  status: ('A' for Active; 'I' for Inactive)
REMARK    1  A    between atoms: C_1  and  C_2 
REMARK    2  A    between atoms: C_2  and  C_3 
REMARK    3  A    between atoms: N_6  and  S_25 
REMARK    4  A    between atoms: C_9  and  C_11 
REMARK    5  A    between atoms: C_11  and  C_12 
REMARK       I    between atoms: C_12  and  N_14 
REMARK    6  A    between atoms: N_14  and  C_15 
REMARK       I    between atoms: N_14  and  C_17 
REMARK    7  A    between atoms: C_15  and  C_16 
REMARK       I    between atoms: C_17  and  N_19 
REMARK    8  A    between atoms: N_19  and  C_20 
REMARK    9  A    between atoms: C_20  and  C_21 
REMARK   10  A    between atoms: C_21  and  C_22 
REMARK   11  A    between atoms: C_22  and  N_72 
REMARK   12  A    between atoms: C_23  and  N_72 
REMARK   13  A    between atoms: C_24  and  N_72 
REMARK   14  A    between atoms: S_25  and  C_28 
REMARK   15  A    between atoms: C_29  and  C_34 
REMARK   16  A    between atoms: C_32  and  C_33 
ROOT
ATOM      1  C   LIG d   1       4.810  -3.542  -7.484  0.00  0.00    -0.024 C 
ATOM      2  H   LIG d   1       4.486  -4.549  -7.748  0.00  0.00     0.032 H 
ATOM      3  C   LIG d   1       4.785  -3.379  -5.961  0.00  0.00     0.024 C 
ATOM      4  N   LIG d   1       5.096  -1.982  -5.630  0.00  0.00    -0.176 N 
ATOM      5  C   LIG d   1       4.306  -0.914  -6.256  0.00  0.00     0.021 C 
ATOM      6  C   LIG d   1       4.337  -1.104  -7.776  0.00  0.00    -0.035 C 
ATOM      7  C   LIG d   1       3.864  -2.519  -8.118  0.00  0.00    -0.028 C 
ATOM      8  H   LIG d   1       2.856  -2.669  -7.732  0.00  0.00     0.031 H 
ATOM      9  H   LIG d   1       3.794  -3.632  -5.583  0.00  0.00     0.045 H 
ATOM     10  H   LIG d   1       5.529  -4.037  -5.512  0.00  0.00     0.045 H 
ATOM     11  H   LIG d   1       3.276  -0.966  -5.902  0.00  0.00     0.044 H 
ATOM     12  H   LIG d   1       4.733   0.055  -6.001  0.00  0.00     0.044 H 
ATOM     13  H   LIG d   1       5.354  -0.963  -8.140  0.00  0.00     0.028 H 
ATOM     14  H   LIG d   1       3.676  -0.377  -8.247  0.00  0.00     0.028 H 
ENDROOT
BRANCH   7  15
ATOM     15  C   LIG d   1       3.860  -2.702  -9.637  0.00  0.00     0.028 C 
ATOM     16  H   LIG d   1       4.851  -3.013  -9.969  0.00  0.00     0.036 H 
ATOM     17  H   LIG d   1       3.597  -1.759 -10.116  0.00  0.00     0.036 H 
BRANCH  15  18
ATOM     18  C   LIG d   1       2.851  -3.755 -10.014  0.00  0.00     0.223 C 
ATOM     19  O   LIG d   1       3.180  -4.921 -10.063  0.00  0.00    -0.275 OA
ATOM     20  N   LIG d   1       1.581  -3.402 -10.297  0.00  0.00    -0.226 N 
ATOM     21  C   LIG d   1       0.678  -4.344 -10.635  0.00  0.00     0.308 C 
ATOM     22  O   LIG d   1       1.009  -5.513 -10.684  0.00  0.00    -0.252 OA
ATOM     23  N   LIG d   1      -0.593  -3.991 -10.912  0.00  0.00    -0.299 N 
ATOM     24  H   LIG d   1      -0.856  -3.058 -10.875  0.00  0.00     0.150 HD
BRANCH  20  25
ATOM     25  C   LIG d   1       1.183  -1.993 -10.239  0.00  0.00     0.021 C 
ATOM     26  H   LIG d   1       0.135  -1.923  -9.946  0.00  0.00     0.047 H 
ATOM     27  H   LIG d   1       1.800  -1.470  -9.508  0.00  0.00     0.047 H 
BRANCH  25  28
ATOM     28  C   LIG d   1       1.370  -1.352 -11.615  0.00  0.00    -0.049 C 
ATOM     29  H   LIG d   1       0.714  -1.839 -12.336  0.00  0.00     0.025 H 
ATOM     30  H   LIG d   1       1.125  -0.292 -11.559  0.00  0.00     0.025 H 
ATOM     31  H   LIG d   1       2.408  -1.468 -11.932  0.00  0.00     0.025 H 
ENDBRANCH  25  28
ENDBRANCH  20  25
BRANCH  23  32
ATOM     32  C   LIG d   1      -1.575  -5.015 -11.273  0.00  0.00     0.018 C 
ATOM     33  H   LIG d   1      -1.409  -5.331 -12.304  0.00  0.00     0.046 H 
ATOM     34  H   LIG d   1      -1.467  -5.873 -10.609  0.00  0.00     0.046 H 
BRANCH  32  35
ATOM     35  C   LIG d   1      -2.986  -4.440 -11.138  0.00  0.00     0.003 C 
ATOM     36  H   LIG d   1      -2.928  -3.354 -11.046  0.00  0.00     0.033 H 
ATOM     37  H   LIG d   1      -3.570  -4.699 -12.020  0.00  0.00     0.033 H 
BRANCH  35  38
ATOM     38  C   LIG d   1      -3.657  -5.022  -9.892  0.00  0.00    -0.031 C 
ATOM     39  H   LIG d   1      -3.376  -6.069  -9.784  0.00  0.00     0.082 H 
ATOM     40  H   LIG d   1      -3.334  -4.466  -9.012  0.00  0.00     0.082 H 
BRANCH  38  41
ATOM     41  N   LIG d   1      -5.123  -4.890 -10.035  0.00  0.00     0.231 N 
ATOM     42  H   LIG d   1      -5.581  -5.493  -9.342  0.00  0.00     0.203 HD
BRANCH  41  43
ATOM     43  C   LIG d   1      -5.528  -3.488  -9.795  0.00  0.00    -0.043 C 
ATOM     44  H   LIG d   1      -6.577  -3.439  -9.500  0.00  0.00     0.078 H 
ATOM     45  H   LIG d   1      -4.908  -3.072  -9.002  0.00  0.00     0.078 H 
ATOM     46  H   LIG d   1      -5.380  -2.916 -10.711  0.00  0.00     0.078 H 
ENDBRANCH  41  43
BRANCH  41  47
ATOM     47  C   LIG d   1      -5.538  -5.311 -11.389  0.00  0.00    -0.043 C 
ATOM     48  H   LIG d   1      -6.625  -5.372 -11.422  0.00  0.00     0.078 H 
ATOM     49  H   LIG d   1      -5.192  -4.573 -12.111  0.00  0.00     0.078 H 
ATOM     50  H   LIG d   1      -5.113  -6.285 -11.634  0.00  0.00     0.078 H 
ENDBRANCH  41  47
ENDBRANCH  38  41
ENDBRANCH  35  38
ENDBRANCH  32  35
ENDBRANCH  23  32
ENDBRANCH  15  18
ENDBRANCH   7  15
BRANCH   1  51
ATOM     51  C   LIG d   1       6.231  -3.310  -7.999  0.00  0.00    -0.052 C 
ATOM     52  H   LIG d   1       6.246  -3.408  -9.085  0.00  0.00     0.027 H 
ATOM     53  H   LIG d   1       6.560  -2.309  -7.720  0.00  0.00     0.027 H 
BRANCH  51  54
ATOM     54  C   LIG d   1       7.173  -4.346  -7.381  0.00  0.00    -0.065 C 
ATOM     55  H   LIG d   1       6.707  -4.779  -6.497  0.00  0.00     0.023 H 
ATOM     56  H   LIG d   1       7.375  -5.132  -8.108  0.00  0.00     0.023 H 
ATOM     57  H   LIG d   1       8.109  -3.863  -7.099  0.00  0.00     0.023 H 
ENDBRANCH  51  54
ENDBRANCH   1  51
BRANCH   4  58
ATOM     58  S   LIG d   1       6.316  -1.618  -4.571  0.00  0.00     0.066 S 
ATOM     59  O   LIG d   1       6.656  -2.830  -3.911  0.00  0.00    -0.153 OA
ATOM     60  O   LIG d   1       7.268  -0.851  -5.295  0.00  0.00    -0.153 OA
BRANCH  58  61
ATOM     61  C   LIG d   1       5.639  -0.551  -3.343  0.00  0.00     0.170 A 
ATOM     62  C   LIG d   1       4.616  -0.802  -2.490  0.00  0.00     0.161 A 
ATOM     63  O   LIG d   1       4.464   0.302  -1.746  0.00  0.00    -0.358 OA
ATOM     64  N   LIG d   1       5.256   1.161  -2.056  0.00  0.00    -0.081 NA
ATOM     65  C   LIG d   1       6.035   0.768  -3.022  0.00  0.00     0.107 A 
BRANCH  62  66
ATOM     66  C   LIG d   1       3.810  -2.072  -2.399  0.00  0.00    -0.002 C 
ATOM     67  H   LIG d   1       3.120  -2.004  -1.558  0.00  0.00     0.031 H 
ATOM     68  H   LIG d   1       3.246  -2.211  -3.322  0.00  0.00     0.031 H 
ATOM     69  H   LIG d   1       4.481  -2.918  -2.252  0.00  0.00     0.031 H 
ENDBRANCH  62  66
BRANCH  65  70
ATOM     70  C   LIG d   1       7.139   1.563  -3.671  0.00  0.00    -0.017 C 
ATOM     71  H   LIG d   1       7.771   0.896  -4.256  0.00  0.00     0.029 H 
ATOM     72  H   LIG d   1       6.705   2.320  -4.325  0.00  0.00     0.029 H 
ATOM     73  H   LIG d   1       7.738   2.049  -2.901  0.00  0.00     0.029 H 
ENDBRANCH  65  70
ENDBRANCH  58  61
ENDBRANCH   4  58
TORSDOF 16
ENDMDL
MODEL 4
REMARK VINA RESULT:      -5.4      2.860      3.940
REMARK  16 active torsions:
REMARK  status: ('A' for Active; 'I' for Inactive)
REMARK    1  A    between atoms: C_1  and  C_2 
REMARK    2  A    between atoms: C_2  and  C_3 
REMARK    3  A    between atoms: N_6  and  S_25 
REMARK    4  A    between atoms: C_9  and  C_11 
REMARK    5  A    between atoms: C_11  and  C_12 
REMARK       I    between atoms: C_12  and  N_14 
REMARK    6  A    between atoms: N_14  and  C_15 
REMARK       I    between atoms: N_14  and  C_17 
REMARK    7  A    between atoms: C_15  and  C_16 
REMARK       I    between atoms: C_17  and  N_19 
REMARK    8  A    between atoms: N_19  and  C_20 
REMARK    9  A    between atoms: C_20  and  C_21 
REMARK   10  A    between atoms: C_21  and  C_22 
REMARK   11  A    between atoms: C_22  and  N_72 
REMARK   12  A    between atoms: C_23  and  N_72 
REMARK   13  A    between atoms: C_24  and  N_72 
REMARK   14  A    between atoms: S_25  and  C_28 
REMARK   15  A    between atoms: C_29  and  C_34 
REMARK   16  A    between atoms: C_32  and  C_33 
ROOT
ATOM      1  C   LIG d   1       5.690  -4.089  -4.945  0.00  0.00    -0.024 C 
ATOM      2  H   LIG d   1       5.675  -4.772  -4.096  0.00  0.00     0.032 H 
ATOM      3  C   LIG d   1       4.866  -2.841  -4.612  0.00  0.00     0.024 C 
ATOM      4  N   LIG d   1       4.789  -1.992  -5.808  0.00  0.00    -0.176 N 
ATOM      5  C   LIG d   1       4.308  -2.583  -7.064  0.00  0.00     0.021 C 
ATOM      6  C   LIG d   1       5.139  -3.833  -7.370  0.00  0.00    -0.035 C 
ATOM      7  C   LIG d   1       5.088  -4.781  -6.169  0.00  0.00    -0.028 C 
ATOM      8  H   LIG d   1       4.052  -5.049  -5.962  0.00  0.00     0.031 H 
ATOM      9  H   LIG d   1       3.862  -3.137  -4.308  0.00  0.00     0.045 H 
ATOM     10  H   LIG d   1       5.348  -2.291  -3.803  0.00  0.00     0.045 H 
ATOM     11  H   LIG d   1       3.259  -2.858  -6.961  0.00  0.00     0.044 H 
ATOM     12  H   LIG d   1       4.421  -1.863  -7.874  0.00  0.00     0.044 H 
ATOM     13  H   LIG d   1       6.173  -3.546  -7.563  0.00  0.00     0.028 H 
ATOM     14  H   LIG d   1       4.731  -4.336  -8.247  0.00  0.00     0.028 H 
ENDROOT
BRANCH   7  15
ATOM     15  C   LIG d   1       5.887  -6.046  -6.485  0.00  0.00     0.028 C 
ATOM     16  H   LIG d   1       6.894  -5.952  -6.075  0.00  0.00     0.036 H 
ATOM     17  H   LIG d   1       5.946  -6.180  -7.565  0.00  0.00     0.036 H 
BRANCH  15  18
ATOM     18  C   LIG d   1       5.204  -7.240  -5.868  0.00  0.00     0.223 C 
ATOM     19  O   LIG d   1       4.035  -7.458  -6.103  0.00  0.00    -0.275 OA
ATOM     20  N   LIG d   1       5.893  -8.065  -5.054  0.00  0.00    -0.226 N 
ATOM     21  C   LIG d   1       5.281  -9.132  -4.502  0.00  0.00     0.308 C 
ATOM     22  O   LIG d   1       4.109  -9.350  -4.738  0.00  0.00    -0.252 OA
ATOM     23  N   LIG d   1       5.971  -9.960  -3.694  0.00  0.00    -0.299 N 
ATOM     24  H   LIG d   1       6.907  -9.785  -3.504  0.00  0.00     0.150 HD
BRANCH  20  25
ATOM     25  C   LIG d   1       7.306  -7.802  -4.769  0.00  0.00     0.021 C 
ATOM     26  H   LIG d   1       7.492  -6.729  -4.817  0.00  0.00     0.047 H 
ATOM     27  H   LIG d   1       7.551  -8.170  -3.773  0.00  0.00     0.047 H 
BRANCH  25  28
ATOM     28  C   LIG d   1       8.176  -8.517  -5.804  0.00  0.00    -0.049 C 
ATOM     29  H   LIG d   1       7.941  -8.141  -6.799  0.00  0.00     0.025 H 
ATOM     30  H   LIG d   1       9.228  -8.331  -5.585  0.00  0.00     0.025 H 
ATOM     31  H   LIG d   1       7.982  -9.589  -5.765  0.00  0.00     0.025 H 
ENDBRANCH  25  28
ENDBRANCH  20  25
BRANCH  23  32
ATOM     32  C   LIG d   1       5.309 -11.123  -3.099  0.00  0.00     0.018 C 
ATOM     33  H   LIG d   1       4.238 -10.934  -3.027  0.00  0.00     0.046 H 
ATOM     34  H   LIG d   1       5.482 -11.999  -3.725  0.00  0.00     0.046 H 
BRANCH  32  35
ATOM     35  C   LIG d   1       5.877 -11.375  -1.701  0.00  0.00     0.003 C 
ATOM     36  H   LIG d   1       5.080 -11.280  -0.962  0.00  0.00     0.033 H 
ATOM     37  H   LIG d   1       6.297 -12.379  -1.655  0.00  0.00     0.033 H 
BRANCH  35  38
ATOM     38  C   LIG d   1       6.973 -10.349  -1.403  0.00  0.00    -0.031 C 
ATOM     39  H   LIG d   1       7.274  -9.860  -2.330  0.00  0.00     0.082 H 
ATOM     40  H   LIG d   1       6.593  -9.603  -0.705  0.00  0.00     0.082 H 
BRANCH  38  41
ATOM     41  N   LIG d   1       8.123 -11.046  -0.786  0.00  0.00     0.231 N 
ATOM     42  H   LIG d   1       7.822 -11.462   0.102  0.00  0.00     0.203 HD
BRANCH  41  43
ATOM     43  C   LIG d   1       8.602 -12.120  -1.683  0.00  0.00    -0.043 C 
ATOM     44  H   LIG d   1       9.428 -11.763  -2.299  0.00  0.00     0.078 H 
ATOM     45  H   LIG d   1       8.937 -12.961  -1.078  0.00  0.00     0.078 H 
ATOM     46  H   LIG d   1       7.779 -12.437  -2.324  0.00  0.00     0.078 H 
ENDBRANCH  41  43
BRANCH  41  47
ATOM     47  C   LIG d   1       9.213 -10.084  -0.523  0.00  0.00    -0.043 C 
ATOM     48  H   LIG d   1       8.841  -9.300   0.136  0.00  0.00     0.078 H 
ATOM     49  H   LIG d   1      10.037 -10.606  -0.039  0.00  0.00     0.078 H 
ATOM     50  H   LIG d   1       9.564  -9.637  -1.455  0.00  0.00     0.078 H 
ENDBRANCH  41  47
ENDBRANCH  38  41
ENDBRANCH  35  38
ENDBRANCH  32  35
ENDBRANCH  23  32
ENDBRANCH  15  18
ENDBRANCH   7  15
BRANCH   1  51
ATOM     51  C   LIG d   1       7.133  -3.681  -5.248  0.00  0.00    -0.052 C 
ATOM     52  H   LIG d   1       7.710  -4.563  -5.528  0.00  0.00     0.027 H 
ATOM     53  H   LIG d   1       7.144  -2.964  -6.069  0.00  0.00     0.027 H 
BRANCH  51  54
ATOM     54  C   LIG d   1       7.755  -3.041  -4.005  0.00  0.00    -0.065 C 
ATOM     55  H   LIG d   1       8.789  -3.370  -3.905  0.00  0.00     0.023 H 
ATOM     56  H   LIG d   1       7.726  -1.956  -4.102  0.00  0.00     0.023 H 
ATOM     57  H   LIG d   1       7.191  -3.341  -3.121  0.00  0.00     0.023 H 
ENDBRANCH  51  54
ENDBRANCH   1  51
BRANCH   4  58
ATOM     58  S   LIG d   1       5.235  -0.399  -5.742  0.00  0.00     0.066 S 
ATOM     59  O   LIG d   1       6.628  -0.355  -6.015  0.00  0.00    -0.153 OA
ATOM     60  O   LIG d   1       4.284   0.322  -6.514  0.00  0.00    -0.153 OA
BRANCH  58  61
ATOM     61  C   LIG d   1       5.033   0.130  -4.073  0.00  0.00     0.170 A 
ATOM     62  C   LIG d   1       5.968   0.655  -3.245  0.00  0.00     0.161 A 
ATOM     63  O   LIG d   1       5.348   0.905  -2.083  0.00  0.00    -0.358 OA
ATOM     64  N   LIG d   1       4.182   0.589  -2.124  0.00  0.00    -0.081 NA
ATOM     65  C   LIG d   1       3.858   0.101  -3.287  0.00  0.00     0.107 A 
BRANCH  62  66
ATOM     66  C   LIG d   1       7.418   0.908  -3.568  0.00  0.00    -0.002 C 
ATOM     67  H   LIG d   1       8.037   0.596  -2.727  0.00  0.00     0.031 H 
ATOM     68  H   LIG d   1       7.697   0.338  -4.455  0.00  0.00     0.031 H 
ATOM     69  H   LIG d   1       7.569   1.971  -3.756  0.00  0.00     0.031 H 
ENDBRANCH  62  66
BRANCH  65  70
ATOM     70  C   LIG d   1       2.500  -0.398  -3.710  0.00  0.00    -0.017 C 
ATOM     71  H   LIG d   1       1.805  -0.310  -2.877  0.00  0.00     0.029 H 
ATOM     72  H   LIG d   1       2.140   0.198  -4.549  0.00  0.00     0.029 H 
ATOM     73  H   LIG d   1       2.576  -1.442  -4.013  0.00  0.00     0.029 H 
ENDBRANCH  65  70
ENDBRANCH  58  61
ENDBRANCH   4  58
TORSDOF 16
ENDMDL
MODEL 5
REMARK VINA RESULT:      -5.4      5.321      8.040
REMARK  16 active torsions:
REMARK  status: ('A' for Active; 'I' for Inactive)
REMARK    1  A    between atoms: C_1  and  C_2 
REMARK    2  A    between atoms: C_2  and  C_3 
REMARK    3  A    between atoms: N_6  and  S_25 
REMARK    4  A    between atoms: C_9  and  C_11 
REMARK    5  A    between atoms: C_11  and  C_12 
REMARK       I    between atoms: C_12  and  N_14 
REMARK    6  A    between atoms: N_14  and  C_15 
REMARK       I    between atoms: N_14  and  C_17 
REMARK    7  A    between atoms: C_15  and  C_16 
REMARK       I    between atoms: C_17  and  N_19 
REMARK    8  A    between atoms: N_19  and  C_20 
REMARK    9  A    between atoms: C_20  and  C_21 
REMARK   10  A    between atoms: C_21  and  C_22 
REMARK   11  A    between atoms: C_22  and  N_72 
REMARK   12  A    between atoms: C_23  and  N_72 
REMARK   13  A    between atoms: C_24  and  N_72 
REMARK   14  A    between atoms: S_25  and  C_28 
REMARK   15  A    between atoms: C_29  and  C_34 
REMARK   16  A    between atoms: C_32  and  C_33 
ROOT
ATOM      1  C   LIG d   1       7.985  -0.530  -4.261  0.00  0.00    -0.024 C 
ATOM      2  H   LIG d   1       8.729  -0.094  -3.594  0.00  0.00     0.032 H 
ATOM      3  C   LIG d   1       7.170  -1.581  -3.502  0.00  0.00     0.024 C 
ATOM      4  N   LIG d   1       6.263  -2.249  -4.446  0.00  0.00    -0.176 N 
ATOM      5  C   LIG d   1       6.825  -2.844  -5.665  0.00  0.00     0.021 C 
ATOM      6  C   LIG d   1       7.644  -1.778  -6.401  0.00  0.00    -0.035 C 
ATOM      7  C   LIG d   1       8.689  -1.195  -5.446  0.00  0.00    -0.028 C 
ATOM      8  H   LIG d   1       9.335  -1.994  -5.083  0.00  0.00     0.031 H 
ATOM      9  H   LIG d   1       7.843  -2.316  -3.060  0.00  0.00     0.045 H 
ATOM     10  H   LIG d   1       6.589  -1.095  -2.717  0.00  0.00     0.045 H 
ATOM     11  H   LIG d   1       7.470  -3.681  -5.400  0.00  0.00     0.044 H 
ATOM     12  H   LIG d   1       6.017  -3.192  -6.309  0.00  0.00     0.044 H 
ATOM     13  H   LIG d   1       6.982  -0.983  -6.745  0.00  0.00     0.028 H 
ATOM     14  H   LIG d   1       8.146  -2.230  -7.256  0.00  0.00     0.028 H 
ENDROOT
BRANCH   7  15
ATOM     15  C   LIG d   1       9.532  -0.155  -6.187  0.00  0.00     0.028 C 
ATOM     16  H   LIG d   1       8.902   0.689  -6.470  0.00  0.00     0.036 H 
ATOM     17  H   LIG d   1       9.959  -0.605  -7.083  0.00  0.00     0.036 H 
BRANCH  15  18
ATOM     18  C   LIG d   1      10.642   0.325  -5.288  0.00  0.00     0.223 C 
ATOM     19  O   LIG d   1      11.393  -0.474  -4.771  0.00  0.00    -0.275 OA
ATOM     20  N   LIG d   1      10.800   1.644  -5.058  0.00  0.00    -0.226 N 
ATOM     21  C   LIG d   1      11.792   2.074  -4.254  0.00  0.00     0.308 C 
ATOM     22  O   LIG d   1      12.545   1.272  -3.736  0.00  0.00    -0.252 OA
ATOM     23  N   LIG d   1      11.954   3.393  -4.028  0.00  0.00    -0.299 N 
ATOM     24  H   LIG d   1      11.352   4.033  -4.441  0.00  0.00     0.150 HD
BRANCH  20  25
ATOM     25  C   LIG d   1       9.892   2.610  -5.682  0.00  0.00     0.021 C 
ATOM     26  H   LIG d   1       8.914   2.151  -5.823  0.00  0.00     0.047 H 
ATOM     27  H   LIG d   1       9.794   3.485  -5.039  0.00  0.00     0.047 H 
BRANCH  25  28
ATOM     28  C   LIG d   1      10.456   3.037  -7.039  0.00  0.00    -0.049 C 
ATOM     29  H   LIG d   1      10.407   2.199  -7.732  0.00  0.00     0.025 H 
ATOM     30  H   LIG d   1       9.869   3.868  -7.431  0.00  0.00     0.025 H 
ATOM     31  H   LIG d   1      11.493   3.351  -6.919  0.00  0.00     0.025 H 
ENDBRANCH  25  28
ENDBRANCH  20  25
BRANCH  23  32
ATOM     32  C   LIG d   1      13.036   3.860  -3.159  0.00  0.00     0.018 C 
ATOM     33  H   LIG d   1      13.437   3.019  -2.594  0.00  0.00     0.046 H 
ATOM     34  H   LIG d   1      13.827   4.298  -3.768  0.00  0.00     0.046 H 
BRANCH  32  35
ATOM     35  C   LIG d   1      12.495   4.914  -2.192  0.00  0.00     0.003 C 
ATOM     36  H   LIG d   1      12.986   4.804  -1.223  0.00  0.00     0.033 H 
ATOM     37  H   LIG d   1      12.694   5.909  -2.588  0.00  0.00     0.033 H 
BRANCH  35  38
ATOM     38  C   LIG d   1      10.986   4.725  -2.023  0.00  0.00    -0.031 C 
ATOM     39  H   LIG d   1      10.471   5.107  -2.904  0.00  0.00     0.082 H 
ATOM     40  H   LIG d   1      10.763   3.664  -1.904  0.00  0.00     0.082 H 
BRANCH  38  41
ATOM     41  N   LIG d   1      10.547   5.448  -0.810  0.00  0.00     0.231 N 
ATOM     42  H   LIG d   1       9.817   4.901  -0.341  0.00  0.00     0.203 HD
BRANCH  41  43
ATOM     43  C   LIG d   1      11.688   5.620   0.115  0.00  0.00    -0.043 C 
ATOM     44  H   LIG d   1      12.606   5.241  -0.337  0.00  0.00     0.078 H 
ATOM     45  H   LIG d   1      11.804   6.680   0.339  0.00  0.00     0.078 H 
ATOM     46  H   LIG d   1      11.482   5.073   1.035  0.00  0.00     0.078 H 
ENDBRANCH  41  43
BRANCH  41  47
ATOM     47  C   LIG d   1       9.996   6.768  -1.182  0.00  0.00    -0.043 C 
ATOM     48  H   LIG d   1      10.591   7.546  -0.706  0.00  0.00     0.078 H 
ATOM     49  H   LIG d   1      10.047   6.881  -2.264  0.00  0.00     0.078 H 
ATOM     50  H   LIG d   1       8.958   6.855  -0.857  0.00  0.00     0.078 H 
ENDBRANCH  41  47
ENDBRANCH  38  41
ENDBRANCH  35  38
ENDBRANCH  32  35
ENDBRANCH  23  32
ENDBRANCH  15  18
ENDBRANCH   7  15
BRANCH   1  51
ATOM     51  C   LIG d   1       7.052   0.568  -4.773  0.00  0.00    -0.052 C 
ATOM     52  H   LIG d   1       7.514   1.074  -5.621  0.00  0.00     0.027 H 
ATOM     53  H   LIG d   1       6.106   0.125  -5.086  0.00  0.00     0.027 H 
BRANCH  51  54
ATOM     54  C   LIG d   1       6.794   1.582  -3.655  0.00  0.00    -0.065 C 
ATOM     55  H   LIG d   1       7.335   2.503  -3.869  0.00  0.00     0.023 H 
ATOM     56  H   LIG d   1       5.727   1.792  -3.594  0.00  0.00     0.023 H 
ATOM     57  H   LIG d   1       7.138   1.170  -2.706  0.00  0.00     0.023 H 
ENDBRANCH  51  54
ENDBRANCH   1  51
BRANCH   4  58
ATOM     58  S   LIG d   1       4.637  -2.329  -4.140  0.00  0.00     0.066 S 
ATOM     59  O   LIG d   1       4.121  -3.369  -4.958  0.00  0.00    -0.153 OA
ATOM     60  O   LIG d   1       4.489  -2.326  -2.726  0.00  0.00    -0.153 OA
BRANCH  58  61
ATOM     61  C   LIG d   1       3.922  -0.827  -4.723  0.00  0.00     0.170 A 
ATOM     62  C   LIG d   1       3.732  -0.437  -6.006  0.00  0.00     0.161 A 
ATOM     63  O   LIG d   1       3.156   0.772  -5.954  0.00  0.00    -0.358 OA
ATOM     64  N   LIG d   1       2.993   1.137  -4.813  0.00  0.00    -0.081 NA
ATOM     65  C   LIG d   1       3.418   0.251  -3.960  0.00  0.00     0.107 A 
BRANCH  62  66
ATOM     66  C   LIG d   1       4.097  -1.211  -7.247  0.00  0.00    -0.002 C 
ATOM     67  H   LIG d   1       3.565  -0.796  -8.104  0.00  0.00     0.031 H 
ATOM     68  H   LIG d   1       5.172  -1.138  -7.418  0.00  0.00     0.031 H 
ATOM     69  H   LIG d   1       3.820  -2.257  -7.119  0.00  0.00     0.031 H 
ENDBRANCH  62  66
BRANCH  65  70
ATOM     70  C   LIG d   1       3.383   0.354  -2.457  0.00  0.00    -0.017 C 
ATOM     71  H   LIG d   1       3.919  -0.487  -2.022  0.00  0.00     0.029 H 
ATOM     72  H   LIG d   1       3.854   1.287  -2.146  0.00  0.00     0.029 H 
ATOM     73  H   LIG d   1       2.347   0.341  -2.117  0.00  0.00     0.029 H 
ENDBRANCH  65  70
ENDBRANCH  58  61
ENDBRANCH   4  58
TORSDOF 16
ENDMDL
MODEL 6
REMARK VINA RESULT:      -5.4      5.576     10.104
REMARK  16 active torsions:
REMARK  status: ('A' for Active; 'I' for Inactive)
REMARK    1  A    between atoms: C_1  and  C_2 
REMARK    2  A    between atoms: C_2  and  C_3 
REMARK    3  A    between atoms: N_6  and  S_25 
REMARK    4  A    between atoms: C_9  and  C_11 
REMARK    5  A    between atoms: C_11  and  C_12 
REMARK       I    between atoms: C_12  and  N_14 
REMARK    6  A    between atoms: N_14  and  C_15 
REMARK       I    between atoms: N_14  and  C_17 
REMARK    7  A    between atoms: C_15  and  C_16 
REMARK       I    between atoms: C_17  and  N_19 
REMARK    8  A    between atoms: N_19  and  C_20 
REMARK    9  A    between atoms: C_20  and  C_21 
REMARK   10  A    between atoms: C_21  and  C_22 
REMARK   11  A    between atoms: C_22  and  N_72 
REMARK   12  A    between atoms: C_23  and  N_72 
REMARK   13  A    between atoms: C_24  and  N_72 
REMARK   14  A    between atoms: S_25  and  C_28 
REMARK   15  A    between atoms: C_29  and  C_34 
REMARK   16  A    between atoms: C_32  and  C_33 
ROOT
ATOM      1  C   LIG d   1       5.299  -4.327  -6.668  0.00  0.00    -0.024 C 
ATOM      2  H   LIG d   1       5.058  -5.390  -6.675  0.00  0.00     0.032 H 
ATOM      3  C   LIG d   1       5.259  -3.802  -5.230  0.00  0.00     0.024 C 
ATOM      4  N   LIG d   1       5.457  -2.347  -5.251  0.00  0.00    -0.176 N 
ATOM      5  C   LIG d   1       4.584  -1.527  -6.102  0.00  0.00     0.021 C 
ATOM      6  C   LIG d   1       4.633  -2.076  -7.531  0.00  0.00    -0.035 C 
ATOM      7  C   LIG d   1       4.276  -3.565  -7.514  0.00  0.00    -0.028 C 
ATOM      8  H   LIG d   1       3.282  -3.695  -7.085  0.00  0.00     0.031 H 
ATOM      9  H   LIG d   1       4.291  -4.033  -4.784  0.00  0.00     0.045 H 
ATOM     10  H   LIG d   1       6.052  -4.271  -4.648  0.00  0.00     0.045 H 
ATOM     11  H   LIG d   1       3.562  -1.572  -5.728  0.00  0.00     0.044 H 
ATOM     12  H   LIG d   1       4.932  -0.495  -6.096  0.00  0.00     0.044 H 
ATOM     13  H   LIG d   1       5.637  -1.949  -7.937  0.00  0.00     0.028 H 
ATOM     14  H   LIG d   1       3.917  -1.539  -8.153  0.00  0.00     0.028 H 
ENDROOT
BRANCH   7  15
ATOM     15  C   LIG d   1       4.289  -4.109  -8.943  0.00  0.00     0.028 C 
ATOM     16  H   LIG d   1       5.242  -4.603  -9.136  0.00  0.00     0.036 H 
ATOM     17  H   LIG d   1       4.158  -3.287  -9.646  0.00  0.00     0.036 H 
BRANCH  15  18
ATOM     18  C   LIG d   1       3.166  -5.100  -9.114  0.00  0.00     0.223 C 
ATOM     19  O   LIG d   1       3.121  -6.091  -8.418  0.00  0.00    -0.275 OA
ATOM     20  N   LIG d   1       2.212  -4.884 -10.042  0.00  0.00    -0.226 N 
ATOM     21  C   LIG d   1       1.208  -5.770 -10.195  0.00  0.00     0.308 C 
ATOM     22  O   LIG d   1       1.163  -6.764  -9.497  0.00  0.00    -0.252 OA
ATOM     23  N   LIG d   1       0.251  -5.551 -11.118  0.00  0.00    -0.299 N 
ATOM     24  H   LIG d   1       0.288  -4.758 -11.677  0.00  0.00     0.150 HD
BRANCH  20  25
ATOM     25  C   LIG d   1       2.267  -3.686 -10.884  0.00  0.00     0.021 C 
ATOM     26  H   LIG d   1       3.307  -3.391 -11.029  0.00  0.00     0.047 H 
ATOM     27  H   LIG d   1       1.812  -3.900 -11.851  0.00  0.00     0.047 H 
BRANCH  25  28
ATOM     28  C   LIG d   1       1.504  -2.549 -10.203  0.00  0.00    -0.049 C 
ATOM     29  H   LIG d   1       2.113  -1.645 -10.213  0.00  0.00     0.025 H 
ATOM     30  H   LIG d   1       0.572  -2.365 -10.737  0.00  0.00     0.025 H 
ATOM     31  H   LIG d   1       1.282  -2.826  -9.172  0.00  0.00     0.025 H 
ENDBRANCH  25  28
ENDBRANCH  20  25
BRANCH  23  32
ATOM     32  C   LIG d   1      -0.843  -6.511 -11.281  0.00  0.00     0.018 C 
ATOM     33  H   LIG d   1      -0.633  -7.160 -12.131  0.00  0.00     0.046 H 
ATOM     34  H   LIG d   1      -0.934  -7.114 -10.378  0.00  0.00     0.046 H 
BRANCH  32  35
ATOM     35  C   LIG d   1      -2.151  -5.757 -11.525  0.00  0.00     0.003 C 
ATOM     36  H   LIG d   1      -2.007  -5.029 -12.325  0.00  0.00     0.033 H 
ATOM     37  H   LIG d   1      -2.930  -6.463 -11.813  0.00  0.00     0.033 H 
BRANCH  35  38
ATOM     38  C   LIG d   1      -2.569  -5.031 -10.244  0.00  0.00    -0.031 C 
ATOM     39  H   LIG d   1      -1.906  -5.323  -9.430  0.00  0.00     0.082 H 
ATOM     40  H   LIG d   1      -2.503  -3.954 -10.399  0.00  0.00     0.082 H 
BRANCH  38  41
ATOM     41  N   LIG d   1      -3.969  -5.389  -9.928  0.00  0.00     0.231 N 
ATOM     42  H   LIG d   1      -3.981  -5.971  -9.083  0.00  0.00     0.203 HD
BRANCH  41  43
ATOM     43  C   LIG d   1      -4.758  -4.163  -9.679  0.00  0.00    -0.043 C 
ATOM     44  H   LIG d   1      -4.684  -3.482 -10.528  0.00  0.00     0.078 H 
ATOM     45  H   LIG d   1      -5.801  -4.440  -9.526  0.00  0.00     0.078 H 
ATOM     46  H   LIG d   1      -4.376  -3.673  -8.784  0.00  0.00     0.078 H 
ENDBRANCH  41  43
BRANCH  41  47
ATOM     47  C   LIG d   1      -4.559  -6.152 -11.047  0.00  0.00    -0.043 C 
ATOM     48  H   LIG d   1      -3.804  -6.284 -11.822  0.00  0.00     0.078 H 
ATOM     49  H   LIG d   1      -4.879  -7.126 -10.682  0.00  0.00     0.078 H 
ATOM     50  H   LIG d   1      -5.416  -5.620 -11.463  0.00  0.00     0.078 H 
ENDBRANCH  41  47
ENDBRANCH  38  41
ENDBRANCH  35  38
ENDBRANCH  32  35
ENDBRANCH  23  32
ENDBRANCH  15  18
ENDBRANCH   7  15
BRANCH   1  51
ATOM     51  C   LIG d   1       6.699  -4.116  -7.249  0.00  0.00    -0.052 C 
ATOM     52  H   LIG d   1       6.722  -4.469  -8.280  0.00  0.00     0.027 H 
ATOM     53  H   LIG d   1       6.947  -3.055  -7.223  0.00  0.00     0.027 H 
BRANCH  51  54
ATOM     54  C   LIG d   1       7.719  -4.899  -6.419  0.00  0.00    -0.065 C 
ATOM     55  H   LIG d   1       7.685  -5.951  -6.701  0.00  0.00     0.023 H 
ATOM     56  H   LIG d   1       8.717  -4.504  -6.605  0.00  0.00     0.023 H 
ATOM     57  H   LIG d   1       7.480  -4.798  -5.360  0.00  0.00     0.023 H 
ENDBRANCH  51  54
ENDBRANCH   1  51
BRANCH   4  58
ATOM     58  S   LIG d   1       6.642  -1.643  -4.332  0.00  0.00     0.066 S 
ATOM     59  O   LIG d   1       7.162  -2.663  -3.491  0.00  0.00    -0.153 OA
ATOM     60  O   LIG d   1       7.460  -0.899  -5.225  0.00  0.00    -0.153 OA
BRANCH  58  61
ATOM     61  C   LIG d   1       5.856  -0.472  -3.276  0.00  0.00     0.170 A 
ATOM     62  C   LIG d   1       6.182   0.829  -3.083  0.00  0.00     0.161 A 
ATOM     63  O   LIG d   1       5.302   1.313  -2.195  0.00  0.00    -0.358 OA
ATOM     64  N   LIG d   1       4.514   0.466  -1.843  0.00  0.00    -0.081 NA
ATOM     65  C   LIG d   1       4.741  -0.673  -2.430  0.00  0.00     0.107 A 
BRANCH  62  66
ATOM     66  C   LIG d   1       7.312   1.581  -3.737  0.00  0.00    -0.002 C 
ATOM     67  H   LIG d   1       7.024   1.859  -4.751  0.00  0.00     0.031 H 
ATOM     68  H   LIG d   1       7.530   2.482  -3.162  0.00  0.00     0.031 H 
ATOM     69  H   LIG d   1       8.198   0.949  -3.772  0.00  0.00     0.031 H 
ENDBRANCH  62  66
BRANCH  65  70
ATOM     70  C   LIG d   1       3.969  -1.955  -2.243  0.00  0.00    -0.017 C 
ATOM     71  H   LIG d   1       3.276  -2.086  -3.072  0.00  0.00     0.029 H 
ATOM     72  H   LIG d   1       4.663  -2.795  -2.212  0.00  0.00     0.029 H 
ATOM     73  H   LIG d   1       3.413  -1.910  -1.306  0.00  0.00     0.029 H 
ENDBRANCH  65  70
ENDBRANCH  58  61
ENDBRANCH   4  58
TORSDOF 16
ENDMDL
MODEL 7
REMARK VINA RESULT:      -5.3      6.485     10.820
REMARK  16 active torsions:
REMARK  status: ('A' for Active; 'I' for Inactive)
REMARK    1  A    between atoms: C_1  and  C_2 
REMARK    2  A    between atoms: C_2  and  C_3 
REMARK    3  A    between atoms: N_6  and  S_25 
REMARK    4  A    between atoms: C_9  and  C_11 
REMARK    5  A    between atoms: C_11  and  C_12 
REMARK       I    between atoms: C_12  and  N_14 
REMARK    6  A    between atoms: N_14  and  C_15 
REMARK       I    between atoms: N_14  and  C_17 
REMARK    7  A    between atoms: C_15  and  C_16 
REMARK       I    between atoms: C_17  and  N_19 
REMARK    8  A    between atoms: N_19  and  C_20 
REMARK    9  A    between atoms: C_20  and  C_21 
REMARK   10  A    between atoms: C_21  and  C_22 
REMARK   11  A    between atoms: C_22  and  N_72 
REMARK   12  A    between atoms: C_23  and  N_72 
REMARK   13  A    between atoms: C_24  and  N_72 
REMARK   14  A    between atoms: S_25  and  C_28 
REMARK   15  A    between atoms: C_29  and  C_34 
REMARK   16  A    between atoms: C_32  and  C_33 
ROOT
ATOM      1  C   LIG d   1       8.889   1.447  -5.978  0.00  0.00    -0.024 C 
ATOM      2  H   LIG d   1       9.277   1.812  -6.928  0.00  0.00     0.032 H 
ATOM      3  C   LIG d   1       7.469   0.908  -6.178  0.00  0.00     0.024 C 
ATOM      4  N   LIG d   1       6.912   0.541  -4.869  0.00  0.00    -0.176 N 
ATOM      5  C   LIG d   1       6.915   1.542  -3.794  0.00  0.00     0.021 C 
ATOM      6  C   LIG d   1       8.342   2.073  -3.620  0.00  0.00    -0.035 C 
ATOM      7  C   LIG d   1       8.856   2.593  -4.964  0.00  0.00    -0.028 C 
ATOM      8  H   LIG d   1       8.195   3.379  -5.327  0.00  0.00     0.031 H 
ATOM      9  H   LIG d   1       6.848   1.678  -6.636  0.00  0.00     0.045 H 
ATOM     10  H   LIG d   1       7.499   0.029  -6.822  0.00  0.00     0.045 H 
ATOM     11  H   LIG d   1       6.249   2.363  -4.058  0.00  0.00     0.044 H 
ATOM     12  H   LIG d   1       6.581   1.082  -2.865  0.00  0.00     0.044 H 
ATOM     13  H   LIG d   1       8.990   1.270  -3.269  0.00  0.00     0.028 H 
ATOM     14  H   LIG d   1       8.342   2.885  -2.893  0.00  0.00     0.028 H 
ENDROOT
BRANCH   7  15
ATOM     15  C   LIG d   1      10.267   3.156  -4.787  0.00  0.00     0.028 C 
ATOM     16  H   LIG d   1      10.509   3.805  -5.629  0.00  0.00     0.036 H 
ATOM     17  H   LIG d   1      10.983   2.336  -4.743  0.00  0.00     0.036 H 
BRANCH  15  18
ATOM     18  C   LIG d   1      10.334   3.950  -3.507  0.00  0.00     0.223 C 
ATOM     19  O   LIG d   1      10.823   3.457  -2.513  0.00  0.00    -0.275 OA
ATOM     20  N   LIG d   1       9.851   5.208  -3.468  0.00  0.00    -0.226 N 
ATOM     21  C   LIG d   1       9.911   5.917  -2.324  0.00  0.00     0.308 C 
ATOM     22  O   LIG d   1      10.401   5.423  -1.327  0.00  0.00    -0.252 OA
ATOM     23  N   LIG d   1       9.433   7.177  -2.286  0.00  0.00    -0.299 N 
ATOM     24  H   LIG d   1       9.041   7.571  -3.082  0.00  0.00     0.150 HD
BRANCH  20  25
ATOM     25  C   LIG d   1       9.260   5.803  -4.669  0.00  0.00     0.021 C 
ATOM     26  H   LIG d   1       8.834   5.017  -5.293  0.00  0.00     0.047 H 
ATOM     27  H   LIG d   1       8.476   6.503  -4.380  0.00  0.00     0.047 H 
BRANCH  25  28
ATOM     28  C   LIG d   1      10.342   6.547  -5.455  0.00  0.00    -0.049 C 
ATOM     29  H   LIG d   1      10.184   6.396  -6.522  0.00  0.00     0.025 H 
ATOM     30  H   LIG d   1      10.289   7.611  -5.226  0.00  0.00     0.025 H 
ATOM     31  H   LIG d   1      11.323   6.164  -5.174  0.00  0.00     0.025 H 
ENDBRANCH  25  28
ENDBRANCH  20  25
BRANCH  23  32
ATOM     32  C   LIG d   1       9.503   7.951  -1.044  0.00  0.00     0.018 C 
ATOM     33  H   LIG d   1       8.938   7.438  -0.265  0.00  0.00     0.046 H 
ATOM     34  H   LIG d   1      10.544   8.046  -0.735  0.00  0.00     0.046 H 
BRANCH  32  35
ATOM     35  C   LIG d   1       8.909   9.341  -1.275  0.00  0.00     0.003 C 
ATOM     36  H   LIG d   1       7.886   9.243  -1.640  0.00  0.00     0.033 H 
ATOM     37  H   LIG d   1       8.908   9.896  -0.337  0.00  0.00     0.033 H 
BRANCH  35  38
ATOM     38  C   LIG d   1       9.750  10.091  -2.310  0.00  0.00    -0.031 C 
ATOM     39  H   LIG d   1      10.208  10.962  -1.843  0.00  0.00     0.082 H 
ATOM     40  H   LIG d   1      10.530   9.431  -2.691  0.00  0.00     0.082 H 
BRANCH  38  41
ATOM     41  N   LIG d   1       8.875  10.500  -3.429  0.00  0.00     0.231 N 
ATOM     42  H   LIG d   1       8.021   9.931  -3.410  0.00  0.00     0.203 HD
BRANCH  41  43
ATOM     43  C   LIG d   1       8.507  11.925  -3.286  0.00  0.00    -0.043 C 
ATOM     44  H   LIG d   1       7.928  12.080  -2.376  0.00  0.00     0.078 H 
ATOM     45  H   LIG d   1       9.418  12.522  -3.245  0.00  0.00     0.078 H 
ATOM     46  H   LIG d   1       7.914  12.225  -4.151  0.00  0.00     0.078 H 
ENDBRANCH  41  43
BRANCH  41  47
ATOM     47  C   LIG d   1       9.568  10.283  -4.716  0.00  0.00    -0.043 C 
ATOM     48  H   LIG d   1      10.587   9.954  -4.518  0.00  0.00     0.078 H 
ATOM     49  H   LIG d   1       9.040   9.514  -5.278  0.00  0.00     0.078 H 
ATOM     50  H   LIG d   1       9.592  11.206  -5.298  0.00  0.00     0.078 H 
ENDBRANCH  41  47
ENDBRANCH  38  41
ENDBRANCH  35  38
ENDBRANCH  32  35
ENDBRANCH  23  32
ENDBRANCH  15  18
ENDBRANCH   7  15
BRANCH   1  51
ATOM     51  C   LIG d   1       9.790   0.327  -5.453  0.00  0.00    -0.052 C 
ATOM     52  H   LIG d   1      10.788   0.722  -5.263  0.00  0.00     0.027 H 
ATOM     53  H   LIG d   1       9.373  -0.071  -4.527  0.00  0.00     0.027 H 
BRANCH  51  54
ATOM     54  C   LIG d   1       9.875  -0.790  -6.495  0.00  0.00    -0.065 C 
ATOM     55  H   LIG d   1       8.897  -1.259  -6.606  0.00  0.00     0.023 H 
ATOM     56  H   LIG d   1      10.188  -0.372  -7.451  0.00  0.00     0.023 H 
ATOM     57  H   LIG d   1      10.600  -1.536  -6.169  0.00  0.00     0.023 H 
ENDBRANCH  51  54
ENDBRANCH   1  51
BRANCH   4  58
ATOM     58  S   LIG d   1       6.293  -0.973  -4.610  0.00  0.00     0.066 S 
ATOM     59  O   LIG d   1       6.405  -1.674  -5.841  0.00  0.00    -0.153 OA
ATOM     60  O   LIG d   1       6.877  -1.450  -3.405  0.00  0.00    -0.153 OA
BRANCH  58  61
ATOM     61  C   LIG d   1       4.570  -0.785  -4.293  0.00  0.00     0.170 A 
ATOM     62  C   LIG d   1       3.601  -0.394  -5.156  0.00  0.00     0.161 A 
ATOM     63  O   LIG d   1       2.453  -0.402  -4.465  0.00  0.00    -0.358 OA
ATOM     64  N   LIG d   1       2.627  -0.739  -3.317  0.00  0.00    -0.081 NA
ATOM     65  C   LIG d   1       3.879  -1.003  -3.080  0.00  0.00     0.107 A 
BRANCH  62  66
ATOM     66  C   LIG d   1       3.780  -0.022  -6.605  0.00  0.00    -0.002 C 
ATOM     67  H   LIG d   1       4.248  -0.851  -7.137  0.00  0.00     0.031 H 
ATOM     68  H   LIG d   1       2.807   0.190  -7.049  0.00  0.00     0.031 H 
ATOM     69  H   LIG d   1       4.414   0.861  -6.679  0.00  0.00     0.031 H 
ENDBRANCH  62  66
BRANCH  65  70
ATOM     70  C   LIG d   1       4.475  -1.450  -1.769  0.00  0.00    -0.017 C 
ATOM     71  H   LIG d   1       5.458  -1.883  -1.946  0.00  0.00     0.029 H 
ATOM     72  H   LIG d   1       4.569  -0.592  -1.102  0.00  0.00     0.029 H 
ATOM     73  H   LIG d   1       3.825  -2.196  -1.311  0.00  0.00     0.029 H 
ENDBRANCH  65  70
ENDBRANCH  58  61
ENDBRANCH   4  58
TORSDOF 16
ENDMDL
MODEL 8
REMARK VINA RESULT:      -5.3      6.233      9.601
REMARK  16 active torsions:
REMARK  status: ('A' for Active; 'I' for Inactive)
REMARK    1  A    between atoms: C_1  and  C_2 
REMARK    2  A    between atoms: C_2  and  C_3 
REMARK    3  A    between atoms: N_6  and  S_25 
REMARK    4  A    between atoms: C_9  and  C_11 
REMARK    5  A    between atoms: C_11  and  C_12 
REMARK       I    between atoms: C_12  and  N_14 
REMARK    6  A    between atoms: N_14  and  C_15 
REMARK       I    between atoms: N_14  and  C_17 
REMARK    7  A    between atoms: C_15  and  C_16 
REMARK       I    between atoms: C_17  and  N_19 
REMARK    8  A    between atoms: N_19  and  C_20 
REMARK    9  A    between atoms: C_20  and  C_21 
REMARK   10  A    between atoms: C_21  and  C_22 
REMARK   11  A    between atoms: C_22  and  N_72 
REMARK   12  A    between atoms: C_23  and  N_72 
REMARK   13  A    between atoms: C_24  and  N_72 
REMARK   14  A    between atoms: S_25  and  C_28 
REMARK   15  A    between atoms: C_29  and  C_34 
REMARK   16  A    between atoms: C_32  and  C_33 
ROOT
ATOM      1  C   LIG d   1      10.136   3.073  -4.002  0.00  0.00    -0.024 C 
ATOM      2  H   LIG d   1       9.765   2.187  -3.487  0.00  0.00     0.032 H 
ATOM      3  C   LIG d   1       9.983   4.296  -3.092  0.00  0.00     0.024 C 
ATOM      4  N   LIG d   1      10.365   5.498  -3.847  0.00  0.00    -0.176 N 
ATOM      5  C   LIG d   1       9.717   5.757  -5.139  0.00  0.00     0.021 C 
ATOM      6  C   LIG d   1       9.874   4.518  -6.026  0.00  0.00    -0.035 C 
ATOM      7  C   LIG d   1       9.331   3.293  -5.285  0.00  0.00    -0.028 C 
ATOM      8  H   LIG d   1       8.283   3.456  -5.033  0.00  0.00     0.031 H 
ATOM      9  H   LIG d   1       8.946   4.382  -2.769  0.00  0.00     0.045 H 
ATOM     10  H   LIG d   1      10.632   4.187  -2.223  0.00  0.00     0.045 H 
ATOM     11  H   LIG d   1       8.658   5.962  -4.982  0.00  0.00     0.044 H 
ATOM     12  H   LIG d   1      10.190   6.612  -5.620  0.00  0.00     0.044 H 
ATOM     13  H   LIG d   1      10.928   4.365  -6.257  0.00  0.00     0.028 H 
ATOM     14  H   LIG d   1       9.315   4.659  -6.951  0.00  0.00     0.028 H 
ENDROOT
BRANCH   7  15
ATOM     15  C   LIG d   1       9.454   2.060  -6.182  0.00  0.00     0.028 C 
ATOM     16  H   LIG d   1      10.145   1.348  -5.729  0.00  0.00     0.036 H 
ATOM     17  H   LIG d   1       9.828   2.358  -7.161  0.00  0.00     0.036 H 
BRANCH  15  18
ATOM     18  C   LIG d   1       8.100   1.415  -6.337  0.00  0.00     0.223 C 
ATOM     19  O   LIG d   1       7.297   1.872  -7.121  0.00  0.00    -0.275 OA
ATOM     20  N   LIG d   1       7.783   0.329  -5.603  0.00  0.00    -0.226 N 
ATOM     21  C   LIG d   1       6.573  -0.248  -5.742  0.00  0.00     0.308 C 
ATOM     22  O   LIG d   1       5.767   0.211  -6.528  0.00  0.00    -0.252 OA
ATOM     23  N   LIG d   1       6.258  -1.337  -5.013  0.00  0.00    -0.299 N 
ATOM     24  H   LIG d   1       6.901  -1.703  -4.385  0.00  0.00     0.150 HD
BRANCH  20  25
ATOM     25  C   LIG d   1       8.754  -0.224  -4.656  0.00  0.00     0.021 C 
ATOM     26  H   LIG d   1       9.365   0.582  -4.249  0.00  0.00     0.047 H 
ATOM     27  H   LIG d   1       8.226  -0.724  -3.844  0.00  0.00     0.047 H 
BRANCH  25  28
ATOM     28  C   LIG d   1       9.652  -1.232  -5.375  0.00  0.00    -0.049 C 
ATOM     29  H   LIG d   1       9.203  -1.503  -6.329  0.00  0.00     0.025 H 
ATOM     30  H   LIG d   1      10.632  -0.786  -5.548  0.00  0.00     0.025 H 
ATOM     31  H   LIG d   1       9.764  -2.125  -4.759  0.00  0.00     0.025 H 
ENDBRANCH  25  28
ENDBRANCH  20  25
BRANCH  23  32
ATOM     32  C   LIG d   1       4.945  -1.968  -5.168  0.00  0.00     0.018 C 
ATOM     33  H   LIG d   1       4.262  -1.270  -5.652  0.00  0.00     0.046 H 
ATOM     34  H   LIG d   1       5.043  -2.864  -5.781  0.00  0.00     0.046 H 
BRANCH  32  35
ATOM     35  C   LIG d   1       4.396  -2.348  -3.792  0.00  0.00     0.003 C 
ATOM     36  H   LIG d   1       3.325  -2.144  -3.760  0.00  0.00     0.033 H 
ATOM     37  H   LIG d   1       4.569  -3.408  -3.611  0.00  0.00     0.033 H 
BRANCH  35  38
ATOM     38  C   LIG d   1       5.105  -1.525  -2.714  0.00  0.00    -0.031 C 
ATOM     39  H   LIG d   1       5.573  -2.196  -1.995  0.00  0.00     0.082 H 
ATOM     40  H   LIG d   1       5.867  -0.899  -3.178  0.00  0.00     0.082 H 
BRANCH  38  41
ATOM     41  N   LIG d   1       4.110  -0.659  -2.045  0.00  0.00     0.231 N 
ATOM     42  H   LIG d   1       3.925  -1.028  -1.106  0.00  0.00     0.203 HD
BRANCH  41  43
ATOM     43  C   LIG d   1       4.640   0.717  -1.925  0.00  0.00    -0.043 C 
ATOM     44  H   LIG d   1       5.643   0.704  -1.497  0.00  0.00     0.078 H 
ATOM     45  H   LIG d   1       4.674   1.170  -2.916  0.00  0.00     0.078 H 
ATOM     46  H   LIG d   1       3.976   1.296  -1.283  0.00  0.00     0.078 H 
ENDBRANCH  41  43
BRANCH  41  47
ATOM     47  C   LIG d   1       2.850  -0.649  -2.816  0.00  0.00    -0.043 C 
ATOM     48  H   LIG d   1       2.333   0.293  -2.636  0.00  0.00     0.078 H 
ATOM     49  H   LIG d   1       3.083  -0.740  -3.876  0.00  0.00     0.078 H 
ATOM     50  H   LIG d   1       2.209  -1.478  -2.513  0.00  0.00     0.078 H 
ENDBRANCH  41  47
ENDBRANCH  38  41
ENDBRANCH  35  38
ENDBRANCH  32  35
ENDBRANCH  23  32
ENDBRANCH  15  18
ENDBRANCH   7  15
BRANCH   1  51
ATOM     51  C   LIG d   1      11.612   2.880  -4.353  0.00  0.00    -0.052 C 
ATOM     52  H   LIG d   1      11.718   2.766  -5.432  0.00  0.00     0.027 H 
ATOM     53  H   LIG d   1      12.182   3.748  -4.022  0.00  0.00     0.027 H 
BRANCH  51  54
ATOM     54  C   LIG d   1      12.143   1.626  -3.654  0.00  0.00    -0.065 C 
ATOM     55  H   LIG d   1      11.306   1.000  -3.347  0.00  0.00     0.023 H 
ATOM     56  H   LIG d   1      12.780   1.069  -4.341  0.00  0.00     0.023 H 
ATOM     57  H   LIG d   1      12.721   1.917  -2.777  0.00  0.00     0.023 H 
ENDBRANCH  51  54
ENDBRANCH   1  51
BRANCH   4  58
ATOM     58  S   LIG d   1      11.506   6.540  -3.251  0.00  0.00     0.066 S 
ATOM     59  O   LIG d   1      12.772   5.975  -3.558  0.00  0.00    -0.153 OA
ATOM     60  O   LIG d   1      11.128   7.842  -3.676  0.00  0.00    -0.153 OA
BRANCH  58  61
ATOM     61  C   LIG d   1      11.360   6.523  -1.494  0.00  0.00     0.170 A 
ATOM     62  C   LIG d   1      10.331   6.974  -0.738  0.00  0.00     0.161 A 
ATOM     63  O   LIG d   1      10.671   6.747   0.539  0.00  0.00    -0.358 OA
ATOM     64  N   LIG d   1      11.761   6.232   0.624  0.00  0.00    -0.081 NA
ATOM     65  C   LIG d   1      12.292   6.038  -0.548  0.00  0.00     0.107 A 
BRANCH  62  66
ATOM     66  C   LIG d   1       9.056   7.606  -1.235  0.00  0.00    -0.002 C 
ATOM     67  H   LIG d   1       8.264   7.451  -0.502  0.00  0.00     0.031 H 
ATOM     68  H   LIG d   1       9.213   8.676  -1.379  0.00  0.00     0.031 H 
ATOM     69  H   LIG d   1       8.769   7.150  -2.182  0.00  0.00     0.031 H 
ENDBRANCH  62  66
BRANCH  65  70
ATOM     70  C   LIG d   1      13.637   5.422  -0.839  0.00  0.00    -0.017 C 
ATOM     71  H   LIG d   1      14.308   5.604  -0.002  0.00  0.00     0.029 H 
ATOM     72  H   LIG d   1      13.520   4.349  -0.986  0.00  0.00     0.029 H 
ATOM     73  H   LIG d   1      14.053   5.869  -1.743  0.00  0.00     0.029 H 
ENDBRANCH  65  70
ENDBRANCH  58  61
ENDBRANCH   4  58
TORSDOF 16
ENDMDL
MODEL 9
REMARK VINA RESULT:      -5.2      6.758     10.088
REMARK  16 active torsions:
REMARK  status: ('A' for Active; 'I' for Inactive)
REMARK    1  A    between atoms: C_1  and  C_2 
REMARK    2  A    between atoms: C_2  and  C_3 
REMARK    3  A    between atoms: N_6  and  S_25 
REMARK    4  A    between atoms: C_9  and  C_11 
REMARK    5  A    between atoms: C_11  and  C_12 
REMARK       I    between atoms: C_12  and  N_14 
REMARK    6  A    between atoms: N_14  and  C_15 
REMARK       I    between atoms: N_14  and  C_17 
REMARK    7  A    between atoms: C_15  and  C_16 
REMARK       I    between atoms: C_17  and  N_19 
REMARK    8  A    between atoms: N_19  and  C_20 
REMARK    9  A    between atoms: C_20  and  C_21 
REMARK   10  A    between atoms: C_21  and  C_22 
REMARK   11  A    between atoms: C_22  and  N_72 
REMARK   12  A    between atoms: C_23  and  N_72 
REMARK   13  A    between atoms: C_24  and  N_72 
REMARK   14  A    between atoms: S_25  and  C_28 
REMARK   15  A    between atoms: C_29  and  C_34 
REMARK   16  A    between atoms: C_32  and  C_33 
ROOT
ATOM      1  C   LIG d   1      10.188   3.804  -3.294  0.00  0.00    -0.024 C 
ATOM      2  H   LIG d   1       9.954   2.915  -2.708  0.00  0.00     0.032 H 
ATOM      3  C   LIG d   1      10.299   5.015  -2.362  0.00  0.00     0.024 C 
ATOM      4  N   LIG d   1      10.484   6.223  -3.178  0.00  0.00    -0.176 N 
ATOM      5  C   LIG d   1       9.520   6.508  -4.248  0.00  0.00     0.021 C 
ATOM      6  C   LIG d   1       9.418   5.280  -5.159  0.00  0.00    -0.035 C 
ATOM      7  C   LIG d   1       9.075   4.051  -4.314  0.00  0.00    -0.028 C 
ATOM      8  H   LIG d   1       8.134   4.221  -3.791  0.00  0.00     0.031 H 
ATOM      9  H   LIG d   1       9.386   5.108  -1.774  0.00  0.00     0.045 H 
ATOM     10  H   LIG d   1      11.153   4.887  -1.698  0.00  0.00     0.045 H 
ATOM     11  H   LIG d   1       8.544   6.722  -3.814  0.00  0.00     0.044 H 
ATOM     12  H   LIG d   1       9.860   7.365  -4.829  0.00  0.00     0.044 H 
ATOM     13  H   LIG d   1      10.372   5.120  -5.663  0.00  0.00     0.028 H 
ATOM     14  H   LIG d   1       8.636   5.441  -5.901  0.00  0.00     0.028 H 
ENDROOT
BRANCH   7  15
ATOM     15  C   LIG d   1       8.938   2.829  -5.225  0.00  0.00     0.028 C 
ATOM     16  H   LIG d   1       9.929   2.467  -5.499  0.00  0.00     0.036 H 
ATOM     17  H   LIG d   1       8.390   3.106  -6.125  0.00  0.00     0.036 H 
BRANCH  15  18
ATOM     18  C   LIG d   1       8.190   1.741  -4.497  0.00  0.00     0.223 C 
ATOM     19  O   LIG d   1       7.549   2.007  -3.503  0.00  0.00    -0.275 OA
ATOM     20  N   LIG d   1       8.233   0.473  -4.952  0.00  0.00    -0.226 N 
ATOM     21  C   LIG d   1       7.564  -0.499  -4.301  0.00  0.00     0.308 C 
ATOM     22  O   LIG d   1       6.922  -0.233  -3.304  0.00  0.00    -0.252 OA
ATOM     23  N   LIG d   1       7.602  -1.766  -4.759  0.00  0.00    -0.299 N 
ATOM     24  H   LIG d   1       8.116  -1.979  -5.555  0.00  0.00     0.150 HD
BRANCH  20  25
ATOM     25  C   LIG d   1       9.007   0.152  -6.154  0.00  0.00     0.021 C 
ATOM     26  H   LIG d   1       8.524  -0.665  -6.690  0.00  0.00     0.047 H 
ATOM     27  H   LIG d   1       9.059   1.030  -6.798  0.00  0.00     0.047 H 
BRANCH  25  28
ATOM     28  C   LIG d   1      10.422  -0.269  -5.751  0.00  0.00    -0.049 C 
ATOM     29  H   LIG d   1      10.448  -1.345  -5.588  0.00  0.00     0.025 H 
ATOM     30  H   LIG d   1      11.119  -0.004  -6.546  0.00  0.00     0.025 H 
ATOM     31  H   LIG d   1      10.707   0.246  -4.833  0.00  0.00     0.025 H 
ENDBRANCH  25  28
ENDBRANCH  20  25
BRANCH  23  32
ATOM     32  C   LIG d   1       6.871  -2.822  -4.056  0.00  0.00     0.018 C 
ATOM     33  H   LIG d   1       7.406  -3.766  -4.161  0.00  0.00     0.046 H 
ATOM     34  H   LIG d   1       6.790  -2.566  -3.000  0.00  0.00     0.046 H 
BRANCH  32  35
ATOM     35  C   LIG d   1       5.471  -2.960  -4.656  0.00  0.00     0.003 C 
ATOM     36  H   LIG d   1       5.358  -2.256  -5.482  0.00  0.00     0.033 H 
ATOM     37  H   LIG d   1       5.331  -3.976  -5.024  0.00  0.00     0.033 H 
BRANCH  35  38
ATOM     38  C   LIG d   1       4.423  -2.659  -3.582  0.00  0.00    -0.031 C 
ATOM     39  H   LIG d   1       3.957  -3.589  -3.258  0.00  0.00     0.082 H 
ATOM     40  H   LIG d   1       4.904  -2.177  -2.731  0.00  0.00     0.082 H 
BRANCH  38  41
ATOM     41  N   LIG d   1       3.411  -1.741  -4.148  0.00  0.00     0.231 N 
ATOM     42  H   LIG d   1       2.650  -2.294  -4.555  0.00  0.00     0.203 HD
BRANCH  41  43
ATOM     43  C   LIG d   1       2.860  -0.878  -3.080  0.00  0.00    -0.043 C 
ATOM     44  H   LIG d   1       3.211   0.147  -3.199  0.00  0.00     0.078 H 
ATOM     45  H   LIG d   1       1.772  -0.899  -3.136  0.00  0.00     0.078 H 
ATOM     46  H   LIG d   1       3.183  -1.264  -2.113  0.00  0.00     0.078 H 
ENDBRANCH  41  43
BRANCH  41  47
ATOM     47  C   LIG d   1       4.021  -0.908  -5.205  0.00  0.00    -0.043 C 
ATOM     48  H   LIG d   1       3.249  -0.626  -5.921  0.00  0.00     0.078 H 
ATOM     49  H   LIG d   1       4.442  -0.011  -4.752  0.00  0.00     0.078 H 
ATOM     50  H   LIG d   1       4.809  -1.459  -5.720  0.00  0.00     0.078 H 
ENDBRANCH  41  47
ENDBRANCH  38  41
ENDBRANCH  35  38
ENDBRANCH  32  35
ENDBRANCH  23  32
ENDBRANCH  15  18
ENDBRANCH   7  15
BRANCH   1  51
ATOM     51  C   LIG d   1      11.515   3.600  -4.026  0.00  0.00    -0.052 C 
ATOM     52  H   LIG d   1      11.342   3.605  -5.102  0.00  0.00     0.027 H 
ATOM     53  H   LIG d   1      12.203   4.405  -3.764  0.00  0.00     0.027 H 
BRANCH  51  54
ATOM     54  C   LIG d   1      12.124   2.257  -3.615  0.00  0.00    -0.065 C 
ATOM     55  H   LIG d   1      11.558   1.446  -4.072  0.00  0.00     0.023 H 
ATOM     56  H   LIG d   1      13.160   2.211  -3.948  0.00  0.00     0.023 H 
ATOM     57  H   LIG d   1      12.087   2.159  -2.529  0.00  0.00     0.023 H 
ENDBRANCH  51  54
ENDBRANCH   1  51
BRANCH   4  58
ATOM     58  S   LIG d   1      11.756   7.245  -2.894  0.00  0.00     0.066 S 
ATOM     59  O   LIG d   1      12.939   6.510  -3.177  0.00  0.00    -0.153 OA
ATOM     60  O   LIG d   1      11.447   8.470  -3.545  0.00  0.00    -0.153 OA
BRANCH  58  61
ATOM     61  C   LIG d   1      11.777   7.585  -1.165  0.00  0.00     0.170 A 
ATOM     62  C   LIG d   1      12.794   7.399  -0.290  0.00  0.00     0.161 A 
ATOM     63  O   LIG d   1      12.344   7.802   0.906  0.00  0.00    -0.358 OA
ATOM     64  N   LIG d   1      11.201   8.190   0.844  0.00  0.00    -0.081 NA
ATOM     65  C   LIG d   1      10.734   8.111  -0.369  0.00  0.00     0.107 A 
BRANCH  62  66
ATOM     66  C   LIG d   1      14.162   6.848  -0.602  0.00  0.00    -0.002 C 
ATOM     67  H   LIG d   1      14.265   5.858  -0.156  0.00  0.00     0.031 H 
ATOM     68  H   LIG d   1      14.286   6.774  -1.683  0.00  0.00     0.031 H 
ATOM     69  H   LIG d   1      14.923   7.511  -0.193  0.00  0.00     0.031 H 
ENDBRANCH  62  66
BRANCH  65  70
ATOM     70  C   LIG d   1       9.353   8.501  -0.832  0.00  0.00    -0.017 C 
ATOM     71  H   LIG d   1       8.780   8.880   0.013  0.00  0.00     0.029 H 
ATOM     72  H   LIG d   1       9.432   9.275  -1.596  0.00  0.00     0.029 H 
ATOM     73  H   LIG d   1       8.851   7.628  -1.250  0.00  0.00     0.029 H 
ENDBRANCH  65  70
ENDBRANCH  58  61
ENDBRANCH   4  58
TORSDOF 16
ENDMDL
MODEL 10
REMARK VINA RESULT:      -5.2      7.489     10.406
REMARK  16 active torsions:
REMARK  status: ('A' for Active; 'I' for Inactive)
REMARK    1  A    between atoms: C_1  and  C_2 
REMARK    2  A    between atoms: C_2  and  C_3 
REMARK    3  A    between atoms: N_6  and  S_25 
REMARK    4  A    between atoms: C_9  and  C_11 
REMARK    5  A    between atoms: C_11  and  C_12 
REMARK       I    between atoms: C_12  and  N_14 
REMARK    6  A    between atoms: N_14  and  C_15 
REMARK       I    between atoms: N_14  and  C_17 
REMARK    7  A    between atoms: C_15  and  C_16 
REMARK       I    between atoms: C_17  and  N_19 
REMARK    8  A    between atoms: N_19  and  C_20 
REMARK    9  A    between atoms: C_20  and  C_21 
REMARK   10  A    between atoms: C_21  and  C_22 
REMARK   11  A    between atoms: C_22  and  N_72 
REMARK   12  A    between atoms: C_23  and  N_72 
REMARK   13  A    between atoms: C_24  and  N_72 
REMARK   14  A    between atoms: S_25  and  C_28 
REMARK   15  A    between atoms: C_29  and  C_34 
REMARK   16  A    between atoms: C_32  and  C_33 
ROOT
ATOM      1  C   LIG d   1      10.319   4.935  -2.280  0.00  0.00    -0.024 C 
ATOM      2  H   LIG d   1      10.115   4.383  -1.363  0.00  0.00     0.032 H 
ATOM      3  C   LIG d   1       9.935   6.406  -2.088  0.00  0.00     0.024 C 
ATOM      4  N   LIG d   1      10.093   7.107  -3.369  0.00  0.00    -0.176 N 
ATOM      5  C   LIG d   1       9.417   6.569  -4.557  0.00  0.00     0.021 C 
ATOM      6  C   LIG d   1       9.807   5.097  -4.722  0.00  0.00    -0.035 C 
ATOM      7  C   LIG d   1       9.496   4.343  -3.427  0.00  0.00    -0.028 C 
ATOM      8  H   LIG d   1       8.434   4.437  -3.198  0.00  0.00     0.031 H 
ATOM      9  H   LIG d   1       8.898   6.473  -1.760  0.00  0.00     0.045 H 
ATOM     10  H   LIG d   1      10.587   6.858  -1.340  0.00  0.00     0.045 H 
ATOM     11  H   LIG d   1       8.338   6.649  -4.431  0.00  0.00     0.044 H 
ATOM     12  H   LIG d   1       9.726   7.129  -5.439  0.00  0.00     0.044 H 
ATOM     13  H   LIG d   1      10.873   5.024  -4.938  0.00  0.00     0.028 H 
ATOM     14  H   LIG d   1       9.238   4.659  -5.542  0.00  0.00     0.028 H 
ENDROOT
BRANCH   7  15
ATOM     15  C   LIG d   1       9.851   2.865  -3.599  0.00  0.00     0.028 C 
ATOM     16  H   LIG d   1      10.337   2.500  -2.694  0.00  0.00     0.036 H 
ATOM     17  H   LIG d   1      10.528   2.750  -4.446  0.00  0.00     0.036 H 
BRANCH  15  18
ATOM     18  C   LIG d   1       8.594   2.072  -3.849  0.00  0.00     0.223 C 
ATOM     19  O   LIG d   1       7.529   2.477  -3.435  0.00  0.00    -0.275 OA
ATOM     20  N   LIG d   1       8.654   0.912  -4.534  0.00  0.00    -0.226 N 
ATOM     21  C   LIG d   1       7.530   0.203  -4.757  0.00  0.00     0.308 C 
ATOM     22  O   LIG d   1       6.462   0.609  -4.341  0.00  0.00    -0.252 OA
ATOM     23  N   LIG d   1       7.589  -0.954  -5.446  0.00  0.00    -0.299 N 
ATOM     24  H   LIG d   1       8.442  -1.278  -5.777  0.00  0.00     0.150 HD
BRANCH  20  25
ATOM     25  C   LIG d   1       9.941   0.423  -5.034  0.00  0.00     0.021 C 
ATOM     26  H   LIG d   1      10.738   0.744  -4.363  0.00  0.00     0.047 H 
ATOM     27  H   LIG d   1       9.923  -0.666  -5.081  0.00  0.00     0.047 H 
BRANCH  25  28
ATOM     28  C   LIG d   1      10.193   0.988  -6.433  0.00  0.00    -0.049 C 
ATOM     29  H   LIG d   1       9.366   0.717  -7.089  0.00  0.00     0.025 H 
ATOM     30  H   LIG d   1      10.271   2.074  -6.377  0.00  0.00     0.025 H 
ATOM     31  H   LIG d   1      11.122   0.578  -6.830  0.00  0.00     0.025 H 
ENDBRANCH  25  28
ENDBRANCH  20  25
BRANCH  23  32
ATOM     32  C   LIG d   1       6.367  -1.722  -5.695  0.00  0.00     0.018 C 
ATOM     33  H   LIG d   1       5.516  -1.043  -5.752  0.00  0.00     0.046 H 
ATOM     34  H   LIG d   1       6.464  -2.263  -6.636  0.00  0.00     0.046 H 
BRANCH  32  35
ATOM     35  C   LIG d   1       6.149  -2.717  -4.554  0.00  0.00     0.003 C 
ATOM     36  H   LIG d   1       6.364  -3.727  -4.907  0.00  0.00     0.033 H 
ATOM     37  H   LIG d   1       6.813  -2.473  -3.726  0.00  0.00     0.033 H 
BRANCH  35  38
ATOM     38  C   LIG d   1       4.695  -2.641  -4.081  0.00  0.00    -0.031 C 
ATOM     39  H   LIG d   1       4.030  -2.765  -4.935  0.00  0.00     0.082 H 
ATOM     40  H   LIG d   1       4.508  -3.433  -3.356  0.00  0.00     0.082 H 
BRANCH  38  41
ATOM     41  N   LIG d   1       4.473  -1.331  -3.434  0.00  0.00     0.231 N 
ATOM     42  H   LIG d   1       5.248  -0.703  -3.676  0.00  0.00     0.203 HD
BRANCH  41  43
ATOM     43  C   LIG d   1       3.207  -0.738  -3.919  0.00  0.00    -0.043 C 
ATOM     44  H   LIG d   1       2.379  -1.023  -3.270  0.00  0.00     0.078 H 
ATOM     45  H   LIG d   1       3.306   0.347  -3.926  0.00  0.00     0.078 H 
ATOM     46  H   LIG d   1       3.016  -1.093  -4.931  0.00  0.00     0.078 H 
ENDBRANCH  41  43
BRANCH  41  47
ATOM     47  C   LIG d   1       4.425  -1.494  -1.967  0.00  0.00    -0.043 C 
ATOM     48  H   LIG d   1       3.501  -2.006  -1.698  0.00  0.00     0.078 H 
ATOM     49  H   LIG d   1       5.278  -2.092  -1.649  0.00  0.00     0.078 H 
ATOM     50  H   LIG d   1       4.458  -0.523  -1.472  0.00  0.00     0.078 H 
ENDBRANCH  41  47
ENDBRANCH  38  41
ENDBRANCH  35  38
ENDBRANCH  32  35
ENDBRANCH  23  32
ENDBRANCH  15  18
ENDBRANCH   7  15
BRANCH   1  51
ATOM     51  C   LIG d   1      11.808   4.836  -2.616  0.00  0.00    -0.052 C 
ATOM     52  H   LIG d   1      12.057   3.804  -2.865  0.00  0.00     0.027 H 
ATOM     53  H   LIG d   1      12.032   5.479  -3.468  0.00  0.00     0.027 H 
BRANCH  51  54
ATOM     54  C   LIG d   1      12.635   5.282  -1.409  0.00  0.00    -0.065 C 
ATOM     55  H   LIG d   1      13.181   4.429  -1.007  0.00  0.00     0.023 H 
ATOM     56  H   LIG d   1      13.340   6.054  -1.717  0.00  0.00     0.023 H 
ATOM     57  H   LIG d   1      11.971   5.682  -0.642  0.00  0.00     0.023 H 
ENDBRANCH  51  54
ENDBRANCH   1  51
BRANCH   4  58
ATOM     58  S   LIG d   1      11.016   8.478  -3.472  0.00  0.00     0.066 S 
ATOM     59  O   LIG d   1      11.760   8.558  -2.265  0.00  0.00    -0.153 OA
ATOM     60  O   LIG d   1      11.638   8.454  -4.751  0.00  0.00    -0.153 OA
BRANCH  58  61
ATOM     61  C   LIG d   1       9.912   9.851  -3.475  0.00  0.00     0.170 A 
ATOM     62  C   LIG d   1       9.341  10.465  -2.410  0.00  0.00     0.161 A 
ATOM     63  O   LIG d   1       8.584  11.454  -2.904  0.00  0.00    -0.358 OA
ATOM     64  N   LIG d   1       8.634  11.493  -4.112  0.00  0.00    -0.081 NA
ATOM     65  C   LIG d   1       9.414  10.566  -4.589  0.00  0.00     0.107 A 
BRANCH  62  66
ATOM     66  C   LIG d   1       9.521  10.104  -0.958  0.00  0.00    -0.002 C 
ATOM     67  H   LIG d   1      10.542   9.758  -0.794  0.00  0.00     0.031 H 
ATOM     68  H   LIG d   1       9.332  10.982  -0.340  0.00  0.00     0.031 H 
ATOM     69  H   LIG d   1       8.822   9.313  -0.690  0.00  0.00     0.031 H 
ENDBRANCH  62  66
BRANCH  65  70
ATOM     70  C   LIG d   1       9.722  10.304  -6.041  0.00  0.00    -0.017 C 
ATOM     71  H   LIG d   1       9.637   9.237  -6.243  0.00  0.00     0.029 H 
ATOM     72  H   LIG d   1       9.015  10.850  -6.665  0.00  0.00     0.029 H 
ATOM     73  H   LIG d   1      10.735  10.637  -6.262  0.00  0.00     0.029 H 
ENDBRANCH  65  70
ENDBRANCH  58  61
ENDBRANCH   4  58
TORSDOF 16
ENDMDL
