MODEL 1
REMARK VINA RESULT:      -5.5      0.000      0.000
REMARK  5 active torsions:
REMARK  status: ('A' for Active; 'I' for Inactive)
REMARK    1  A    between atoms: C_1  and  C_2 
REMARK    2  A    between atoms: C_9  and  O_12 
REMARK    3  A    between atoms: O_12  and  C_13 
REMARK    4  A    between atoms: C_15  and  C_18 
REMARK    5  A    between atoms: C_18  and  O_19 
ROOT
ATOM      1  C   LIG d   1       4.527  -2.472  -5.520  0.00  0.00     0.186 A 
ATOM      2  C   LIG d   1       4.279  -1.375  -4.709  0.00  0.00     0.065 A 
ATOM      3  C   LIG d   1       3.766  -0.209  -5.248  0.00  0.00     0.144 A 
ATOM      4  C   LIG d   1       3.497  -0.199  -6.639  0.00  0.00     0.092 A 
ATOM      5  C   LIG d   1       2.965   0.936  -7.267  0.00  0.00    -0.044 A 
ATOM      6  C   LIG d   1       2.716   0.913  -8.606  0.00  0.00    -0.057 A 
ATOM      7  C   LIG d   1       2.985  -0.224  -9.363  0.00  0.00    -0.013 A 
ATOM      8  C   LIG d   1       3.503  -1.347  -8.785  0.00  0.00     0.192 A 
ATOM      9  C   LIG d   1       3.773  -1.359  -7.400  0.00  0.00     0.259 A 
ATOM     10  N   LIG d   1       4.285  -2.445  -6.810  0.00  0.00    -0.205 N 
ATOM     11  O   LIG d   1       3.617   0.753  -4.305  0.00  0.00    -0.485 OA
ATOM     12  C   LIG d   1       3.611   0.141  -3.003  0.00  0.00     0.127 C 
ATOM     13  H   LIG d   1       2.594  -0.115  -2.700  0.00  0.00     0.076 H 
ATOM     14  C   LIG d   1       4.456  -1.136  -3.223  0.00  0.00     0.021 C 
ATOM     15  H   LIG d   1       2.753   1.826  -6.691  0.00  0.00     0.063 H 
ATOM     16  H   LIG d   1       2.306   1.789  -9.087  0.00  0.00     0.062 H 
ATOM     17  H   LIG d   1       2.779  -0.218 -10.424  0.00  0.00     0.066 H 
ATOM     18  H   LIG d   1       4.059  -1.971  -2.646  0.00  0.00     0.035 H 
ATOM     19  H   LIG d   1       5.502  -0.957  -2.979  0.00  0.00     0.035 H 
ATOM     20  H   LIG d   1       4.477  -3.229  -7.346  0.00  0.00     0.453 HD
ENDROOT
BRANCH  12  21
ATOM     21  C   LIG d   1       4.266   1.059  -1.970  0.00  0.00     0.081 C 
ATOM     22  H   LIG d   1       3.651   1.949  -1.832  0.00  0.00     0.059 H 
ATOM     23  H   LIG d   1       4.358   0.531  -1.021  0.00  0.00     0.059 H 
BRANCH  21  24
ATOM     24  O   LIG d   1       5.563   1.443  -2.430  0.00  0.00    -0.391 OA
ATOM     25  H   LIG d   1       6.274   0.855  -2.137  0.00  0.00     0.210 HD
ENDBRANCH  21  24
ENDBRANCH  12  21
BRANCH   1  26
ATOM     26  C   LIG d   1       5.095  -3.726  -4.905  0.00  0.00     0.021 C 
ATOM     27  H   LIG d   1       4.284  -4.413  -4.666  0.00  0.00     0.034 H 
ATOM     28  H   LIG d   1       5.777  -4.199  -5.611  0.00  0.00     0.034 H 
ATOM     29  H   LIG d   1       5.635  -3.470  -3.993  0.00  0.00     0.034 H 
ENDBRANCH   1  26
BRANCH   8  30
ATOM     30  O   LIG d   1       3.758  -2.448  -9.539  0.00  0.00    -0.489 OA
BRANCH  30  31
ATOM     31  C   LIG d   1       2.631  -3.216  -9.967  0.00  0.00     0.079 C 
ATOM     32  H   LIG d   1       1.755  -2.931  -9.383  0.00  0.00     0.066 H 
ATOM     33  H   LIG d   1       2.442  -3.027 -11.023  0.00  0.00     0.066 H 
ATOM     34  H   LIG d   1       2.837  -4.276  -9.818  0.00  0.00     0.066 H 
ENDBRANCH  30  31
ENDBRANCH   8  30
TORSDOF 5
ENDMDL
MODEL 2
REMARK VINA RESULT:      -5.3      8.683     10.888
REMARK  5 active torsions:
REMARK  status: ('A' for Active; 'I' for Inactive)
REMARK    1  A    between atoms: C_1  and  C_2 
REMARK    2  A    between atoms: C_9  and  O_12 
REMARK    3  A    between atoms: O_12  and  C_13 
REMARK    4  A    between atoms: C_15  and  C_18 
REMARK    5  A    between atoms: C_18  and  O_19 
ROOT
ATOM      1  C   LIG d   1      10.704   6.069  -0.234  0.00  0.00     0.186 A 
ATOM      2  C   LIG d   1      10.379   7.349  -0.655  0.00  0.00     0.065 A 
ATOM      3  C   LIG d   1       9.951   7.571  -1.951  0.00  0.00     0.144 A 
ATOM      4  C   LIG d   1       9.849   6.444  -2.805  0.00  0.00     0.092 A 
ATOM      5  C   LIG d   1       9.412   6.574  -4.131  0.00  0.00    -0.044 A 
ATOM      6  C   LIG d   1       9.323   5.471  -4.924  0.00  0.00    -0.057 A 
ATOM      7  C   LIG d   1       9.662   4.212  -4.437  0.00  0.00    -0.013 A 
ATOM      8  C   LIG d   1      10.091   4.047  -3.152  0.00  0.00     0.192 A 
ATOM      9  C   LIG d   1      10.194   5.168  -2.301  0.00  0.00     0.259 A 
ATOM     10  N   LIG d   1      10.616   5.035  -1.038  0.00  0.00    -0.205 N 
ATOM     11  O   LIG d   1       9.705   8.884  -2.178  0.00  0.00    -0.485 OA
ATOM     12  C   LIG d   1       9.536   9.558  -0.918  0.00  0.00     0.127 C 
ATOM     13  H   LIG d   1       8.487   9.559  -0.618  0.00  0.00     0.076 H 
ATOM     14  C   LIG d   1      10.382   8.693   0.046  0.00  0.00     0.021 C 
ATOM     15  H   LIG d   1       9.147   7.547  -4.521  0.00  0.00     0.063 H 
ATOM     16  H   LIG d   1       8.987   5.574  -5.945  0.00  0.00     0.062 H 
ATOM     17  H   LIG d   1       9.583   3.352  -5.086  0.00  0.00     0.066 H 
ATOM     18  H   LIG d   1       9.906   8.621   1.024  0.00  0.00     0.035 H 
ATOM     19  H   LIG d   1      11.394   9.084   0.134  0.00  0.00     0.035 H 
ATOM     20  H   LIG d   1      10.859   4.156  -0.710  0.00  0.00     0.453 HD
ENDROOT
BRANCH  12  21
ATOM     21  C   LIG d   1      10.078  10.986  -0.990  0.00  0.00     0.081 C 
ATOM     22  H   LIG d   1      10.126  11.407   0.015  0.00  0.00     0.059 H 
ATOM     23  H   LIG d   1      11.077  10.975  -1.426  0.00  0.00     0.059 H 
BRANCH  21  24
ATOM     24  O   LIG d   1       9.213  11.785  -1.799  0.00  0.00    -0.391 OA
ATOM     25  H   LIG d   1       8.328  11.410  -1.916  0.00  0.00     0.210 HD
ENDBRANCH  21  24
ENDBRANCH  12  21
BRANCH   1  26
ATOM     26  C   LIG d   1      11.175   5.860   1.183  0.00  0.00     0.021 C 
ATOM     27  H   LIG d   1      10.343   6.011   1.869  0.00  0.00     0.034 H 
ATOM     28  H   LIG d   1      11.558   4.846   1.292  0.00  0.00     0.034 H 
ATOM     29  H   LIG d   1      11.968   6.574   1.410  0.00  0.00     0.034 H 
ENDBRANCH   1  26
BRANCH   8  30
ATOM     30  O   LIG d   1      10.417   2.811  -2.693  0.00  0.00    -0.489 OA
BRANCH  30  31
ATOM     31  C   LIG d   1      11.358   2.060  -3.463  0.00  0.00     0.079 C 
ATOM     32  H   LIG d   1      11.987   1.472  -2.794  0.00  0.00     0.066 H 
ATOM     33  H   LIG d   1      10.825   1.394  -4.140  0.00  0.00     0.066 H 
ATOM     34  H   LIG d   1      11.982   2.743  -4.041  0.00  0.00     0.066 H 
ENDBRANCH  30  31
ENDBRANCH   8  30
TORSDOF 5
ENDMDL
MODEL 3
REMARK VINA RESULT:      -5.3      3.390      5.493
REMARK  5 active torsions:
REMARK  status: ('A' for Active; 'I' for Inactive)
REMARK    1  A    between atoms: C_1  and  C_2 
REMARK    2  A    between atoms: C_9  and  O_12 
REMARK    3  A    between atoms: O_12  and  C_13 
REMARK    4  A    between atoms: C_15  and  C_18 
REMARK    5  A    between atoms: C_18  and  O_19 
ROOT
ATOM      1  C   LIG d   1       7.036   0.040  -5.464  0.00  0.00     0.186 A 
ATOM      2  C   LIG d   1       7.676  -1.075  -4.948  0.00  0.00     0.065 A 
ATOM      3  C   LIG d   1       7.042  -1.878  -4.018  0.00  0.00     0.144 A 
ATOM      4  C   LIG d   1       5.725  -1.519  -3.638  0.00  0.00     0.092 A 
ATOM      5  C   LIG d   1       5.002  -2.282  -2.710  0.00  0.00    -0.044 A 
ATOM      6  C   LIG d   1       3.738  -1.910  -2.368  0.00  0.00    -0.057 A 
ATOM      7  C   LIG d   1       3.150  -0.779  -2.927  0.00  0.00    -0.013 A 
ATOM      8  C   LIG d   1       3.823  -0.012  -3.834  0.00  0.00     0.192 A 
ATOM      9  C   LIG d   1       5.136  -0.368  -4.212  0.00  0.00     0.259 A 
ATOM     10  N   LIG d   1       5.819   0.369  -5.095  0.00  0.00    -0.205 N 
ATOM     11  O   LIG d   1       7.836  -2.901  -3.617  0.00  0.00    -0.485 OA
ATOM     12  C   LIG d   1       8.885  -3.092  -4.582  0.00  0.00     0.127 C 
ATOM     13  H   LIG d   1       8.583  -3.811  -5.344  0.00  0.00     0.076 H 
ATOM     14  C   LIG d   1       9.045  -1.679  -5.194  0.00  0.00     0.021 C 
ATOM     15  H   LIG d   1       5.448  -3.162  -2.268  0.00  0.00     0.063 H 
ATOM     16  H   LIG d   1       3.184  -2.500  -1.653  0.00  0.00     0.062 H 
ATOM     17  H   LIG d   1       2.145  -0.505  -2.640  0.00  0.00     0.066 H 
ATOM     18  H   LIG d   1       9.257  -1.738  -6.261  0.00  0.00     0.035 H 
ATOM     19  H   LIG d   1       9.818  -1.115  -4.675  0.00  0.00     0.035 H 
ATOM     20  H   LIG d   1       5.406   1.160  -5.473  0.00  0.00     0.453 HD
ENDROOT
BRANCH  12  21
ATOM     21  C   LIG d   1      10.178  -3.540  -3.898  0.00  0.00     0.081 C 
ATOM     22  H   LIG d   1      10.472  -4.517  -4.282  0.00  0.00     0.059 H 
ATOM     23  H   LIG d   1      10.967  -2.817  -4.103  0.00  0.00     0.059 H 
BRANCH  21  24
ATOM     24  O   LIG d   1       9.964  -3.626  -2.488  0.00  0.00    -0.391 OA
ATOM     25  H   LIG d   1       9.301  -3.007  -2.152  0.00  0.00     0.210 HD
ENDBRANCH  21  24
ENDBRANCH  12  21
BRANCH   1  26
ATOM     26  C   LIG d   1       7.756   0.900  -6.470  0.00  0.00     0.021 C 
ATOM     27  H   LIG d   1       7.583   0.510  -7.473  0.00  0.00     0.034 H 
ATOM     28  H   LIG d   1       7.382   1.922  -6.408  0.00  0.00     0.034 H 
ATOM     29  H   LIG d   1       8.825   0.891  -6.256  0.00  0.00     0.034 H 
ENDBRANCH   1  26
BRANCH   8  30
ATOM     30  O   LIG d   1       3.234   1.088  -4.370  0.00  0.00    -0.489 OA
BRANCH  30  31
ATOM     31  C   LIG d   1       2.290   0.871  -5.421  0.00  0.00     0.079 C 
ATOM     32  H   LIG d   1       1.426   1.518  -5.273  0.00  0.00     0.066 H 
ATOM     33  H   LIG d   1       2.755   1.098  -6.380  0.00  0.00     0.066 H 
ATOM     34  H   LIG d   1       1.969  -0.171  -5.411  0.00  0.00     0.066 H 
ENDBRANCH  30  31
ENDBRANCH   8  30
TORSDOF 5
ENDMDL
MODEL 4
REMARK VINA RESULT:      -4.9      9.434     11.306
REMARK  5 active torsions:
REMARK  status: ('A' for Active; 'I' for Inactive)
REMARK    1  A    between atoms: C_1  and  C_2 
REMARK    2  A    between atoms: C_9  and  O_12 
REMARK    3  A    between atoms: O_12  and  C_13 
REMARK    4  A    between atoms: C_15  and  C_18 
REMARK    5  A    between atoms: C_18  and  O_19 
ROOT
ATOM      1  C   LIG d   1      10.213   8.922  -1.697  0.00  0.00     0.186 A 
ATOM      2  C   LIG d   1      10.459   7.834  -0.874  0.00  0.00     0.065 A 
ATOM      3  C   LIG d   1      10.379   6.547  -1.372  0.00  0.00     0.144 A 
ATOM      4  C   LIG d   1      10.054   6.400  -2.744  0.00  0.00     0.092 A 
ATOM      5  C   LIG d   1       9.963   5.132  -3.337  0.00  0.00    -0.044 A 
ATOM      6  C   LIG d   1       9.651   5.025  -4.658  0.00  0.00    -0.057 A 
ATOM      7  C   LIG d   1       9.418   6.159  -5.431  0.00  0.00    -0.013 A 
ATOM      8  C   LIG d   1       9.498   7.409  -4.888  0.00  0.00     0.192 A 
ATOM      9  C   LIG d   1       9.820   7.557  -3.522  0.00  0.00     0.259 A 
ATOM     10  N   LIG d   1       9.901   8.771  -2.964  0.00  0.00    -0.205 N 
ATOM     11  O   LIG d   1      10.629   5.623  -0.412  0.00  0.00    -0.485 OA
ATOM     12  C   LIG d   1      11.320   6.253   0.681  0.00  0.00     0.127 C 
ATOM     13  H   LIG d   1      12.400   6.193   0.541  0.00  0.00     0.076 H 
ATOM     14  C   LIG d   1      10.835   7.719   0.590  0.00  0.00     0.021 C 
ATOM     15  H   LIG d   1      10.140   4.243  -2.747  0.00  0.00     0.063 H 
ATOM     16  H   LIG d   1       9.581   4.047  -5.112  0.00  0.00     0.062 H 
ATOM     17  H   LIG d   1       9.172   6.048  -6.477  0.00  0.00     0.066 H 
ATOM     18  H   LIG d   1      11.639   8.412   0.840  0.00  0.00     0.035 H 
ATOM     19  H   LIG d   1       9.969   7.883   1.229  0.00  0.00     0.035 H 
ATOM     20  H   LIG d   1       9.729   9.554  -3.507  0.00  0.00     0.453 HD
ENDROOT
BRANCH  12  21
ATOM     21  C   LIG d   1      10.913   5.624   2.014  0.00  0.00     0.081 C 
ATOM     22  H   LIG d   1       9.849   5.384   1.993  0.00  0.00     0.059 H 
ATOM     23  H   LIG d   1      11.487   4.713   2.178  0.00  0.00     0.059 H 
BRANCH  21  24
ATOM     24  O   LIG d   1      11.171   6.547   3.074  0.00  0.00    -0.391 OA
ATOM     25  H   LIG d   1      11.809   6.227   3.728  0.00  0.00     0.210 HD
ENDBRANCH  21  24
ENDBRANCH  12  21
BRANCH   1  26
ATOM     26  C   LIG d   1      10.299  10.312  -1.123  0.00  0.00     0.021 C 
ATOM     27  H   LIG d   1      10.615  10.256  -0.082  0.00  0.00     0.034 H 
ATOM     28  H   LIG d   1      11.023  10.896  -1.691  0.00  0.00     0.034 H 
ATOM     29  H   LIG d   1       9.321  10.790  -1.181  0.00  0.00     0.034 H 
ENDBRANCH   1  26
BRANCH   8  30
ATOM     30  O   LIG d   1       9.269   8.504  -5.657  0.00  0.00    -0.489 OA
BRANCH  30  31
ATOM     31  C   LIG d   1       9.233   8.307  -7.072  0.00  0.00     0.079 C 
ATOM     32  H   LIG d   1       9.636   9.188  -7.572  0.00  0.00     0.066 H 
ATOM     33  H   LIG d   1       9.833   7.435  -7.333  0.00  0.00     0.066 H 
ATOM     34  H   LIG d   1       8.203   8.148  -7.391  0.00  0.00     0.066 H 
ENDBRANCH  30  31
ENDBRANCH   8  30
TORSDOF 5
ENDMDL
MODEL 5
REMARK VINA RESULT:      -4.9      8.639     11.687
REMARK  5 active torsions:
REMARK  status: ('A' for Active; 'I' for Inactive)
REMARK    1  A    between atoms: C_1  and  C_2 
REMARK    2  A    between atoms: C_9  and  O_12 
REMARK    3  A    between atoms: O_12  and  C_13 
REMARK    4  A    between atoms: C_15  and  C_18 
REMARK    5  A    between atoms: C_18  and  O_19 
ROOT
ATOM      1  C   LIG d   1       9.565   6.677  -3.719  0.00  0.00     0.186 A 
ATOM      2  C   LIG d   1       9.924   5.361  -3.472  0.00  0.00     0.065 A 
ATOM      3  C   LIG d   1      10.434   4.994  -2.241  0.00  0.00     0.144 A 
ATOM      4  C   LIG d   1      10.553   6.008  -1.258  0.00  0.00     0.092 A 
ATOM      5  C   LIG d   1      11.049   5.723   0.023  0.00  0.00    -0.044 A 
ATOM      6  C   LIG d   1      11.150   6.720   0.945  0.00  0.00    -0.057 A 
ATOM      7  C   LIG d   1      10.768   8.022   0.634  0.00  0.00    -0.013 A 
ATOM      8  C   LIG d   1      10.281   8.336  -0.602  0.00  0.00     0.192 A 
ATOM      9  C   LIG d   1      10.162   7.328  -1.582  0.00  0.00     0.259 A 
ATOM     10  N   LIG d   1       9.692   7.609  -2.803  0.00  0.00    -0.205 N 
ATOM     11  O   LIG d   1      10.746   3.676  -2.202  0.00  0.00    -0.485 OA
ATOM     12  C   LIG d   1      10.055   2.995  -3.264  0.00  0.00     0.127 C 
ATOM     13  H   LIG d   1       9.085   2.630  -2.923  0.00  0.00     0.076 H 
ATOM     14  C   LIG d   1       9.880   4.108  -4.325  0.00  0.00     0.021 C 
ATOM     15  H   LIG d   1      11.350   4.716   0.276  0.00  0.00     0.063 H 
ATOM     16  H   LIG d   1      11.532   6.498   1.930  0.00  0.00     0.062 H 
ATOM     17  H   LIG d   1      10.857   8.795   1.383  0.00  0.00     0.066 H 
ATOM     18  H   LIG d   1       8.919   4.017  -4.831  0.00  0.00     0.035 H 
ATOM     19  H   LIG d   1      10.700   4.096  -5.041  0.00  0.00     0.035 H 
ATOM     20  H   LIG d   1       9.437   8.520  -3.014  0.00  0.00     0.453 HD
ENDROOT
BRANCH  12  21
ATOM     21  C   LIG d   1      10.901   1.845  -3.814  0.00  0.00     0.081 C 
ATOM     22  H   LIG d   1      10.380   0.901  -3.652  0.00  0.00     0.059 H 
ATOM     23  H   LIG d   1      11.064   1.992  -4.881  0.00  0.00     0.059 H 
BRANCH  21  24
ATOM     24  O   LIG d   1      12.159   1.816  -3.138  0.00  0.00    -0.391 OA
ATOM     25  H   LIG d   1      12.888   1.479  -3.679  0.00  0.00     0.210 HD
ENDBRANCH  21  24
ENDBRANCH  12  21
BRANCH   1  26
ATOM     26  C   LIG d   1       9.020   7.048  -5.074  0.00  0.00     0.021 C 
ATOM     27  H   LIG d   1       9.843   7.320  -5.734  0.00  0.00     0.034 H 
ATOM     28  H   LIG d   1       8.482   6.199  -5.495  0.00  0.00     0.034 H 
ATOM     29  H   LIG d   1       8.341   7.895  -4.972  0.00  0.00     0.034 H 
ENDBRANCH   1  26
BRANCH   8  30
ATOM     30  O   LIG d   1       9.912   9.611  -0.887  0.00  0.00    -0.489 OA
BRANCH  30  31
ATOM     31  C   LIG d   1       9.987  10.562   0.177  0.00  0.00     0.079 C 
ATOM     32  H   LIG d   1       9.321  11.398  -0.036  0.00  0.00     0.066 H 
ATOM     33  H   LIG d   1       9.687  10.086   1.111  0.00  0.00     0.066 H 
ATOM     34  H   LIG d   1      11.010  10.927   0.268  0.00  0.00     0.066 H 
ENDBRANCH  30  31
ENDBRANCH   8  30
TORSDOF 5
ENDMDL
MODEL 6
REMARK VINA RESULT:      -4.9      3.514      5.068
REMARK  5 active torsions:
REMARK  status: ('A' for Active; 'I' for Inactive)
REMARK    1  A    between atoms: C_1  and  C_2 
REMARK    2  A    between atoms: C_9  and  O_12 
REMARK    3  A    between atoms: O_12  and  C_13 
REMARK    4  A    between atoms: C_15  and  C_18 
REMARK    5  A    between atoms: C_18  and  O_19 
ROOT
ATOM      1  C   LIG d   1       7.283  -0.392  -5.791  0.00  0.00     0.186 A 
ATOM      2  C   LIG d   1       7.753   0.684  -5.055  0.00  0.00     0.065 A 
ATOM      3  C   LIG d   1       7.127   1.052  -3.877  0.00  0.00     0.144 A 
ATOM      4  C   LIG d   1       6.014   0.280  -3.463  0.00  0.00     0.092 A 
ATOM      5  C   LIG d   1       5.327   0.574  -2.276  0.00  0.00    -0.044 A 
ATOM      6  C   LIG d   1       4.262  -0.188  -1.906  0.00  0.00    -0.057 A 
ATOM      7  C   LIG d   1       3.842  -1.259  -2.690  0.00  0.00    -0.013 A 
ATOM      8  C   LIG d   1       4.487  -1.575  -3.852  0.00  0.00     0.192 A 
ATOM      9  C   LIG d   1       5.595  -0.806  -4.266  0.00  0.00     0.259 A 
ATOM     10  N   LIG d   1       6.242  -1.091  -5.402  0.00  0.00    -0.205 N 
ATOM     11  O   LIG d   1       7.716   2.137  -3.318  0.00  0.00    -0.485 OA
ATOM     12  C   LIG d   1       9.040   2.290  -3.861  0.00  0.00     0.127 C 
ATOM     13  H   LIG d   1       9.771   1.755  -3.254  0.00  0.00     0.076 H 
ATOM     14  C   LIG d   1       8.909   1.643  -5.260  0.00  0.00     0.021 C 
ATOM     15  H   LIG d   1       5.642   1.404  -1.659  0.00  0.00     0.063 H 
ATOM     16  H   LIG d   1       3.734   0.041  -0.991  0.00  0.00     0.062 H 
ATOM     17  H   LIG d   1       2.995  -1.850  -2.375  0.00  0.00     0.066 H 
ATOM     18  H   LIG d   1       9.818   1.103  -5.527  0.00  0.00     0.035 H 
ATOM     19  H   LIG d   1       8.666   2.390  -6.014  0.00  0.00     0.035 H 
ATOM     20  H   LIG d   1       5.938  -1.833  -5.947  0.00  0.00     0.453 HD
ENDROOT
BRANCH  12  21
ATOM     21  C   LIG d   1       9.411   3.769  -3.976  0.00  0.00     0.081 C 
ATOM     22  H   LIG d   1      10.249   3.881  -4.665  0.00  0.00     0.059 H 
ATOM     23  H   LIG d   1       8.556   4.331  -4.351  0.00  0.00     0.059 H 
BRANCH  21  24
ATOM     24  O   LIG d   1       9.783   4.268  -2.690  0.00  0.00    -0.391 OA
ATOM     25  H   LIG d   1      10.670   4.655  -2.660  0.00  0.00     0.210 HD
ENDBRANCH  21  24
ENDBRANCH  12  21
BRANCH   1  26
ATOM     26  C   LIG d   1       7.980  -0.763  -7.075  0.00  0.00     0.021 C 
ATOM     27  H   LIG d   1       7.259  -0.768  -7.892  0.00  0.00     0.034 H 
ATOM     28  H   LIG d   1       8.764  -0.037  -7.286  0.00  0.00     0.034 H 
ATOM     29  H   LIG d   1       8.421  -1.755  -6.973  0.00  0.00     0.034 H 
ENDBRANCH   1  26
BRANCH   8  30
ATOM     30  O   LIG d   1       4.064  -2.623  -4.604  0.00  0.00    -0.489 OA
BRANCH  30  31
ATOM     31  C   LIG d   1       4.868  -3.805  -4.579  0.00  0.00     0.079 C 
ATOM     32  H   LIG d   1       5.464  -3.858  -5.491  0.00  0.00     0.066 H 
ATOM     33  H   LIG d   1       5.529  -3.776  -3.714  0.00  0.00     0.066 H 
ATOM     34  H   LIG d   1       4.223  -4.682  -4.515  0.00  0.00     0.066 H 
ENDBRANCH  30  31
ENDBRANCH   8  30
TORSDOF 5
ENDMDL
MODEL 7
REMARK VINA RESULT:      -4.8     11.092     13.586
REMARK  5 active torsions:
REMARK  status: ('A' for Active; 'I' for Inactive)
REMARK    1  A    between atoms: C_1  and  C_2 
REMARK    2  A    between atoms: C_9  and  O_12 
REMARK    3  A    between atoms: O_12  and  C_13 
REMARK    4  A    between atoms: C_15  and  C_18 
REMARK    5  A    between atoms: C_18  and  O_19 
ROOT
ATOM      1  C   LIG d   1       9.637   8.602  -4.775  0.00  0.00     0.186 A 
ATOM      2  C   LIG d   1       9.753   9.942  -5.112  0.00  0.00     0.065 A 
ATOM      3  C   LIG d   1       9.890  10.902  -4.127  0.00  0.00     0.144 A 
ATOM      4  C   LIG d   1       9.921  10.455  -2.783  0.00  0.00     0.092 A 
ATOM      5  C   LIG d   1      10.070  11.358  -1.720  0.00  0.00    -0.044 A 
ATOM      6  C   LIG d   1      10.098  10.896  -0.439  0.00  0.00    -0.057 A 
ATOM      7  C   LIG d   1       9.980   9.535  -0.168  0.00  0.00    -0.013 A 
ATOM      8  C   LIG d   1       9.834   8.627  -1.177  0.00  0.00     0.192 A 
ATOM      9  C   LIG d   1       9.802   9.071  -2.517  0.00  0.00     0.259 A 
ATOM     10  N   LIG d   1       9.655   8.202  -3.524  0.00  0.00    -0.205 N 
ATOM     11  O   LIG d   1       9.964  12.149  -4.652  0.00  0.00    -0.485 OA
ATOM     12  C   LIG d   1      10.321  12.056  -6.043  0.00  0.00     0.127 C 
ATOM     13  H   LIG d   1      11.403  12.092  -6.168  0.00  0.00     0.076 H 
ATOM     14  C   LIG d   1       9.768  10.667  -6.443  0.00  0.00     0.021 C 
ATOM     15  H   LIG d   1      10.161  12.417  -1.917  0.00  0.00     0.063 H 
ATOM     16  H   LIG d   1      10.212  11.593   0.377  0.00  0.00     0.062 H 
ATOM     17  H   LIG d   1      10.005   9.193   0.856  0.00  0.00     0.066 H 
ATOM     18  H   LIG d   1      10.434  10.171  -7.148  0.00  0.00     0.035 H 
ATOM     19  H   LIG d   1       8.762  10.751  -6.852  0.00  0.00     0.035 H 
ATOM     20  H   LIG d   1       9.565   7.258  -3.326  0.00  0.00     0.453 HD
ENDROOT
BRANCH  12  21
ATOM     21  C   LIG d   1       9.647  13.166  -6.851  0.00  0.00     0.081 C 
ATOM     22  H   LIG d   1       9.013  13.761  -6.193  0.00  0.00     0.059 H 
ATOM     23  H   LIG d   1      10.408  13.805  -7.298  0.00  0.00     0.059 H 
BRANCH  21  24
ATOM     24  O   LIG d   1       8.847  12.585  -7.883  0.00  0.00    -0.391 OA
ATOM     25  H   LIG d   1       8.518  13.223  -8.532  0.00  0.00     0.210 HD
ENDBRANCH  21  24
ENDBRANCH  12  21
BRANCH   1  26
ATOM     26  C   LIG d   1       9.480   7.579  -5.871  0.00  0.00     0.021 C 
ATOM     27  H   LIG d   1       8.519   7.720  -6.364  0.00  0.00     0.034 H 
ATOM     28  H   LIG d   1      10.283   7.700  -6.598  0.00  0.00     0.034 H 
ATOM     29  H   LIG d   1       9.525   6.578  -5.441  0.00  0.00     0.034 H 
ENDBRANCH   1  26
BRANCH   8  30
ATOM     30  O   LIG d   1       9.721   7.304  -0.895  0.00  0.00    -0.489 OA
BRANCH  30  31
ATOM     31  C   LIG d   1      10.727   6.732  -0.055  0.00  0.00     0.079 C 
ATOM     32  H   LIG d   1      11.024   7.458   0.702  0.00  0.00     0.066 H 
ATOM     33  H   LIG d   1      10.331   5.841   0.431  0.00  0.00     0.066 H 
ATOM     34  H   LIG d   1      11.594   6.462  -0.659  0.00  0.00     0.066 H 
ENDBRANCH  30  31
ENDBRANCH   8  30
TORSDOF 5
ENDMDL
MODEL 8
REMARK VINA RESULT:      -4.8      1.417      6.001
REMARK  5 active torsions:
REMARK  status: ('A' for Active; 'I' for Inactive)
REMARK    1  A    between atoms: C_1  and  C_2 
REMARK    2  A    between atoms: C_9  and  O_12 
REMARK    3  A    between atoms: O_12  and  C_13 
REMARK    4  A    between atoms: C_15  and  C_18 
REMARK    5  A    between atoms: C_18  and  O_19 
ROOT
ATOM      1  C   LIG d   1       3.491   0.012  -7.297  0.00  0.00     0.186 A 
ATOM      2  C   LIG d   1       3.723  -1.266  -7.782  0.00  0.00     0.065 A 
ATOM      3  C   LIG d   1       4.348  -2.212  -6.990  0.00  0.00     0.144 A 
ATOM      4  C   LIG d   1       4.719  -1.820  -5.679  0.00  0.00     0.092 A 
ATOM      5  C   LIG d   1       5.347  -2.717  -4.804  0.00  0.00    -0.044 A 
ATOM      6  C   LIG d   1       5.690  -2.310  -3.550  0.00  0.00    -0.057 A 
ATOM      7  C   LIG d   1       5.425  -1.011  -3.124  0.00  0.00    -0.013 A 
ATOM      8  C   LIG d   1       4.815  -0.111  -3.949  0.00  0.00     0.192 A 
ATOM      9  C   LIG d   1       4.446  -0.499  -5.255  0.00  0.00     0.259 A 
ATOM     10  N   LIG d   1       3.851   0.365  -6.085  0.00  0.00    -0.205 N 
ATOM     11  O   LIG d   1       4.505  -3.387  -7.646  0.00  0.00    -0.485 OA
ATOM     12  C   LIG d   1       3.600  -3.430  -8.763  0.00  0.00     0.127 C 
ATOM     13  H   LIG d   1       2.650  -3.880  -8.474  0.00  0.00     0.076 H 
ATOM     14  C   LIG d   1       3.416  -1.933  -9.108  0.00  0.00     0.021 C 
ATOM     15  H   LIG d   1       5.559  -3.728  -5.123  0.00  0.00     0.063 H 
ATOM     16  H   LIG d   1       6.173  -3.003  -2.878  0.00  0.00     0.062 H 
ATOM     17  H   LIG d   1       5.706  -0.712  -2.125  0.00  0.00     0.066 H 
ATOM     18  H   LIG d   1       2.391  -1.728  -9.418  0.00  0.00     0.035 H 
ATOM     19  H   LIG d   1       4.123  -1.619  -9.874  0.00  0.00     0.035 H 
ATOM     20  H   LIG d   1       3.678   1.270  -5.784  0.00  0.00     0.453 HD
ENDROOT
BRANCH  12  21
ATOM     21  C   LIG d   1       4.223  -4.188  -9.937  0.00  0.00     0.081 C 
ATOM     22  H   LIG d   1       4.640  -5.130  -9.580  0.00  0.00     0.059 H 
ATOM     23  H   LIG d   1       3.457  -4.391 -10.686  0.00  0.00     0.059 H 
BRANCH  21  24
ATOM     24  O   LIG d   1       5.261  -3.397 -10.517  0.00  0.00    -0.391 OA
ATOM     25  H   LIG d   1       6.092  -3.875 -10.650  0.00  0.00     0.210 HD
ENDBRANCH  21  24
ENDBRANCH  12  21
BRANCH   1  26
ATOM     26  C   LIG d   1       2.815   1.023  -8.187  0.00  0.00     0.021 C 
ATOM     27  H   LIG d   1       1.743   0.830  -8.207  0.00  0.00     0.034 H 
ATOM     28  H   LIG d   1       2.997   2.026  -7.802  0.00  0.00     0.034 H 
ATOM     29  H   LIG d   1       3.217   0.943  -9.198  0.00  0.00     0.034 H 
ENDBRANCH   1  26
BRANCH   8  30
ATOM     30  O   LIG d   1       4.564   1.152  -3.516  0.00  0.00    -0.489 OA
BRANCH  30  31
ATOM     31  C   LIG d   1       3.746   1.288  -2.352  0.00  0.00     0.079 C 
ATOM     32  H   LIG d   1       4.200   2.009  -1.672  0.00  0.00     0.066 H 
ATOM     33  H   LIG d   1       2.755   1.635  -2.642  0.00  0.00     0.066 H 
ATOM     34  H   LIG d   1       3.662   0.322  -1.853  0.00  0.00     0.066 H 
ENDBRANCH  30  31
ENDBRANCH   8  30
TORSDOF 5
ENDMDL
MODEL 9
REMARK VINA RESULT:      -4.7     11.102     12.422
REMARK  5 active torsions:
REMARK  status: ('A' for Active; 'I' for Inactive)
REMARK    1  A    between atoms: C_1  and  C_2 
REMARK    2  A    between atoms: C_9  and  O_12 
REMARK    3  A    between atoms: O_12  and  C_13 
REMARK    4  A    between atoms: C_15  and  C_18 
REMARK    5  A    between atoms: C_18  and  O_19 
ROOT
ATOM      1  C   LIG d   1       9.654  11.546  -6.815  0.00  0.00     0.186 A 
ATOM      2  C   LIG d   1       9.668  11.168  -5.482  0.00  0.00     0.065 A 
ATOM      3  C   LIG d   1       9.686   9.830  -5.135  0.00  0.00     0.144 A 
ATOM      4  C   LIG d   1       9.705   8.884  -6.190  0.00  0.00     0.092 A 
ATOM      5  C   LIG d   1       9.736   7.506  -5.930  0.00  0.00    -0.044 A 
ATOM      6  C   LIG d   1       9.754   6.623  -6.966  0.00  0.00    -0.057 A 
ATOM      7  C   LIG d   1       9.742   7.070  -8.285  0.00  0.00    -0.013 A 
ATOM      8  C   LIG d   1       9.712   8.403  -8.576  0.00  0.00     0.192 A 
ATOM      9  C   LIG d   1       9.693   9.347  -7.526  0.00  0.00     0.259 A 
ATOM     10  N   LIG d   1       9.659  10.659  -7.783  0.00  0.00    -0.205 N 
ATOM     11  O   LIG d   1       9.674   9.663  -3.789  0.00  0.00    -0.485 OA
ATOM     12  C   LIG d   1      10.089  10.886  -3.157  0.00  0.00     0.127 C 
ATOM     13  H   LIG d   1      11.169  10.896  -3.005  0.00  0.00     0.076 H 
ATOM     14  C   LIG d   1       9.671  11.961  -4.190  0.00  0.00     0.021 C 
ATOM     15  H   LIG d   1       9.744   7.147  -4.910  0.00  0.00     0.063 H 
ATOM     16  H   LIG d   1       9.778   5.563  -6.763  0.00  0.00     0.062 H 
ATOM     17  H   LIG d   1       9.758   6.350  -9.090  0.00  0.00     0.066 H 
ATOM     18  H   LIG d   1      10.404  12.767  -4.231  0.00  0.00     0.035 H 
ATOM     19  H   LIG d   1       8.678  12.349  -3.968  0.00  0.00     0.035 H 
ATOM     20  H   LIG d   1       9.641  10.961  -8.704  0.00  0.00     0.453 HD
ENDROOT
BRANCH  12  21
ATOM     21  C   LIG d   1       9.354  11.089  -1.831  0.00  0.00     0.081 C 
ATOM     22  H   LIG d   1       9.858  10.524  -1.047  0.00  0.00     0.059 H 
ATOM     23  H   LIG d   1       9.354  12.147  -1.573  0.00  0.00     0.059 H 
BRANCH  21  24
ATOM     24  O   LIG d   1       8.007  10.629  -1.959  0.00  0.00    -0.391 OA
ATOM     25  H   LIG d   1       7.673  10.638  -2.867  0.00  0.00     0.210 HD
ENDBRANCH  21  24
ENDBRANCH  12  21
BRANCH   1  26
ATOM     26  C   LIG d   1       9.625  13.012  -7.163  0.00  0.00     0.021 C 
ATOM     27  H   LIG d   1       8.913  13.181  -7.969  0.00  0.00     0.034 H 
ATOM     28  H   LIG d   1       9.326  13.587  -6.287  0.00  0.00     0.034 H 
ATOM     29  H   LIG d   1      10.619  13.328  -7.483  0.00  0.00     0.034 H 
ENDBRANCH   1  26
BRANCH   8  30
ATOM     30  O   LIG d   1       9.702   8.821  -9.868  0.00  0.00    -0.489 OA
BRANCH  30  31
ATOM     31  C   LIG d   1      10.483   8.068 -10.799  0.00  0.00     0.079 C 
ATOM     32  H   LIG d   1       9.966   8.030 -11.758  0.00  0.00     0.066 H 
ATOM     33  H   LIG d   1      11.454   8.546 -10.928  0.00  0.00     0.066 H 
ATOM     34  H   LIG d   1      10.623   7.055 -10.421  0.00  0.00     0.066 H 
ENDBRANCH  30  31
ENDBRANCH   8  30
TORSDOF 5
ENDMDL
MODEL 10
REMARK VINA RESULT:      -4.7      9.658     12.151
REMARK  5 active torsions:
REMARK  status: ('A' for Active; 'I' for Inactive)
REMARK    1  A    between atoms: C_1  and  C_2 
REMARK    2  A    between atoms: C_9  and  O_12 
REMARK    3  A    between atoms: O_12  and  C_13 
REMARK    4  A    between atoms: C_15  and  C_18 
REMARK    5  A    between atoms: C_18  and  O_19 
ROOT
ATOM      1  C   LIG d   1      10.565   7.731  -4.650  0.00  0.00     0.186 A 
ATOM      2  C   LIG d   1      10.156   8.903  -4.031  0.00  0.00     0.065 A 
ATOM      3  C   LIG d   1      10.081   8.977  -2.652  0.00  0.00     0.144 A 
ATOM      4  C   LIG d   1      10.452   7.823  -1.918  0.00  0.00     0.092 A 
ATOM      5  C   LIG d   1      10.418   7.812  -0.516  0.00  0.00    -0.044 A 
ATOM      6  C   LIG d   1      10.782   6.687   0.160  0.00  0.00    -0.057 A 
ATOM      7  C   LIG d   1      11.187   5.544  -0.523  0.00  0.00    -0.013 A 
ATOM      8  C   LIG d   1      11.232   5.517  -1.887  0.00  0.00     0.192 A 
ATOM      9  C   LIG d   1      10.863   6.665  -2.620  0.00  0.00     0.259 A 
ATOM     10  N   LIG d   1      10.893   6.665  -3.957  0.00  0.00    -0.205 N 
ATOM     11  O   LIG d   1       9.640  10.190  -2.241  0.00  0.00    -0.485 OA
ATOM     12  C   LIG d   1       9.812  11.142  -3.306  0.00  0.00     0.127 C 
ATOM     13  H   LIG d   1      10.786  11.629  -3.236  0.00  0.00     0.076 H 
ATOM     14  C   LIG d   1       9.732  10.254  -4.571  0.00  0.00     0.021 C 
ATOM     15  H   LIG d   1      10.105   8.693   0.025  0.00  0.00     0.063 H 
ATOM     16  H   LIG d   1      10.755   6.682   1.239  0.00  0.00     0.062 H 
ATOM     17  H   LIG d   1      11.472   4.664   0.036  0.00  0.00     0.066 H 
ATOM     18  H   LIG d   1      10.427  10.602  -5.335  0.00  0.00     0.035 H 
ATOM     19  H   LIG d   1       8.715  10.218  -4.958  0.00  0.00     0.035 H 
ATOM     20  H   LIG d   1      11.168   5.862  -4.425  0.00  0.00     0.453 HD
ENDROOT
BRANCH  12  21
ATOM     21  C   LIG d   1       8.688  12.179  -3.294  0.00  0.00     0.081 C 
ATOM     22  H   LIG d   1       8.892  12.928  -2.528  0.00  0.00     0.059 H 
ATOM     23  H   LIG d   1       8.628  12.662  -4.269  0.00  0.00     0.059 H 
BRANCH  21  24
ATOM     24  O   LIG d   1       7.447  11.531  -3.006  0.00  0.00    -0.391 OA
ATOM     25  H   LIG d   1       7.238  11.482  -2.062  0.00  0.00     0.210 HD
ENDBRANCH  21  24
ENDBRANCH  12  21
BRANCH   1  26
ATOM     26  C   LIG d   1      10.627   7.678  -6.154  0.00  0.00     0.021 C 
ATOM     27  H   LIG d   1      10.806   6.653  -6.475  0.00  0.00     0.034 H 
ATOM     28  H   LIG d   1       9.683   8.030  -6.570  0.00  0.00     0.034 H 
ATOM     29  H   LIG d   1      11.439   8.316  -6.506  0.00  0.00     0.034 H 
ENDBRANCH   1  26
BRANCH   8  30
ATOM     30  O   LIG d   1      11.631   4.393  -2.536  0.00  0.00    -0.489 OA
BRANCH  30  31
ATOM     31  C   LIG d   1      10.685   3.326  -2.626  0.00  0.00     0.079 C 
ATOM     32  H   LIG d   1      11.088   2.441  -2.132  0.00  0.00     0.066 H 
ATOM     33  H   LIG d   1       9.756   3.622  -2.140  0.00  0.00     0.066 H 
ATOM     34  H   LIG d   1      10.491   3.099  -3.675  0.00  0.00     0.066 H 
ENDBRANCH  30  31
ENDBRANCH   8  30
TORSDOF 5
ENDMDL
