MODEL 1
REMARK VINA RESULT:      -6.2      0.000      0.000
REMARK  11 active torsions:
REMARK  status: ('A' for Active; 'I' for Inactive)
REMARK    1  A    between atoms: C_1  and  C_2 
REMARK    2  A    between atoms: C_9  and  C_30 
REMARK    3  A    between atoms: C_10  and  C_16 
REMARK    4  A    between atoms: C_16  and  C_17 
REMARK    5  A    between atoms: C_17  and  C_18 
REMARK       I    between atoms: C_18  and  N_20 
REMARK    6  A    between atoms: N_20  and  C_21 
REMARK       I    between atoms: N_20  and  C_24 
REMARK    7  A    between atoms: C_21  and  C_22 
REMARK    8  A    between atoms: C_21  and  C_23 
REMARK       I    between atoms: C_24  and  N_26 
REMARK    9  A    between atoms: N_26  and  C_27 
REMARK   10  A    between atoms: C_27  and  C_28 
REMARK   11  A    between atoms: C_27  and  C_29 
ROOT
ATOM      1  C   LIG d   1       4.333  -2.158  -3.777  0.00  0.00     0.029 C 
ATOM      2  H   LIG d   1       4.897  -2.787  -4.467  0.00  0.00     0.036 H 
ATOM      3  H   LIG d   1       3.569  -2.757  -3.281  0.00  0.00     0.036 H 
ENDROOT
BRANCH   1   4
ATOM      4  C   LIG d   1       5.281  -1.571  -2.730  0.00  0.00    -0.012 C 
ATOM      5  H   LIG d   1       5.592  -2.357  -2.041  0.00  0.00     0.032 H 
ATOM      6  H   LIG d   1       4.769  -0.784  -2.176  0.00  0.00     0.032 H 
BRANCH   4   7
ATOM      7  C   LIG d   1       6.493  -0.996  -3.415  0.00  0.00     0.041 A 
ATOM      8  C   LIG d   1       6.672   0.350  -3.466  0.00  0.00    -0.030 A 
ATOM      9  C   LIG d   1       7.862   0.865  -4.148  0.00  0.00     0.022 A 
ATOM     10  C   LIG d   1       8.103   2.237  -4.226  0.00  0.00    -0.040 A 
ATOM     11  C   LIG d   1       8.776  -0.048  -4.714  0.00  0.00     0.143 A 
ATOM     12  C   LIG d   1       9.241   2.692  -4.876  0.00  0.00     0.024 A 
ATOM     13  H   LIG d   1       7.406   2.938  -3.790  0.00  0.00     0.063 H 
ATOM     14  C   LIG d   1       9.799   4.024  -5.149  0.00  0.00    -0.005 A 
ATOM     15  C   LIG d   1      10.152   1.779  -5.446  0.00  0.00     0.139 A 
ATOM     16  C   LIG d   1      10.937   3.820  -5.825  0.00  0.00     0.096 A 
ATOM     17  O   LIG d   1      11.145   2.503  -6.000  0.00  0.00    -0.463 OA
ATOM     18  H   LIG d   1      11.594   4.602  -6.178  0.00  0.00     0.103 H 
ATOM     19  C   LIG d   1       9.909   0.416  -5.360  0.00  0.00     0.024 A 
ATOM     20  H   LIG d   1      10.605  -0.284  -5.796  0.00  0.00     0.069 H 
ATOM     21  O   LIG d   1       8.536  -1.376  -4.627  0.00  0.00    -0.422 OA
ATOM     22  C   LIG d   1       7.446  -1.852  -4.007  0.00  0.00     0.341 A 
ATOM     23  O   LIG d   1       7.271  -3.056  -3.954  0.00  0.00    -0.245 OA
BRANCH   8  24
ATOM     24  C   LIG d   1       5.671   1.287  -2.841  0.00  0.00    -0.039 C 
ATOM     25  H   LIG d   1       4.748   0.748  -2.632  0.00  0.00     0.028 H 
ATOM     26  H   LIG d   1       6.078   1.685  -1.911  0.00  0.00     0.028 H 
ATOM     27  H   LIG d   1       5.465   2.109  -3.528  0.00  0.00     0.028 H 
ENDBRANCH   8  24
BRANCH  14  28
ATOM     28  C   LIG d   1       9.208   5.352  -4.750  0.00  0.00    -0.036 C 
ATOM     29  H   LIG d   1       8.257   5.188  -4.242  0.00  0.00     0.028 H 
ATOM     30  H   LIG d   1       9.895   5.868  -4.079  0.00  0.00     0.028 H 
ATOM     31  H   LIG d   1       9.045   5.959  -5.640  0.00  0.00     0.028 H 
ENDBRANCH  14  28
ENDBRANCH   4   7
ENDBRANCH   1   4
BRANCH   1  32
ATOM     32  C   LIG d   1       3.675  -1.039  -4.542  0.00  0.00     0.224 C 
ATOM     33  O   LIG d   1       2.836  -0.348  -4.004  0.00  0.00    -0.275 OA
ATOM     34  N   LIG d   1       4.018  -0.807  -5.824  0.00  0.00    -0.224 N 
ATOM     35  C   LIG d   1       3.506   0.256  -6.477  0.00  0.00     0.309 C 
ATOM     36  O   LIG d   1       2.803   1.051  -5.885  0.00  0.00    -0.252 OA
ATOM     37  N   LIG d   1       3.773   0.436  -7.786  0.00  0.00    -0.297 N 
ATOM     38  H   LIG d   1       4.274  -0.235  -8.275  0.00  0.00     0.150 HD
BRANCH  34  39
ATOM     39  C   LIG d   1       4.948  -1.708  -6.509  0.00  0.00     0.029 C 
ATOM     40  H   LIG d   1       5.375  -2.405  -5.788  0.00  0.00     0.050 H 
BRANCH  39  41
ATOM     41  C   LIG d   1       4.198  -2.489  -7.590  0.00  0.00    -0.046 C 
ATOM     42  H   LIG d   1       3.918  -3.469  -7.202  0.00  0.00     0.025 H 
ATOM     43  H   LIG d   1       3.300  -1.942  -7.877  0.00  0.00     0.025 H 
ATOM     44  H   LIG d   1       4.842  -2.614  -8.461  0.00  0.00     0.025 H 
ENDBRANCH  39  41
BRANCH  39  45
ATOM     45  C   LIG d   1       6.069  -0.891  -7.154  0.00  0.00    -0.046 C 
ATOM     46  H   LIG d   1       6.324  -0.050  -6.508  0.00  0.00     0.025 H 
ATOM     47  H   LIG d   1       6.946  -1.523  -7.293  0.00  0.00     0.025 H 
ATOM     48  H   LIG d   1       5.734  -0.517  -8.122  0.00  0.00     0.025 H 
ENDBRANCH  39  45
ENDBRANCH  34  39
BRANCH  37  49
ATOM     49  C   LIG d   1       3.305   1.644  -8.470  0.00  0.00     0.019 C 
ATOM     50  H   LIG d   1       2.859   2.323  -7.744  0.00  0.00     0.049 H 
BRANCH  49  51
ATOM     51  C   LIG d   1       4.489   2.334  -9.152  0.00  0.00    -0.047 C 
ATOM     52  H   LIG d   1       4.843   1.715  -9.978  0.00  0.00     0.025 H 
ATOM     53  H   LIG d   1       4.173   3.303  -9.536  0.00  0.00     0.025 H 
ATOM     54  H   LIG d   1       5.294   2.472  -8.431  0.00  0.00     0.025 H 
ENDBRANCH  49  51
BRANCH  49  55
ATOM     55  C   LIG d   1       2.263   1.263  -9.522  0.00  0.00    -0.047 C 
ATOM     56  H   LIG d   1       2.491   0.271  -9.916  0.00  0.00     0.025 H 
ATOM     57  H   LIG d   1       1.272   1.254  -9.068  0.00  0.00     0.025 H 
ATOM     58  H   LIG d   1       2.283   1.988 -10.335  0.00  0.00     0.025 H 
ENDBRANCH  49  55
ENDBRANCH  37  49
ENDBRANCH   1  32
TORSDOF 11
ENDMDL
MODEL 2
REMARK VINA RESULT:      -6.0      1.446      2.316
REMARK  11 active torsions:
REMARK  status: ('A' for Active; 'I' for Inactive)
REMARK    1  A    between atoms: C_1  and  C_2 
REMARK    2  A    between atoms: C_9  and  C_30 
REMARK    3  A    between atoms: C_10  and  C_16 
REMARK    4  A    between atoms: C_16  and  C_17 
REMARK    5  A    between atoms: C_17  and  C_18 
REMARK       I    between atoms: C_18  and  N_20 
REMARK    6  A    between atoms: N_20  and  C_21 
REMARK       I    between atoms: N_20  and  C_24 
REMARK    7  A    between atoms: C_21  and  C_22 
REMARK    8  A    between atoms: C_21  and  C_23 
REMARK       I    between atoms: C_24  and  N_26 
REMARK    9  A    between atoms: N_26  and  C_27 
REMARK   10  A    between atoms: C_27  and  C_28 
REMARK   11  A    between atoms: C_27  and  C_29 
ROOT
ATOM      1  C   LIG d   1       4.356  -2.144  -3.595  0.00  0.00     0.029 C 
ATOM      2  H   LIG d   1       5.085  -2.671  -4.212  0.00  0.00     0.036 H 
ATOM      3  H   LIG d   1       3.643  -2.858  -3.184  0.00  0.00     0.036 H 
ENDROOT
BRANCH   1   4
ATOM      4  C   LIG d   1       5.079  -1.429  -2.452  0.00  0.00    -0.012 C 
ATOM      5  H   LIG d   1       5.645  -2.156  -1.869  0.00  0.00     0.032 H 
ATOM      6  H   LIG d   1       4.347  -0.940  -1.809  0.00  0.00     0.032 H 
BRANCH   4   7
ATOM      7  C   LIG d   1       6.019  -0.397  -3.018  0.00  0.00     0.041 A 
ATOM      8  C   LIG d   1       7.142  -0.788  -3.675  0.00  0.00    -0.030 A 
ATOM      9  C   LIG d   1       8.030   0.251  -4.205  0.00  0.00     0.022 A 
ATOM     10  C   LIG d   1       9.195  -0.089  -4.894  0.00  0.00    -0.040 A 
ATOM     11  C   LIG d   1       7.685   1.606  -4.023  0.00  0.00     0.143 A 
ATOM     12  C   LIG d   1      10.013   0.917  -5.386  0.00  0.00     0.024 A 
ATOM     13  H   LIG d   1       9.460  -1.127  -5.039  0.00  0.00     0.063 H 
ATOM     14  C   LIG d   1      11.279   0.933  -6.132  0.00  0.00    -0.005 A 
ATOM     15  C   LIG d   1       9.669   2.272  -5.199  0.00  0.00     0.139 A 
ATOM     16  C   LIG d   1      11.582   2.223  -6.325  0.00  0.00     0.096 A 
ATOM     17  O   LIG d   1      10.639   3.010  -5.777  0.00  0.00    -0.463 OA
ATOM     18  H   LIG d   1      12.459   2.581  -6.845  0.00  0.00     0.103 H 
ATOM     19  C   LIG d   1       8.508   2.603  -4.518  0.00  0.00     0.024 A 
ATOM     20  H   LIG d   1       8.244   3.640  -4.374  0.00  0.00     0.069 H 
ATOM     21  O   LIG d   1       6.551   1.924  -3.358  0.00  0.00    -0.422 OA
ATOM     22  C   LIG d   1       5.737   0.977  -2.868  0.00  0.00     0.341 A 
ATOM     23  O   LIG d   1       4.727   1.312  -2.276  0.00  0.00    -0.245 OA
BRANCH   8  24
ATOM     24  C   LIG d   1       7.467  -2.248  -3.851  0.00  0.00    -0.039 C 
ATOM     25  H   LIG d   1       6.727  -2.852  -3.326  0.00  0.00     0.028 H 
ATOM     26  H   LIG d   1       7.453  -2.498  -4.912  0.00  0.00     0.028 H 
ATOM     27  H   LIG d   1       8.458  -2.452  -3.443  0.00  0.00     0.028 H 
ENDBRANCH   8  24
BRANCH  14  28
ATOM     28  C   LIG d   1      12.076  -0.262  -6.588  0.00  0.00    -0.036 C 
ATOM     29  H   LIG d   1      12.948  -0.383  -5.945  0.00  0.00     0.028 H 
ATOM     30  H   LIG d   1      11.455  -1.156  -6.532  0.00  0.00     0.028 H 
ATOM     31  H   LIG d   1      12.401  -0.110  -7.617  0.00  0.00     0.028 H 
ENDBRANCH  14  28
ENDBRANCH   4   7
ENDBRANCH   1   4
BRANCH   1  32
ATOM     32  C   LIG d   1       3.624  -1.131  -4.438  0.00  0.00     0.224 C 
ATOM     33  O   LIG d   1       2.728  -0.473  -3.953  0.00  0.00    -0.275 OA
ATOM     34  N   LIG d   1       3.966  -0.957  -5.729  0.00  0.00    -0.224 N 
ATOM     35  C   LIG d   1       3.383   0.018  -6.455  0.00  0.00     0.309 C 
ATOM     36  O   LIG d   1       2.612   0.794  -5.923  0.00  0.00    -0.252 OA
ATOM     37  N   LIG d   1       3.653   0.133  -7.770  0.00  0.00    -0.297 N 
ATOM     38  H   LIG d   1       4.210  -0.528  -8.210  0.00  0.00     0.150 HD
BRANCH  34  39
ATOM     39  C   LIG d   1       4.971  -1.826  -6.346  0.00  0.00     0.029 C 
ATOM     40  H   LIG d   1       5.459  -2.421  -5.573  0.00  0.00     0.050 H 
BRANCH  39  41
ATOM     41  C   LIG d   1       4.293  -2.757  -7.353  0.00  0.00    -0.046 C 
ATOM     42  H   LIG d   1       3.455  -2.238  -7.820  0.00  0.00     0.025 H 
ATOM     43  H   LIG d   1       5.011  -3.048  -8.119  0.00  0.00     0.025 H 
ATOM     44  H   LIG d   1       3.929  -3.645  -6.839  0.00  0.00     0.025 H 
ENDBRANCH  39  41
BRANCH  39  45
ATOM     45  C   LIG d   1       6.015  -0.969  -7.065  0.00  0.00    -0.046 C 
ATOM     46  H   LIG d   1       5.932  -1.122  -8.141  0.00  0.00     0.025 H 
ATOM     47  H   LIG d   1       5.845   0.082  -6.832  0.00  0.00     0.025 H 
ATOM     48  H   LIG d   1       7.013  -1.257  -6.733  0.00  0.00     0.025 H 
ENDBRANCH  39  45
ENDBRANCH  34  39
BRANCH  37  49
ATOM     49  C   LIG d   1       3.103   1.254  -8.536  0.00  0.00     0.019 C 
ATOM     50  H   LIG d   1       2.458   1.853  -7.893  0.00  0.00     0.049 H 
BRANCH  49  51
ATOM     51  C   LIG d   1       4.248   2.123  -9.061  0.00  0.00    -0.047 C 
ATOM     52  H   LIG d   1       4.734   2.627  -8.225  0.00  0.00     0.025 H 
ATOM     53  H   LIG d   1       4.973   1.495  -9.577  0.00  0.00     0.025 H 
ATOM     54  H   LIG d   1       3.852   2.866  -9.753  0.00  0.00     0.025 H 
ENDBRANCH  49  51
BRANCH  49  55
ATOM     55  C   LIG d   1       2.291   0.717  -9.716  0.00  0.00    -0.047 C 
ATOM     56  H   LIG d   1       2.807   0.949 -10.648  0.00  0.00     0.025 H 
ATOM     57  H   LIG d   1       2.182  -0.364  -9.621  0.00  0.00     0.025 H 
ATOM     58  H   LIG d   1       1.305   1.182  -9.722  0.00  0.00     0.025 H 
ENDBRANCH  49  55
ENDBRANCH  37  49
ENDBRANCH   1  32
TORSDOF 11
ENDMDL
MODEL 3
REMARK VINA RESULT:      -5.6      3.236      6.154
REMARK  11 active torsions:
REMARK  status: ('A' for Active; 'I' for Inactive)
REMARK    1  A    between atoms: C_1  and  C_2 
REMARK    2  A    between atoms: C_9  and  C_30 
REMARK    3  A    between atoms: C_10  and  C_16 
REMARK    4  A    between atoms: C_16  and  C_17 
REMARK    5  A    between atoms: C_17  and  C_18 
REMARK       I    between atoms: C_18  and  N_20 
REMARK    6  A    between atoms: N_20  and  C_21 
REMARK       I    between atoms: N_20  and  C_24 
REMARK    7  A    between atoms: C_21  and  C_22 
REMARK    8  A    between atoms: C_21  and  C_23 
REMARK       I    between atoms: C_24  and  N_26 
REMARK    9  A    between atoms: N_26  and  C_27 
REMARK   10  A    between atoms: C_27  and  C_28 
REMARK   11  A    between atoms: C_27  and  C_29 
ROOT
ATOM      1  C   LIG d   1       8.670   1.925  -5.582  0.00  0.00     0.029 C 
ATOM      2  H   LIG d   1       8.122   2.470  -6.351  0.00  0.00     0.036 H 
ATOM      3  H   LIG d   1       9.039   0.986  -5.994  0.00  0.00     0.036 H 
ENDROOT
BRANCH   1   4
ATOM      4  C   LIG d   1       9.853   2.771  -5.104  0.00  0.00    -0.012 C 
ATOM      5  H   LIG d   1      10.783   2.234  -5.293  0.00  0.00     0.032 H 
ATOM      6  H   LIG d   1       9.754   2.961  -4.035  0.00  0.00     0.032 H 
BRANCH   4   7
ATOM      7  C   LIG d   1       9.868   4.081  -5.848  0.00  0.00     0.041 A 
ATOM      8  C   LIG d   1       9.749   5.251  -5.169  0.00  0.00    -0.030 A 
ATOM      9  C   LIG d   1       9.763   6.500  -5.934  0.00  0.00     0.022 A 
ATOM     10  C   LIG d   1       9.650   7.733  -5.291  0.00  0.00    -0.040 A 
ATOM     11  C   LIG d   1       9.908   6.443  -7.336  0.00  0.00     0.143 A 
ATOM     12  C   LIG d   1       9.670   8.898  -6.045  0.00  0.00     0.024 A 
ATOM     13  H   LIG d   1       9.543   7.780  -4.217  0.00  0.00     0.063 H 
ATOM     14  C   LIG d   1       9.574  10.328  -5.720  0.00  0.00    -0.005 A 
ATOM     15  C   LIG d   1       9.810   8.839  -7.447  0.00  0.00     0.139 A 
ATOM     16  C   LIG d   1       9.658  10.981  -6.886  0.00  0.00     0.096 A 
ATOM     17  O   LIG d   1       9.796  10.109  -7.900  0.00  0.00    -0.463 OA
ATOM     18  H   LIG d   1       9.620  12.056  -6.995  0.00  0.00     0.103 H 
ATOM     19  C   LIG d   1       9.927   7.611  -8.079  0.00  0.00     0.024 A 
ATOM     20  H   LIG d   1      10.035   7.565  -9.152  0.00  0.00     0.069 H 
ATOM     21  O   LIG d   1      10.022   5.242  -7.948  0.00  0.00    -0.422 OA
ATOM     22  C   LIG d   1      10.006   4.096  -7.252  0.00  0.00     0.341 A 
ATOM     23  O   LIG d   1      10.111   3.039  -7.847  0.00  0.00    -0.245 OA
BRANCH   8  24
ATOM     24  C   LIG d   1       9.601   5.263  -3.669  0.00  0.00    -0.039 C 
ATOM     25  H   LIG d   1       9.307   4.273  -3.324  0.00  0.00     0.028 H 
ATOM     26  H   LIG d   1      10.552   5.539  -3.214  0.00  0.00     0.028 H 
ATOM     27  H   LIG d   1       8.838   5.989  -3.385  0.00  0.00     0.028 H 
ENDBRANCH   8  24
BRANCH  14  28
ATOM     28  C   LIG d   1       9.412  10.936  -4.350  0.00  0.00    -0.036 C 
ATOM     29  H   LIG d   1       8.558  10.479  -3.849  0.00  0.00     0.028 H 
ATOM     30  H   LIG d   1      10.314  10.759  -3.765  0.00  0.00     0.028 H 
ATOM     31  H   LIG d   1       9.245  12.008  -4.447  0.00  0.00     0.028 H 
ENDBRANCH  14  28
ENDBRANCH   4   7
ENDBRANCH   1   4
BRANCH   1  32
ATOM     32  C   LIG d   1       7.755   1.639  -4.420  0.00  0.00     0.224 C 
ATOM     33  O   LIG d   1       7.821   2.315  -3.415  0.00  0.00    -0.275 OA
ATOM     34  N   LIG d   1       6.863   0.633  -4.497  0.00  0.00    -0.224 N 
ATOM     35  C   LIG d   1       5.974   0.441  -3.502  0.00  0.00     0.309 C 
ATOM     36  O   LIG d   1       5.922   1.226  -2.575  0.00  0.00    -0.252 OA
ATOM     37  N   LIG d   1       5.145  -0.621  -3.533  0.00  0.00    -0.297 N 
ATOM     38  H   LIG d   1       5.235  -1.285  -4.234  0.00  0.00     0.150 HD
BRANCH  34  39
ATOM     39  C   LIG d   1       6.856  -0.253  -5.664  0.00  0.00     0.029 C 
ATOM     40  H   LIG d   1       7.511   0.156  -6.434  0.00  0.00     0.050 H 
BRANCH  39  41
ATOM     41  C   LIG d   1       7.355  -1.640  -5.255  0.00  0.00    -0.046 C 
ATOM     42  H   LIG d   1       7.412  -1.699  -4.167  0.00  0.00     0.025 H 
ATOM     43  H   LIG d   1       6.664  -2.398  -5.624  0.00  0.00     0.025 H 
ATOM     44  H   LIG d   1       8.344  -1.811  -5.679  0.00  0.00     0.025 H 
ENDBRANCH  39  41
BRANCH  39  45
ATOM     45  C   LIG d   1       5.432  -0.364  -6.213  0.00  0.00    -0.046 C 
ATOM     46  H   LIG d   1       4.797  -0.859  -5.478  0.00  0.00     0.025 H 
ATOM     47  H   LIG d   1       5.043   0.633  -6.418  0.00  0.00     0.025 H 
ATOM     48  H   LIG d   1       5.443  -0.946  -7.135  0.00  0.00     0.025 H 
ENDBRANCH  39  45
ENDBRANCH  34  39
BRANCH  37  49
ATOM     49  C   LIG d   1       4.110  -0.773  -2.507  0.00  0.00     0.019 C 
ATOM     50  H   LIG d   1       4.428  -0.272  -1.593  0.00  0.00     0.049 H 
BRANCH  49  51
ATOM     51  C   LIG d   1       2.805  -0.146  -3.004  0.00  0.00    -0.047 C 
ATOM     52  H   LIG d   1       2.271  -0.865  -3.625  0.00  0.00     0.025 H 
ATOM     53  H   LIG d   1       2.185   0.126  -2.150  0.00  0.00     0.025 H 
ATOM     54  H   LIG d   1       3.030   0.744  -3.590  0.00  0.00     0.025 H 
ENDBRANCH  49  51
BRANCH  49  55
ATOM     55  C   LIG d   1       3.886  -2.259  -2.225  0.00  0.00    -0.047 C 
ATOM     56  H   LIG d   1       2.895  -2.549  -2.578  0.00  0.00     0.025 H 
ATOM     57  H   LIG d   1       4.642  -2.847  -2.745  0.00  0.00     0.025 H 
ATOM     58  H   LIG d   1       3.957  -2.442  -1.154  0.00  0.00     0.025 H 
ENDBRANCH  49  55
ENDBRANCH  37  49
ENDBRANCH   1  32
TORSDOF 11
ENDMDL
MODEL 4
REMARK VINA RESULT:      -5.4      1.626      2.387
REMARK  11 active torsions:
REMARK  status: ('A' for Active; 'I' for Inactive)
REMARK    1  A    between atoms: C_1  and  C_2 
REMARK    2  A    between atoms: C_9  and  C_30 
REMARK    3  A    between atoms: C_10  and  C_16 
REMARK    4  A    between atoms: C_16  and  C_17 
REMARK    5  A    between atoms: C_17  and  C_18 
REMARK       I    between atoms: C_18  and  N_20 
REMARK    6  A    between atoms: N_20  and  C_21 
REMARK       I    between atoms: N_20  and  C_24 
REMARK    7  A    between atoms: C_21  and  C_22 
REMARK    8  A    between atoms: C_21  and  C_23 
REMARK       I    between atoms: C_24  and  N_26 
REMARK    9  A    between atoms: N_26  and  C_27 
REMARK   10  A    between atoms: C_27  and  C_28 
REMARK   11  A    between atoms: C_27  and  C_29 
ROOT
ATOM      1  C   LIG d   1       4.255  -1.497  -3.695  0.00  0.00     0.029 C 
ATOM      2  H   LIG d   1       3.374  -1.735  -3.097  0.00  0.00     0.036 H 
ATOM      3  H   LIG d   1       4.184  -0.471  -4.056  0.00  0.00     0.036 H 
ENDROOT
BRANCH   1   4
ATOM      4  C   LIG d   1       5.511  -1.648  -2.833  0.00  0.00    -0.012 C 
ATOM      5  H   LIG d   1       5.717  -2.706  -2.673  0.00  0.00     0.032 H 
ATOM      6  H   LIG d   1       5.352  -1.160  -1.872  0.00  0.00     0.032 H 
BRANCH   4   7
ATOM      7  C   LIG d   1       6.681  -1.008  -3.534  0.00  0.00     0.041 A 
ATOM      8  C   LIG d   1       6.808   0.344  -3.551  0.00  0.00    -0.030 A 
ATOM      9  C   LIG d   1       7.959   0.922  -4.250  0.00  0.00     0.022 A 
ATOM     10  C   LIG d   1       8.145   2.304  -4.296  0.00  0.00    -0.040 A 
ATOM     11  C   LIG d   1       8.891   0.061  -4.865  0.00  0.00     0.143 A 
ATOM     12  C   LIG d   1       9.247   2.820  -4.963  0.00  0.00     0.024 A 
ATOM     13  H   LIG d   1       7.435   2.967  -3.822  0.00  0.00     0.063 H 
ATOM     14  C   LIG d   1       9.747   4.179  -5.213  0.00  0.00    -0.005 A 
ATOM     15  C   LIG d   1      10.176   1.958  -5.582  0.00  0.00     0.139 A 
ATOM     16  C   LIG d   1      10.874   4.037  -5.924  0.00  0.00     0.096 A 
ATOM     17  O   LIG d   1      11.126   2.734  -6.142  0.00  0.00    -0.463 OA
ATOM     18  H   LIG d   1      11.490   4.853  -6.272  0.00  0.00     0.103 H 
ATOM     19  C   LIG d   1       9.987   0.585  -5.527  0.00  0.00     0.024 A 
ATOM     20  H   LIG d   1      10.697  -0.076  -6.001  0.00  0.00     0.069 H 
ATOM     21  O   LIG d   1       8.703  -1.277  -4.809  0.00  0.00    -0.422 OA
ATOM     22  C   LIG d   1       7.648  -1.811  -4.175  0.00  0.00     0.341 A 
ATOM     23  O   LIG d   1       7.521  -3.022  -4.151  0.00  0.00    -0.245 OA
BRANCH   8  24
ATOM     24  C   LIG d   1       5.790   1.225  -2.875  0.00  0.00    -0.039 C 
ATOM     25  H   LIG d   1       6.240   2.189  -2.643  0.00  0.00     0.028 H 
ATOM     26  H   LIG d   1       4.938   1.372  -3.539  0.00  0.00     0.028 H 
ATOM     27  H   LIG d   1       5.453   0.750  -1.953  0.00  0.00     0.028 H 
ENDBRANCH   8  24
BRANCH  14  28
ATOM     28  C   LIG d   1       9.118   5.472  -4.761  0.00  0.00    -0.036 C 
ATOM     29  H   LIG d   1       9.654   6.311  -5.206  0.00  0.00     0.028 H 
ATOM     30  H   LIG d   1       8.075   5.498  -5.075  0.00  0.00     0.028 H 
ATOM     31  H   LIG d   1       9.173   5.542  -3.675  0.00  0.00     0.028 H 
ENDBRANCH  14  28
ENDBRANCH   4   7
ENDBRANCH   1   4
BRANCH   1  32
ATOM     32  C   LIG d   1       4.335  -2.439  -4.868  0.00  0.00     0.224 C 
ATOM     33  O   LIG d   1       4.359  -3.637  -4.683  0.00  0.00    -0.275 OA
ATOM     34  N   LIG d   1       4.380  -1.950  -6.122  0.00  0.00    -0.224 N 
ATOM     35  C   LIG d   1       4.348  -2.790  -7.176  0.00  0.00     0.309 C 
ATOM     36  O   LIG d   1       4.194  -3.983  -6.997  0.00  0.00    -0.252 OA
ATOM     37  N   LIG d   1       4.489  -2.309  -8.427  0.00  0.00    -0.297 N 
ATOM     38  H   LIG d   1       4.683  -1.370  -8.566  0.00  0.00     0.150 HD
BRANCH  34  39
ATOM     39  C   LIG d   1       4.462  -0.504  -6.343  0.00  0.00     0.029 C 
ATOM     40  H   LIG d   1       4.481   0.010  -5.381  0.00  0.00     0.050 H 
BRANCH  39  41
ATOM     41  C   LIG d   1       5.740  -0.178  -7.120  0.00  0.00    -0.046 C 
ATOM     42  H   LIG d   1       6.290  -1.098  -7.316  0.00  0.00     0.025 H 
ATOM     43  H   LIG d   1       5.478   0.297  -8.065  0.00  0.00     0.025 H 
ATOM     44  H   LIG d   1       6.360   0.498  -6.532  0.00  0.00     0.025 H 
ENDBRANCH  39  41
BRANCH  39  45
ATOM     45  C   LIG d   1       3.245  -0.039  -7.145  0.00  0.00    -0.046 C 
ATOM     46  H   LIG d   1       3.548   0.735  -7.849  0.00  0.00     0.025 H 
ATOM     47  H   LIG d   1       2.826  -0.885  -7.690  0.00  0.00     0.025 H 
ATOM     48  H   LIG d   1       2.494   0.362  -6.464  0.00  0.00     0.025 H 
ENDBRANCH  39  45
ENDBRANCH  34  39
BRANCH  37  49
ATOM     49  C   LIG d   1       4.349  -3.207  -9.577  0.00  0.00     0.019 C 
ATOM     50  H   LIG d   1       4.516  -4.235  -9.257  0.00  0.00     0.049 H 
BRANCH  49  51
ATOM     51  C   LIG d   1       2.939  -3.075 -10.158  0.00  0.00    -0.047 C 
ATOM     52  H   LIG d   1       2.325  -3.906  -9.810  0.00  0.00     0.025 H 
ATOM     53  H   LIG d   1       2.497  -2.136  -9.829  0.00  0.00     0.025 H 
ATOM     54  H   LIG d   1       2.992  -3.092 -11.246  0.00  0.00     0.025 H 
ENDBRANCH  49  51
BRANCH  49  55
ATOM     55  C   LIG d   1       5.377  -2.830 -10.645  0.00  0.00    -0.047 C 
ATOM     56  H   LIG d   1       5.804  -1.855 -10.410  0.00  0.00     0.025 H 
ATOM     57  H   LIG d   1       6.170  -3.578 -10.668  0.00  0.00     0.025 H 
ATOM     58  H   LIG d   1       4.890  -2.787 -11.619  0.00  0.00     0.025 H 
ENDBRANCH  49  55
ENDBRANCH  37  49
ENDBRANCH   1  32
TORSDOF 11
ENDMDL
MODEL 5
REMARK VINA RESULT:      -5.4      2.409      6.593
REMARK  11 active torsions:
REMARK  status: ('A' for Active; 'I' for Inactive)
REMARK    1  A    between atoms: C_1  and  C_2 
REMARK    2  A    between atoms: C_9  and  C_30 
REMARK    3  A    between atoms: C_10  and  C_16 
REMARK    4  A    between atoms: C_16  and  C_17 
REMARK    5  A    between atoms: C_17  and  C_18 
REMARK       I    between atoms: C_18  and  N_20 
REMARK    6  A    between atoms: N_20  and  C_21 
REMARK       I    between atoms: N_20  and  C_24 
REMARK    7  A    between atoms: C_21  and  C_22 
REMARK    8  A    between atoms: C_21  and  C_23 
REMARK       I    between atoms: C_24  and  N_26 
REMARK    9  A    between atoms: N_26  and  C_27 
REMARK   10  A    between atoms: C_27  and  C_28 
REMARK   11  A    between atoms: C_27  and  C_29 
ROOT
ATOM      1  C   LIG d   1       5.995  -1.361  -3.338  0.00  0.00     0.029 C 
ATOM      2  H   LIG d   1       6.304  -1.827  -2.402  0.00  0.00     0.036 H 
ATOM      3  H   LIG d   1       6.366  -1.949  -4.177  0.00  0.00     0.036 H 
ENDROOT
BRANCH   1   4
ATOM      4  C   LIG d   1       4.467  -1.297  -3.395  0.00  0.00    -0.012 C 
ATOM      5  H   LIG d   1       4.105  -0.588  -2.651  0.00  0.00     0.032 H 
ATOM      6  H   LIG d   1       4.054  -2.284  -3.187  0.00  0.00     0.032 H 
BRANCH   4   7
ATOM      7  C   LIG d   1       4.034  -0.851  -4.768  0.00  0.00     0.041 A 
ATOM      8  C   LIG d   1       4.257  -1.649  -5.844  0.00  0.00    -0.030 A 
ATOM      9  C   LIG d   1       3.824  -1.172  -7.161  0.00  0.00     0.022 A 
ATOM     10  C   LIG d   1       4.021  -1.949  -8.302  0.00  0.00    -0.040 A 
ATOM     11  C   LIG d   1       3.188   0.083  -7.259  0.00  0.00     0.143 A 
ATOM     12  C   LIG d   1       3.596  -1.471  -9.533  0.00  0.00     0.024 A 
ATOM     13  H   LIG d   1       4.504  -2.913  -8.229  0.00  0.00     0.063 H 
ATOM     14  C   LIG d   1       3.640  -1.996 -10.905  0.00  0.00    -0.005 A 
ATOM     15  C   LIG d   1       2.964  -0.213  -9.631  0.00  0.00     0.139 A 
ATOM     16  C   LIG d   1       3.064  -1.066 -11.678  0.00  0.00     0.096 A 
ATOM     17  O   LIG d   1       2.668  -0.020 -10.933  0.00  0.00    -0.463 OA
ATOM     18  H   LIG d   1       2.937  -1.146 -12.749  0.00  0.00     0.103 H 
ATOM     19  C   LIG d   1       2.767   0.551  -8.492  0.00  0.00     0.024 A 
ATOM     20  H   LIG d   1       2.284   1.514  -8.566  0.00  0.00     0.069 H 
ATOM     21  O   LIG d   1       2.997   0.826  -6.145  0.00  0.00    -0.422 OA
ATOM     22  C   LIG d   1       3.396   0.396  -4.939  0.00  0.00     0.341 A 
ATOM     23  O   LIG d   1       3.203   1.100  -3.964  0.00  0.00    -0.245 OA
BRANCH   8  24
ATOM     24  C   LIG d   1       4.936  -2.985  -5.690  0.00  0.00    -0.039 C 
ATOM     25  H   LIG d   1       4.483  -3.704  -6.371  0.00  0.00     0.028 H 
ATOM     26  H   LIG d   1       5.996  -2.882  -5.922  0.00  0.00     0.028 H 
ATOM     27  H   LIG d   1       4.821  -3.335  -4.663  0.00  0.00     0.028 H 
ENDBRANCH   8  24
BRANCH  14  28
ATOM     28  C   LIG d   1       4.217  -3.315 -11.351  0.00  0.00    -0.036 C 
ATOM     29  H   LIG d   1       4.290  -3.329 -12.439  0.00  0.00     0.028 H 
ATOM     30  H   LIG d   1       5.208  -3.443 -10.918  0.00  0.00     0.028 H 
ATOM     31  H   LIG d   1       3.568  -4.125 -11.020  0.00  0.00     0.028 H 
ENDBRANCH  14  28
ENDBRANCH   4   7
ENDBRANCH   1   4
BRANCH   1  32
ATOM     32  C   LIG d   1       6.560   0.034  -3.415  0.00  0.00     0.224 C 
ATOM     33  O   LIG d   1       6.196   0.879  -2.624  0.00  0.00    -0.275 OA
ATOM     34  N   LIG d   1       7.467   0.342  -4.361  0.00  0.00    -0.224 N 
ATOM     35  C   LIG d   1       8.049   1.559  -4.367  0.00  0.00     0.309 C 
ATOM     36  O   LIG d   1       7.818   2.346  -3.471  0.00  0.00    -0.252 OA
ATOM     37  N   LIG d   1       8.885   1.901  -5.367  0.00  0.00    -0.297 N 
ATOM     38  H   LIG d   1       9.013   1.302  -6.118  0.00  0.00     0.150 HD
BRANCH  34  39
ATOM     39  C   LIG d   1       7.825  -0.644  -5.383  0.00  0.00     0.029 C 
ATOM     40  H   LIG d   1       7.289  -1.575  -5.193  0.00  0.00     0.050 H 
BRANCH  39  41
ATOM     41  C   LIG d   1       7.441  -0.109  -6.765  0.00  0.00    -0.046 C 
ATOM     42  H   LIG d   1       7.423   0.981  -6.740  0.00  0.00     0.025 H 
ATOM     43  H   LIG d   1       8.174  -0.443  -7.499  0.00  0.00     0.025 H 
ATOM     44  H   LIG d   1       6.455  -0.483  -7.039  0.00  0.00     0.025 H 
ENDBRANCH  39  41
BRANCH  39  45
ATOM     45  C   LIG d   1       9.331  -0.905  -5.337  0.00  0.00    -0.046 C 
ATOM     46  H   LIG d   1       9.540  -1.901  -5.728  0.00  0.00     0.025 H 
ATOM     47  H   LIG d   1       9.847  -0.161  -5.942  0.00  0.00     0.025 H 
ATOM     48  H   LIG d   1       9.679  -0.839  -4.305  0.00  0.00     0.025 H 
ENDBRANCH  39  45
ENDBRANCH  34  39
BRANCH  37  49
ATOM     49  C   LIG d   1       9.597   3.180  -5.320  0.00  0.00     0.019 C 
ATOM     50  H   LIG d   1       9.071   3.866  -4.656  0.00  0.00     0.049 H 
BRANCH  49  51
ATOM     51  C   LIG d   1      11.018   2.953  -4.796  0.00  0.00    -0.047 C 
ATOM     52  H   LIG d   1      11.366   3.854  -4.290  0.00  0.00     0.025 H 
ATOM     53  H   LIG d   1      11.017   2.121  -4.093  0.00  0.00     0.025 H 
ATOM     54  H   LIG d   1      11.680   2.726  -5.630  0.00  0.00     0.025 H 
ENDBRANCH  49  51
BRANCH  49  55
ATOM     55  C   LIG d   1       9.664   3.779  -6.726  0.00  0.00    -0.047 C 
ATOM     56  H   LIG d   1      10.706   3.950  -6.998  0.00  0.00     0.025 H 
ATOM     57  H   LIG d   1       9.211   3.089  -7.438  0.00  0.00     0.025 H 
ATOM     58  H   LIG d   1       9.124   4.726  -6.745  0.00  0.00     0.025 H 
ENDBRANCH  49  55
ENDBRANCH  37  49
ENDBRANCH   1  32
TORSDOF 11
ENDMDL
MODEL 6
REMARK VINA RESULT:      -5.4      1.918      3.291
REMARK  11 active torsions:
REMARK  status: ('A' for Active; 'I' for Inactive)
REMARK    1  A    between atoms: C_1  and  C_2 
REMARK    2  A    between atoms: C_9  and  C_30 
REMARK    3  A    between atoms: C_10  and  C_16 
REMARK    4  A    between atoms: C_16  and  C_17 
REMARK    5  A    between atoms: C_17  and  C_18 
REMARK       I    between atoms: C_18  and  N_20 
REMARK    6  A    between atoms: N_20  and  C_21 
REMARK       I    between atoms: N_20  and  C_24 
REMARK    7  A    between atoms: C_21  and  C_22 
REMARK    8  A    between atoms: C_21  and  C_23 
REMARK       I    between atoms: C_24  and  N_26 
REMARK    9  A    between atoms: N_26  and  C_27 
REMARK   10  A    between atoms: C_27  and  C_28 
REMARK   11  A    between atoms: C_27  and  C_29 
ROOT
ATOM      1  C   LIG d   1       3.954  -1.474  -3.483  0.00  0.00     0.029 C 
ATOM      2  H   LIG d   1       3.124  -1.846  -2.880  0.00  0.00     0.036 H 
ATOM      3  H   LIG d   1       3.712  -0.482  -3.863  0.00  0.00     0.036 H 
ENDROOT
BRANCH   1   4
ATOM      4  C   LIG d   1       5.215  -1.396  -2.620  0.00  0.00    -0.012 C 
ATOM      5  H   LIG d   1       5.733  -2.355  -2.646  0.00  0.00     0.032 H 
ATOM      6  H   LIG d   1       4.938  -1.160  -1.593  0.00  0.00     0.032 H 
BRANCH   4   7
ATOM      7  C   LIG d   1       6.124  -0.320  -3.155  0.00  0.00     0.041 A 
ATOM      8  C   LIG d   1       7.264  -0.657  -3.812  0.00  0.00    -0.030 A 
ATOM      9  C   LIG d   1       8.121   0.423  -4.310  0.00  0.00     0.022 A 
ATOM     10  C   LIG d   1       9.301   0.139  -4.998  0.00  0.00    -0.040 A 
ATOM     11  C   LIG d   1       7.728   1.761  -4.100  0.00  0.00     0.143 A 
ATOM     12  C   LIG d   1      10.088   1.184  -5.459  0.00  0.00     0.024 A 
ATOM     13  H   LIG d   1       9.602  -0.885  -5.164  0.00  0.00     0.063 H 
ATOM     14  C   LIG d   1      11.358   1.260  -6.195  0.00  0.00    -0.005 A 
ATOM     15  C   LIG d   1       9.697   2.522  -5.244  0.00  0.00     0.139 A 
ATOM     16  C   LIG d   1      11.618   2.564  -6.355  0.00  0.00     0.096 A 
ATOM     17  O   LIG d   1      10.645   3.306  -5.797  0.00  0.00    -0.463 OA
ATOM     18  H   LIG d   1      12.486   2.963  -6.860  0.00  0.00     0.103 H 
ATOM     19  C   LIG d   1       8.520   2.797  -4.565  0.00  0.00     0.024 A 
ATOM     20  H   LIG d   1       8.220   3.821  -4.399  0.00  0.00     0.069 H 
ATOM     21  O   LIG d   1       6.579   2.025  -3.437  0.00  0.00    -0.422 OA
ATOM     22  C   LIG d   1       5.794   1.040  -2.976  0.00  0.00     0.341 A 
ATOM     23  O   LIG d   1       4.769   1.326  -2.384  0.00  0.00    -0.245 OA
BRANCH   8  24
ATOM     24  C   LIG d   1       7.640  -2.101  -4.019  0.00  0.00    -0.039 C 
ATOM     25  H   LIG d   1       7.899  -2.550  -3.061  0.00  0.00     0.028 H 
ATOM     26  H   LIG d   1       6.797  -2.636  -4.456  0.00  0.00     0.028 H 
ATOM     27  H   LIG d   1       8.497  -2.161  -4.692  0.00  0.00     0.028 H 
ENDBRANCH   8  24
BRANCH  14  28
ATOM     28  C   LIG d   1      12.198   0.104  -6.672  0.00  0.00    -0.036 C 
ATOM     29  H   LIG d   1      11.793  -0.278  -7.609  0.00  0.00     0.028 H 
ATOM     30  H   LIG d   1      13.223   0.439  -6.828  0.00  0.00     0.028 H 
ATOM     31  H   LIG d   1      12.186  -0.687  -5.922  0.00  0.00     0.028 H 
ENDBRANCH  14  28
ENDBRANCH   4   7
ENDBRANCH   1   4
BRANCH   1  32
ATOM     32  C   LIG d   1       4.193  -2.410  -4.639  0.00  0.00     0.224 C 
ATOM     33  O   LIG d   1       4.293  -3.603  -4.443  0.00  0.00    -0.275 OA
ATOM     34  N   LIG d   1       4.297  -1.923  -5.890  0.00  0.00    -0.224 N 
ATOM     35  C   LIG d   1       4.408  -2.766  -6.936  0.00  0.00     0.309 C 
ATOM     36  O   LIG d   1       4.330  -3.966  -6.759  0.00  0.00    -0.252 OA
ATOM     37  N   LIG d   1       4.607  -2.279  -8.177  0.00  0.00    -0.297 N 
ATOM     38  H   LIG d   1       4.741  -1.328  -8.309  0.00  0.00     0.150 HD
BRANCH  34  39
ATOM     39  C   LIG d   1       4.287  -0.475  -6.116  0.00  0.00     0.029 C 
ATOM     40  H   LIG d   1       4.309   0.042  -5.157  0.00  0.00     0.050 H 
BRANCH  39  41
ATOM     41  C   LIG d   1       5.516  -0.078  -6.938  0.00  0.00    -0.046 C 
ATOM     42  H   LIG d   1       6.340   0.161  -6.265  0.00  0.00     0.025 H 
ATOM     43  H   LIG d   1       5.803  -0.908  -7.584  0.00  0.00     0.025 H 
ATOM     44  H   LIG d   1       5.279   0.794  -7.547  0.00  0.00     0.025 H 
ENDBRANCH  39  41
BRANCH  39  45
ATOM     45  C   LIG d   1       3.017  -0.085  -6.876  0.00  0.00    -0.046 C 
ATOM     46  H   LIG d   1       3.073  -0.466  -7.896  0.00  0.00     0.025 H 
ATOM     47  H   LIG d   1       2.149  -0.512  -6.375  0.00  0.00     0.025 H 
ATOM     48  H   LIG d   1       2.927   1.001  -6.898  0.00  0.00     0.025 H 
ENDBRANCH  39  45
ENDBRANCH  34  39
BRANCH  37  49
ATOM     49  C   LIG d   1       4.623  -3.188  -9.326  0.00  0.00     0.019 C 
ATOM     50  H   LIG d   1       4.799  -4.206  -8.982  0.00  0.00     0.049 H 
BRANCH  49  51
ATOM     51  C   LIG d   1       3.276  -3.119 -10.049  0.00  0.00    -0.047 C 
ATOM     52  H   LIG d   1       3.381  -3.532 -11.053  0.00  0.00     0.025 H 
ATOM     53  H   LIG d   1       2.536  -3.696  -9.495  0.00  0.00     0.025 H 
ATOM     54  H   LIG d   1       2.952  -2.081 -10.116  0.00  0.00     0.025 H 
ENDBRANCH  49  51
BRANCH  49  55
ATOM     55  C   LIG d   1       5.738  -2.773 -10.288  0.00  0.00    -0.047 C 
ATOM     56  H   LIG d   1       5.611  -3.297 -11.237  0.00  0.00     0.025 H 
ATOM     57  H   LIG d   1       5.690  -1.697 -10.459  0.00  0.00     0.025 H 
ATOM     58  H   LIG d   1       6.705  -3.031  -9.858  0.00  0.00     0.025 H 
ENDBRANCH  49  55
ENDBRANCH  37  49
ENDBRANCH   1  32
TORSDOF 11
ENDMDL
MODEL 7
REMARK VINA RESULT:      -5.2      6.381      8.740
REMARK  11 active torsions:
REMARK  status: ('A' for Active; 'I' for Inactive)
REMARK    1  A    between atoms: C_1  and  C_2 
REMARK    2  A    between atoms: C_9  and  C_30 
REMARK    3  A    between atoms: C_10  and  C_16 
REMARK    4  A    between atoms: C_16  and  C_17 
REMARK    5  A    between atoms: C_17  and  C_18 
REMARK       I    between atoms: C_18  and  N_20 
REMARK    6  A    between atoms: N_20  and  C_21 
REMARK       I    between atoms: N_20  and  C_24 
REMARK    7  A    between atoms: C_21  and  C_22 
REMARK    8  A    between atoms: C_21  and  C_23 
REMARK       I    between atoms: C_24  and  N_26 
REMARK    9  A    between atoms: N_26  and  C_27 
REMARK   10  A    between atoms: C_27  and  C_28 
REMARK   11  A    between atoms: C_27  and  C_29 
ROOT
ATOM      1  C   LIG d   1       6.018  -7.856  -5.457  0.00  0.00     0.029 C 
ATOM      2  H   LIG d   1       6.808  -8.379  -4.917  0.00  0.00     0.036 H 
ATOM      3  H   LIG d   1       5.336  -7.392  -4.745  0.00  0.00     0.036 H 
ENDROOT
BRANCH   1   4
ATOM      4  C   LIG d   1       6.638  -6.777  -6.347  0.00  0.00    -0.012 C 
ATOM      5  H   LIG d   1       6.020  -6.638  -7.234  0.00  0.00     0.032 H 
ATOM      6  H   LIG d   1       7.640  -7.085  -6.647  0.00  0.00     0.032 H 
BRANCH   4   7
ATOM      7  C   LIG d   1       6.719  -5.481  -5.583  0.00  0.00     0.041 A 
ATOM      8  C   LIG d   1       5.622  -4.690  -5.466  0.00  0.00    -0.030 A 
ATOM      9  C   LIG d   1       5.749  -3.436  -4.718  0.00  0.00     0.022 A 
ATOM     10  C   LIG d   1       4.654  -2.585  -4.560  0.00  0.00    -0.040 A 
ATOM     11  C   LIG d   1       6.993  -3.104  -4.143  0.00  0.00     0.143 A 
ATOM     12  C   LIG d   1       4.807  -1.407  -3.843  0.00  0.00     0.024 A 
ATOM     13  H   LIG d   1       3.699  -2.839  -4.996  0.00  0.00     0.063 H 
ATOM     14  C   LIG d   1       3.905  -0.302  -3.488  0.00  0.00    -0.005 A 
ATOM     15  C   LIG d   1       6.053  -1.073  -3.273  0.00  0.00     0.139 A 
ATOM     16  C   LIG d   1       4.637   0.562  -2.773  0.00  0.00     0.096 A 
ATOM     17  O   LIG d   1       5.898   0.111  -2.646  0.00  0.00    -0.463 OA
ATOM     18  H   LIG d   1       4.268   1.488  -2.358  0.00  0.00     0.103 H 
ATOM     19  C   LIG d   1       7.134  -1.926  -3.430  0.00  0.00     0.024 A 
ATOM     20  H   LIG d   1       8.089  -1.672  -2.994  0.00  0.00     0.069 H 
ATOM     21  O   LIG d   1       8.046  -3.939  -4.299  0.00  0.00    -0.422 OA
ATOM     22  C   LIG d   1       7.935  -5.086  -4.986  0.00  0.00     0.341 A 
ATOM     23  O   LIG d   1       8.911  -5.805  -5.099  0.00  0.00    -0.245 OA
BRANCH   8  24
ATOM     24  C   LIG d   1       4.311  -5.088  -6.093  0.00  0.00    -0.039 C 
ATOM     25  H   LIG d   1       3.767  -5.744  -5.414  0.00  0.00     0.028 H 
ATOM     26  H   LIG d   1       3.717  -4.195  -6.289  0.00  0.00     0.028 H 
ATOM     27  H   LIG d   1       4.500  -5.612  -7.031  0.00  0.00     0.028 H 
ENDBRANCH   8  24
BRANCH  14  28
ATOM     28  C   LIG d   1       2.450  -0.168  -3.856  0.00  0.00    -0.036 C 
ATOM     29  H   LIG d   1       2.336  -0.278  -4.934  0.00  0.00     0.028 H 
ATOM     30  H   LIG d   1       1.874  -0.941  -3.349  0.00  0.00     0.028 H 
ATOM     31  H   LIG d   1       2.087   0.814  -3.551  0.00  0.00     0.028 H 
ENDBRANCH  14  28
ENDBRANCH   4   7
ENDBRANCH   1   4
BRANCH   1  32
ATOM     32  C   LIG d   1       5.260  -8.838  -6.313  0.00  0.00     0.224 C 
ATOM     33  O   LIG d   1       4.998  -8.562  -7.464  0.00  0.00    -0.275 OA
ATOM     34  N   LIG d   1       4.874 -10.021  -5.798  0.00  0.00    -0.224 N 
ATOM     35  C   LIG d   1       4.287 -10.942  -6.590  0.00  0.00     0.309 C 
ATOM     36  O   LIG d   1       4.182 -10.738  -7.784  0.00  0.00    -0.252 OA
ATOM     37  N   LIG d   1       3.814 -12.086  -6.057  0.00  0.00    -0.297 N 
ATOM     38  H   LIG d   1       3.832 -12.217  -5.097  0.00  0.00     0.150 HD
BRANCH  34  39
ATOM     39  C   LIG d   1       5.092 -10.310  -4.379  0.00  0.00     0.029 C 
ATOM     40  H   LIG d   1       5.643  -9.488  -3.922  0.00  0.00     0.050 H 
BRANCH  39  41
ATOM     41  C   LIG d   1       3.742 -10.471  -3.677  0.00  0.00    -0.046 C 
ATOM     42  H   LIG d   1       3.264 -11.391  -4.016  0.00  0.00     0.025 H 
ATOM     43  H   LIG d   1       3.896 -10.518  -2.599  0.00  0.00     0.025 H 
ATOM     44  H   LIG d   1       3.104  -9.621  -3.917  0.00  0.00     0.025 H 
ENDBRANCH  39  41
BRANCH  39  45
ATOM     45  C   LIG d   1       5.897 -11.604  -4.239  0.00  0.00    -0.046 C 
ATOM     46  H   LIG d   1       6.940 -11.412  -4.494  0.00  0.00     0.025 H 
ATOM     47  H   LIG d   1       5.833 -11.961  -3.211  0.00  0.00     0.025 H 
ATOM     48  H   LIG d   1       5.491 -12.358  -4.912  0.00  0.00     0.025 H 
ENDBRANCH  39  45
ENDBRANCH  34  39
BRANCH  37  49
ATOM     49  C   LIG d   1       3.272 -13.130  -6.930  0.00  0.00     0.019 C 
ATOM     50  H   LIG d   1       3.230 -12.762  -7.955  0.00  0.00     0.049 H 
BRANCH  49  51
ATOM     51  C   LIG d   1       4.173 -14.366  -6.868  0.00  0.00    -0.047 C 
ATOM     52  H   LIG d   1       3.889 -15.062  -7.657  0.00  0.00     0.025 H 
ATOM     53  H   LIG d   1       5.211 -14.065  -7.006  0.00  0.00     0.025 H 
ATOM     54  H   LIG d   1       4.060 -14.849  -5.898  0.00  0.00     0.025 H 
ENDBRANCH  49  51
BRANCH  49  55
ATOM     55  C   LIG d   1       1.864 -13.504  -6.463  0.00  0.00    -0.047 C 
ATOM     56  H   LIG d   1       1.927 -14.047  -5.519  0.00  0.00     0.025 H 
ATOM     57  H   LIG d   1       1.274 -12.598  -6.322  0.00  0.00     0.025 H 
ATOM     58  H   LIG d   1       1.387 -14.135  -7.213  0.00  0.00     0.025 H 
ENDBRANCH  49  55
ENDBRANCH  37  49
ENDBRANCH   1  32
TORSDOF 11
ENDMDL
MODEL 8
REMARK VINA RESULT:      -5.2      4.662      9.562
REMARK  11 active torsions:
REMARK  status: ('A' for Active; 'I' for Inactive)
REMARK    1  A    between atoms: C_1  and  C_2 
REMARK    2  A    between atoms: C_9  and  C_30 
REMARK    3  A    between atoms: C_10  and  C_16 
REMARK    4  A    between atoms: C_16  and  C_17 
REMARK    5  A    between atoms: C_17  and  C_18 
REMARK       I    between atoms: C_18  and  N_20 
REMARK    6  A    between atoms: N_20  and  C_21 
REMARK       I    between atoms: N_20  and  C_24 
REMARK    7  A    between atoms: C_21  and  C_22 
REMARK    8  A    between atoms: C_21  and  C_23 
REMARK       I    between atoms: C_24  and  N_26 
REMARK    9  A    between atoms: N_26  and  C_27 
REMARK   10  A    between atoms: C_27  and  C_28 
REMARK   11  A    between atoms: C_27  and  C_29 
ROOT
ATOM      1  C   LIG d   1       4.703  -0.325  -8.963  0.00  0.00     0.029 C 
ATOM      2  H   LIG d   1       4.434  -1.362  -9.167  0.00  0.00     0.036 H 
ATOM      3  H   LIG d   1       5.787  -0.219  -8.987  0.00  0.00     0.036 H 
ENDROOT
BRANCH   1   4
ATOM      4  C   LIG d   1       4.078   0.581 -10.025  0.00  0.00    -0.012 C 
ATOM      5  H   LIG d   1       4.830   1.278 -10.396  0.00  0.00     0.032 H 
ATOM      6  H   LIG d   1       3.252   1.140  -9.586  0.00  0.00     0.032 H 
BRANCH   4   7
ATOM      7  C   LIG d   1       3.566  -0.260 -11.166  0.00  0.00     0.041 A 
ATOM      8  C   LIG d   1       2.274  -0.679 -11.175  0.00  0.00    -0.030 A 
ATOM      9  C   LIG d   1       1.821  -1.499 -12.301  0.00  0.00     0.022 A 
ATOM     10  C   LIG d   1       0.503  -1.954 -12.369  0.00  0.00    -0.040 A 
ATOM     11  C   LIG d   1       2.733  -1.814 -13.331  0.00  0.00     0.143 A 
ATOM     12  C   LIG d   1       0.105  -2.727 -13.451  0.00  0.00     0.024 A 
ATOM     13  H   LIG d   1      -0.199  -1.711 -11.584  0.00  0.00     0.063 H 
ATOM     14  C   LIG d   1      -1.160  -3.363 -13.842  0.00  0.00    -0.005 A 
ATOM     15  C   LIG d   1       1.019  -3.044 -14.477  0.00  0.00     0.139 A 
ATOM     16  C   LIG d   1      -0.923  -3.981 -15.006  0.00  0.00     0.096 A 
ATOM     17  O   LIG d   1       0.356  -3.795 -15.380  0.00  0.00    -0.463 OA
ATOM     18  H   LIG d   1      -1.654  -4.548 -15.565  0.00  0.00     0.103 H 
ATOM     19  C   LIG d   1       2.325  -2.584 -14.405  0.00  0.00     0.024 A 
ATOM     20  H   LIG d   1       3.026  -2.828 -15.190  0.00  0.00     0.069 H 
ATOM     21  O   LIG d   1       4.005  -1.363 -13.257  0.00  0.00    -0.422 OA
ATOM     22  C   LIG d   1       4.426  -0.615 -12.226  0.00  0.00     0.341 A 
ATOM     23  O   LIG d   1       5.582  -0.232 -12.203  0.00  0.00    -0.245 OA
BRANCH   8  24
ATOM     24  C   LIG d   1       1.333  -0.313 -10.056  0.00  0.00    -0.039 C 
ATOM     25  H   LIG d   1       0.350  -0.738 -10.253  0.00  0.00     0.028 H 
ATOM     26  H   LIG d   1       1.718  -0.708  -9.115  0.00  0.00     0.028 H 
ATOM     27  H   LIG d   1       1.254   0.773  -9.988  0.00  0.00     0.028 H 
ENDBRANCH   8  24
BRANCH  14  28
ATOM     28  C   LIG d   1      -2.463  -3.329 -13.084  0.00  0.00    -0.036 C 
ATOM     29  H   LIG d   1      -3.218  -3.890 -13.635  0.00  0.00     0.028 H 
ATOM     30  H   LIG d   1      -2.323  -3.777 -12.100  0.00  0.00     0.028 H 
ATOM     31  H   LIG d   1      -2.789  -2.296 -12.970  0.00  0.00     0.028 H 
ENDBRANCH  14  28
ENDBRANCH   4   7
ENDBRANCH   1   4
BRANCH   1  32
ATOM     32  C   LIG d   1       4.191   0.068  -7.602  0.00  0.00     0.224 C 
ATOM     33  O   LIG d   1       3.411   0.991  -7.491  0.00  0.00    -0.275 OA
ATOM     34  N   LIG d   1       4.598  -0.604  -6.508  0.00  0.00    -0.224 N 
ATOM     35  C   LIG d   1       4.064  -0.321  -5.303  0.00  0.00     0.309 C 
ATOM     36  O   LIG d   1       3.154   0.481  -5.216  0.00  0.00    -0.252 OA
ATOM     37  N   LIG d   1       4.538  -0.925  -4.196  0.00  0.00    -0.297 N 
ATOM     38  H   LIG d   1       5.309  -1.510  -4.256  0.00  0.00     0.150 HD
BRANCH  34  39
ATOM     39  C   LIG d   1       5.623  -1.645  -6.627  0.00  0.00     0.029 C 
ATOM     40  H   LIG d   1       5.890  -1.773  -7.676  0.00  0.00     0.050 H 
BRANCH  39  41
ATOM     41  C   LIG d   1       6.863  -1.233  -5.831  0.00  0.00    -0.046 C 
ATOM     42  H   LIG d   1       7.146  -0.215  -6.101  0.00  0.00     0.025 H 
ATOM     43  H   LIG d   1       6.642  -1.279  -4.765  0.00  0.00     0.025 H 
ATOM     44  H   LIG d   1       7.685  -1.912  -6.062  0.00  0.00     0.025 H 
ENDBRANCH  39  41
BRANCH  39  45
ATOM     45  C   LIG d   1       5.077  -2.964  -6.076  0.00  0.00    -0.046 C 
ATOM     46  H   LIG d   1       5.701  -3.297  -5.246  0.00  0.00     0.025 H 
ATOM     47  H   LIG d   1       4.055  -2.816  -5.726  0.00  0.00     0.025 H 
ATOM     48  H   LIG d   1       5.086  -3.718  -6.863  0.00  0.00     0.025 H 
ENDBRANCH  39  45
ENDBRANCH  34  39
BRANCH  37  49
ATOM     49  C   LIG d   1       3.889  -0.697  -2.903  0.00  0.00     0.019 C 
ATOM     50  H   LIG d   1       2.898  -0.273  -3.063  0.00  0.00     0.049 H 
BRANCH  49  51
ATOM     51  C   LIG d   1       3.759  -2.027  -2.156  0.00  0.00    -0.047 C 
ATOM     52  H   LIG d   1       4.078  -2.841  -2.808  0.00  0.00     0.025 H 
ATOM     53  H   LIG d   1       4.388  -2.008  -1.267  0.00  0.00     0.025 H 
ATOM     54  H   LIG d   1       2.721  -2.181  -1.865  0.00  0.00     0.025 H 
ENDBRANCH  49  51
BRANCH  49  55
ATOM     55  C   LIG d   1       4.733   0.271  -2.072  0.00  0.00    -0.047 C 
ATOM     56  H   LIG d   1       4.091   1.052  -1.663  0.00  0.00     0.025 H 
ATOM     57  H   LIG d   1       5.212  -0.270  -1.256  0.00  0.00     0.025 H 
ATOM     58  H   LIG d   1       5.496   0.724  -2.704  0.00  0.00     0.025 H 
ENDBRANCH  49  55
ENDBRANCH  37  49
ENDBRANCH   1  32
TORSDOF 11
ENDMDL
MODEL 9
REMARK VINA RESULT:      -5.1      3.258      5.780
REMARK  11 active torsions:
REMARK  status: ('A' for Active; 'I' for Inactive)
REMARK    1  A    between atoms: C_1  and  C_2 
REMARK    2  A    between atoms: C_9  and  C_30 
REMARK    3  A    between atoms: C_10  and  C_16 
REMARK    4  A    between atoms: C_16  and  C_17 
REMARK    5  A    between atoms: C_17  and  C_18 
REMARK       I    between atoms: C_18  and  N_20 
REMARK    6  A    between atoms: N_20  and  C_21 
REMARK       I    between atoms: N_20  and  C_24 
REMARK    7  A    between atoms: C_21  and  C_22 
REMARK    8  A    between atoms: C_21  and  C_23 
REMARK       I    between atoms: C_24  and  N_26 
REMARK    9  A    between atoms: N_26  and  C_27 
REMARK   10  A    between atoms: C_27  and  C_28 
REMARK   11  A    between atoms: C_27  and  C_29 
ROOT
ATOM      1  C   LIG d   1       7.979   0.611  -7.437  0.00  0.00     0.029 C 
ATOM      2  H   LIG d   1       7.270   1.291  -7.910  0.00  0.00     0.036 H 
ATOM      3  H   LIG d   1       7.954  -0.353  -7.945  0.00  0.00     0.036 H 
ENDROOT
BRANCH   1   4
ATOM      4  C   LIG d   1       9.389   1.200  -7.530  0.00  0.00    -0.012 C 
ATOM      5  H   LIG d   1       9.977   0.622  -8.243  0.00  0.00     0.032 H 
ATOM      6  H   LIG d   1       9.865   1.160  -6.551  0.00  0.00     0.032 H 
BRANCH   4   7
ATOM      7  C   LIG d   1       9.306   2.632  -7.990  0.00  0.00     0.041 A 
ATOM      8  C   LIG d   1       9.648   3.639  -7.146  0.00  0.00    -0.030 A 
ATOM      9  C   LIG d   1       9.547   5.017  -7.634  0.00  0.00     0.022 A 
ATOM     10  C   LIG d   1       9.890   6.092  -6.815  0.00  0.00    -0.040 A 
ATOM     11  C   LIG d   1       9.111   5.244  -8.956  0.00  0.00     0.143 A 
ATOM     12  C   LIG d   1       9.786   7.385  -7.308  0.00  0.00     0.024 A 
ATOM     13  H   LIG d   1      10.228   5.920  -5.803  0.00  0.00     0.063 H 
ATOM     14  C   LIG d   1      10.047   8.717  -6.748  0.00  0.00    -0.005 A 
ATOM     15  C   LIG d   1       9.345   7.611  -8.629  0.00  0.00     0.139 A 
ATOM     16  C   LIG d   1       9.759   9.593  -7.719  0.00  0.00     0.096 A 
ATOM     17  O   LIG d   1       9.346   8.946  -8.823  0.00  0.00    -0.463 OA
ATOM     18  H   LIG d   1       9.845  10.667  -7.628  0.00  0.00     0.103 H 
ATOM     19  C   LIG d   1       9.011   6.538  -9.439  0.00  0.00     0.024 A 
ATOM     20  H   LIG d   1       8.673   6.710 -10.450  0.00  0.00     0.069 H 
ATOM     21  O   LIG d   1       8.786   4.194  -9.744  0.00  0.00    -0.422 OA
ATOM     22  C   LIG d   1       8.873   2.931  -9.299  0.00  0.00     0.341 A 
ATOM     23  O   LIG d   1       8.569   2.018 -10.045  0.00  0.00    -0.245 OA
BRANCH   8  24
ATOM     24  C   LIG d   1      10.115   3.347  -5.743  0.00  0.00    -0.039 C 
ATOM     25  H   LIG d   1      10.569   2.358  -5.709  0.00  0.00     0.028 H 
ATOM     26  H   LIG d   1      10.848   4.095  -5.442  0.00  0.00     0.028 H 
ATOM     27  H   LIG d   1       9.263   3.380  -5.062  0.00  0.00     0.028 H 
ENDBRANCH   8  24
BRANCH  14  28
ATOM     28  C   LIG d   1      10.540   9.035  -5.359  0.00  0.00    -0.036 C 
ATOM     29  H   LIG d   1      10.419   8.159  -4.722  0.00  0.00     0.028 H 
ATOM     30  H   LIG d   1      11.593   9.311  -5.401  0.00  0.00     0.028 H 
ATOM     31  H   LIG d   1       9.963   9.864  -4.950  0.00  0.00     0.028 H 
ENDBRANCH  14  28
ENDBRANCH   4   7
ENDBRANCH   1   4
BRANCH   1  32
ATOM     32  C   LIG d   1       7.607   0.426  -5.988  0.00  0.00     0.224 C 
ATOM     33  O   LIG d   1       8.373   0.777  -5.116  0.00  0.00    -0.275 OA
ATOM     34  N   LIG d   1       6.425  -0.131  -5.663  0.00  0.00    -0.224 N 
ATOM     35  C   LIG d   1       6.046  -0.204  -4.371  0.00  0.00     0.309 C 
ATOM     36  O   LIG d   1       6.733   0.308  -3.507  0.00  0.00    -0.252 OA
ATOM     37  N   LIG d   1       4.909  -0.844  -4.036  0.00  0.00    -0.297 N 
ATOM     38  H   LIG d   1       4.399  -1.313  -4.715  0.00  0.00     0.150 HD
BRANCH  34  39
ATOM     39  C   LIG d   1       5.548  -0.656  -6.712  0.00  0.00     0.029 C 
ATOM     40  H   LIG d   1       5.887  -0.294  -7.683  0.00  0.00     0.050 H 
BRANCH  39  41
ATOM     41  C   LIG d   1       5.590  -2.185  -6.695  0.00  0.00    -0.046 C 
ATOM     42  H   LIG d   1       4.980  -2.575  -7.510  0.00  0.00     0.025 H 
ATOM     43  H   LIG d   1       6.620  -2.521  -6.819  0.00  0.00     0.025 H 
ATOM     44  H   LIG d   1       5.201  -2.549  -5.744  0.00  0.00     0.025 H 
ENDBRANCH  39  41
BRANCH  39  45
ATOM     45  C   LIG d   1       4.114  -0.182  -6.464  0.00  0.00    -0.046 C 
ATOM     46  H   LIG d   1       3.544  -0.250  -7.391  0.00  0.00     0.025 H 
ATOM     47  H   LIG d   1       3.651  -0.810  -5.704  0.00  0.00     0.025 H 
ATOM     48  H   LIG d   1       4.128   0.853  -6.121  0.00  0.00     0.025 H 
ENDBRANCH  39  45
ENDBRANCH  34  39
BRANCH  37  49
ATOM     49  C   LIG d   1       4.444  -0.833  -2.647  0.00  0.00     0.019 C 
ATOM     50  H   LIG d   1       5.290  -0.667  -1.982  0.00  0.00     0.049 H 
BRANCH  49  51
ATOM     51  C   LIG d   1       3.420   0.289  -2.461  0.00  0.00    -0.047 C 
ATOM     52  H   LIG d   1       3.541   0.730  -1.472  0.00  0.00     0.025 H 
ATOM     53  H   LIG d   1       3.577   1.054  -3.221  0.00  0.00     0.025 H 
ATOM     54  H   LIG d   1       2.414  -0.118  -2.557  0.00  0.00     0.025 H 
ENDBRANCH  49  51
BRANCH  49  55
ATOM     55  C   LIG d   1       3.791  -2.177  -2.317  0.00  0.00    -0.047 C 
ATOM     56  H   LIG d   1       3.545  -2.697  -3.244  0.00  0.00     0.025 H 
ATOM     57  H   LIG d   1       4.482  -2.784  -1.732  0.00  0.00     0.025 H 
ATOM     58  H   LIG d   1       2.880  -2.008  -1.743  0.00  0.00     0.025 H 
ENDBRANCH  49  55
ENDBRANCH  37  49
ENDBRANCH   1  32
TORSDOF 11
ENDMDL
