MODEL 1
REMARK VINA RESULT:      -7.6      0.000      0.000
REMARK  2 active torsions:
REMARK  status: ('A' for Active; 'I' for Inactive)
REMARK    1  A    between atoms: C_1  and  C_2 
REMARK    2  A    between atoms: C_27  and  C_29 
ROOT
ATOM      1  C   LIG d   1       2.646  -1.265 -10.442  0.00  0.00    -0.050 A 
ATOM      2  C   LIG d   1       1.965  -0.442  -9.561  0.00  0.00    -0.057 A 
ATOM      3  C   LIG d   1       2.383  -0.358  -8.247  0.00  0.00    -0.040 A 
ATOM      4  C   LIG d   1       3.475  -1.093  -7.823  0.00  0.00     0.042 A 
ATOM      5  C   LIG d   1       4.145  -1.941  -8.672  0.00  0.00     0.003 A 
ATOM      6  C   LIG d   1       3.734  -1.999 -10.018  0.00  0.00    -0.051 A 
ATOM      7  C   LIG d   1       5.346  -2.746  -8.279  0.00  0.00     0.090 C 
ATOM      8  H   LIG d   1       6.144  -2.587  -9.005  0.00  0.00     0.065 H 
ATOM      9  C   LIG d   1       5.865  -2.428  -6.863  0.00  0.00     0.014 C 
ATOM     10  H   LIG d   1       6.544  -1.574  -6.864  0.00  0.00     0.035 H 
ATOM     11  C   LIG d   1       6.596  -3.739  -6.472  0.00  0.00    -0.022 C 
ATOM     12  C   LIG d   1       6.013  -4.795  -7.430  0.00  0.00     0.049 C 
ATOM     13  O   LIG d   1       5.013  -4.146  -8.231  0.00  0.00    -0.372 OA
ATOM     14  C   LIG d   1       4.681  -2.200  -5.936  0.00  0.00     0.070 C 
ATOM     15  H   LIG d   1       4.039  -3.081  -5.932  0.00  0.00     0.054 H 
ATOM     16  N   LIG d   1       3.937  -1.033  -6.509  0.00  0.00    -0.264 N 
ATOM     17  C   LIG d   1       3.955   0.017  -5.649  0.00  0.00     0.227 C 
ATOM     18  O   LIG d   1       3.184   0.953  -5.610  0.00  0.00    -0.275 OA
ATOM     19  C   LIG d   1       5.113  -0.227  -4.772  0.00  0.00     0.081 C 
ATOM     20  H   LIG d   1       6.024  -0.075  -5.352  0.00  0.00     0.043 H 
ATOM     21  C   LIG d   1       4.986  -1.792  -4.543  0.00  0.00     0.119 C 
ATOM     22  C   LIG d   1       3.822  -2.038  -3.596  0.00  0.00    -0.051 C 
ATOM     23  C   LIG d   1       4.235  -1.658  -2.399  0.00  0.00    -0.056 C 
ATOM     24  C   LIG d   1       5.648  -1.106  -2.624  0.00  0.00     0.087 C 
ATOM     25  H   LIG d   1       6.285  -1.041  -1.741  0.00  0.00     0.065 H 
ATOM     26  C   LIG d   1       5.356   0.254  -3.371  0.00  0.00     0.043 C 
ATOM     27  H   LIG d   1       6.218   0.918  -3.328  0.00  0.00     0.040 H 
ATOM     28  O   LIG d   1       6.124  -1.978  -3.731  0.00  0.00    -0.359 OA
ATOM     29  H   LIG d   1       1.113   0.128  -9.899  0.00  0.00     0.062 H 
ATOM     30  H   LIG d   1       1.858   0.281  -7.551  0.00  0.00     0.064 H 
ATOM     31  H   LIG d   1       4.256  -2.635 -10.717  0.00  0.00     0.062 H 
ATOM     32  H   LIG d   1       6.379  -4.002  -5.437  0.00  0.00     0.029 H 
ATOM     33  H   LIG d   1       7.670  -3.639  -6.623  0.00  0.00     0.029 H 
ATOM     34  H   LIG d   1       5.560  -5.605  -6.858  0.00  0.00     0.056 H 
ATOM     35  H   LIG d   1       6.801  -5.190  -8.070  0.00  0.00     0.056 H 
ATOM     36  H   LIG d   1       2.854  -2.446  -3.851  0.00  0.00     0.060 H 
ATOM     37  H   LIG d   1       3.695  -1.722  -1.465  0.00  0.00     0.060 H 
ENDROOT
BRANCH   1  38
ATOM     38  C   LIG d   1       2.196  -1.357 -11.877  0.00  0.00    -0.040 C 
ATOM     39  H   LIG d   1       2.522  -2.306 -12.300  0.00  0.00     0.028 H 
ATOM     40  H   LIG d   1       1.109  -1.293 -11.922  0.00  0.00     0.028 H 
ATOM     41  H   LIG d   1       2.632  -0.536 -12.448  0.00  0.00     0.028 H 
ENDBRANCH   1  38
BRANCH  26  42
ATOM     42  C   LIG d   1       4.130   0.926  -2.809  0.00  0.00     0.048 C 
ATOM     43  O   LIG d   1       3.461   0.363  -1.975  0.00  0.00    -0.549 OA
ATOM     44  O   LIG d   1       3.780   2.150  -3.235  0.00  0.00    -0.549 OA
ENDBRANCH  26  42
TORSDOF 2
ENDMDL
MODEL 2
REMARK VINA RESULT:      -7.4      3.036      4.535
REMARK  2 active torsions:
REMARK  status: ('A' for Active; 'I' for Inactive)
REMARK    1  A    between atoms: C_1  and  C_2 
REMARK    2  A    between atoms: C_27  and  C_29 
ROOT
ATOM      1  C   LIG d   1      10.475  -1.826  -6.590  0.00  0.00    -0.050 A 
ATOM      2  C   LIG d   1      10.167  -0.572  -6.091  0.00  0.00    -0.057 A 
ATOM      3  C   LIG d   1       8.960  -0.373  -5.448  0.00  0.00    -0.040 A 
ATOM      4  C   LIG d   1       8.073  -1.424  -5.308  0.00  0.00     0.042 A 
ATOM      5  C   LIG d   1       8.344  -2.668  -5.825  0.00  0.00     0.003 A 
ATOM      6  C   LIG d   1       9.588  -2.874  -6.452  0.00  0.00    -0.051 A 
ATOM      7  C   LIG d   1       7.434  -3.851  -5.688  0.00  0.00     0.090 C 
ATOM      8  H   LIG d   1       7.999  -4.702  -5.307  0.00  0.00     0.065 H 
ATOM      9  C   LIG d   1       6.218  -3.591  -4.777  0.00  0.00     0.014 C 
ATOM     10  H   LIG d   1       6.456  -3.759  -3.727  0.00  0.00     0.035 H 
ATOM     11  C   LIG d   1       5.182  -4.618  -5.301  0.00  0.00    -0.022 C 
ATOM     12  C   LIG d   1       5.690  -4.982  -6.709  0.00  0.00     0.049 C 
ATOM     13  O   LIG d   1       6.859  -4.187  -6.964  0.00  0.00    -0.372 OA
ATOM     14  C   LIG d   1       5.709  -2.176  -5.015  0.00  0.00     0.070 C 
ATOM     15  H   LIG d   1       5.449  -2.049  -6.066  0.00  0.00     0.054 H 
ATOM     16  N   LIG d   1       6.848  -1.272  -4.660  0.00  0.00    -0.264 N 
ATOM     17  C   LIG d   1       6.527  -0.489  -3.597  0.00  0.00     0.227 C 
ATOM     18  O   LIG d   1       7.030   0.567  -3.279  0.00  0.00    -0.275 OA
ATOM     19  C   LIG d   1       5.433  -1.203  -2.915  0.00  0.00     0.081 C 
ATOM     20  H   LIG d   1       5.846  -2.094  -2.440  0.00  0.00     0.043 H 
ATOM     21  C   LIG d   1       4.590  -1.711  -4.159  0.00  0.00     0.119 C 
ATOM     22  C   LIG d   1       3.859  -0.518  -4.754  0.00  0.00    -0.051 C 
ATOM     23  C   LIG d   1       2.883  -0.227  -3.911  0.00  0.00    -0.056 C 
ATOM     24  C   LIG d   1       3.057  -1.211  -2.748  0.00  0.00     0.087 C 
ATOM     25  H   LIG d   1       2.185  -1.363  -2.111  0.00  0.00     0.065 H 
ATOM     26  C   LIG d   1       4.350  -0.652  -2.034  0.00  0.00     0.043 C 
ATOM     27  H   LIG d   1       4.435  -1.037  -1.019  0.00  0.00     0.040 H 
ATOM     28  O   LIG d   1       3.583  -2.408  -3.459  0.00  0.00    -0.359 OA
ATOM     29  H   LIG d   1      10.864   0.244  -6.205  0.00  0.00     0.062 H 
ATOM     30  H   LIG d   1       8.710   0.602  -5.055  0.00  0.00     0.064 H 
ATOM     31  H   LIG d   1       9.843  -3.846  -6.845  0.00  0.00     0.062 H 
ATOM     32  H   LIG d   1       4.191  -4.166  -5.359  0.00  0.00     0.029 H 
ATOM     33  H   LIG d   1       5.161  -5.501  -4.663  0.00  0.00     0.029 H 
ATOM     34  H   LIG d   1       4.922  -4.760  -7.450  0.00  0.00     0.056 H 
ATOM     35  H   LIG d   1       5.946  -6.041  -6.748  0.00  0.00     0.056 H 
ATOM     36  H   LIG d   1       4.089  -0.014  -5.681  0.00  0.00     0.060 H 
ATOM     37  H   LIG d   1       2.127   0.537  -4.018  0.00  0.00     0.060 H 
ENDROOT
BRANCH   1  38
ATOM     38  C   LIG d   1      11.791  -2.048  -7.289  0.00  0.00    -0.040 C 
ATOM     39  H   LIG d   1      12.472  -1.232  -7.052  0.00  0.00     0.028 H 
ATOM     40  H   LIG d   1      12.224  -2.991  -6.956  0.00  0.00     0.028 H 
ATOM     41  H   LIG d   1      11.629  -2.085  -8.367  0.00  0.00     0.028 H 
ENDBRANCH   1  38
BRANCH  26  42
ATOM     42  C   LIG d   1       4.361   0.855  -2.040  0.00  0.00     0.048 C 
ATOM     43  O   LIG d   1       5.412   1.451  -2.017  0.00  0.00    -0.549 OA
ATOM     44  O   LIG d   1       3.204   1.536  -2.069  0.00  0.00    -0.549 OA
ENDBRANCH  26  42
TORSDOF 2
ENDMDL
MODEL 3
REMARK VINA RESULT:      -7.3      2.795      3.738
REMARK  2 active torsions:
REMARK  status: ('A' for Active; 'I' for Inactive)
REMARK    1  A    between atoms: C_1  and  C_2 
REMARK    2  A    between atoms: C_27  and  C_29 
ROOT
ATOM      1  C   LIG d   1       9.320   0.143  -8.093  0.00  0.00    -0.050 A 
ATOM      2  C   LIG d   1       8.818   1.214  -7.374  0.00  0.00    -0.057 A 
ATOM      3  C   LIG d   1       7.846   0.996  -6.417  0.00  0.00    -0.040 A 
ATOM      4  C   LIG d   1       7.384  -0.287  -6.184  0.00  0.00     0.042 A 
ATOM      5  C   LIG d   1       7.844  -1.360  -6.910  0.00  0.00     0.003 A 
ATOM      6  C   LIG d   1       8.857  -1.136  -7.863  0.00  0.00    -0.051 A 
ATOM      7  C   LIG d   1       7.399  -2.774  -6.691  0.00  0.00     0.090 C 
ATOM      8  H   LIG d   1       8.273  -3.417  -6.585  0.00  0.00     0.065 H 
ATOM      9  C   LIG d   1       6.478  -2.948  -5.467  0.00  0.00     0.014 C 
ATOM     10  H   LIG d   1       7.049  -3.075  -4.547  0.00  0.00     0.035 H 
ATOM     11  C   LIG d   1       5.681  -4.228  -5.828  0.00  0.00    -0.022 C 
ATOM     12  C   LIG d   1       5.843  -4.356  -7.355  0.00  0.00     0.049 C 
ATOM     13  O   LIG d   1       6.604  -3.223  -7.804  0.00  0.00    -0.372 OA
ATOM     14  C   LIG d   1       5.533  -1.759  -5.379  0.00  0.00     0.070 C 
ATOM     15  H   LIG d   1       4.955  -1.677  -6.300  0.00  0.00     0.054 H 
ATOM     16  N   LIG d   1       6.411  -0.556  -5.223  0.00  0.00    -0.264 N 
ATOM     17  C   LIG d   1       6.198   0.042  -4.022  0.00  0.00     0.227 C 
ATOM     18  O   LIG d   1       6.441   1.190  -3.714  0.00  0.00    -0.275 OA
ATOM     19  C   LIG d   1       5.606  -1.007  -3.174  0.00  0.00     0.081 C 
ATOM     20  H   LIG d   1       6.379  -1.741  -2.942  0.00  0.00     0.043 H 
ATOM     21  C   LIG d   1       4.626  -1.706  -4.207  0.00  0.00     0.119 C 
ATOM     22  C   LIG d   1       3.439  -0.782  -4.432  0.00  0.00    -0.051 C 
ATOM     23  C   LIG d   1       2.708  -0.848  -3.331  0.00  0.00    -0.056 C 
ATOM     24  C   LIG d   1       3.491  -1.773  -2.391  0.00  0.00     0.087 C 
ATOM     25  H   LIG d   1       2.925  -2.217  -1.572  0.00  0.00     0.065 H 
ATOM     26  C   LIG d   1       4.713  -0.863  -1.977  0.00  0.00     0.043 C 
ATOM     27  H   LIG d   1       5.197  -1.243  -1.078  0.00  0.00     0.040 H 
ATOM     28  O   LIG d   1       4.113  -2.712  -3.363  0.00  0.00    -0.359 OA
ATOM     29  H   LIG d   1       9.183   2.212  -7.562  0.00  0.00     0.062 H 
ATOM     30  H   LIG d   1       7.448   1.825  -5.850  0.00  0.00     0.064 H 
ATOM     31  H   LIG d   1       9.259  -1.962  -8.430  0.00  0.00     0.062 H 
ATOM     32  H   LIG d   1       4.630  -4.110  -5.565  0.00  0.00     0.029 H 
ATOM     33  H   LIG d   1       6.105  -5.098  -5.326  0.00  0.00     0.029 H 
ATOM     34  H   LIG d   1       4.864  -4.358  -7.833  0.00  0.00     0.056 H 
ATOM     35  H   LIG d   1       6.374  -5.277  -7.596  0.00  0.00     0.056 H 
ATOM     36  H   LIG d   1       3.233  -0.193  -5.314  0.00  0.00     0.060 H 
ATOM     37  H   LIG d   1       1.765  -0.359  -3.137  0.00  0.00     0.060 H 
ENDROOT
BRANCH   1  38
ATOM     38  C   LIG d   1      10.383   0.376  -9.136  0.00  0.00    -0.040 C 
ATOM     39  H   LIG d   1      10.002   0.086 -10.115  0.00  0.00     0.028 H 
ATOM     40  H   LIG d   1      10.654   1.431  -9.149  0.00  0.00     0.028 H 
ATOM     41  H   LIG d   1      11.263  -0.222  -8.898  0.00  0.00     0.028 H 
ENDBRANCH   1  38
BRANCH  26  42
ATOM     42  C   LIG d   1       4.282   0.569  -1.792  0.00  0.00     0.048 C 
ATOM     43  O   LIG d   1       4.982   1.335  -1.173  0.00  0.00    -0.549 OA
ATOM     44  O   LIG d   1       3.120   0.994  -2.313  0.00  0.00    -0.549 OA
ENDBRANCH  26  42
TORSDOF 2
ENDMDL
MODEL 4
REMARK VINA RESULT:      -6.9      2.569      6.269
REMARK  2 active torsions:
REMARK  status: ('A' for Active; 'I' for Inactive)
REMARK    1  A    between atoms: C_1  and  C_2 
REMARK    2  A    between atoms: C_27  and  C_29 
ROOT
ATOM      1  C   LIG d   1       4.561  -0.141  -2.639  0.00  0.00    -0.050 A 
ATOM      2  C   LIG d   1       3.912  -1.353  -2.483  0.00  0.00    -0.057 A 
ATOM      3  C   LIG d   1       3.981  -2.298  -3.489  0.00  0.00    -0.040 A 
ATOM      4  C   LIG d   1       4.698  -2.026  -4.640  0.00  0.00     0.042 A 
ATOM      5  C   LIG d   1       5.322  -0.816  -4.830  0.00  0.00     0.003 A 
ATOM      6  C   LIG d   1       5.274   0.130  -3.789  0.00  0.00    -0.051 A 
ATOM      7  C   LIG d   1       6.130  -0.470  -6.044  0.00  0.00     0.090 C 
ATOM      8  H   LIG d   1       7.102  -0.085  -5.736  0.00  0.00     0.065 H 
ATOM      9  C   LIG d   1       6.328  -1.655  -7.011  0.00  0.00     0.014 C 
ATOM     10  H   LIG d   1       7.180  -2.272  -6.724  0.00  0.00     0.035 H 
ATOM     11  C   LIG d   1       6.567  -0.943  -8.367  0.00  0.00    -0.022 C 
ATOM     12  C   LIG d   1       6.000   0.473  -8.155  0.00  0.00     0.049 C 
ATOM     13  O   LIG d   1       5.445   0.522  -6.831  0.00  0.00    -0.372 OA
ATOM     14  C   LIG d   1       5.044  -2.469  -7.074  0.00  0.00     0.070 C 
ATOM     15  H   LIG d   1       4.218  -1.833  -7.393  0.00  0.00     0.054 H 
ATOM     16  N   LIG d   1       4.802  -2.952  -5.677  0.00  0.00    -0.264 N 
ATOM     17  C   LIG d   1       4.866  -4.307  -5.619  0.00  0.00     0.227 C 
ATOM     18  O   LIG d   1       4.381  -5.035  -4.778  0.00  0.00    -0.275 OA
ATOM     19  C   LIG d   1       5.654  -4.702  -6.800  0.00  0.00     0.081 C 
ATOM     20  H   LIG d   1       6.691  -4.407  -6.638  0.00  0.00     0.043 H 
ATOM     21  C   LIG d   1       5.072  -3.707  -7.890  0.00  0.00     0.119 C 
ATOM     22  C   LIG d   1       3.679  -4.185  -8.271  0.00  0.00    -0.051 C 
ATOM     23  C   LIG d   1       3.851  -5.269  -9.009  0.00  0.00    -0.056 C 
ATOM     24  C   LIG d   1       5.367  -5.500  -9.025  0.00  0.00     0.087 C 
ATOM     25  H   LIG d   1       5.748  -6.135  -9.826  0.00  0.00     0.065 H 
ATOM     26  C   LIG d   1       5.640  -6.000  -7.553  0.00  0.00     0.043 C 
ATOM     27  H   LIG d   1       6.603  -6.505  -7.483  0.00  0.00     0.040 H 
ATOM     28  O   LIG d   1       5.873  -4.101  -8.982  0.00  0.00    -0.359 OA
ATOM     29  H   LIG d   1       3.354  -1.557  -1.581  0.00  0.00     0.062 H 
ATOM     30  H   LIG d   1       3.478  -3.247  -3.376  0.00  0.00     0.064 H 
ATOM     31  H   LIG d   1       5.777   1.080  -3.896  0.00  0.00     0.062 H 
ATOM     32  H   LIG d   1       6.029  -1.454  -9.166  0.00  0.00     0.029 H 
ATOM     33  H   LIG d   1       7.632  -0.898  -8.594  0.00  0.00     0.029 H 
ATOM     34  H   LIG d   1       5.222   0.675  -8.891  0.00  0.00     0.056 H 
ATOM     35  H   LIG d   1       6.798   1.210  -8.249  0.00  0.00     0.056 H 
ATOM     36  H   LIG d   1       2.740  -3.728  -7.997  0.00  0.00     0.060 H 
ATOM     37  H   LIG d   1       3.090  -5.862  -9.494  0.00  0.00     0.060 H 
ENDROOT
BRANCH   1  38
ATOM     38  C   LIG d   1       4.491   0.891  -1.543  0.00  0.00    -0.040 C 
ATOM     39  H   LIG d   1       4.877   0.466  -0.618  0.00  0.00     0.028 H 
ATOM     40  H   LIG d   1       5.088   1.759  -1.823  0.00  0.00     0.028 H 
ATOM     41  H   LIG d   1       3.454   1.197  -1.398  0.00  0.00     0.028 H 
ENDBRANCH   1  38
BRANCH  26  42
ATOM     42  C   LIG d   1       4.528  -6.895  -7.071  0.00  0.00     0.048 C 
ATOM     43  O   LIG d   1       3.633  -7.203  -7.823  0.00  0.00    -0.549 OA
ATOM     44  O   LIG d   1       4.530  -7.349  -5.808  0.00  0.00    -0.549 OA
ENDBRANCH  26  42
TORSDOF 2
ENDMDL
MODEL 5
REMARK VINA RESULT:      -6.9      3.059      4.476
REMARK  2 active torsions:
REMARK  status: ('A' for Active; 'I' for Inactive)
REMARK    1  A    between atoms: C_1  and  C_2 
REMARK    2  A    between atoms: C_27  and  C_29 
ROOT
ATOM      1  C   LIG d   1      10.174   1.611  -7.242  0.00  0.00    -0.050 A 
ATOM      2  C   LIG d   1       9.491   2.485  -6.415  0.00  0.00    -0.057 A 
ATOM      3  C   LIG d   1       8.410   2.028  -5.685  0.00  0.00    -0.040 A 
ATOM      4  C   LIG d   1       8.021   0.705  -5.786  0.00  0.00     0.042 A 
ATOM      5  C   LIG d   1       8.664  -0.172  -6.627  0.00  0.00     0.003 A 
ATOM      6  C   LIG d   1       9.784   0.291  -7.344  0.00  0.00    -0.051 A 
ATOM      7  C   LIG d   1       8.304  -1.621  -6.764  0.00  0.00     0.090 C 
ATOM      8  H   LIG d   1       9.201  -2.230  -6.649  0.00  0.00     0.065 H 
ATOM      9  C   LIG d   1       7.231  -2.087  -5.760  0.00  0.00     0.014 C 
ATOM     10  H   LIG d   1       7.670  -2.374  -4.804  0.00  0.00     0.035 H 
ATOM     11  C   LIG d   1       6.598  -3.301  -6.487  0.00  0.00    -0.022 C 
ATOM     12  C   LIG d   1       6.990  -3.103  -7.964  0.00  0.00     0.049 C 
ATOM     13  O   LIG d   1       7.717  -1.867  -8.055  0.00  0.00    -0.372 OA
ATOM     14  C   LIG d   1       6.193  -0.987  -5.590  0.00  0.00     0.070 C 
ATOM     15  H   LIG d   1       5.750  -0.745  -6.557  0.00  0.00     0.054 H 
ATOM     16  N   LIG d   1       6.942   0.198  -5.063  0.00  0.00    -0.264 N 
ATOM     17  C   LIG d   1       6.510   0.523  -3.817  0.00  0.00     0.227 C 
ATOM     18  O   LIG d   1       6.615   1.593  -3.255  0.00  0.00    -0.275 OA
ATOM     19  C   LIG d   1       5.886  -0.705  -3.297  0.00  0.00     0.081 C 
ATOM     20  H   LIG d   1       6.672  -1.433  -3.095  0.00  0.00     0.043 H 
ATOM     21  C   LIG d   1       5.124  -1.220  -4.590  0.00  0.00     0.119 C 
ATOM     22  C   LIG d   1       3.913  -0.327  -4.813  0.00  0.00    -0.051 C 
ATOM     23  C   LIG d   1       3.038  -0.654  -3.877  0.00  0.00    -0.056 C 
ATOM     24  C   LIG d   1       3.745  -1.714  -3.025  0.00  0.00     0.087 C 
ATOM     25  H   LIG d   1       3.102  -2.345  -2.410  0.00  0.00     0.065 H 
ATOM     26  C   LIG d   1       4.819  -0.853  -2.252  0.00  0.00     0.043 C 
ATOM     27  H   LIG d   1       5.195  -1.387  -1.380  0.00  0.00     0.040 H 
ATOM     28  O   LIG d   1       4.574  -2.403  -4.052  0.00  0.00    -0.359 OA
ATOM     29  H   LIG d   1       9.800   3.517  -6.342  0.00  0.00     0.062 H 
ATOM     30  H   LIG d   1       7.869   2.703  -5.037  0.00  0.00     0.064 H 
ATOM     31  H   LIG d   1      10.328  -0.380  -7.992  0.00  0.00     0.062 H 
ATOM     32  H   LIG d   1       5.514  -3.289  -6.376  0.00  0.00     0.029 H 
ATOM     33  H   LIG d   1       7.011  -4.235  -6.105  0.00  0.00     0.029 H 
ATOM     34  H   LIG d   1       6.094  -3.052  -8.582  0.00  0.00     0.056 H 
ATOM     35  H   LIG d   1       7.621  -3.928  -8.294  0.00  0.00     0.056 H 
ATOM     36  H   LIG d   1       3.793   0.421  -5.583  0.00  0.00     0.060 H 
ATOM     37  H   LIG d   1       2.041  -0.260  -3.742  0.00  0.00     0.060 H 
ENDROOT
BRANCH   1  38
ATOM     38  C   LIG d   1      11.356   2.104  -8.036  0.00  0.00    -0.040 C 
ATOM     39  H   LIG d   1      11.676   1.328  -8.731  0.00  0.00     0.028 H 
ATOM     40  H   LIG d   1      11.072   2.996  -8.593  0.00  0.00     0.028 H 
ATOM     41  H   LIG d   1      12.175   2.344  -7.358  0.00  0.00     0.028 H 
ENDBRANCH   1  38
BRANCH  26  42
ATOM     42  C   LIG d   1       4.255   0.488  -1.859  0.00  0.00     0.048 C 
ATOM     43  O   LIG d   1       4.926   1.260  -1.216  0.00  0.00    -0.549 OA
ATOM     44  O   LIG d   1       3.007   0.824  -2.222  0.00  0.00    -0.549 OA
ENDBRANCH  26  42
TORSDOF 2
ENDMDL
MODEL 6
REMARK VINA RESULT:      -6.8      2.444      6.055
REMARK  2 active torsions:
REMARK  status: ('A' for Active; 'I' for Inactive)
REMARK    1  A    between atoms: C_1  and  C_2 
REMARK    2  A    between atoms: C_27  and  C_29 
ROOT
ATOM      1  C   LIG d   1       7.953  -3.737  -4.618  0.00  0.00    -0.050 A 
ATOM      2  C   LIG d   1       8.090  -3.712  -5.994  0.00  0.00    -0.057 A 
ATOM      3  C   LIG d   1       7.289  -2.872  -6.744  0.00  0.00    -0.040 A 
ATOM      4  C   LIG d   1       6.361  -2.063  -6.114  0.00  0.00     0.042 A 
ATOM      5  C   LIG d   1       6.185  -2.096  -4.751  0.00  0.00     0.003 A 
ATOM      6  C   LIG d   1       7.025  -2.931  -3.990  0.00  0.00    -0.051 A 
ATOM      7  C   LIG d   1       5.213  -1.230  -4.009  0.00  0.00     0.090 C 
ATOM      8  H   LIG d   1       5.725  -0.731  -3.186  0.00  0.00     0.065 H 
ATOM      9  C   LIG d   1       4.520  -0.179  -4.899  0.00  0.00     0.014 C 
ATOM     10  H   LIG d   1       5.120   0.726  -4.997  0.00  0.00     0.035 H 
ATOM     11  C   LIG d   1       3.200   0.091  -4.132  0.00  0.00    -0.022 C 
ATOM     12  C   LIG d   1       3.040  -1.136  -3.214  0.00  0.00     0.049 C 
ATOM     13  O   LIG d   1       4.133  -2.027  -3.491  0.00  0.00    -0.372 OA
ATOM     14  C   LIG d   1       4.213  -0.796  -6.255  0.00  0.00     0.070 C 
ATOM     15  H   LIG d   1       3.586  -1.678  -6.126  0.00  0.00     0.054 H 
ATOM     16  N   LIG d   1       5.538  -1.193  -6.828  0.00  0.00    -0.264 N 
ATOM     17  C   LIG d   1       5.803  -0.489  -7.959  0.00  0.00     0.227 C 
ATOM     18  O   LIG d   1       6.567  -0.787  -8.853  0.00  0.00    -0.275 OA
ATOM     19  C   LIG d   1       4.962   0.716  -7.863  0.00  0.00     0.081 C 
ATOM     20  H   LIG d   1       5.367   1.359  -7.081  0.00  0.00     0.043 H 
ATOM     21  C   LIG d   1       3.622   0.097  -7.282  0.00  0.00     0.119 C 
ATOM     22  C   LIG d   1       2.935  -0.675  -8.398  0.00  0.00    -0.051 C 
ATOM     23  C   LIG d   1       2.437   0.234  -9.220  0.00  0.00    -0.056 C 
ATOM     24  C   LIG d   1       2.883   1.581  -8.639  0.00  0.00     0.087 C 
ATOM     25  H   LIG d   1       2.321   2.456  -8.968  0.00  0.00     0.065 H 
ATOM     26  C   LIG d   1       4.427   1.585  -8.964  0.00  0.00     0.043 C 
ATOM     27  H   LIG d   1       4.838   2.593  -8.903  0.00  0.00     0.040 H 
ATOM     28  O   LIG d   1       2.868   1.284  -7.181  0.00  0.00    -0.359 OA
ATOM     29  H   LIG d   1       8.816  -4.348  -6.479  0.00  0.00     0.062 H 
ATOM     30  H   LIG d   1       7.388  -2.845  -7.819  0.00  0.00     0.064 H 
ATOM     31  H   LIG d   1       6.931  -2.960  -2.915  0.00  0.00     0.062 H 
ATOM     32  H   LIG d   1       2.362   0.159  -4.826  0.00  0.00     0.029 H 
ATOM     33  H   LIG d   1       3.279   1.002  -3.539  0.00  0.00     0.029 H 
ATOM     34  H   LIG d   1       2.093  -1.635  -3.422  0.00  0.00     0.056 H 
ATOM     35  H   LIG d   1       3.072  -0.825  -2.170  0.00  0.00     0.056 H 
ATOM     36  H   LIG d   1       2.865  -1.748  -8.496  0.00  0.00     0.060 H 
ATOM     37  H   LIG d   1       1.845   0.063 -10.108  0.00  0.00     0.060 H 
ENDROOT
BRANCH   1  38
ATOM     38  C   LIG d   1       8.826  -4.650  -3.796  0.00  0.00    -0.040 C 
ATOM     39  H   LIG d   1       8.552  -4.567  -2.745  0.00  0.00     0.028 H 
ATOM     40  H   LIG d   1       8.690  -5.679  -4.128  0.00  0.00     0.028 H 
ATOM     41  H   LIG d   1       9.871  -4.364  -3.922  0.00  0.00     0.028 H 
ENDBRANCH   1  38
BRANCH  26  42
ATOM     42  C   LIG d   1       4.697   0.975 -10.315  0.00  0.00     0.048 C 
ATOM     43  O   LIG d   1       5.780   0.495 -10.556  0.00  0.00    -0.549 OA
ATOM     44  O   LIG d   1       3.736   0.966 -11.253  0.00  0.00    -0.549 OA
ENDBRANCH  26  42
TORSDOF 2
ENDMDL
MODEL 7
REMARK VINA RESULT:      -6.3     10.384     12.521
REMARK  2 active torsions:
REMARK  status: ('A' for Active; 'I' for Inactive)
REMARK    1  A    between atoms: C_1  and  C_2 
REMARK    2  A    between atoms: C_27  and  C_29 
ROOT
ATOM      1  C   LIG d   1       9.438   7.257  -7.645  0.00  0.00    -0.050 A 
ATOM      2  C   LIG d   1       9.883   6.260  -6.794  0.00  0.00    -0.057 A 
ATOM      3  C   LIG d   1      10.187   6.570  -5.482  0.00  0.00    -0.040 A 
ATOM      4  C   LIG d   1      10.043   7.869  -5.031  0.00  0.00     0.042 A 
ATOM      5  C   LIG d   1       9.635   8.881  -5.867  0.00  0.00     0.003 A 
ATOM      6  C   LIG d   1       9.297   8.553  -7.194  0.00  0.00    -0.051 A 
ATOM      7  C   LIG d   1       9.439  10.302  -5.433  0.00  0.00     0.090 C 
ATOM      8  H   LIG d   1       8.454  10.646  -5.749  0.00  0.00     0.065 H 
ATOM      9  C   LIG d   1       9.595  10.509  -3.913  0.00  0.00     0.014 C 
ATOM     10  H   LIG d   1       8.665  10.308  -3.381  0.00  0.00     0.035 H 
ATOM     11  C   LIG d   1       9.997  12.003  -3.819  0.00  0.00    -0.022 C 
ATOM     12  C   LIG d   1      10.508  12.346  -5.232  0.00  0.00     0.049 C 
ATOM     13  O   LIG d   1      10.452  11.143  -6.014  0.00  0.00    -0.372 OA
ATOM     14  C   LIG d   1      10.732   9.635  -3.403  0.00  0.00     0.070 C 
ATOM     15  H   LIG d   1      11.653   9.881  -3.932  0.00  0.00     0.054 H 
ATOM     16  N   LIG d   1      10.329   8.226  -3.714  0.00  0.00    -0.264 N 
ATOM     17  C   LIG d   1      10.162   7.512  -2.571  0.00  0.00     0.227 C 
ATOM     18  O   LIG d   1      10.200   6.306  -2.442  0.00  0.00    -0.275 OA
ATOM     19  C   LIG d   1       9.926   8.519  -1.523  0.00  0.00     0.081 C 
ATOM     20  H   LIG d   1       8.938   8.954  -1.678  0.00  0.00     0.043 H 
ATOM     21  C   LIG d   1      10.975   9.633  -1.940  0.00  0.00     0.119 C 
ATOM     22  C   LIG d   1      12.365   9.133  -1.582  0.00  0.00    -0.051 C 
ATOM     23  C   LIG d   1      12.454   9.207  -0.264  0.00  0.00    -0.056 C 
ATOM     24  C   LIG d   1      11.076   9.695   0.199  0.00  0.00     0.087 C 
ATOM     25  H   LIG d   1      11.031  10.130   1.198  0.00  0.00     0.065 H 
ATOM     26  C   LIG d   1      10.175   8.422  -0.046  0.00  0.00     0.043 C 
ATOM     27  H   LIG d   1       9.244   8.488   0.515  0.00  0.00     0.040 H 
ATOM     28  O   LIG d   1      10.688  10.579  -0.934  0.00  0.00    -0.359 OA
ATOM     29  H   LIG d   1       9.994   5.248  -7.154  0.00  0.00     0.062 H 
ATOM     30  H   LIG d   1      10.536   5.799  -4.810  0.00  0.00     0.064 H 
ATOM     31  H   LIG d   1       8.946   9.320  -7.869  0.00  0.00     0.062 H 
ATOM     32  H   LIG d   1      10.790  12.140  -3.084  0.00  0.00     0.029 H 
ATOM     33  H   LIG d   1       9.133  12.618  -3.567  0.00  0.00     0.029 H 
ATOM     34  H   LIG d   1      11.535  12.706  -5.177  0.00  0.00     0.056 H 
ATOM     35  H   LIG d   1       9.872  13.109  -5.681  0.00  0.00     0.056 H 
ATOM     36  H   LIG d   1      13.127   8.789  -2.266  0.00  0.00     0.060 H 
ATOM     37  H   LIG d   1      13.311   8.974   0.351  0.00  0.00     0.060 H 
ENDROOT
BRANCH   1  38
ATOM     38  C   LIG d   1       9.102   6.923  -9.075  0.00  0.00    -0.040 C 
ATOM     39  H   LIG d   1       8.180   6.344  -9.107  0.00  0.00     0.028 H 
ATOM     40  H   LIG d   1       8.973   7.844  -9.643  0.00  0.00     0.028 H 
ATOM     41  H   LIG d   1       9.913   6.338  -9.512  0.00  0.00     0.028 H 
ENDBRANCH   1  38
BRANCH  26  42
ATOM     42  C   LIG d   1      10.922   7.159   0.296  0.00  0.00     0.048 C 
ATOM     43  O   LIG d   1      10.353   6.093   0.259  0.00  0.00    -0.549 OA
ATOM     44  O   LIG d   1      12.217   7.216   0.643  0.00  0.00    -0.549 OA
ENDBRANCH  26  42
TORSDOF 2
ENDMDL
MODEL 8
REMARK VINA RESULT:      -6.2     10.431     13.026
REMARK  2 active torsions:
REMARK  status: ('A' for Active; 'I' for Inactive)
REMARK    1  A    between atoms: C_1  and  C_2 
REMARK    2  A    between atoms: C_27  and  C_29 
ROOT
ATOM      1  C   LIG d   1       9.706  11.797  -6.031  0.00  0.00    -0.050 A 
ATOM      2  C   LIG d   1      10.131  10.558  -6.477  0.00  0.00    -0.057 A 
ATOM      3  C   LIG d   1      10.342   9.541  -5.566  0.00  0.00    -0.040 A 
ATOM      4  C   LIG d   1      10.126   9.768  -4.219  0.00  0.00     0.042 A 
ATOM      5  C   LIG d   1       9.737  11.000  -3.750  0.00  0.00     0.003 A 
ATOM      6  C   LIG d   1       9.494  12.023  -4.686  0.00  0.00    -0.051 A 
ATOM      7  C   LIG d   1       9.467  11.303  -2.307  0.00  0.00     0.090 C 
ATOM      8  H   LIG d   1       8.493  11.782  -2.213  0.00  0.00     0.065 H 
ATOM      9  C   LIG d   1       9.521  10.060  -1.397  0.00  0.00     0.014 C 
ATOM     10  H   LIG d   1       8.568   9.532  -1.376  0.00  0.00     0.035 H 
ATOM     11  C   LIG d   1       9.866  10.673  -0.015  0.00  0.00    -0.022 C 
ATOM     12  C   LIG d   1      10.452  12.058  -0.352  0.00  0.00     0.049 C 
ATOM     13  O   LIG d   1      10.486  12.174  -1.783  0.00  0.00    -0.372 OA
ATOM     14  C   LIG d   1      10.653   9.152  -1.856  0.00  0.00     0.070 C 
ATOM     15  H   LIG d   1      11.596   9.698  -1.835  0.00  0.00     0.054 H 
ATOM     16  N   LIG d   1      10.318   8.770  -3.264  0.00  0.00    -0.264 N 
ATOM     17  C   LIG d   1      10.105   7.432  -3.361  0.00  0.00     0.227 C 
ATOM     18  O   LIG d   1      10.176   6.743  -4.357  0.00  0.00    -0.275 OA
ATOM     19  C   LIG d   1       9.770   7.000  -1.994  0.00  0.00     0.081 C 
ATOM     20  H   LIG d   1       8.779   7.382  -1.743  0.00  0.00     0.043 H 
ATOM     21  C   LIG d   1      10.804   7.856  -1.150  0.00  0.00     0.119 C 
ATOM     22  C   LIG d   1      12.186   7.249  -1.338  0.00  0.00    -0.051 C 
ATOM     23  C   LIG d   1      12.190   6.123  -0.644  0.00  0.00    -0.056 C 
ATOM     24  C   LIG d   1      10.771   6.002  -0.077  0.00  0.00     0.087 C 
ATOM     25  H   LIG d   1      10.649   5.333   0.776  0.00  0.00     0.065 H 
ATOM     26  C   LIG d   1       9.930   5.646  -1.365  0.00  0.00     0.043 C 
ATOM     27  H   LIG d   1       8.964   5.221  -1.097  0.00  0.00     0.040 H 
ATOM     28  O   LIG d   1      10.424   7.433   0.141  0.00  0.00    -0.359 OA
ATOM     29  H   LIG d   1      10.298  10.388  -7.530  0.00  0.00     0.062 H 
ATOM     30  H   LIG d   1      10.674   8.570  -5.904  0.00  0.00     0.064 H 
ATOM     31  H   LIG d   1       9.160  12.995  -4.353  0.00  0.00     0.062 H 
ATOM     32  H   LIG d   1      10.606  10.061   0.500  0.00  0.00     0.029 H 
ATOM     33  H   LIG d   1       8.968  10.777   0.593  0.00  0.00     0.029 H 
ATOM     34  H   LIG d   1      11.461  12.141   0.051  0.00  0.00     0.056 H 
ATOM     35  H   LIG d   1       9.820  12.840   0.068  0.00  0.00     0.056 H 
ATOM     36  H   LIG d   1      13.000   7.658  -1.919  0.00  0.00     0.060 H 
ATOM     37  H   LIG d   1      13.014   5.439  -0.506  0.00  0.00     0.060 H 
ENDROOT
BRANCH   1  38
ATOM     38  C   LIG d   1       9.472  12.908  -7.021  0.00  0.00    -0.040 C 
ATOM     39  H   LIG d   1       9.604  13.870  -6.528  0.00  0.00     0.028 H 
ATOM     40  H   LIG d   1      10.183  12.819  -7.842  0.00  0.00     0.028 H 
ATOM     41  H   LIG d   1       8.456  12.838  -7.412  0.00  0.00     0.028 H 
ENDBRANCH   1  38
BRANCH  26  42
ATOM     42  C   LIG d   1      10.696   4.716  -2.269  0.00  0.00     0.048 C 
ATOM     43  O   LIG d   1      11.904   4.694  -2.229  0.00  0.00    -0.549 OA
ATOM     44  O   LIG d   1      10.038   3.913  -3.120  0.00  0.00    -0.549 OA
ENDBRANCH  26  42
TORSDOF 2
ENDMDL
MODEL 9
REMARK VINA RESULT:      -6.1      8.767     11.096
REMARK  2 active torsions:
REMARK  status: ('A' for Active; 'I' for Inactive)
REMARK    1  A    between atoms: C_1  and  C_2 
REMARK    2  A    between atoms: C_27  and  C_29 
ROOT
ATOM      1  C   LIG d   1       9.641   2.251  -4.625  0.00  0.00    -0.050 A 
ATOM      2  C   LIG d   1      10.338   2.165  -3.433  0.00  0.00    -0.057 A 
ATOM      3  C   LIG d   1      10.666   3.321  -2.750  0.00  0.00    -0.040 A 
ATOM      4  C   LIG d   1      10.295   4.551  -3.263  0.00  0.00     0.042 A 
ATOM      5  C   LIG d   1       9.633   4.661  -4.462  0.00  0.00     0.003 A 
ATOM      6  C   LIG d   1       9.275   3.479  -5.137  0.00  0.00    -0.051 A 
ATOM      7  C   LIG d   1       9.187   5.962  -5.058  0.00  0.00     0.090 C 
ATOM      8  H   LIG d   1       8.133   5.895  -5.328  0.00  0.00     0.065 H 
ATOM      9  C   LIG d   1       9.406   7.173  -4.129  0.00  0.00     0.014 C 
ATOM     10  H   LIG d   1       8.576   7.304  -3.435  0.00  0.00     0.035 H 
ATOM     11  C   LIG d   1       9.504   8.350  -5.133  0.00  0.00    -0.022 C 
ATOM     12  C   LIG d   1       9.833   7.674  -6.477  0.00  0.00     0.049 C 
ATOM     13  O   LIG d   1       9.966   6.265  -6.230  0.00  0.00    -0.372 OA
ATOM     14  C   LIG d   1      10.728   7.008  -3.395  0.00  0.00     0.070 C 
ATOM     15  H   LIG d   1      11.541   6.911  -4.115  0.00  0.00     0.054 H 
ATOM     16  N   LIG d   1      10.597   5.742  -2.605  0.00  0.00    -0.264 N 
ATOM     17  C   LIG d   1      10.659   6.000  -1.273  0.00  0.00     0.227 C 
ATOM     18  O   LIG d   1      10.948   5.227  -0.384  0.00  0.00    -0.275 OA
ATOM     19  C   LIG d   1      10.300   7.422  -1.142  0.00  0.00     0.081 C 
ATOM     20  H   LIG d   1       9.236   7.531  -1.357  0.00  0.00     0.043 H 
ATOM     21  C   LIG d   1      11.070   8.038  -2.385  0.00  0.00     0.119 C 
ATOM     22  C   LIG d   1      12.555   8.061  -2.056  0.00  0.00    -0.051 C 
ATOM     23  C   LIG d   1      12.721   9.031  -1.172  0.00  0.00    -0.056 C 
ATOM     24  C   LIG d   1      11.309   9.566  -0.902  0.00  0.00     0.087 C 
ATOM     25  H   LIG d   1      11.249  10.562  -0.462  0.00  0.00     0.065 H 
ATOM     26  C   LIG d   1      10.668   8.395  -0.060  0.00  0.00     0.043 C 
ATOM     27  H   LIG d   1       9.785   8.737   0.478  0.00  0.00     0.040 H 
ATOM     28  O   LIG d   1      10.671   9.382  -2.234  0.00  0.00    -0.359 OA
ATOM     29  H   LIG d   1      10.624   1.201  -3.039  0.00  0.00     0.062 H 
ATOM     30  H   LIG d   1      11.209   3.265  -1.818  0.00  0.00     0.064 H 
ATOM     31  H   LIG d   1       8.730   3.530  -6.068  0.00  0.00     0.062 H 
ATOM     32  H   LIG d   1      10.303   9.033  -4.843  0.00  0.00     0.029 H 
ATOM     33  H   LIG d   1       8.554   8.881  -5.196  0.00  0.00     0.029 H 
ATOM     34  H   LIG d   1      10.769   8.070  -6.872  0.00  0.00     0.056 H 
ATOM     35  H   LIG d   1       9.027   7.850  -7.189  0.00  0.00     0.056 H 
ATOM     36  H   LIG d   1      13.319   7.418  -2.466  0.00  0.00     0.060 H 
ATOM     37  H   LIG d   1      13.648   9.372  -0.736  0.00  0.00     0.060 H 
ENDROOT
BRANCH   1  38
ATOM     38  C   LIG d   1       9.279   0.993  -5.371  0.00  0.00    -0.040 C 
ATOM     39  H   LIG d   1      10.122   0.679  -5.986  0.00  0.00     0.028 H 
ATOM     40  H   LIG d   1       9.036   0.205  -4.658  0.00  0.00     0.028 H 
ATOM     41  H   LIG d   1       8.416   1.184  -6.010  0.00  0.00     0.028 H 
ENDBRANCH   1  38
BRANCH  26  42
ATOM     42  C   LIG d   1      11.676   7.796   0.887  0.00  0.00     0.048 C 
ATOM     43  O   LIG d   1      12.858   7.951   0.687  0.00  0.00    -0.549 OA
ATOM     44  O   LIG d   1      11.262   7.088   1.950  0.00  0.00    -0.549 OA
ENDBRANCH  26  42
TORSDOF 2
ENDMDL
MODEL 10
REMARK VINA RESULT:      -6.1      9.055     10.647
REMARK  2 active torsions:
REMARK  status: ('A' for Active; 'I' for Inactive)
REMARK    1  A    between atoms: C_1  and  C_2 
REMARK    2  A    between atoms: C_27  and  C_29 
ROOT
ATOM      1  C   LIG d   1       9.376   6.193 -10.230  0.00  0.00    -0.050 A 
ATOM      2  C   LIG d   1       9.751   5.065  -9.522  0.00  0.00    -0.057 A 
ATOM      3  C   LIG d   1       9.964   5.154  -8.160  0.00  0.00    -0.040 A 
ATOM      4  C   LIG d   1       9.800   6.367  -7.516  0.00  0.00     0.042 A 
ATOM      5  C   LIG d   1       9.462   7.507  -8.205  0.00  0.00     0.003 A 
ATOM      6  C   LIG d   1       9.215   7.403  -9.587  0.00  0.00    -0.051 A 
ATOM      7  C   LIG d   1       9.248   8.844  -7.562  0.00  0.00     0.090 C 
ATOM      8  H   LIG d   1       8.292   9.254  -7.885  0.00  0.00     0.065 H 
ATOM      9  C   LIG d   1       9.298   8.802  -6.022  0.00  0.00     0.014 C 
ATOM     10  H   LIG d   1       8.331   8.537  -5.593  0.00  0.00     0.035 H 
ATOM     11  C   LIG d   1       9.706  10.254  -5.661  0.00  0.00    -0.022 C 
ATOM     12  C   LIG d   1      10.318  10.808  -6.961  0.00  0.00     0.049 C 
ATOM     13  O   LIG d   1      10.308   9.747  -7.929  0.00  0.00    -0.372 OA
ATOM     14  C   LIG d   1      10.388   7.835  -5.582  0.00  0.00     0.070 C 
ATOM     15  H   LIG d   1      11.347   8.144  -6.000  0.00  0.00     0.054 H 
ATOM     16  N   LIG d   1       9.996   6.503  -6.143  0.00  0.00    -0.264 N 
ATOM     17  C   LIG d   1       9.742   5.618  -5.144  0.00  0.00     0.227 C 
ATOM     18  O   LIG d   1       9.760   4.407  -5.208  0.00  0.00    -0.275 OA
ATOM     19  C   LIG d   1       9.441   6.449  -3.966  0.00  0.00     0.081 C 
ATOM     20  H   LIG d   1       8.471   6.924  -4.117  0.00  0.00     0.043 H 
ATOM     21  C   LIG d   1      10.527   7.595  -4.126  0.00  0.00     0.119 C 
ATOM     22  C   LIG d   1      11.884   7.015  -3.758  0.00  0.00    -0.051 C 
ATOM     23  C   LIG d   1      11.880   6.875  -2.443  0.00  0.00    -0.056 C 
ATOM     24  C   LIG d   1      10.477   7.311  -2.002  0.00  0.00     0.087 C 
ATOM     25  H   LIG d   1      10.365   7.581  -0.952  0.00  0.00     0.065 H 
ATOM     26  C   LIG d   1       9.585   6.113  -2.510  0.00  0.00     0.043 C 
ATOM     27  H   LIG d   1       8.616   6.106  -2.011  0.00  0.00     0.040 H 
ATOM     28  O   LIG d   1      10.178   8.373  -3.002  0.00  0.00    -0.359 OA
ATOM     29  H   LIG d   1       9.878   4.121 -10.032  0.00  0.00     0.062 H 
ATOM     30  H   LIG d   1      10.258   4.279  -7.598  0.00  0.00     0.064 H 
ATOM     31  H   LIG d   1       8.921   8.275 -10.152  0.00  0.00     0.062 H 
ATOM     32  H   LIG d   1      10.446  10.255  -4.860  0.00  0.00     0.029 H 
ATOM     33  H   LIG d   1       8.832  10.838  -5.373  0.00  0.00     0.029 H 
ATOM     34  H   LIG d   1      11.343  11.134  -6.779  0.00  0.00     0.056 H 
ATOM     35  H   LIG d   1       9.723  11.646  -7.324  0.00  0.00     0.056 H 
ATOM     36  H   LIG d   1      12.689   6.770  -4.435  0.00  0.00     0.060 H 
ATOM     37  H   LIG d   1      12.689   6.530  -1.816  0.00  0.00     0.060 H 
ENDROOT
BRANCH   1  38
ATOM     38  C   LIG d   1       9.140   6.099 -11.715  0.00  0.00    -0.040 C 
ATOM     39  H   LIG d   1       9.031   7.100 -12.130  0.00  0.00     0.028 H 
ATOM     40  H   LIG d   1       9.986   5.600 -12.187  0.00  0.00     0.028 H 
ATOM     41  H   LIG d   1       8.230   5.527 -11.903  0.00  0.00     0.028 H 
ENDBRANCH   1  38
BRANCH  26  42
ATOM     42  C   LIG d   1      10.293   4.796  -2.326  0.00  0.00     0.048 C 
ATOM     43  O   LIG d   1      11.414   4.771  -1.875  0.00  0.00    -0.549 OA
ATOM     44  O   LIG d   1       9.681   3.650  -2.664  0.00  0.00    -0.549 OA
ENDBRANCH  26  42
TORSDOF 2
ENDMDL
