MODEL 1
REMARK VINA RESULT:      -8.0      0.000      0.000
REMARK  7 active torsions:
REMARK  status: ('A' for Active; 'I' for Inactive)
REMARK    1  A    between atoms: C_1  and  N_2 
REMARK       I    between atoms: N_2  and  C_3 
REMARK    2  A    between atoms: C_3  and  C_5 
REMARK    3  A    between atoms: C_7  and  O_11 
REMARK    4  A    between atoms: O_11  and  C_12 
REMARK    5  A    between atoms: C_15  and  N_18 
REMARK       I    between atoms: N_18  and  C_19 
REMARK       I    between atoms: C_19  and  N_21 
REMARK    6  A    between atoms: N_21  and  C_22 
REMARK    7  A    between atoms: C_26  and  C_28 
ROOT
ATOM      1  C   LIG d   1       9.982  -7.138  -2.727  0.00  0.00     0.129 A 
ATOM      2  C   LIG d   1       9.787  -6.233  -1.694  0.00  0.00    -0.018 A 
ATOM      3  C   LIG d   1       9.583  -4.897  -1.974  0.00  0.00    -0.037 A 
ATOM      4  C   LIG d   1       9.574  -4.458  -3.291  0.00  0.00     0.035 A 
ATOM      5  C   LIG d   1       9.770  -5.363  -4.325  0.00  0.00    -0.037 A 
ATOM      6  C   LIG d   1       9.978  -6.699  -4.044  0.00  0.00    -0.018 A 
ATOM      7  H   LIG d   1       9.794  -6.575  -0.668  0.00  0.00     0.066 H 
ATOM      8  H   LIG d   1       9.432  -4.194  -1.169  0.00  0.00     0.064 H 
ATOM      9  H   LIG d   1       9.763  -5.023  -5.350  0.00  0.00     0.064 H 
ATOM     10  H   LIG d   1      10.135  -7.402  -4.848  0.00  0.00     0.066 H 
ENDROOT
BRANCH   4  11
ATOM     11  N   LIG d   1       9.367  -3.102  -3.576  0.00  0.00    -0.269 N 
ATOM     12  C   LIG d   1       8.140  -2.665  -3.920  0.00  0.00     0.308 C 
ATOM     13  O   LIG d   1       7.230  -3.459  -4.063  0.00  0.00    -0.252 OA
ATOM     14  N   LIG d   1       7.920  -1.348  -4.105  0.00  0.00    -0.269 N 
ATOM     15  H   LIG d   1       8.661  -0.724  -4.068  0.00  0.00     0.156 HD
ATOM     16  H   LIG d   1      10.108  -2.477  -3.525  0.00  0.00     0.156 HD
BRANCH  14  17
ATOM     17  C   LIG d   1       6.622  -0.883  -4.351  0.00  0.00     0.035 A 
ATOM     18  C   LIG d   1       5.882  -0.315  -3.322  0.00  0.00    -0.027 A 
ATOM     19  C   LIG d   1       4.604   0.148  -3.568  0.00  0.00     0.075 A 
ATOM     20  H   LIG d   1       6.306  -0.230  -2.333  0.00  0.00     0.064 H 
ATOM     21  C   LIG d   1       4.057   0.035  -4.834  0.00  0.00     0.053 A 
ATOM     22  C   LIG d   1       4.791  -0.537  -5.859  0.00  0.00    -0.041 A 
ATOM     23 CL   LIG d   1       2.448   0.610  -5.138  0.00  0.00    -0.083 Cl
ATOM     24  C   LIG d   1       6.072  -0.996  -5.620  0.00  0.00    -0.039 A 
ATOM     25  H   LIG d   1       4.363  -0.624  -6.847  0.00  0.00     0.063 H 
ATOM     26  H   LIG d   1       6.644  -1.441  -6.420  0.00  0.00     0.064 H 
BRANCH  19  27
ATOM     27  C   LIG d   1       3.802   0.770  -2.455  0.00  0.00     0.419 C 
ATOM     28  F   LIG d   1       3.508   2.100  -2.778  0.00  0.00    -0.166 F 
ATOM     29  F   LIG d   1       2.611   0.057  -2.283  0.00  0.00    -0.166 F 
ATOM     30  F   LIG d   1       4.543   0.731  -1.268  0.00  0.00    -0.166 F 
ENDBRANCH  19  27
ENDBRANCH  14  17
ENDBRANCH   4  11
BRANCH   1  31
ATOM     31  O   LIG d   1      10.182  -8.454  -2.451  0.00  0.00    -0.456 OA
BRANCH  31  32
ATOM     32  C   LIG d   1       9.120  -9.183  -2.023  0.00  0.00     0.132 A 
ATOM     33  C   LIG d   1       7.936  -9.217  -2.755  0.00  0.00     0.011 A 
ATOM     34  C   LIG d   1       6.873  -9.978  -2.281  0.00  0.00     0.129 A 
ATOM     35  H   LIG d   1       7.846  -8.662  -3.677  0.00  0.00     0.068 H 
ATOM     36  N   LIG d   1       6.980 -10.657  -1.145  0.00  0.00    -0.250 NA
ATOM     37  C   LIG d   1       8.087 -10.649  -0.434  0.00  0.00     0.032 A 
ATOM     38  C   LIG d   1       9.188  -9.916  -0.841  0.00  0.00    -0.001 A 
ATOM     39  H   LIG d   1       8.137 -11.219   0.482  0.00  0.00     0.083 H 
ATOM     40  H   LIG d   1      10.091  -9.913  -0.248  0.00  0.00     0.067 H 
BRANCH  34  41
ATOM     41  C   LIG d   1       5.606 -10.025  -3.047  0.00  0.00     0.262 C 
ATOM     42  N   LIG d   1       4.556 -10.726  -2.573  0.00  0.00    -0.313 N 
ATOM     43  H   LIG d   1       4.631 -11.199  -1.730  0.00  0.00     0.149 HD
ATOM     44  O   LIG d   1       5.511  -9.432  -4.104  0.00  0.00    -0.269 OA
BRANCH  42  45
ATOM     45  C   LIG d   1       3.303 -10.772  -3.331  0.00  0.00     0.000 C 
ATOM     46  H   LIG d   1       2.521 -11.213  -2.712  0.00  0.00     0.043 H 
ATOM     47  H   LIG d   1       3.014  -9.762  -3.617  0.00  0.00     0.043 H 
ATOM     48  H   LIG d   1       3.443 -11.378  -4.226  0.00  0.00     0.043 H 
ENDBRANCH  42  45
ENDBRANCH  34  41
ENDBRANCH  31  32
ENDBRANCH   1  31
TORSDOF 7
ENDMDL
MODEL 2
REMARK VINA RESULT:      -7.7      7.941     13.150
REMARK  7 active torsions:
REMARK  status: ('A' for Active; 'I' for Inactive)
REMARK    1  A    between atoms: C_1  and  N_2 
REMARK       I    between atoms: N_2  and  C_3 
REMARK    2  A    between atoms: C_3  and  C_5 
REMARK    3  A    between atoms: C_7  and  O_11 
REMARK    4  A    between atoms: O_11  and  C_12 
REMARK    5  A    between atoms: C_15  and  N_18 
REMARK       I    between atoms: N_18  and  C_19 
REMARK       I    between atoms: C_19  and  N_21 
REMARK    6  A    between atoms: N_21  and  C_22 
REMARK    7  A    between atoms: C_26  and  C_28 
ROOT
ATOM      1  C   LIG d   1      11.190   6.358  -3.851  0.00  0.00     0.129 A 
ATOM      2  C   LIG d   1      10.091   6.320  -4.696  0.00  0.00    -0.018 A 
ATOM      3  C   LIG d   1       9.614   5.109  -5.156  0.00  0.00    -0.037 A 
ATOM      4  C   LIG d   1      10.235   3.928  -4.772  0.00  0.00     0.035 A 
ATOM      5  C   LIG d   1      11.335   3.966  -3.926  0.00  0.00    -0.037 A 
ATOM      6  C   LIG d   1      11.814   5.178  -3.471  0.00  0.00    -0.018 A 
ATOM      7  H   LIG d   1       9.607   7.239  -4.995  0.00  0.00     0.066 H 
ATOM      8  H   LIG d   1       8.758   5.080  -5.814  0.00  0.00     0.064 H 
ATOM      9  H   LIG d   1      11.819   3.048  -3.627  0.00  0.00     0.064 H 
ATOM     10  H   LIG d   1      12.673   5.208  -2.816  0.00  0.00     0.066 H 
ENDROOT
BRANCH   4  11
ATOM     11  N   LIG d   1       9.751   2.698  -5.238  0.00  0.00    -0.269 N 
ATOM     12  C   LIG d   1       8.874   1.994  -4.495  0.00  0.00     0.308 C 
ATOM     13  O   LIG d   1       8.566   2.384  -3.386  0.00  0.00    -0.252 OA
ATOM     14  N   LIG d   1       8.339   0.857  -4.982  0.00  0.00    -0.269 N 
ATOM     15  H   LIG d   1       8.643   0.504  -5.833  0.00  0.00     0.156 HD
ATOM     16  H   LIG d   1      10.046   2.354  -6.096  0.00  0.00     0.156 HD
BRANCH  14  17
ATOM     17  C   LIG d   1       7.344   0.186  -4.260  0.00  0.00     0.035 A 
ATOM     18  C   LIG d   1       6.322   0.905  -3.654  0.00  0.00    -0.027 A 
ATOM     19  C   LIG d   1       5.339   0.240  -2.946  0.00  0.00     0.075 A 
ATOM     20  H   LIG d   1       6.293   1.980  -3.739  0.00  0.00     0.064 H 
ATOM     21  C   LIG d   1       5.380  -1.138  -2.831  0.00  0.00     0.053 A 
ATOM     22  C   LIG d   1       6.401  -1.855  -3.430  0.00  0.00    -0.041 A 
ATOM     23 CL   LIG d   1       4.148  -1.970  -1.934  0.00  0.00    -0.083 Cl
ATOM     24  C   LIG d   1       7.383  -1.197  -4.143  0.00  0.00    -0.039 A 
ATOM     25  H   LIG d   1       6.430  -2.931  -3.339  0.00  0.00     0.063 H 
ATOM     26  H   LIG d   1       8.179  -1.757  -4.610  0.00  0.00     0.064 H 
BRANCH  19  27
ATOM     27  C   LIG d   1       4.226   1.018  -2.294  0.00  0.00     0.419 C 
ATOM     28  F   LIG d   1       4.078   2.251  -2.939  0.00  0.00    -0.166 F 
ATOM     29  F   LIG d   1       3.033   0.294  -2.390  0.00  0.00    -0.166 F 
ATOM     30  F   LIG d   1       4.534   1.230  -0.945  0.00  0.00    -0.166 F 
ENDBRANCH  19  27
ENDBRANCH  14  17
ENDBRANCH   4  11
BRANCH   1  31
ATOM     31  O   LIG d   1      11.659   7.551  -3.398  0.00  0.00    -0.456 OA
BRANCH  31  32
ATOM     32  C   LIG d   1      10.815   8.336  -2.681  0.00  0.00     0.132 A 
ATOM     33  C   LIG d   1      10.334   9.533  -3.206  0.00  0.00     0.011 A 
ATOM     34  C   LIG d   1       9.471  10.307  -2.438  0.00  0.00     0.129 A 
ATOM     35  H   LIG d   1      10.626   9.854  -4.194  0.00  0.00     0.068 H 
ATOM     36  N   LIG d   1       9.116   9.917  -1.220  0.00  0.00    -0.250 NA
ATOM     37  C   LIG d   1       9.549   8.789  -0.698  0.00  0.00     0.032 A 
ATOM     38  C   LIG d   1      10.409   7.965  -1.401  0.00  0.00    -0.001 A 
ATOM     39  H   LIG d   1       9.231   8.503   0.294  0.00  0.00     0.083 H 
ATOM     40  H   LIG d   1      10.762   7.043  -0.964  0.00  0.00     0.067 H 
BRANCH  34  41
ATOM     41  C   LIG d   1       8.950  11.584  -2.980  0.00  0.00     0.262 C 
ATOM     42  N   LIG d   1       9.131  12.731  -2.297  0.00  0.00    -0.313 N 
ATOM     43  H   LIG d   1       9.603  12.721  -1.449  0.00  0.00     0.149 HD
ATOM     44  O   LIG d   1       8.359  11.597  -4.043  0.00  0.00    -0.269 OA
BRANCH  42  45
ATOM     45  C   LIG d   1       8.616  13.993  -2.833  0.00  0.00     0.000 C 
ATOM     46  H   LIG d   1       8.840  14.054  -3.898  0.00  0.00     0.043 H 
ATOM     47  H   LIG d   1       7.538  14.038  -2.686  0.00  0.00     0.043 H 
ATOM     48  H   LIG d   1       9.089  14.827  -2.315  0.00  0.00     0.043 H 
ENDBRANCH  42  45
ENDBRANCH  34  41
ENDBRANCH  31  32
ENDBRANCH   1  31
TORSDOF 7
ENDMDL
MODEL 3
REMARK VINA RESULT:      -7.6      3.197      4.566
REMARK  7 active torsions:
REMARK  status: ('A' for Active; 'I' for Inactive)
REMARK    1  A    between atoms: C_1  and  N_2 
REMARK       I    between atoms: N_2  and  C_3 
REMARK    2  A    between atoms: C_3  and  C_5 
REMARK    3  A    between atoms: C_7  and  O_11 
REMARK    4  A    between atoms: O_11  and  C_12 
REMARK    5  A    between atoms: C_15  and  N_18 
REMARK       I    between atoms: N_18  and  C_19 
REMARK       I    between atoms: C_19  and  N_21 
REMARK    6  A    between atoms: N_21  and  C_22 
REMARK    7  A    between atoms: C_26  and  C_28 
ROOT
ATOM      1  C   LIG d   1       9.925  -6.650  -2.279  0.00  0.00     0.129 A 
ATOM      2  C   LIG d   1       9.785  -5.531  -1.472  0.00  0.00    -0.018 A 
ATOM      3  C   LIG d   1       9.530  -4.298  -2.038  0.00  0.00    -0.037 A 
ATOM      4  C   LIG d   1       9.415  -4.178  -3.417  0.00  0.00     0.035 A 
ATOM      5  C   LIG d   1       9.556  -5.299  -4.224  0.00  0.00    -0.037 A 
ATOM      6  C   LIG d   1       9.815  -6.531  -3.657  0.00  0.00    -0.018 A 
ATOM      7  H   LIG d   1       9.875  -5.624  -0.399  0.00  0.00     0.066 H 
ATOM      8  H   LIG d   1       9.422  -3.427  -1.409  0.00  0.00     0.064 H 
ATOM      9  H   LIG d   1       9.466  -5.206  -5.297  0.00  0.00     0.064 H 
ATOM     10  H   LIG d   1       9.929  -7.401  -4.286  0.00  0.00     0.066 H 
ENDROOT
BRANCH   4  11
ATOM     11  N   LIG d   1       9.157  -2.927  -3.992  0.00  0.00    -0.269 N 
ATOM     12  C   LIG d   1       7.885  -2.526  -4.191  0.00  0.00     0.308 C 
ATOM     13  O   LIG d   1       6.965  -3.283  -3.949  0.00  0.00    -0.252 OA
ATOM     14  N   LIG d   1       7.634  -1.288  -4.660  0.00  0.00    -0.269 N 
ATOM     15  H   LIG d   1       8.368  -0.713  -4.927  0.00  0.00     0.156 HD
ATOM     16  H   LIG d   1       9.893  -2.348  -4.246  0.00  0.00     0.156 HD
BRANCH  14  17
ATOM     17  C   LIG d   1       6.314  -0.832  -4.760  0.00  0.00     0.035 A 
ATOM     18  C   LIG d   1       5.693  -0.258  -3.659  0.00  0.00    -0.027 A 
ATOM     19  C   LIG d   1       4.392   0.196  -3.761  0.00  0.00     0.075 A 
ATOM     20  H   LIG d   1       6.226  -0.162  -2.725  0.00  0.00     0.064 H 
ATOM     21  C   LIG d   1       3.705   0.068  -4.955  0.00  0.00     0.053 A 
ATOM     22  C   LIG d   1       4.321  -0.509  -6.052  0.00  0.00    -0.041 A 
ATOM     23 CL   LIG d   1       2.068   0.632  -5.079  0.00  0.00    -0.083 Cl
ATOM     24  C   LIG d   1       5.623  -0.959  -5.957  0.00  0.00    -0.039 A 
ATOM     25  H   LIG d   1       3.783  -0.608  -6.984  0.00  0.00     0.063 H 
ATOM     26  H   LIG d   1       6.103  -1.409  -6.813  0.00  0.00     0.064 H 
BRANCH  19  27
ATOM     27  C   LIG d   1       3.718   0.825  -2.569  0.00  0.00     0.419 C 
ATOM     28  F   LIG d   1       2.534   0.136  -2.285  0.00  0.00    -0.166 F 
ATOM     29  F   LIG d   1       4.573   0.760  -1.463  0.00  0.00    -0.166 F 
ATOM     30  F   LIG d   1       3.424   2.164  -2.852  0.00  0.00    -0.166 F 
ENDBRANCH  19  27
ENDBRANCH  14  17
ENDBRANCH   4  11
BRANCH   1  31
ATOM     31  O   LIG d   1      10.175  -7.865  -1.721  0.00  0.00    -0.456 OA
BRANCH  31  32
ATOM     32  C   LIG d   1      11.357  -8.037  -1.075  0.00  0.00     0.132 A 
ATOM     33  C   LIG d   1      11.404  -8.132   0.314  0.00  0.00     0.011 A 
ATOM     34  C   LIG d   1      12.635  -8.310   0.936  0.00  0.00     0.129 A 
ATOM     35  H   LIG d   1      10.498  -8.070   0.898  0.00  0.00     0.068 H 
ATOM     36  N   LIG d   1      13.750  -8.381   0.219  0.00  0.00    -0.250 NA
ATOM     37  C   LIG d   1      13.738  -8.300  -1.095  0.00  0.00     0.032 A 
ATOM     38  C   LIG d   1      12.552  -8.124  -1.784  0.00  0.00    -0.001 A 
ATOM     39  H   LIG d   1      14.666  -8.369  -1.642  0.00  0.00     0.083 H 
ATOM     40  H   LIG d   1      12.552  -8.055  -2.862  0.00  0.00     0.067 H 
BRANCH  34  41
ATOM     41  C   LIG d   1      12.704  -8.412   2.412  0.00  0.00     0.262 C 
ATOM     42  N   LIG d   1      13.603  -9.233   2.991  0.00  0.00    -0.313 N 
ATOM     43  H   LIG d   1      14.206  -9.756   2.439  0.00  0.00     0.149 HD
ATOM     44  O   LIG d   1      11.949  -7.756   3.103  0.00  0.00    -0.269 OA
BRANCH  42  45
ATOM     45  C   LIG d   1      13.671  -9.334   4.450  0.00  0.00     0.000 C 
ATOM     46  H   LIG d   1      14.348 -10.142   4.727  0.00  0.00     0.043 H 
ATOM     47  H   LIG d   1      14.038  -8.395   4.863  0.00  0.00     0.043 H 
ATOM     48  H   LIG d   1      12.677  -9.541   4.846  0.00  0.00     0.043 H 
ENDBRANCH  42  45
ENDBRANCH  34  41
ENDBRANCH  31  32
ENDBRANCH   1  31
TORSDOF 7
ENDMDL
MODEL 4
REMARK VINA RESULT:      -7.4      7.688     12.286
REMARK  7 active torsions:
REMARK  status: ('A' for Active; 'I' for Inactive)
REMARK    1  A    between atoms: C_1  and  N_2 
REMARK       I    between atoms: N_2  and  C_3 
REMARK    2  A    between atoms: C_3  and  C_5 
REMARK    3  A    between atoms: C_7  and  O_11 
REMARK    4  A    between atoms: O_11  and  C_12 
REMARK    5  A    between atoms: C_15  and  N_18 
REMARK       I    between atoms: N_18  and  C_19 
REMARK       I    between atoms: C_19  and  N_21 
REMARK    6  A    between atoms: N_21  and  C_22 
REMARK    7  A    between atoms: C_26  and  C_28 
ROOT
ATOM      1  C   LIG d   1      11.685   5.337  -2.732  0.00  0.00     0.129 A 
ATOM      2  C   LIG d   1      10.409   5.812  -2.997  0.00  0.00    -0.018 A 
ATOM      3  C   LIG d   1       9.555   5.087  -3.803  0.00  0.00    -0.037 A 
ATOM      4  C   LIG d   1       9.973   3.881  -4.350  0.00  0.00     0.035 A 
ATOM      5  C   LIG d   1      11.251   3.406  -4.084  0.00  0.00    -0.037 A 
ATOM      6  C   LIG d   1      12.106   4.134  -3.282  0.00  0.00    -0.018 A 
ATOM      7  H   LIG d   1      10.083   6.751  -2.571  0.00  0.00     0.066 H 
ATOM      8  H   LIG d   1       8.562   5.458  -4.009  0.00  0.00     0.064 H 
ATOM      9  H   LIG d   1      11.577   2.468  -4.509  0.00  0.00     0.064 H 
ATOM     10  H   LIG d   1      13.101   3.766  -3.079  0.00  0.00     0.066 H 
ENDROOT
BRANCH   4  11
ATOM     11  N   LIG d   1       9.107   3.145  -5.168  0.00  0.00    -0.269 N 
ATOM     12  C   LIG d   1       8.425   2.099  -4.660  0.00  0.00     0.308 C 
ATOM     13  O   LIG d   1       8.624   1.744  -3.514  0.00  0.00    -0.252 OA
ATOM     14  N   LIG d   1       7.525   1.447  -5.421  0.00  0.00    -0.269 N 
ATOM     15  H   LIG d   1       7.423   1.680  -6.357  0.00  0.00     0.156 HD
ATOM     16  H   LIG d   1       8.997   3.388  -6.101  0.00  0.00     0.156 HD
BRANCH  14  17
ATOM     17  C   LIG d   1       6.736   0.436  -4.860  0.00  0.00     0.035 A 
ATOM     18  C   LIG d   1       5.968   0.698  -3.733  0.00  0.00    -0.027 A 
ATOM     19  C   LIG d   1       5.186  -0.300  -3.184  0.00  0.00     0.075 A 
ATOM     20  H   LIG d   1       5.977   1.682  -3.289  0.00  0.00     0.064 H 
ATOM     21  C   LIG d   1       5.178  -1.563  -3.749  0.00  0.00     0.053 A 
ATOM     22  C   LIG d   1       5.947  -1.828  -4.868  0.00  0.00    -0.041 A 
ATOM     23 CL   LIG d   1       4.201  -2.818  -3.052  0.00  0.00    -0.083 Cl
ATOM     24  C   LIG d   1       6.726  -0.832  -5.425  0.00  0.00    -0.039 A 
ATOM     25  H   LIG d   1       5.939  -2.815  -5.308  0.00  0.00     0.063 H 
ATOM     26  H   LIG d   1       7.325  -1.040  -6.298  0.00  0.00     0.064 H 
BRANCH  19  27
ATOM     27  C   LIG d   1       4.347  -0.015  -1.966  0.00  0.00     0.419 C 
ATOM     28  F   LIG d   1       3.002   0.085  -2.338  0.00  0.00    -0.166 F 
ATOM     29  F   LIG d   1       4.500  -1.054  -1.041  0.00  0.00    -0.166 F 
ATOM     30  F   LIG d   1       4.762   1.190  -1.385  0.00  0.00    -0.166 F 
ENDBRANCH  19  27
ENDBRANCH  14  17
ENDBRANCH   4  11
BRANCH   1  31
ATOM     31  O   LIG d   1      12.526   6.051  -1.937  0.00  0.00    -0.456 OA
BRANCH  31  32
ATOM     32  C   LIG d   1      12.085   6.411  -0.704  0.00  0.00     0.132 A 
ATOM     33  C   LIG d   1      12.108   7.743  -0.298  0.00  0.00     0.011 A 
ATOM     34  C   LIG d   1      11.646   8.068   0.973  0.00  0.00     0.129 A 
ATOM     35  H   LIG d   1      12.478   8.511  -0.961  0.00  0.00     0.068 H 
ATOM     36  N   LIG d   1      11.196   7.124   1.791  0.00  0.00    -0.250 NA
ATOM     37  C   LIG d   1      11.157   5.857   1.434  0.00  0.00     0.032 A 
ATOM     38  C   LIG d   1      11.598   5.457   0.186  0.00  0.00    -0.001 A 
ATOM     39  H   LIG d   1      10.778   5.120   2.126  0.00  0.00     0.083 H 
ATOM     40  H   LIG d   1      11.565   4.415  -0.096  0.00  0.00     0.067 H 
BRANCH  34  41
ATOM     41  C   LIG d   1      11.664   9.480   1.421  0.00  0.00     0.262 C 
ATOM     42  N   LIG d   1      11.219  10.454   0.602  0.00  0.00    -0.313 N 
ATOM     43  H   LIG d   1      10.887  10.229  -0.281  0.00  0.00     0.149 HD
ATOM     44  O   LIG d   1      12.081   9.761   2.528  0.00  0.00    -0.269 OA
BRANCH  42  45
ATOM     45  C   LIG d   1      11.237  11.849   1.046  0.00  0.00     0.000 C 
ATOM     46  H   LIG d   1      10.275  12.313   0.827  0.00  0.00     0.043 H 
ATOM     47  H   LIG d   1      11.423  11.888   2.119  0.00  0.00     0.043 H 
ATOM     48  H   LIG d   1      12.027  12.387   0.521  0.00  0.00     0.043 H 
ENDBRANCH  42  45
ENDBRANCH  34  41
ENDBRANCH  31  32
ENDBRANCH   1  31
TORSDOF 7
ENDMDL
MODEL 5
REMARK VINA RESULT:      -7.1      8.583     13.954
REMARK  7 active torsions:
REMARK  status: ('A' for Active; 'I' for Inactive)
REMARK    1  A    between atoms: C_1  and  N_2 
REMARK       I    between atoms: N_2  and  C_3 
REMARK    2  A    between atoms: C_3  and  C_5 
REMARK    3  A    between atoms: C_7  and  O_11 
REMARK    4  A    between atoms: O_11  and  C_12 
REMARK    5  A    between atoms: C_15  and  N_18 
REMARK       I    between atoms: N_18  and  C_19 
REMARK       I    between atoms: C_19  and  N_21 
REMARK    6  A    between atoms: N_21  and  C_22 
REMARK    7  A    between atoms: C_26  and  C_28 
ROOT
ATOM      1  C   LIG d   1       9.770   6.405  -7.258  0.00  0.00     0.129 A 
ATOM      2  C   LIG d   1      10.041   5.133  -7.741  0.00  0.00    -0.018 A 
ATOM      3  C   LIG d   1      10.048   4.053  -6.881  0.00  0.00    -0.037 A 
ATOM      4  C   LIG d   1       9.783   4.240  -5.531  0.00  0.00     0.035 A 
ATOM      5  C   LIG d   1       9.511   5.514  -5.048  0.00  0.00    -0.037 A 
ATOM      6  C   LIG d   1       9.509   6.593  -5.908  0.00  0.00    -0.018 A 
ATOM      7  H   LIG d   1      10.248   4.987  -8.792  0.00  0.00     0.066 H 
ATOM      8  H   LIG d   1      10.260   3.064  -7.258  0.00  0.00     0.064 H 
ATOM      9  H   LIG d   1       9.304   5.660  -3.998  0.00  0.00     0.064 H 
ATOM     10  H   LIG d   1       9.303   7.584  -5.531  0.00  0.00     0.066 H 
ENDROOT
BRANCH   4  11
ATOM     11  N   LIG d   1       9.789   3.146  -4.657  0.00  0.00    -0.269 N 
ATOM     12  C   LIG d   1       8.722   2.324  -4.598  0.00  0.00     0.308 C 
ATOM     13  O   LIG d   1       7.722   2.580  -5.242  0.00  0.00    -0.252 OA
ATOM     14  N   LIG d   1       8.763   1.220  -3.827  0.00  0.00    -0.269 N 
ATOM     15  H   LIG d   1       9.528   1.058  -3.254  0.00  0.00     0.156 HD
ATOM     16  H   LIG d   1      10.562   2.977  -4.095  0.00  0.00     0.156 HD
BRANCH  14  17
ATOM     17  C   LIG d   1       7.701   0.308  -3.853  0.00  0.00     0.035 A 
ATOM     18  C   LIG d   1       6.644   0.447  -2.962  0.00  0.00    -0.027 A 
ATOM     19  C   LIG d   1       5.595  -0.452  -2.994  0.00  0.00     0.075 A 
ATOM     20  H   LIG d   1       6.640   1.257  -2.250  0.00  0.00     0.064 H 
ATOM     21  C   LIG d   1       5.602  -1.494  -3.903  0.00  0.00     0.053 A 
ATOM     22  C   LIG d   1       6.657  -1.637  -4.787  0.00  0.00    -0.041 A 
ATOM     23 CL   LIG d   1       4.286  -2.626  -3.935  0.00  0.00    -0.083 Cl
ATOM     24  C   LIG d   1       7.706  -0.739  -4.764  0.00  0.00    -0.039 A 
ATOM     25  H   LIG d   1       6.661  -2.452  -5.497  0.00  0.00     0.063 H 
ATOM     26  H   LIG d   1       8.528  -0.851  -5.455  0.00  0.00     0.064 H 
BRANCH  19  27
ATOM     27  C   LIG d   1       4.445  -0.299  -2.033  0.00  0.00     0.419 C 
ATOM     28  F   LIG d   1       3.255  -0.132  -2.751  0.00  0.00    -0.166 F 
ATOM     29  F   LIG d   1       4.351  -1.443  -1.233  0.00  0.00    -0.166 F 
ATOM     30  F   LIG d   1       4.661   0.820  -1.221  0.00  0.00    -0.166 F 
ENDBRANCH  19  27
ENDBRANCH  14  17
ENDBRANCH   4  11
BRANCH   1  31
ATOM     31  O   LIG d   1       9.763   7.468  -8.106  0.00  0.00    -0.456 OA
BRANCH  31  32
ATOM     32  C   LIG d   1      10.476   8.568  -7.754  0.00  0.00     0.132 A 
ATOM     33  C   LIG d   1       9.859   9.812  -7.641  0.00  0.00     0.011 A 
ATOM     34  C   LIG d   1      10.626  10.913  -7.277  0.00  0.00     0.129 A 
ATOM     35  H   LIG d   1       8.802   9.918  -7.832  0.00  0.00     0.068 H 
ATOM     36  N   LIG d   1      11.927  10.785  -7.047  0.00  0.00    -0.250 NA
ATOM     37  C   LIG d   1      12.537   9.622  -7.141  0.00  0.00     0.032 A 
ATOM     38  C   LIG d   1      11.841   8.481  -7.497  0.00  0.00    -0.001 A 
ATOM     39  H   LIG d   1      13.596   9.559  -6.940  0.00  0.00     0.083 H 
ATOM     40  H   LIG d   1      12.352   7.533  -7.575  0.00  0.00     0.067 H 
BRANCH  34  41
ATOM     41  C   LIG d   1       9.987  12.244  -7.152  0.00  0.00     0.262 C 
ATOM     42  N   LIG d   1      10.179  12.984  -6.042  0.00  0.00    -0.313 N 
ATOM     43  H   LIG d   1      10.737  12.645  -5.325  0.00  0.00     0.149 HD
ATOM     44  O   LIG d   1       9.287  12.669  -8.051  0.00  0.00    -0.269 OA
BRANCH  42  45
ATOM     45  C   LIG d   1       9.547  14.299  -5.919  0.00  0.00     0.000 C 
ATOM     46  H   LIG d   1       8.494  14.174  -5.665  0.00  0.00     0.043 H 
ATOM     47  H   LIG d   1      10.045  14.870  -5.136  0.00  0.00     0.043 H 
ATOM     48  H   LIG d   1       9.632  14.832  -6.866  0.00  0.00     0.043 H 
ENDBRANCH  42  45
ENDBRANCH  34  41
ENDBRANCH  31  32
ENDBRANCH   1  31
TORSDOF 7
ENDMDL
MODEL 6
REMARK VINA RESULT:      -6.9      8.103     13.325
REMARK  7 active torsions:
REMARK  status: ('A' for Active; 'I' for Inactive)
REMARK    1  A    between atoms: C_1  and  N_2 
REMARK       I    between atoms: N_2  and  C_3 
REMARK    2  A    between atoms: C_3  and  C_5 
REMARK    3  A    between atoms: C_7  and  O_11 
REMARK    4  A    between atoms: O_11  and  C_12 
REMARK    5  A    between atoms: C_15  and  N_18 
REMARK       I    between atoms: N_18  and  C_19 
REMARK       I    between atoms: C_19  and  N_21 
REMARK    6  A    between atoms: N_21  and  C_22 
REMARK    7  A    between atoms: C_26  and  C_28 
ROOT
ATOM      1  C   LIG d   1       9.622   6.844  -6.147  0.00  0.00     0.129 A 
ATOM      2  C   LIG d   1       9.842   5.723  -6.934  0.00  0.00    -0.018 A 
ATOM      3  C   LIG d   1       9.908   4.473  -6.354  0.00  0.00    -0.037 A 
ATOM      4  C   LIG d   1       9.756   4.337  -4.980  0.00  0.00     0.035 A 
ATOM      5  C   LIG d   1       9.536   5.459  -4.193  0.00  0.00    -0.037 A 
ATOM      6  C   LIG d   1       9.474   6.710  -4.774  0.00  0.00    -0.018 A 
ATOM      7  H   LIG d   1       9.961   5.829  -8.003  0.00  0.00     0.066 H 
ATOM      8  H   LIG d   1      10.080   3.601  -6.967  0.00  0.00     0.064 H 
ATOM      9  H   LIG d   1       9.417   5.354  -3.124  0.00  0.00     0.064 H 
ATOM     10  H   LIG d   1       9.308   7.583  -4.161  0.00  0.00     0.066 H 
ENDROOT
BRANCH   4  11
ATOM     11  N   LIG d   1       9.823   3.068  -4.390  0.00  0.00    -0.269 N 
ATOM     12  C   LIG d   1       8.725   2.289  -4.340  0.00  0.00     0.308 C 
ATOM     13  O   LIG d   1       7.657   2.718  -4.732  0.00  0.00    -0.252 OA
ATOM     14  N   LIG d   1       8.810   1.034  -3.855  0.00  0.00    -0.269 N 
ATOM     15  H   LIG d   1       9.642   0.719  -3.470  0.00  0.00     0.156 HD
ATOM     16  H   LIG d   1      10.661   2.750  -4.018  0.00  0.00     0.156 HD
BRANCH  14  17
ATOM     17  C   LIG d   1       7.696   0.187  -3.908  0.00  0.00     0.035 A 
ATOM     18  C   LIG d   1       6.673   0.325  -2.980  0.00  0.00    -0.027 A 
ATOM     19  C   LIG d   1       5.573  -0.509  -3.037  0.00  0.00     0.075 A 
ATOM     20  H   LIG d   1       6.734   1.087  -2.217  0.00  0.00     0.064 H 
ATOM     21  C   LIG d   1       5.497  -1.489  -4.011  0.00  0.00     0.053 A 
ATOM     22  C   LIG d   1       6.518  -1.632  -4.933  0.00  0.00    -0.041 A 
ATOM     23 CL   LIG d   1       4.117  -2.541  -4.076  0.00  0.00    -0.083 Cl
ATOM     24  C   LIG d   1       7.617  -0.797  -4.884  0.00  0.00    -0.039 A 
ATOM     25  H   LIG d   1       6.457  -2.398  -5.693  0.00  0.00     0.063 H 
ATOM     26  H   LIG d   1       8.413  -0.909  -5.605  0.00  0.00     0.064 H 
BRANCH  19  27
ATOM     27  C   LIG d   1       4.459  -0.355  -2.035  0.00  0.00     0.419 C 
ATOM     28  F   LIG d   1       4.733   0.731  -1.196  0.00  0.00    -0.166 F 
ATOM     29  F   LIG d   1       3.253  -0.132  -2.708  0.00  0.00    -0.166 F 
ATOM     30  F   LIG d   1       4.356  -1.522  -1.269  0.00  0.00    -0.166 F 
ENDBRANCH  19  27
ENDBRANCH  14  17
ENDBRANCH   4  11
BRANCH   1  31
ATOM     31  O   LIG d   1       9.556   8.076  -6.720  0.00  0.00    -0.456 OA
BRANCH  31  32
ATOM     32  C   LIG d   1      10.509   8.407  -7.629  0.00  0.00     0.132 A 
ATOM     33  C   LIG d   1      10.233   8.382  -8.993  0.00  0.00     0.011 A 
ATOM     34  C   LIG d   1      11.238   8.730  -9.890  0.00  0.00     0.129 A 
ATOM     35  H   LIG d   1       9.254   8.098  -9.350  0.00  0.00     0.068 H 
ATOM     36  N   LIG d   1      12.444   9.075  -9.454  0.00  0.00    -0.250 NA
ATOM     37  C   LIG d   1      12.733   9.113  -8.170  0.00  0.00     0.032 A 
ATOM     38  C   LIG d   1      11.786   8.781  -7.219  0.00  0.00    -0.001 A 
ATOM     39  H   LIG d   1      13.724   9.405  -7.856  0.00  0.00     0.083 H 
ATOM     40  H   LIG d   1      12.034   8.813  -6.168  0.00  0.00     0.067 H 
BRANCH  34  41
ATOM     41  C   LIG d   1      10.963   8.709 -11.345  0.00  0.00     0.262 C 
ATOM     42  N   LIG d   1       9.698   8.834 -11.795  0.00  0.00    -0.313 N 
ATOM     43  H   LIG d   1       8.968   8.938 -11.165  0.00  0.00     0.149 HD
ATOM     44  O   LIG d   1      11.877   8.578 -12.136  0.00  0.00    -0.269 OA
BRANCH  42  45
ATOM     45  C   LIG d   1       9.426   8.813 -13.234  0.00  0.00     0.000 C 
ATOM     46  H   LIG d   1       9.232   9.827 -13.582  0.00  0.00     0.043 H 
ATOM     47  H   LIG d   1      10.288   8.405 -13.761  0.00  0.00     0.043 H 
ATOM     48  H   LIG d   1       8.553   8.189 -13.429  0.00  0.00     0.043 H 
ENDBRANCH  42  45
ENDBRANCH  34  41
ENDBRANCH  31  32
ENDBRANCH   1  31
TORSDOF 7
ENDMDL
MODEL 7
REMARK VINA RESULT:      -6.8      7.974     12.398
REMARK  7 active torsions:
REMARK  status: ('A' for Active; 'I' for Inactive)
REMARK    1  A    between atoms: C_1  and  N_2 
REMARK       I    between atoms: N_2  and  C_3 
REMARK    2  A    between atoms: C_3  and  C_5 
REMARK    3  A    between atoms: C_7  and  O_11 
REMARK    4  A    between atoms: O_11  and  C_12 
REMARK    5  A    between atoms: C_15  and  N_18 
REMARK       I    between atoms: N_18  and  C_19 
REMARK       I    between atoms: C_19  and  N_21 
REMARK    6  A    between atoms: N_21  and  C_22 
REMARK    7  A    between atoms: C_26  and  C_28 
ROOT
ATOM      1  C   LIG d   1       3.345  -1.320 -12.856  0.00  0.00     0.129 A 
ATOM      2  C   LIG d   1       4.398  -0.602 -12.309  0.00  0.00    -0.018 A 
ATOM      3  C   LIG d   1       4.225   0.087 -11.125  0.00  0.00    -0.037 A 
ATOM      4  C   LIG d   1       2.995   0.062 -10.482  0.00  0.00     0.035 A 
ATOM      5  C   LIG d   1       1.940  -0.657 -11.030  0.00  0.00    -0.037 A 
ATOM      6  C   LIG d   1       2.113  -1.341 -12.216  0.00  0.00    -0.018 A 
ATOM      7  H   LIG d   1       5.356  -0.582 -12.810  0.00  0.00     0.066 H 
ATOM      8  H   LIG d   1       5.045   0.645 -10.700  0.00  0.00     0.064 H 
ATOM      9  H   LIG d   1       0.983  -0.677 -10.530  0.00  0.00     0.064 H 
ATOM     10  H   LIG d   1       1.292  -1.896 -12.645  0.00  0.00     0.066 H 
ENDROOT
BRANCH   4  11
ATOM     11  N   LIG d   1       2.818   0.760  -9.280  0.00  0.00    -0.269 N 
ATOM     12  C   LIG d   1       3.000   0.131  -8.102  0.00  0.00     0.308 C 
ATOM     13  O   LIG d   1       3.237  -1.061  -8.080  0.00  0.00    -0.252 OA
ATOM     14  N   LIG d   1       2.920   0.824  -6.949  0.00  0.00    -0.269 N 
ATOM     15  H   LIG d   1       2.654   1.756  -6.961  0.00  0.00     0.156 HD
ATOM     16  H   LIG d   1       2.565   1.696  -9.296  0.00  0.00     0.156 HD
BRANCH  14  17
ATOM     17  C   LIG d   1       3.221   0.197  -5.734  0.00  0.00     0.035 A 
ATOM     18  C   LIG d   1       4.490  -0.322  -5.516  0.00  0.00    -0.027 A 
ATOM     19  C   LIG d   1       4.786  -0.936  -4.314  0.00  0.00     0.075 A 
ATOM     20  H   LIG d   1       5.246  -0.243  -6.282  0.00  0.00     0.064 H 
ATOM     21  C   LIG d   1       3.817  -1.043  -3.333  0.00  0.00     0.053 A 
ATOM     22  C   LIG d   1       2.549  -0.531  -3.551  0.00  0.00    -0.041 A 
ATOM     23 CL   LIG d   1       4.189  -1.822  -1.827  0.00  0.00    -0.083 Cl
ATOM     24  C   LIG d   1       2.249   0.088  -4.748  0.00  0.00    -0.039 A 
ATOM     25  H   LIG d   1       1.794  -0.616  -2.783  0.00  0.00     0.063 H 
ATOM     26  H   LIG d   1       1.261   0.488  -4.917  0.00  0.00     0.064 H 
BRANCH  19  27
ATOM     27  C   LIG d   1       6.165  -1.494  -4.074  0.00  0.00     0.419 C 
ATOM     28  F   LIG d   1       6.966  -1.257  -5.197  0.00  0.00    -0.166 F 
ATOM     29  F   LIG d   1       6.732  -0.871  -2.956  0.00  0.00    -0.166 F 
ATOM     30  F   LIG d   1       6.078  -2.872  -3.844  0.00  0.00    -0.166 F 
ENDBRANCH  19  27
ENDBRANCH  14  17
ENDBRANCH   4  11
BRANCH   1  31
ATOM     31  O   LIG d   1       3.516  -1.998 -14.022  0.00  0.00    -0.456 OA
BRANCH  31  32
ATOM     32  C   LIG d   1       3.234  -1.352 -15.182  0.00  0.00     0.132 A 
ATOM     33  C   LIG d   1       3.978  -0.246 -15.583  0.00  0.00     0.011 A 
ATOM     34  C   LIG d   1       3.655   0.386 -16.779  0.00  0.00     0.129 A 
ATOM     35  H   LIG d   1       4.793   0.115 -14.974  0.00  0.00     0.068 H 
ATOM     36  N   LIG d   1       2.649  -0.054 -17.526  0.00  0.00    -0.250 NA
ATOM     37  C   LIG d   1       1.931  -1.100 -17.177  0.00  0.00     0.032 A 
ATOM     38  C   LIG d   1       2.192  -1.781 -16.001  0.00  0.00    -0.001 A 
ATOM     39  H   LIG d   1       1.125  -1.430 -17.815  0.00  0.00     0.083 H 
ATOM     40  H   LIG d   1       1.595  -2.636 -15.722  0.00  0.00     0.067 H 
BRANCH  34  41
ATOM     41  C   LIG d   1       4.436   1.565 -17.220  0.00  0.00     0.262 C 
ATOM     42  N   LIG d   1       5.728   1.693 -16.858  0.00  0.00    -0.313 N 
ATOM     43  H   LIG d   1       6.146   1.013 -16.308  0.00  0.00     0.149 HD
ATOM     44  O   LIG d   1       3.912   2.418 -17.910  0.00  0.00    -0.269 OA
BRANCH  42  45
ATOM     45  C   LIG d   1       6.500   2.859 -17.294  0.00  0.00     0.000 C 
ATOM     46  H   LIG d   1       5.832   3.584 -17.759  0.00  0.00     0.043 H 
ATOM     47  H   LIG d   1       6.989   3.314 -16.434  0.00  0.00     0.043 H 
ATOM     48  H   LIG d   1       7.254   2.544 -18.017  0.00  0.00     0.043 H 
ENDBRANCH  42  45
ENDBRANCH  34  41
ENDBRANCH  31  32
ENDBRANCH   1  31
TORSDOF 7
ENDMDL
MODEL 8
REMARK VINA RESULT:      -6.7      2.859      4.537
REMARK  7 active torsions:
REMARK  status: ('A' for Active; 'I' for Inactive)
REMARK    1  A    between atoms: C_1  and  N_2 
REMARK       I    between atoms: N_2  and  C_3 
REMARK    2  A    between atoms: C_3  and  C_5 
REMARK    3  A    between atoms: C_7  and  O_11 
REMARK    4  A    between atoms: O_11  and  C_12 
REMARK    5  A    between atoms: C_15  and  N_18 
REMARK       I    between atoms: N_18  and  C_19 
REMARK       I    between atoms: C_19  and  N_21 
REMARK    6  A    between atoms: N_21  and  C_22 
REMARK    7  A    between atoms: C_26  and  C_28 
ROOT
ATOM      1  C   LIG d   1      10.196  -7.236  -2.816  0.00  0.00     0.129 A 
ATOM      2  C   LIG d   1      10.319  -6.725  -4.100  0.00  0.00    -0.018 A 
ATOM      3  C   LIG d   1      10.093  -5.384  -4.336  0.00  0.00    -0.037 A 
ATOM      4  C   LIG d   1       9.742  -4.545  -3.286  0.00  0.00     0.035 A 
ATOM      5  C   LIG d   1       9.619  -5.056  -2.001  0.00  0.00    -0.037 A 
ATOM      6  C   LIG d   1       9.840  -6.399  -1.768  0.00  0.00    -0.018 A 
ATOM      7  H   LIG d   1      10.592  -7.378  -4.917  0.00  0.00     0.066 H 
ATOM      8  H   LIG d   1      10.189  -4.988  -5.335  0.00  0.00     0.064 H 
ATOM      9  H   LIG d   1       9.346  -4.405  -1.184  0.00  0.00     0.064 H 
ATOM     10  H   LIG d   1       9.740  -6.797  -0.769  0.00  0.00     0.066 H 
ENDROOT
BRANCH   4  11
ATOM     11  N   LIG d   1       9.513  -3.184  -3.524  0.00  0.00    -0.269 N 
ATOM     12  C   LIG d   1       8.285  -2.759  -3.880  0.00  0.00     0.308 C 
ATOM     13  O   LIG d   1       7.396  -3.565  -4.075  0.00  0.00    -0.252 OA
ATOM     14  N   LIG d   1       8.042  -1.441  -4.020  0.00  0.00    -0.269 N 
ATOM     15  H   LIG d   1       8.768  -0.803  -3.942  0.00  0.00     0.156 HD
ATOM     16  H   LIG d   1      10.239  -2.546  -3.432  0.00  0.00     0.156 HD
BRANCH  14  17
ATOM     17  C   LIG d   1       6.740  -0.993  -4.277  0.00  0.00     0.035 A 
ATOM     18  C   LIG d   1       5.989  -0.420  -3.260  0.00  0.00    -0.027 A 
ATOM     19  C   LIG d   1       4.706   0.026  -3.518  0.00  0.00     0.075 A 
ATOM     20  H   LIG d   1       6.406  -0.318  -2.270  0.00  0.00     0.064 H 
ATOM     21  C   LIG d   1       4.168  -0.109  -4.785  0.00  0.00     0.053 A 
ATOM     22  C   LIG d   1       4.913  -0.685  -5.799  0.00  0.00    -0.041 A 
ATOM     23 CL   LIG d   1       2.554   0.445  -5.104  0.00  0.00    -0.083 Cl
ATOM     24  C   LIG d   1       6.197  -1.127  -5.548  0.00  0.00    -0.039 A 
ATOM     25  H   LIG d   1       4.491  -0.789  -6.788  0.00  0.00     0.063 H 
ATOM     26  H   LIG d   1       6.778  -1.576  -6.340  0.00  0.00     0.064 H 
BRANCH  19  27
ATOM     27  C   LIG d   1       3.893   0.654  -2.417  0.00  0.00     0.419 C 
ATOM     28  F   LIG d   1       3.618   1.987  -2.741  0.00  0.00    -0.166 F 
ATOM     29  F   LIG d   1       2.691  -0.047  -2.267  0.00  0.00    -0.166 F 
ATOM     30  F   LIG d   1       4.613   0.605  -1.218  0.00  0.00    -0.166 F 
ENDBRANCH  19  27
ENDBRANCH  14  17
ENDBRANCH   4  11
BRANCH   1  31
ATOM     31  O   LIG d   1      10.419  -8.557  -2.585  0.00  0.00    -0.456 OA
BRANCH  31  32
ATOM     32  C   LIG d   1      11.045  -8.905  -1.432  0.00  0.00     0.132 A 
ATOM     33  C   LIG d   1      12.429  -8.803  -1.313  0.00  0.00     0.011 A 
ATOM     34  C   LIG d   1      13.031  -9.170  -0.114  0.00  0.00     0.129 A 
ATOM     35  H   LIG d   1      13.025  -8.444  -2.139  0.00  0.00     0.068 H 
ATOM     36  N   LIG d   1      12.300  -9.617   0.900  0.00  0.00    -0.250 NA
ATOM     37  C   LIG d   1      10.990  -9.720   0.820  0.00  0.00     0.032 A 
ATOM     38  C   LIG d   1      10.320  -9.373  -0.340  0.00  0.00    -0.001 A 
ATOM     39  H   LIG d   1      10.431 -10.082   1.669  0.00  0.00     0.083 H 
ATOM     40  H   LIG d   1       9.246  -9.464  -0.397  0.00  0.00     0.067 H 
BRANCH  34  41
ATOM     41  C   LIG d   1      14.502  -9.068   0.030  0.00  0.00     0.262 C 
ATOM     42  N   LIG d   1      15.117  -9.636   1.086  0.00  0.00    -0.313 N 
ATOM     43  H   LIG d   1      14.596 -10.112   1.752  0.00  0.00     0.149 HD
ATOM     44  O   LIG d   1      15.155  -8.472  -0.804  0.00  0.00    -0.269 OA
BRANCH  42  45
ATOM     45  C   LIG d   1      16.571  -9.536   1.229  0.00  0.00     0.000 C 
ATOM     46  H   LIG d   1      16.830  -8.561   1.643  0.00  0.00     0.043 H 
ATOM     47  H   LIG d   1      16.927 -10.320   1.896  0.00  0.00     0.043 H 
ATOM     48  H   LIG d   1      17.040  -9.650   0.251  0.00  0.00     0.043 H 
ENDBRANCH  42  45
ENDBRANCH  34  41
ENDBRANCH  31  32
ENDBRANCH   1  31
TORSDOF 7
ENDMDL
MODEL 9
REMARK VINA RESULT:      -6.6      7.853     13.103
REMARK  7 active torsions:
REMARK  status: ('A' for Active; 'I' for Inactive)
REMARK    1  A    between atoms: C_1  and  N_2 
REMARK       I    between atoms: N_2  and  C_3 
REMARK    2  A    between atoms: C_3  and  C_5 
REMARK    3  A    between atoms: C_7  and  O_11 
REMARK    4  A    between atoms: O_11  and  C_12 
REMARK    5  A    between atoms: C_15  and  N_18 
REMARK       I    between atoms: N_18  and  C_19 
REMARK       I    between atoms: C_19  and  N_21 
REMARK    6  A    between atoms: N_21  and  C_22 
REMARK    7  A    between atoms: C_26  and  C_28 
ROOT
ATOM      1  C   LIG d   1      11.506   5.933  -3.820  0.00  0.00     0.129 A 
ATOM      2  C   LIG d   1      11.845   5.047  -4.831  0.00  0.00    -0.018 A 
ATOM      3  C   LIG d   1      11.408   3.738  -4.779  0.00  0.00    -0.037 A 
ATOM      4  C   LIG d   1      10.629   3.309  -3.712  0.00  0.00     0.035 A 
ATOM      5  C   LIG d   1      10.291   4.197  -2.700  0.00  0.00    -0.037 A 
ATOM      6  C   LIG d   1      10.732   5.504  -2.751  0.00  0.00    -0.018 A 
ATOM      7  H   LIG d   1      12.451   5.381  -5.661  0.00  0.00     0.066 H 
ATOM      8  H   LIG d   1      11.672   3.049  -5.566  0.00  0.00     0.064 H 
ATOM      9  H   LIG d   1       9.685   3.864  -1.870  0.00  0.00     0.064 H 
ATOM     10  H   LIG d   1      10.472   6.193  -1.961  0.00  0.00     0.066 H 
ENDROOT
BRANCH   4  11
ATOM     11  N   LIG d   1      10.186   1.982  -3.658  0.00  0.00    -0.269 N 
ATOM     12  C   LIG d   1       8.878   1.701  -3.822  0.00  0.00     0.308 C 
ATOM     13  O   LIG d   1       8.072   2.604  -3.935  0.00  0.00    -0.252 OA
ATOM     14  N   LIG d   1       8.463   0.419  -3.861  0.00  0.00    -0.269 N 
ATOM     15  H   LIG d   1       9.093  -0.299  -3.693  0.00  0.00     0.156 HD
ATOM     16  H   LIG d   1      10.820   1.264  -3.504  0.00  0.00     0.156 HD
BRANCH  14  17
ATOM     17  C   LIG d   1       7.124   0.125  -4.145  0.00  0.00     0.035 A 
ATOM     18  C   LIG d   1       6.209  -0.018  -3.110  0.00  0.00    -0.027 A 
ATOM     19  C   LIG d   1       4.887  -0.303  -3.393  0.00  0.00     0.075 A 
ATOM     20  H   LIG d   1       6.529   0.098  -2.086  0.00  0.00     0.064 H 
ATOM     21  C   LIG d   1       4.477  -0.457  -4.706  0.00  0.00     0.053 A 
ATOM     22  C   LIG d   1       5.389  -0.321  -5.738  0.00  0.00    -0.041 A 
ATOM     23 CL   LIG d   1       2.817  -0.823  -5.058  0.00  0.00    -0.083 Cl
ATOM     24  C   LIG d   1       6.710  -0.030  -5.462  0.00  0.00    -0.039 A 
ATOM     25  H   LIG d   1       5.066  -0.441  -6.762  0.00  0.00     0.063 H 
ATOM     26  H   LIG d   1       7.420   0.077  -6.268  0.00  0.00     0.064 H 
BRANCH  19  27
ATOM     27  C   LIG d   1       3.893  -0.452  -2.271  0.00  0.00     0.419 C 
ATOM     28  F   LIG d   1       4.541  -0.261  -1.046  0.00  0.00    -0.166 F 
ATOM     29  F   LIG d   1       2.880   0.502  -2.417  0.00  0.00    -0.166 F 
ATOM     30  F   LIG d   1       3.335  -1.735  -2.310  0.00  0.00    -0.166 F 
ENDBRANCH  19  27
ENDBRANCH  14  17
ENDBRANCH   4  11
BRANCH   1  31
ATOM     31  O   LIG d   1      11.936   7.222  -3.872  0.00  0.00    -0.456 OA
BRANCH  31  32
ATOM     32  C   LIG d   1      11.066   8.167  -4.312  0.00  0.00     0.132 A 
ATOM     33  C   LIG d   1      10.794   9.298  -3.548  0.00  0.00     0.011 A 
ATOM     34  C   LIG d   1       9.896  10.242  -4.036  0.00  0.00     0.129 A 
ATOM     35  H   LIG d   1      11.273   9.441  -2.591  0.00  0.00     0.068 H 
ATOM     36  N   LIG d   1       9.301  10.065  -5.210  0.00  0.00    -0.250 NA
ATOM     37  C   LIG d   1       9.542   9.009  -5.958  0.00  0.00     0.032 A 
ATOM     38  C   LIG d   1      10.423   8.028  -5.540  0.00  0.00    -0.001 A 
ATOM     39  H   LIG d   1       9.042   8.905  -6.909  0.00  0.00     0.083 H 
ATOM     40  H   LIG d   1      10.611   7.163  -6.159  0.00  0.00     0.067 H 
BRANCH  34  41
ATOM     41  C   LIG d   1       9.595  11.451  -3.236  0.00  0.00     0.262 C 
ATOM     42  N   LIG d   1       8.859  12.448  -3.769  0.00  0.00    -0.313 N 
ATOM     43  H   LIG d   1       8.527  12.371  -4.677  0.00  0.00     0.149 HD
ATOM     44  O   LIG d   1      10.010  11.547  -2.097  0.00  0.00    -0.269 OA
BRANCH  42  45
ATOM     45  C   LIG d   1       8.561  13.643  -2.977  0.00  0.00     0.000 C 
ATOM     46  H   LIG d   1       7.924  13.372  -2.135  0.00  0.00     0.043 H 
ATOM     47  H   LIG d   1       9.490  14.074  -2.606  0.00  0.00     0.043 H 
ATOM     48  H   LIG d   1       8.046  14.373  -3.602  0.00  0.00     0.043 H 
ENDBRANCH  42  45
ENDBRANCH  34  41
ENDBRANCH  31  32
ENDBRANCH   1  31
TORSDOF 7
ENDMDL
