MODEL 1
REMARK VINA RESULT:      -7.3      0.000      0.000
REMARK  2 active torsions:
REMARK  status: ('A' for Active; 'I' for Inactive)
REMARK    1  A    between atoms: C_10  and  N_11 
REMARK    2  A    between atoms: C_19  and  C_25 
ROOT
ATOM      1  N   LIG d   1       4.704  -0.489  -7.158  0.00  0.00    -0.267 N 
ATOM      2  C   LIG d   1       5.872  -1.379  -6.957  0.00  0.00     0.053 C 
ATOM      3  C   LIG d   1       6.076  -1.381  -5.474  0.00  0.00     0.116 C 
ATOM      4  C   LIG d   1       6.702  -2.490  -4.707  0.00  0.00    -0.052 C 
ATOM      5  C   LIG d   1       6.902  -1.963  -3.493  0.00  0.00    -0.056 C 
ATOM      6  C   LIG d   1       6.426  -0.506  -3.544  0.00  0.00     0.087 C 
ATOM      7  H   LIG d   1       6.860   0.164  -2.802  0.00  0.00     0.065 H 
ATOM      8  O   LIG d   1       6.714  -0.184  -4.953  0.00  0.00    -0.359 OA
ATOM      9  C   LIG d   1       4.864  -0.540  -3.589  0.00  0.00     0.043 C 
ATOM     10  H   LIG d   1       4.452   0.468  -3.574  0.00  0.00     0.040 H 
ATOM     11  C   LIG d   1       4.603  -1.221  -4.945  0.00  0.00     0.081 C 
ATOM     12  H   LIG d   1       4.073  -2.170  -4.854  0.00  0.00     0.043 H 
ATOM     13  C   LIG d   1       4.016  -0.327  -5.999  0.00  0.00     0.227 C 
ATOM     14  O   LIG d   1       3.075   0.422  -5.841  0.00  0.00    -0.275 OA
ATOM     15  H   LIG d   1       5.652  -2.386  -7.313  0.00  0.00     0.050 H 
ATOM     16  H   LIG d   1       6.750  -0.979  -7.465  0.00  0.00     0.050 H 
ATOM     17  H   LIG d   1       6.939  -3.487  -5.050  0.00  0.00     0.060 H 
ATOM     18  H   LIG d   1       7.321  -2.470  -2.637  0.00  0.00     0.060 H 
ENDROOT
BRANCH   1  19
ATOM     19  C   LIG d   1       4.358   0.102  -8.374  0.00  0.00     0.044 A 
ATOM     20  C   LIG d   1       3.487  -0.559  -9.266  0.00  0.00     0.004 A 
ATOM     21  C   LIG d   1       2.949  -1.818  -8.958  0.00  0.00    -0.052 A 
ATOM     22  C   LIG d   1       3.150   0.060 -10.495  0.00  0.00    -0.016 A 
ATOM     23  C   LIG d   1       2.112  -2.429  -9.842  0.00  0.00    -0.061 A 
ATOM     24  H   LIG d   1       3.198  -2.302  -8.025  0.00  0.00     0.062 H 
ATOM     25  C   LIG d   1       1.780  -1.820 -11.051  0.00  0.00    -0.061 A 
ATOM     26  H   LIG d   1       1.700  -3.398  -9.603  0.00  0.00     0.062 H 
ATOM     27  C   LIG d   1       2.283  -0.601 -11.383  0.00  0.00    -0.054 A 
ATOM     28  H   LIG d   1       1.113  -2.325 -11.735  0.00  0.00     0.062 H 
ATOM     29  H   LIG d   1       2.017  -0.141 -12.323  0.00  0.00     0.062 H 
ATOM     30  C   LIG d   1       3.688   1.321 -10.804  0.00  0.00    -0.054 A 
ATOM     31  C   LIG d   1       4.526   1.937  -9.925  0.00  0.00    -0.059 A 
ATOM     32  H   LIG d   1       3.436   1.801 -11.739  0.00  0.00     0.062 H 
ATOM     33  C   LIG d   1       4.859   1.341  -8.713  0.00  0.00    -0.040 A 
ATOM     34  H   LIG d   1       4.934   2.906 -10.171  0.00  0.00     0.062 H 
ATOM     35  H   LIG d   1       5.522   1.852  -8.031  0.00  0.00     0.064 H 
ENDBRANCH   1  19
BRANCH   9  36
ATOM     36  C   LIG d   1       4.310  -1.365  -2.456  0.00  0.00     0.048 C 
ATOM     37  O   LIG d   1       4.501  -1.026  -1.313  0.00  0.00    -0.549 OA
ATOM     38  O   LIG d   1       3.603  -2.475  -2.718  0.00  0.00    -0.549 OA
ENDBRANCH   9  36
TORSDOF 2
ENDMDL
MODEL 2
REMARK VINA RESULT:      -6.8      1.038      2.392
REMARK  2 active torsions:
REMARK  status: ('A' for Active; 'I' for Inactive)
REMARK    1  A    between atoms: C_10  and  N_11 
REMARK    2  A    between atoms: C_19  and  C_25 
ROOT
ATOM      1  N   LIG d   1       4.573  -1.149  -6.612  0.00  0.00    -0.267 N 
ATOM      2  C   LIG d   1       5.948  -1.550  -6.232  0.00  0.00     0.053 C 
ATOM      3  C   LIG d   1       6.210  -0.791  -4.968  0.00  0.00     0.116 C 
ATOM      4  C   LIG d   1       7.151  -1.224  -3.901  0.00  0.00    -0.052 C 
ATOM      5  C   LIG d   1       7.253  -0.148  -3.112  0.00  0.00    -0.056 C 
ATOM      6  C   LIG d   1       6.393   0.958  -3.735  0.00  0.00     0.087 C 
ATOM      7  H   LIG d   1       6.658   1.979  -3.464  0.00  0.00     0.065 H 
ATOM      8  O   LIG d   1       6.518   0.615  -5.163  0.00  0.00    -0.359 OA
ATOM      9  C   LIG d   1       4.900   0.564  -3.493  0.00  0.00     0.043 C 
ATOM     10  H   LIG d   1       4.228   1.335  -3.867  0.00  0.00     0.040 H 
ATOM     11  C   LIG d   1       4.776  -0.725  -4.327  0.00  0.00     0.081 C 
ATOM     12  H   LIG d   1       4.531  -1.603  -3.727  0.00  0.00     0.043 H 
ATOM     13  C   LIG d   1       3.919  -0.605  -5.554  0.00  0.00     0.227 C 
ATOM     14  O   LIG d   1       2.817  -0.100  -5.595  0.00  0.00    -0.275 OA
ATOM     15  H   LIG d   1       5.998  -2.624  -6.050  0.00  0.00     0.050 H 
ATOM     16  H   LIG d   1       6.659  -1.262  -7.007  0.00  0.00     0.050 H 
ATOM     17  H   LIG d   1       7.637  -2.183  -3.790  0.00  0.00     0.060 H 
ATOM     18  H   LIG d   1       7.833  -0.073  -2.204  0.00  0.00     0.060 H 
ENDROOT
BRANCH   1  19
ATOM     19  C   LIG d   1       4.023  -1.310  -7.886  0.00  0.00     0.044 A 
ATOM     20  C   LIG d   1       3.975  -0.223  -8.784  0.00  0.00     0.004 A 
ATOM     21  C   LIG d   1       4.474   1.039  -8.426  0.00  0.00    -0.052 A 
ATOM     22  C   LIG d   1       3.413  -0.410 -10.070  0.00  0.00    -0.016 A 
ATOM     23  C   LIG d   1       4.412   2.066  -9.319  0.00  0.00    -0.061 A 
ATOM     24  H   LIG d   1       4.906   1.196  -7.448  0.00  0.00     0.062 H 
ATOM     25  C   LIG d   1       3.859   1.883 -10.584  0.00  0.00    -0.061 A 
ATOM     26  H   LIG d   1       4.796   3.037  -9.040  0.00  0.00     0.062 H 
ATOM     27  C   LIG d   1       3.365   0.674 -10.965  0.00  0.00    -0.054 A 
ATOM     28  H   LIG d   1       3.822   2.714 -11.273  0.00  0.00     0.062 H 
ATOM     29  H   LIG d   1       2.939   0.546 -11.949  0.00  0.00     0.062 H 
ATOM     30  C   LIG d   1       2.914  -1.674 -10.429  0.00  0.00    -0.054 A 
ATOM     31  C   LIG d   1       2.972  -2.705  -9.543  0.00  0.00    -0.059 A 
ATOM     32  H   LIG d   1       2.483  -1.825 -11.409  0.00  0.00     0.062 H 
ATOM     33  C   LIG d   1       3.527  -2.535  -8.279  0.00  0.00    -0.040 A 
ATOM     34  H   LIG d   1       2.586  -3.673  -9.828  0.00  0.00     0.062 H 
ATOM     35  H   LIG d   1       3.566  -3.370  -7.595  0.00  0.00     0.064 H 
ENDBRANCH   1  19
BRANCH   9  36
ATOM     36  C   LIG d   1       4.645   0.288  -2.034  0.00  0.00     0.048 C 
ATOM     37  O   LIG d   1       4.742   1.180  -1.225  0.00  0.00    -0.549 OA
ATOM     38  O   LIG d   1       4.309  -0.948  -1.633  0.00  0.00    -0.549 OA
ENDBRANCH   9  36
TORSDOF 2
ENDMDL
MODEL 3
REMARK VINA RESULT:      -6.8      2.380      6.687
REMARK  2 active torsions:
REMARK  status: ('A' for Active; 'I' for Inactive)
REMARK    1  A    between atoms: C_10  and  N_11 
REMARK    2  A    between atoms: C_19  and  C_25 
ROOT
ATOM      1  N   LIG d   1       4.771  -0.887  -7.227  0.00  0.00    -0.267 N 
ATOM      2  C   LIG d   1       4.924   0.501  -7.723  0.00  0.00     0.053 C 
ATOM      3  C   LIG d   1       4.485   0.425  -9.152  0.00  0.00     0.116 C 
ATOM      4  C   LIG d   1       3.915   1.561  -9.924  0.00  0.00    -0.052 C 
ATOM      5  C   LIG d   1       3.909   1.115 -11.186  0.00  0.00    -0.056 C 
ATOM      6  C   LIG d   1       4.520  -0.291 -11.177  0.00  0.00     0.087 C 
ATOM      7  H   LIG d   1       4.946  -0.633 -12.120  0.00  0.00     0.065 H 
ATOM      8  O   LIG d   1       5.464  -0.160 -10.052  0.00  0.00    -0.359 OA
ATOM      9  C   LIG d   1       3.462  -1.242 -10.532  0.00  0.00     0.043 C 
ATOM     10  H   LIG d   1       3.810  -2.275 -10.540  0.00  0.00     0.040 H 
ATOM     11  C   LIG d   1       3.384  -0.698  -9.094  0.00  0.00     0.081 C 
ATOM     12  H   LIG d   1       2.396  -0.320  -8.830  0.00  0.00     0.043 H 
ATOM     13  C   LIG d   1       3.957  -1.605  -8.042  0.00  0.00     0.227 C 
ATOM     14  O   LIG d   1       3.730  -2.792  -7.939  0.00  0.00    -0.275 OA
ATOM     15  H   LIG d   1       4.282   1.181  -7.162  0.00  0.00     0.050 H 
ATOM     16  H   LIG d   1       5.965   0.818  -7.658  0.00  0.00     0.050 H 
ATOM     17  H   LIG d   1       3.583   2.519  -9.552  0.00  0.00     0.060 H 
ATOM     18  H   LIG d   1       3.542   1.648 -12.050  0.00  0.00     0.060 H 
ENDROOT
BRANCH   1  19
ATOM     19  C   LIG d   1       5.380  -1.389  -6.074  0.00  0.00     0.044 A 
ATOM     20  C   LIG d   1       4.736  -1.281  -4.823  0.00  0.00     0.004 A 
ATOM     21  C   LIG d   1       3.477  -0.673  -4.703  0.00  0.00    -0.052 A 
ATOM     22  C   LIG d   1       5.373  -1.797  -3.668  0.00  0.00    -0.016 A 
ATOM     23  C   LIG d   1       2.884  -0.587  -3.480  0.00  0.00    -0.061 A 
ATOM     24  H   LIG d   1       2.979  -0.276  -5.576  0.00  0.00     0.062 H 
ATOM     25  C   LIG d   1       3.510  -1.093  -2.343  0.00  0.00    -0.061 A 
ATOM     26  H   LIG d   1       1.915  -0.117  -3.390  0.00  0.00     0.062 H 
ATOM     27  C   LIG d   1       4.731  -1.689  -2.422  0.00  0.00    -0.054 A 
ATOM     28  H   LIG d   1       3.019  -1.013  -1.385  0.00  0.00     0.062 H 
ATOM     29  H   LIG d   1       5.205  -2.078  -1.533  0.00  0.00     0.062 H 
ATOM     30  C   LIG d   1       6.634  -2.406  -3.788  0.00  0.00    -0.054 A 
ATOM     31  C   LIG d   1       7.232  -2.496  -5.008  0.00  0.00    -0.059 A 
ATOM     32  H   LIG d   1       7.127  -2.802  -2.912  0.00  0.00     0.062 H 
ATOM     33  C   LIG d   1       6.613  -1.999  -6.149  0.00  0.00    -0.040 A 
ATOM     34  H   LIG d   1       8.201  -2.967  -5.089  0.00  0.00     0.062 H 
ATOM     35  H   LIG d   1       7.108  -2.087  -7.106  0.00  0.00     0.064 H 
ENDBRANCH   1  19
BRANCH   9  36
ATOM     36  C   LIG d   1       2.131  -1.118 -11.227  0.00  0.00     0.048 C 
ATOM     37  O   LIG d   1       1.155  -0.771 -10.606  0.00  0.00    -0.549 OA
ATOM     38  O   LIG d   1       2.030  -1.393 -12.537  0.00  0.00    -0.549 OA
ENDBRANCH   9  36
TORSDOF 2
ENDMDL
MODEL 4
REMARK VINA RESULT:      -6.8      2.228      6.698
REMARK  2 active torsions:
REMARK  status: ('A' for Active; 'I' for Inactive)
REMARK    1  A    between atoms: C_10  and  N_11 
REMARK    2  A    between atoms: C_19  and  C_25 
ROOT
ATOM      1  N   LIG d   1       5.072  -1.407  -6.624  0.00  0.00    -0.267 N 
ATOM      2  C   LIG d   1       4.172  -2.432  -7.203  0.00  0.00     0.053 C 
ATOM      3  C   LIG d   1       3.596  -1.767  -8.414  0.00  0.00     0.116 C 
ATOM      4  C   LIG d   1       3.108  -2.484  -9.622  0.00  0.00    -0.052 C 
ATOM      5  C   LIG d   1       2.465  -1.536 -10.315  0.00  0.00    -0.056 C 
ATOM      6  C   LIG d   1       2.534  -0.243  -9.494  0.00  0.00     0.087 C 
ATOM      7  H   LIG d   1       1.760   0.495  -9.700  0.00  0.00     0.065 H 
ATOM      8  O   LIG d   1       2.550  -0.799  -8.129  0.00  0.00    -0.359 OA
ATOM      9  C   LIG d   1       4.005   0.278  -9.589  0.00  0.00     0.043 C 
ATOM     10  H   LIG d   1       4.116   1.228  -9.067  0.00  0.00     0.040 H 
ATOM     11  C   LIG d   1       4.782  -0.840  -8.869  0.00  0.00     0.081 C 
ATOM     12  H   LIG d   1       5.502  -1.346  -9.512  0.00  0.00     0.043 H 
ATOM     13  C   LIG d   1       5.366  -0.450  -7.541  0.00  0.00     0.227 C 
ATOM     14  O   LIG d   1       5.999   0.562  -7.321  0.00  0.00    -0.275 OA
ATOM     15  H   LIG d   1       4.736  -3.320  -7.487  0.00  0.00     0.050 H 
ATOM     16  H   LIG d   1       3.383  -2.691  -6.496  0.00  0.00     0.050 H 
ATOM     17  H   LIG d   1       3.242  -3.524  -9.878  0.00  0.00     0.060 H 
ATOM     18  H   LIG d   1       1.987  -1.660 -11.275  0.00  0.00     0.060 H 
ENDROOT
BRANCH   1  19
ATOM     19  C   LIG d   1       5.555  -1.423  -5.314  0.00  0.00     0.044 A 
ATOM     20  C   LIG d   1       4.880  -0.715  -4.297  0.00  0.00     0.004 A 
ATOM     21  C   LIG d   1       3.715   0.019  -4.571  0.00  0.00    -0.052 A 
ATOM     22  C   LIG d   1       5.388  -0.746  -2.975  0.00  0.00    -0.016 A 
ATOM     23  C   LIG d   1       3.089   0.691  -3.565  0.00  0.00    -0.061 A 
ATOM     24  H   LIG d   1       3.317   0.051  -5.575  0.00  0.00     0.062 H 
ATOM     25  C   LIG d   1       3.588   0.661  -2.265  0.00  0.00    -0.061 A 
ATOM     26  H   LIG d   1       2.193   1.255  -3.779  0.00  0.00     0.062 H 
ATOM     27  C   LIG d   1       4.715  -0.040  -1.963  0.00  0.00    -0.054 A 
ATOM     28  H   LIG d   1       3.073   1.201  -1.485  0.00  0.00     0.062 H 
ATOM     29  H   LIG d   1       5.091  -0.054  -0.950  0.00  0.00     0.062 H 
ATOM     30  C   LIG d   1       6.553  -1.481  -2.700  0.00  0.00    -0.054 A 
ATOM     31  C   LIG d   1       7.185  -2.155  -3.700  0.00  0.00    -0.059 A 
ATOM     32  H   LIG d   1       6.948  -1.510  -1.694  0.00  0.00     0.062 H 
ATOM     33  C   LIG d   1       6.692  -2.136  -5.001  0.00  0.00    -0.040 A 
ATOM     34  H   LIG d   1       8.080  -2.717  -3.479  0.00  0.00     0.062 H 
ATOM     35  H   LIG d   1       7.209  -2.683  -5.776  0.00  0.00     0.064 H 
ENDBRANCH   1  19
BRANCH   9  36
ATOM     36  C   LIG d   1       4.442   0.398 -11.026  0.00  0.00     0.048 C 
ATOM     37  O   LIG d   1       3.822   1.099 -11.789  0.00  0.00    -0.549 OA
ATOM     38  O   LIG d   1       5.521  -0.273 -11.457  0.00  0.00    -0.549 OA
ENDBRANCH   9  36
TORSDOF 2
ENDMDL
MODEL 5
REMARK VINA RESULT:      -6.7      3.584      6.136
REMARK  2 active torsions:
REMARK  status: ('A' for Active; 'I' for Inactive)
REMARK    1  A    between atoms: C_10  and  N_11 
REMARK    2  A    between atoms: C_19  and  C_25 
ROOT
ATOM      1  N   LIG d   1       6.249  -2.300  -5.448  0.00  0.00    -0.267 N 
ATOM      2  C   LIG d   1       6.810  -3.592  -4.987  0.00  0.00     0.053 C 
ATOM      3  C   LIG d   1       5.898  -4.617  -5.587  0.00  0.00     0.116 C 
ATOM      4  C   LIG d   1       6.293  -6.012  -5.915  0.00  0.00    -0.052 C 
ATOM      5  C   LIG d   1       5.129  -6.618  -6.180  0.00  0.00    -0.056 C 
ATOM      6  C   LIG d   1       4.018  -5.583  -5.969  0.00  0.00     0.087 C 
ATOM      7  H   LIG d   1       3.027  -5.982  -5.758  0.00  0.00     0.065 H 
ATOM      8  O   LIG d   1       4.623  -4.760  -4.906  0.00  0.00    -0.359 OA
ATOM      9  C   LIG d   1       4.099  -4.579  -7.165  0.00  0.00     0.043 C 
ATOM     10  H   LIG d   1       3.300  -3.840  -7.107  0.00  0.00     0.040 H 
ATOM     11  C   LIG d   1       5.472  -3.924  -6.933  0.00  0.00     0.081 C 
ATOM     12  H   LIG d   1       6.175  -4.098  -7.749  0.00  0.00     0.043 H 
ATOM     13  C   LIG d   1       5.423  -2.483  -6.509  0.00  0.00     0.227 C 
ATOM     14  O   LIG d   1       4.750  -1.620  -7.032  0.00  0.00    -0.275 OA
ATOM     15  H   LIG d   1       7.827  -3.723  -5.357  0.00  0.00     0.050 H 
ATOM     16  H   LIG d   1       6.789  -3.651  -3.898  0.00  0.00     0.050 H 
ATOM     17  H   LIG d   1       7.286  -6.437  -5.936  0.00  0.00     0.060 H 
ATOM     18  H   LIG d   1       4.998  -7.645  -6.486  0.00  0.00     0.060 H 
ENDROOT
BRANCH   1  19
ATOM     19  C   LIG d   1       6.534  -1.061  -4.871  0.00  0.00     0.044 A 
ATOM     20  C   LIG d   1       5.723  -0.556  -3.832  0.00  0.00     0.004 A 
ATOM     21  C   LIG d   1       4.619  -1.278  -3.355  0.00  0.00    -0.052 A 
ATOM     22  C   LIG d   1       6.031   0.703  -3.261  0.00  0.00    -0.016 A 
ATOM     23  C   LIG d   1       3.857  -0.760  -2.351  0.00  0.00    -0.061 A 
ATOM     24  H   LIG d   1       4.372  -2.239  -3.781  0.00  0.00     0.062 H 
ATOM     25  C   LIG d   1       4.159   0.478  -1.789  0.00  0.00    -0.061 A 
ATOM     26  H   LIG d   1       3.007  -1.318  -1.986  0.00  0.00     0.062 H 
ATOM     27  C   LIG d   1       5.222   1.206  -2.227  0.00  0.00    -0.054 A 
ATOM     28  H   LIG d   1       3.540   0.867  -0.994  0.00  0.00     0.062 H 
ATOM     29  H   LIG d   1       5.445   2.165  -1.782  0.00  0.00     0.062 H 
ATOM     30  C   LIG d   1       7.137   1.427  -3.738  0.00  0.00    -0.054 A 
ATOM     31  C   LIG d   1       7.903   0.915  -4.742  0.00  0.00    -0.059 A 
ATOM     32  H   LIG d   1       7.380   2.388  -3.309  0.00  0.00     0.062 H 
ATOM     33  C   LIG d   1       7.613  -0.323  -5.306  0.00  0.00    -0.040 A 
ATOM     34  H   LIG d   1       8.751   1.479  -5.101  0.00  0.00     0.062 H 
ATOM     35  H   LIG d   1       8.239  -0.708  -6.098  0.00  0.00     0.064 H 
ENDBRANCH   1  19
BRANCH   9  36
ATOM     36  C   LIG d   1       4.065  -5.307  -8.483  0.00  0.00     0.048 C 
ATOM     37  O   LIG d   1       4.977  -5.186  -9.265  0.00  0.00    -0.549 OA
ATOM     38  O   LIG d   1       3.019  -6.092  -8.789  0.00  0.00    -0.549 OA
ENDBRANCH   9  36
TORSDOF 2
ENDMDL
MODEL 6
REMARK VINA RESULT:      -6.7      2.278      6.739
REMARK  2 active torsions:
REMARK  status: ('A' for Active; 'I' for Inactive)
REMARK    1  A    between atoms: C_10  and  N_11 
REMARK    2  A    between atoms: C_19  and  C_25 
ROOT
ATOM      1  N   LIG d   1       3.615  -0.298  -6.311  0.00  0.00    -0.267 N 
ATOM      2  C   LIG d   1       3.250   1.110  -6.593  0.00  0.00     0.053 C 
ATOM      3  C   LIG d   1       3.449   1.248  -8.070  0.00  0.00     0.116 C 
ATOM      4  C   LIG d   1       2.725   2.217  -8.934  0.00  0.00    -0.052 C 
ATOM      5  C   LIG d   1       3.389   2.163 -10.096  0.00  0.00    -0.056 C 
ATOM      6  C   LIG d   1       4.549   1.178  -9.914  0.00  0.00     0.087 C 
ATOM      7  H   LIG d   1       5.392   1.302 -10.592  0.00  0.00     0.065 H 
ATOM      8  O   LIG d   1       4.837   1.373  -8.481  0.00  0.00    -0.359 OA
ATOM      9  C   LIG d   1       3.926  -0.255  -9.870  0.00  0.00     0.043 C 
ATOM     10  H   LIG d   1       4.703  -1.015  -9.794  0.00  0.00     0.040 H 
ATOM     11  C   LIG d   1       3.086  -0.194  -8.581  0.00  0.00     0.081 C 
ATOM     12  H   LIG d   1       2.019  -0.334  -8.757  0.00  0.00     0.043 H 
ATOM     13  C   LIG d   1       3.602  -1.037  -7.450  0.00  0.00     0.227 C 
ATOM     14  O   LIG d   1       3.952  -2.195  -7.539  0.00  0.00    -0.275 OA
ATOM     15  H   LIG d   1       2.209   1.297  -6.328  0.00  0.00     0.050 H 
ATOM     16  H   LIG d   1       3.908   1.791  -6.052  0.00  0.00     0.050 H 
ATOM     17  H   LIG d   1       1.867   2.823  -8.683  0.00  0.00     0.060 H 
ATOM     18  H   LIG d   1       3.149   2.711 -10.995  0.00  0.00     0.060 H 
ENDROOT
BRANCH   1  19
ATOM     19  C   LIG d   1       3.929  -0.798  -5.046  0.00  0.00     0.044 A 
ATOM     20  C   LIG d   1       5.262  -1.128  -4.721  0.00  0.00     0.004 A 
ATOM     21  C   LIG d   1       6.300  -0.963  -5.650  0.00  0.00    -0.052 A 
ATOM     22  C   LIG d   1       5.557  -1.634  -3.431  0.00  0.00    -0.016 A 
ATOM     23  C   LIG d   1       7.576  -1.292  -5.302  0.00  0.00    -0.061 A 
ATOM     24  H   LIG d   1       6.090  -0.579  -6.638  0.00  0.00     0.062 H 
ATOM     25  C   LIG d   1       7.866  -1.790  -4.035  0.00  0.00    -0.061 A 
ATOM     26  H   LIG d   1       8.372  -1.165  -6.021  0.00  0.00     0.062 H 
ATOM     27  C   LIG d   1       6.885  -1.963  -3.108  0.00  0.00    -0.054 A 
ATOM     28  H   LIG d   1       8.886  -2.042  -3.783  0.00  0.00     0.062 H 
ATOM     29  H   LIG d   1       7.125  -2.349  -2.128  0.00  0.00     0.062 H 
ATOM     30  C   LIG d   1       4.518  -1.799  -2.499  0.00  0.00    -0.054 A 
ATOM     31  C   LIG d   1       3.241  -1.473  -2.840  0.00  0.00    -0.059 A 
ATOM     32  H   LIG d   1       4.734  -2.184  -1.513  0.00  0.00     0.062 H 
ATOM     33  C   LIG d   1       2.941  -0.970  -4.101  0.00  0.00    -0.040 A 
ATOM     34  H   LIG d   1       2.449  -1.603  -2.116  0.00  0.00     0.062 H 
ATOM     35  H   LIG d   1       1.919  -0.715  -4.345  0.00  0.00     0.064 H 
ENDBRANCH   1  19
BRANCH   9  36
ATOM     36  C   LIG d   1       3.051  -0.499 -11.072  0.00  0.00     0.048 C 
ATOM     37  O   LIG d   1       3.530  -0.487 -12.181  0.00  0.00    -0.549 OA
ATOM     38  O   LIG d   1       1.738  -0.731 -10.911  0.00  0.00    -0.549 OA
ENDBRANCH   9  36
TORSDOF 2
ENDMDL
MODEL 7
REMARK VINA RESULT:      -6.5      3.308      5.732
REMARK  2 active torsions:
REMARK  status: ('A' for Active; 'I' for Inactive)
REMARK    1  A    between atoms: C_10  and  N_11 
REMARK    2  A    between atoms: C_19  and  C_25 
ROOT
ATOM      1  N   LIG d   1       5.986  -2.693  -4.650  0.00  0.00    -0.267 N 
ATOM      2  C   LIG d   1       7.399  -2.371  -4.962  0.00  0.00     0.053 C 
ATOM      3  C   LIG d   1       8.026  -3.705  -5.222  0.00  0.00     0.116 C 
ATOM      4  C   LIG d   1       9.210  -3.929  -6.093  0.00  0.00    -0.052 C 
ATOM      5  C   LIG d   1       9.562  -5.194  -5.831  0.00  0.00    -0.056 C 
ATOM      6  C   LIG d   1       8.601  -5.723  -4.761  0.00  0.00     0.087 C 
ATOM      7  H   LIG d   1       8.965  -6.558  -4.163  0.00  0.00     0.065 H 
ATOM      8  O   LIG d   1       8.314  -4.478  -4.026  0.00  0.00    -0.359 OA
ATOM      9  C   LIG d   1       7.221  -5.947  -5.460  0.00  0.00     0.043 C 
ATOM     10  H   LIG d   1       6.498  -6.374  -4.766  0.00  0.00     0.040 H 
ATOM     11  C   LIG d   1       6.828  -4.510  -5.848  0.00  0.00     0.081 C 
ATOM     12  H   LIG d   1       6.730  -4.367  -6.925  0.00  0.00     0.043 H 
ATOM     13  C   LIG d   1       5.669  -3.941  -5.080  0.00  0.00     0.227 C 
ATOM     14  O   LIG d   1       4.616  -4.507  -4.876  0.00  0.00    -0.275 OA
ATOM     15  H   LIG d   1       7.461  -1.741  -5.849  0.00  0.00     0.050 H 
ATOM     16  H   LIG d   1       7.876  -1.882  -4.113  0.00  0.00     0.050 H 
ATOM     17  H   LIG d   1       9.676  -3.233  -6.775  0.00  0.00     0.060 H 
ATOM     18  H   LIG d   1      10.373  -5.739  -6.290  0.00  0.00     0.060 H 
ENDROOT
BRANCH   1  19
ATOM     19  C   LIG d   1       5.101  -1.830  -4.002  0.00  0.00     0.044 A 
ATOM     20  C   LIG d   1       4.237  -1.002  -4.750  0.00  0.00     0.004 A 
ATOM     21  C   LIG d   1       4.243  -1.024  -6.153  0.00  0.00    -0.052 A 
ATOM     22  C   LIG d   1       3.347  -0.134  -4.071  0.00  0.00    -0.016 A 
ATOM     23  C   LIG d   1       3.395  -0.211  -6.844  0.00  0.00    -0.061 A 
ATOM     24  H   LIG d   1       4.916  -1.681  -6.684  0.00  0.00     0.062 H 
ATOM     25  C   LIG d   1       2.520   0.643  -6.177  0.00  0.00    -0.061 A 
ATOM     26  H   LIG d   1       3.402  -0.230  -7.924  0.00  0.00     0.062 H 
ATOM     27  C   LIG d   1       2.487   0.691  -4.817  0.00  0.00    -0.054 A 
ATOM     28  H   LIG d   1       1.857   1.277  -6.747  0.00  0.00     0.062 H 
ATOM     29  H   LIG d   1       1.803   1.358  -4.313  0.00  0.00     0.062 H 
ATOM     30  C   LIG d   1       3.340  -0.112  -2.666  0.00  0.00    -0.054 A 
ATOM     31  C   LIG d   1       4.185  -0.921  -1.969  0.00  0.00    -0.059 A 
ATOM     32  H   LIG d   1       2.665   0.547  -2.140  0.00  0.00     0.062 H 
ATOM     33  C   LIG d   1       5.059  -1.782  -2.625  0.00  0.00    -0.040 A 
ATOM     34  H   LIG d   1       4.172  -0.897  -0.890  0.00  0.00     0.062 H 
ATOM     35  H   LIG d   1       5.716  -2.417  -2.049  0.00  0.00     0.064 H 
ENDBRANCH   1  19
BRANCH   9  36
ATOM     36  C   LIG d   1       7.371  -6.814  -6.683  0.00  0.00     0.048 C 
ATOM     37  O   LIG d   1       7.046  -6.391  -7.767  0.00  0.00    -0.549 OA
ATOM     38  O   LIG d   1       7.865  -8.057  -6.568  0.00  0.00    -0.549 OA
ENDBRANCH   9  36
TORSDOF 2
ENDMDL
MODEL 8
REMARK VINA RESULT:      -6.5      1.595      2.426
REMARK  2 active torsions:
REMARK  status: ('A' for Active; 'I' for Inactive)
REMARK    1  A    between atoms: C_10  and  N_11 
REMARK    2  A    between atoms: C_19  and  C_25 
ROOT
ATOM      1  N   LIG d   1       3.717  -0.915  -7.062  0.00  0.00    -0.267 N 
ATOM      2  C   LIG d   1       4.348  -2.108  -6.450  0.00  0.00     0.053 C 
ATOM      3  C   LIG d   1       4.860  -1.613  -5.133  0.00  0.00     0.116 C 
ATOM      4  C   LIG d   1       5.055  -2.461  -3.928  0.00  0.00    -0.052 C 
ATOM      5  C   LIG d   1       5.748  -1.674  -3.096  0.00  0.00    -0.056 C 
ATOM      6  C   LIG d   1       6.007  -0.352  -3.827  0.00  0.00     0.087 C 
ATOM      7  H   LIG d   1       6.858   0.229  -3.475  0.00  0.00     0.065 H 
ATOM      8  O   LIG d   1       6.081  -0.830  -5.218  0.00  0.00    -0.359 OA
ATOM      9  C   LIG d   1       4.645   0.413  -3.877  0.00  0.00     0.043 C 
ATOM     10  H   LIG d   1       4.764   1.392  -4.341  0.00  0.00     0.040 H 
ATOM     11  C   LIG d   1       3.795  -0.516  -4.764  0.00  0.00     0.081 C 
ATOM     12  H   LIG d   1       2.921  -0.918  -4.252  0.00  0.00     0.043 H 
ATOM     13  C   LIG d   1       3.467   0.034  -6.124  0.00  0.00     0.227 C 
ATOM     14  O   LIG d   1       3.047   1.149  -6.348  0.00  0.00    -0.275 OA
ATOM     15  H   LIG d   1       3.611  -2.897  -6.300  0.00  0.00     0.050 H 
ATOM     16  H   LIG d   1       5.169  -2.467  -7.071  0.00  0.00     0.050 H 
ATOM     17  H   LIG d   1       4.716  -3.474  -3.763  0.00  0.00     0.060 H 
ATOM     18  H   LIG d   1       6.066  -1.926  -2.095  0.00  0.00     0.060 H 
ENDROOT
BRANCH   1  19
ATOM     19  C   LIG d   1       3.418  -0.784  -8.419  0.00  0.00     0.044 A 
ATOM     20  C   LIG d   1       4.454  -0.661  -9.369  0.00  0.00     0.004 A 
ATOM     21  C   LIG d   1       5.802  -0.667  -8.979  0.00  0.00    -0.052 A 
ATOM     22  C   LIG d   1       4.127  -0.529 -10.740  0.00  0.00    -0.016 A 
ATOM     23  C   LIG d   1       6.778  -0.546  -9.922  0.00  0.00    -0.061 A 
ATOM     24  H   LIG d   1       6.066  -0.766  -7.936  0.00  0.00     0.062 H 
ATOM     25  C   LIG d   1       6.457  -0.416 -11.271  0.00  0.00    -0.061 A 
ATOM     26  H   LIG d   1       7.815  -0.549  -9.619  0.00  0.00     0.062 H 
ATOM     27  C   LIG d   1       5.161  -0.406 -11.686  0.00  0.00    -0.054 A 
ATOM     28  H   LIG d   1       7.249  -0.322 -12.000  0.00  0.00     0.062 H 
ATOM     29  H   LIG d   1       4.927  -0.305 -12.735  0.00  0.00     0.062 H 
ATOM     30  C   LIG d   1       2.778  -0.524 -11.132  0.00  0.00    -0.054 A 
ATOM     31  C   LIG d   1       1.797  -0.645 -10.195  0.00  0.00    -0.059 A 
ATOM     32  H   LIG d   1       2.519  -0.424 -12.176  0.00  0.00     0.062 H 
ATOM     33  C   LIG d   1       2.107  -0.780  -8.845  0.00  0.00    -0.040 A 
ATOM     34  H   LIG d   1       0.763  -0.640 -10.505  0.00  0.00     0.062 H 
ATOM     35  H   LIG d   1       1.311  -0.879  -8.122  0.00  0.00     0.064 H 
ENDBRANCH   1  19
BRANCH   9  36
ATOM     36  C   LIG d   1       4.046   0.539  -2.500  0.00  0.00     0.048 C 
ATOM     37  O   LIG d   1       2.935   0.118  -2.284  0.00  0.00    -0.549 OA
ATOM     38  O   LIG d   1       4.747   1.119  -1.514  0.00  0.00    -0.549 OA
ENDBRANCH   9  36
TORSDOF 2
ENDMDL
MODEL 9
REMARK VINA RESULT:      -6.4      4.054      6.824
REMARK  2 active torsions:
REMARK  status: ('A' for Active; 'I' for Inactive)
REMARK    1  A    between atoms: C_10  and  N_11 
REMARK    2  A    between atoms: C_19  and  C_25 
ROOT
ATOM      1  N   LIG d   1       7.359  -0.496  -5.654  0.00  0.00    -0.267 N 
ATOM      2  C   LIG d   1       8.823  -0.552  -5.431  0.00  0.00     0.053 C 
ATOM      3  C   LIG d   1       9.403   0.024  -6.686  0.00  0.00     0.116 C 
ATOM      4  C   LIG d   1      10.722   0.705  -6.773  0.00  0.00    -0.052 C 
ATOM      5  C   LIG d   1      10.932   0.822  -8.090  0.00  0.00    -0.056 C 
ATOM      6  C   LIG d   1       9.743   0.166  -8.801  0.00  0.00     0.087 C 
ATOM      7  H   LIG d   1       9.925  -0.174  -9.820  0.00  0.00     0.065 H 
ATOM      8  O   LIG d   1       9.394  -0.879  -7.823  0.00  0.00    -0.359 OA
ATOM      9  C   LIG d   1       8.520   1.123  -8.620  0.00  0.00     0.043 C 
ATOM     10  H   LIG d   1       7.646   0.743  -9.148  0.00  0.00     0.040 H 
ATOM     11  C   LIG d   1       8.307   1.075  -7.096  0.00  0.00     0.081 C 
ATOM     12  H   LIG d   1       8.436   2.044  -6.613  0.00  0.00     0.043 H 
ATOM     13  C   LIG d   1       7.056   0.370  -6.654  0.00  0.00     0.227 C 
ATOM     14  O   LIG d   1       5.949   0.546  -7.119  0.00  0.00    -0.275 OA
ATOM     15  H   LIG d   1       9.103   0.052  -4.568  0.00  0.00     0.050 H 
ATOM     16  H   LIG d   1       9.150  -1.584  -5.296  0.00  0.00     0.050 H 
ATOM     17  H   LIG d   1      11.359   1.030  -5.963  0.00  0.00     0.060 H 
ATOM     18  H   LIG d   1      11.782   1.291  -8.562  0.00  0.00     0.060 H 
ENDROOT
BRANCH   1  19
ATOM     19  C   LIG d   1       6.418  -1.233  -4.932  0.00  0.00     0.044 A 
ATOM     20  C   LIG d   1       5.745  -0.651  -3.837  0.00  0.00     0.004 A 
ATOM     21  C   LIG d   1       5.998   0.673  -3.447  0.00  0.00    -0.052 A 
ATOM     22  C   LIG d   1       4.795  -1.418  -3.119  0.00  0.00    -0.016 A 
ATOM     23  C   LIG d   1       5.330   1.203  -2.385  0.00  0.00    -0.061 A 
ATOM     24  H   LIG d   1       6.720   1.270  -3.986  0.00  0.00     0.062 H 
ATOM     25  C   LIG d   1       4.396   0.449  -1.679  0.00  0.00    -0.061 A 
ATOM     26  H   LIG d   1       5.528   2.222  -2.087  0.00  0.00     0.062 H 
ATOM     27  C   LIG d   1       4.124  -0.837  -2.028  0.00  0.00    -0.054 A 
ATOM     28  H   LIG d   1       3.878   0.893  -0.841  0.00  0.00     0.062 H 
ATOM     29  H   LIG d   1       3.397  -1.410  -1.472  0.00  0.00     0.062 H 
ATOM     30  C   LIG d   1       4.539  -2.743  -3.509  0.00  0.00    -0.054 A 
ATOM     31  C   LIG d   1       5.204  -3.280  -4.570  0.00  0.00    -0.059 A 
ATOM     32  H   LIG d   1       3.816  -3.336  -2.968  0.00  0.00     0.062 H 
ATOM     33  C   LIG d   1       6.135  -2.534  -5.286  0.00  0.00    -0.040 A 
ATOM     34  H   LIG d   1       5.000  -4.300  -4.862  0.00  0.00     0.062 H 
ATOM     35  H   LIG d   1       6.645  -2.982  -6.126  0.00  0.00     0.064 H 
ENDBRANCH   1  19
BRANCH   9  36
ATOM     36  C   LIG d   1       8.858   2.520  -9.073  0.00  0.00     0.048 C 
ATOM     37  O   LIG d   1       8.828   3.435  -8.284  0.00  0.00    -0.549 OA
ATOM     38  O   LIG d   1       9.192   2.748 -10.353  0.00  0.00    -0.549 OA
ENDBRANCH   9  36
TORSDOF 2
ENDMDL
