MODEL 1
REMARK VINA RESULT:      -7.7      0.000      0.000
REMARK  6 active torsions:
REMARK  status: ('A' for Active; 'I' for Inactive)
REMARK    1  A    between atoms: C_5  and  C_7 
REMARK    2  A    between atoms: C_7  and  N_48 
REMARK    3  A    between atoms: C_15  and  C_17 
REMARK    4  A    between atoms: C_19  and  C_22 
REMARK    5  A    between atoms: C_25  and  O_28 
REMARK    6  A    between atoms: O_28  and  C_29 
ROOT
ATOM      1  C   LIG d   1       4.883  -0.917  -7.159  0.00  0.00     0.036 C 
ATOM      2  C   LIG d   1       4.506  -0.162  -8.409  0.00  0.00     0.190 A 
ATOM      3  C   LIG d   1       5.202   0.900  -8.873  0.00  0.00     0.156 A 
ATOM      4  N   LIG d   1       4.578   1.327 -10.002  0.00  0.00    -0.247 N 
ATOM      5  H   LIG d   1       4.851   2.097 -10.578  0.00  0.00     0.310 HD
ATOM      6  C   LIG d   1       3.516   0.509 -10.199  0.00  0.00     0.243 A 
ATOM      7  C   LIG d   1       6.434   1.446  -8.199  0.00  0.00     0.065 C 
ATOM      8  C   LIG d   1       6.937   0.386  -7.208  0.00  0.00     0.068 C 
ATOM      9  H   LIG d   1       7.359  -0.454  -7.759  0.00  0.00     0.096 H 
ATOM     10  H   LIG d   1       5.366  -1.857  -7.429  0.00  0.00     0.090 H 
ATOM     11  H   LIG d   1       3.991  -1.119  -6.567  0.00  0.00     0.090 H 
ATOM     12  H   LIG d   1       2.812   0.580 -11.015  0.00  0.00     0.158 H 
ATOM     13  H   LIG d   1       6.187   2.363  -7.664  0.00  0.00     0.041 H 
ATOM     14  H   LIG d   1       7.203   1.649  -8.944  0.00  0.00     0.041 H 
ATOM     15  N   LIG d   1       5.801  -0.060  -6.369  0.00  0.00     0.255 N 
ATOM     16  H   LIG d   1       5.286   0.766  -6.042  0.00  0.00     0.205 HD
ATOM     17  N   LIG d   1       3.485  -0.377  -9.239  0.00  0.00    -0.243 N 
ATOM     18  H   LIG d   1       2.785  -1.121  -9.139  0.00  0.00     0.311 HD
ENDROOT
BRANCH   8  19
ATOM     19  C   LIG d   1       7.997   0.989  -6.323  0.00  0.00     0.276 A 
ATOM     20  O   LIG d   1       9.120   0.395  -5.911  0.00  0.00    -0.332 OA
ATOM     21  N   LIG d   1       9.759   1.152  -5.211  0.00  0.00    -0.056 NA
ATOM     22  C   LIG d   1       9.131   2.294  -5.096  0.00  0.00     0.202 A 
ATOM     23  N   LIG d   1       7.992   2.198  -5.818  0.00  0.00    -0.186 NA
BRANCH  22  24
ATOM     24  C   LIG d   1       9.588   3.476  -4.324  0.00  0.00     0.023 A 
ATOM     25  C   LIG d   1      10.163   3.307  -3.065  0.00  0.00    -0.048 A 
ATOM     26  C   LIG d   1      10.587   4.407  -2.350  0.00  0.00    -0.019 A 
ATOM     27  H   LIG d   1      10.278   2.316  -2.651  0.00  0.00     0.063 H 
ATOM     28  C   LIG d   1      10.439   5.682  -2.881  0.00  0.00     0.130 A 
ATOM     29  H   LIG d   1      11.033   4.277  -1.375  0.00  0.00     0.065 H 
ATOM     30  C   LIG d   1       9.865   5.852  -4.133  0.00  0.00    -0.019 A 
ATOM     31  C   LIG d   1       9.447   4.756  -4.857  0.00  0.00    -0.048 A 
ATOM     32  H   LIG d   1       9.752   6.845  -4.544  0.00  0.00     0.065 H 
ATOM     33  H   LIG d   1       9.005   4.889  -5.834  0.00  0.00     0.063 H 
BRANCH  28  34
ATOM     34  O   LIG d   1      10.857   6.764  -2.173  0.00  0.00    -0.406 OA
BRANCH  34  35
ATOM     35  C   LIG d   1       9.988   7.239  -1.143  0.00  0.00     0.575 C 
ATOM     36  F   LIG d   1      10.212   6.510   0.030  0.00  0.00    -0.133 F 
ATOM     37  F   LIG d   1      10.243   8.593  -0.907  0.00  0.00    -0.133 F 
ATOM     38  F   LIG d   1       8.657   7.077  -1.544  0.00  0.00    -0.133 F 
ENDBRANCH  34  35
ENDBRANCH  28  34
ENDBRANCH  22  24
ENDBRANCH   8  19
BRANCH  15  39
ATOM     39  C   LIG d   1       6.304  -0.806  -5.197  0.00  0.00     0.013 C 
ATOM     40  H   LIG d   1       7.372  -0.617  -5.087  0.00  0.00     0.088 H 
ATOM     41  H   LIG d   1       6.136  -1.876  -5.321  0.00  0.00     0.088 H 
BRANCH  39  42
ATOM     42  C   LIG d   1       5.579  -0.323  -3.968  0.00  0.00     0.086 A 
ATOM     43  N   LIG d   1       5.448   0.972  -3.756  0.00  0.00    -0.255 NA
ATOM     44  C   LIG d   1       4.818   1.440  -2.696  0.00  0.00     0.028 A 
ATOM     45  C   LIG d   1       4.277   0.582  -1.758  0.00  0.00    -0.044 A 
ATOM     46  H   LIG d   1       4.727   2.507  -2.558  0.00  0.00     0.083 H 
ATOM     47  C   LIG d   1       4.400  -0.787  -1.945  0.00  0.00    -0.058 A 
ATOM     48  H   LIG d   1       3.765   0.972  -0.891  0.00  0.00     0.063 H 
ATOM     49  C   LIG d   1       5.065  -1.242  -3.073  0.00  0.00    -0.035 A 
ATOM     50  H   LIG d   1       3.987  -1.482  -1.229  0.00  0.00     0.062 H 
ATOM     51  H   LIG d   1       5.179  -2.301  -3.250  0.00  0.00     0.064 H 
ENDBRANCH  39  42
ENDBRANCH  15  39
TORSDOF 6
ENDMDL
MODEL 2
REMARK VINA RESULT:      -7.4      1.770      2.710
REMARK  6 active torsions:
REMARK  status: ('A' for Active; 'I' for Inactive)
REMARK    1  A    between atoms: C_5  and  C_7 
REMARK    2  A    between atoms: C_7  and  N_48 
REMARK    3  A    between atoms: C_15  and  C_17 
REMARK    4  A    between atoms: C_19  and  C_22 
REMARK    5  A    between atoms: C_25  and  O_28 
REMARK    6  A    between atoms: O_28  and  C_29 
ROOT
ATOM      1  C   LIG d   1       6.729  -0.125  -5.975  0.00  0.00     0.036 C 
ATOM      2  C   LIG d   1       6.731   0.361  -7.404  0.00  0.00     0.190 A 
ATOM      3  C   LIG d   1       7.463   1.416  -7.828  0.00  0.00     0.156 A 
ATOM      4  N   LIG d   1       7.216   1.568  -9.156  0.00  0.00    -0.247 N 
ATOM      5  H   LIG d   1       7.607   2.263  -9.758  0.00  0.00     0.310 HD
ATOM      6  C   LIG d   1       6.339   0.597  -9.507  0.00  0.00     0.243 A 
ATOM      7  C   LIG d   1       8.363   2.220  -6.926  0.00  0.00     0.065 C 
ATOM      8  C   LIG d   1       8.586   1.410  -5.641  0.00  0.00     0.068 C 
ATOM      9  H   LIG d   1       9.225   0.554  -5.858  0.00  0.00     0.096 H 
ATOM     10  H   LIG d   1       7.340  -1.024  -5.893  0.00  0.00     0.090 H 
ATOM     11  H   LIG d   1       5.709  -0.343  -5.662  0.00  0.00     0.090 H 
ATOM     12  H   LIG d   1       5.939   0.441 -10.498  0.00  0.00     0.158 H 
ATOM     13  H   LIG d   1       7.888   3.172  -6.685  0.00  0.00     0.041 H 
ATOM     14  H   LIG d   1       9.317   2.398  -7.421  0.00  0.00     0.041 H 
ATOM     15  N   LIG d   1       7.273   0.962  -5.124  0.00  0.00     0.255 N 
ATOM     16  H   LIG d   1       6.622   1.755  -5.142  0.00  0.00     0.205 HD
ATOM     17  N   LIG d   1       6.057  -0.117  -8.450  0.00  0.00    -0.243 N 
ATOM     18  H   LIG d   1       5.419  -0.921  -8.428  0.00  0.00     0.311 HD
ENDROOT
BRANCH   8  19
ATOM     19  C   LIG d   1       9.250   2.283  -4.607  0.00  0.00     0.276 A 
ATOM     20  O   LIG d   1      10.170   1.900  -3.717  0.00  0.00    -0.332 OA
ATOM     21  N   LIG d   1      10.502   2.843  -3.029  0.00  0.00    -0.056 NA
ATOM     22  C   LIG d   1       9.847   3.915  -3.393  0.00  0.00     0.202 A 
ATOM     23  N   LIG d   1       9.038   3.562  -4.417  0.00  0.00    -0.186 NA
BRANCH  22  24
ATOM     24  C   LIG d   1       9.972   5.268  -2.796  0.00  0.00     0.023 A 
ATOM     25  C   LIG d   1       9.782   6.401  -3.586  0.00  0.00    -0.048 A 
ATOM     26  C   LIG d   1       9.898   7.656  -3.028  0.00  0.00    -0.019 A 
ATOM     27  H   LIG d   1       9.543   6.295  -4.634  0.00  0.00     0.063 H 
ATOM     28  C   LIG d   1      10.207   7.793  -1.681  0.00  0.00     0.130 A 
ATOM     29  H   LIG d   1       9.751   8.534  -3.640  0.00  0.00     0.065 H 
ATOM     30  C   LIG d   1      10.398   6.666  -0.892  0.00  0.00    -0.019 A 
ATOM     31  C   LIG d   1      10.275   5.408  -1.443  0.00  0.00    -0.048 A 
ATOM     32  H   LIG d   1      10.637   6.776   0.156  0.00  0.00     0.065 H 
ATOM     33  H   LIG d   1      10.419   4.532  -0.827  0.00  0.00     0.063 H 
BRANCH  28  34
ATOM     34  O   LIG d   1      10.322   9.031  -1.134  0.00  0.00    -0.406 OA
BRANCH  34  35
ATOM     35  C   LIG d   1       9.109   9.706  -0.796  0.00  0.00     0.575 C 
ATOM     36  F   LIG d   1       8.775  10.605  -1.815  0.00  0.00    -0.133 F 
ATOM     37  F   LIG d   1       8.081   8.769  -0.646  0.00  0.00    -0.133 F 
ATOM     38  F   LIG d   1       9.282  10.404   0.403  0.00  0.00    -0.133 F 
ENDBRANCH  34  35
ENDBRANCH  28  34
ENDBRANCH  22  24
ENDBRANCH   8  19
BRANCH  15  39
ATOM     39  C   LIG d   1       7.415   0.488  -3.732  0.00  0.00     0.013 C 
ATOM     40  H   LIG d   1       7.929   1.251  -3.148  0.00  0.00     0.088 H 
ATOM     41  H   LIG d   1       7.985  -0.441  -3.698  0.00  0.00     0.088 H 
BRANCH  39  42
ATOM     42  C   LIG d   1       6.041   0.257  -3.158  0.00  0.00     0.086 A 
ATOM     43  N   LIG d   1       5.603  -0.976  -2.992  0.00  0.00    -0.255 NA
ATOM     44  C   LIG d   1       4.410  -1.226  -2.489  0.00  0.00     0.028 A 
ATOM     45  C   LIG d   1       3.566  -0.194  -2.123  0.00  0.00    -0.044 A 
ATOM     46  H   LIG d   1       4.088  -2.249  -2.364  0.00  0.00     0.083 H 
ATOM     47  C   LIG d   1       3.991   1.116  -2.288  0.00  0.00    -0.058 A 
ATOM     48  H   LIG d   1       2.589  -0.405  -1.715  0.00  0.00     0.063 H 
ATOM     49  C   LIG d   1       5.253   1.340  -2.815  0.00  0.00    -0.035 A 
ATOM     50  H   LIG d   1       3.353   1.942  -2.010  0.00  0.00     0.062 H 
ATOM     51  H   LIG d   1       5.616   2.347  -2.957  0.00  0.00     0.064 H 
ENDBRANCH  39  42
ENDBRANCH  15  39
TORSDOF 6
ENDMDL
MODEL 3
REMARK VINA RESULT:      -7.1      6.532      8.645
REMARK  6 active torsions:
REMARK  status: ('A' for Active; 'I' for Inactive)
REMARK    1  A    between atoms: C_5  and  C_7 
REMARK    2  A    between atoms: C_7  and  N_48 
REMARK    3  A    between atoms: C_15  and  C_17 
REMARK    4  A    between atoms: C_19  and  C_22 
REMARK    5  A    between atoms: C_25  and  O_28 
REMARK    6  A    between atoms: O_28  and  C_29 
ROOT
ATOM      1  C   LIG d   1       7.651  -9.275  -5.071  0.00  0.00     0.036 C 
ATOM      2  C   LIG d   1       6.346 -10.001  -4.856  0.00  0.00     0.190 A 
ATOM      3  C   LIG d   1       5.137  -9.411  -4.995  0.00  0.00     0.156 A 
ATOM      4  N   LIG d   1       4.197 -10.353  -4.721  0.00  0.00    -0.247 N 
ATOM      5  H   LIG d   1       3.205 -10.227  -4.737  0.00  0.00     0.310 HD
ATOM      6  C   LIG d   1       4.859 -11.496  -4.423  0.00  0.00     0.243 A 
ATOM      7  C   LIG d   1       4.956  -7.967  -5.387  0.00  0.00     0.065 C 
ATOM      8  C   LIG d   1       6.290  -7.464  -5.957  0.00  0.00     0.068 C 
ATOM      9  H   LIG d   1       6.463  -7.921  -6.931  0.00  0.00     0.096 H 
ATOM     10  H   LIG d   1       8.071  -9.554  -6.038  0.00  0.00     0.090 H 
ATOM     11  H   LIG d   1       8.351  -9.533  -4.277  0.00  0.00     0.090 H 
ATOM     12  H   LIG d   1       4.400 -12.437  -4.159  0.00  0.00     0.158 H 
ATOM     13  H   LIG d   1       4.684  -7.378  -4.510  0.00  0.00     0.041 H 
ATOM     14  H   LIG d   1       4.176  -7.886  -6.144  0.00  0.00     0.041 H 
ATOM     15  N   LIG d   1       7.376  -7.818  -5.015  0.00  0.00     0.255 N 
ATOM     16  H   LIG d   1       7.082  -7.571  -4.063  0.00  0.00     0.205 HD
ATOM     17  N   LIG d   1       6.144 -11.271  -4.507  0.00  0.00    -0.243 N 
ATOM     18  H   LIG d   1       6.882 -11.963  -4.333  0.00  0.00     0.311 HD
ENDROOT
BRANCH   8  19
ATOM     19  C   LIG d   1       6.237  -5.965  -6.108  0.00  0.00     0.276 A 
ATOM     20  O   LIG d   1       6.581  -5.264  -7.192  0.00  0.00    -0.332 OA
ATOM     21  N   LIG d   1       6.421  -4.078  -6.988  0.00  0.00    -0.056 NA
ATOM     22  C   LIG d   1       5.965  -3.889  -5.776  0.00  0.00     0.202 A 
ATOM     23  N   LIG d   1       5.839  -5.107  -5.202  0.00  0.00    -0.186 NA
BRANCH  22  24
ATOM     24  C   LIG d   1       5.643  -2.583  -5.151  0.00  0.00     0.023 A 
ATOM     25  C   LIG d   1       6.219  -2.230  -3.932  0.00  0.00    -0.048 A 
ATOM     26  C   LIG d   1       5.919  -1.015  -3.354  0.00  0.00    -0.019 A 
ATOM     27  H   LIG d   1       6.902  -2.908  -3.441  0.00  0.00     0.063 H 
ATOM     28  C   LIG d   1       5.041  -0.143  -3.985  0.00  0.00     0.130 A 
ATOM     29  H   LIG d   1       6.365  -0.742  -2.409  0.00  0.00     0.065 H 
ATOM     30  C   LIG d   1       4.464  -0.492  -5.198  0.00  0.00    -0.019 A 
ATOM     31  C   LIG d   1       4.767  -1.702  -5.785  0.00  0.00    -0.048 A 
ATOM     32  H   LIG d   1       3.782   0.189  -5.687  0.00  0.00     0.065 H 
ATOM     33  H   LIG d   1       4.323  -1.971  -6.732  0.00  0.00     0.063 H 
BRANCH  28  34
ATOM     34  O   LIG d   1       4.745   1.053  -3.412  0.00  0.00    -0.406 OA
BRANCH  34  35
ATOM     35  C   LIG d   1       3.888   1.030  -2.269  0.00  0.00     0.575 C 
ATOM     36  F   LIG d   1       3.044   2.146  -2.297  0.00  0.00    -0.133 F 
ATOM     37  F   LIG d   1       3.119  -0.138  -2.287  0.00  0.00    -0.133 F 
ATOM     38  F   LIG d   1       4.662   1.061  -1.105  0.00  0.00    -0.133 F 
ENDBRANCH  34  35
ENDBRANCH  28  34
ENDBRANCH  22  24
ENDBRANCH   8  19
BRANCH  15  39
ATOM     39  C   LIG d   1       8.600  -7.062  -5.351  0.00  0.00     0.013 C 
ATOM     40  H   LIG d   1       8.384  -6.388  -6.181  0.00  0.00     0.088 H 
ATOM     41  H   LIG d   1       9.406  -7.739  -5.634  0.00  0.00     0.088 H 
BRANCH  39  42
ATOM     42  C   LIG d   1       9.017  -6.257  -4.147  0.00  0.00     0.086 A 
ATOM     43  N   LIG d   1       9.099  -4.945  -4.237  0.00  0.00    -0.255 NA
ATOM     44  C   LIG d   1       9.457  -4.201  -3.208  0.00  0.00     0.028 A 
ATOM     45  C   LIG d   1       9.769  -4.778  -1.992  0.00  0.00    -0.044 A 
ATOM     46  H   LIG d   1       9.509  -3.128  -3.318  0.00  0.00     0.083 H 
ATOM     47  C   LIG d   1       9.699  -6.157  -1.861  0.00  0.00    -0.058 A 
ATOM     48  H   LIG d   1      10.064  -4.164  -1.154  0.00  0.00     0.063 H 
ATOM     49  C   LIG d   1       9.315  -6.906  -2.963  0.00  0.00    -0.035 A 
ATOM     50  H   LIG d   1       9.937  -6.636  -0.923  0.00  0.00     0.062 H 
ATOM     51  H   LIG d   1       9.250  -7.982  -2.897  0.00  0.00     0.064 H 
ENDBRANCH  39  42
ENDBRANCH  15  39
TORSDOF 6
ENDMDL
MODEL 4
REMARK VINA RESULT:      -7.0      6.154      7.462
REMARK  6 active torsions:
REMARK  status: ('A' for Active; 'I' for Inactive)
REMARK    1  A    between atoms: C_5  and  C_7 
REMARK    2  A    between atoms: C_7  and  N_48 
REMARK    3  A    between atoms: C_15  and  C_17 
REMARK    4  A    between atoms: C_19  and  C_22 
REMARK    5  A    between atoms: C_25  and  O_28 
REMARK    6  A    between atoms: O_28  and  C_29 
ROOT
ATOM      1  C   LIG d   1       2.750   0.634  -6.921  0.00  0.00     0.036 C 
ATOM      2  C   LIG d   1       3.350   1.185  -8.191  0.00  0.00     0.190 A 
ATOM      3  C   LIG d   1       4.324   0.555  -8.887  0.00  0.00     0.156 A 
ATOM      4  N   LIG d   1       4.620   1.336  -9.958  0.00  0.00    -0.247 N 
ATOM      5  H   LIG d   1       5.302   1.143 -10.664  0.00  0.00     0.310 HD
ATOM      6  C   LIG d   1       3.816   2.423  -9.889  0.00  0.00     0.243 A 
ATOM      7  C   LIG d   1       4.914  -0.769  -8.476  0.00  0.00     0.065 C 
ATOM      8  C   LIG d   1       3.975  -1.403  -7.440  0.00  0.00     0.068 C 
ATOM      9  H   LIG d   1       3.059  -1.729  -7.932  0.00  0.00     0.096 H 
ATOM     10  H   LIG d   1       1.770   0.207  -7.133  0.00  0.00     0.090 H 
ATOM     11  H   LIG d   1       2.653   1.431  -6.185  0.00  0.00     0.090 H 
ATOM     12  H   LIG d   1       3.803   3.240 -10.595  0.00  0.00     0.158 H 
ATOM     13  H   LIG d   1       5.899  -0.613  -8.036  0.00  0.00     0.041 H 
ATOM     14  H   LIG d   1       4.997  -1.421  -9.346  0.00  0.00     0.041 H 
ATOM     15  N   LIG d   1       3.674  -0.400  -6.393  0.00  0.00     0.255 N 
ATOM     16  H   LIG d   1       4.549   0.052  -6.105  0.00  0.00     0.205 HD
ATOM     17  N   LIG d   1       3.062   2.320  -8.827  0.00  0.00    -0.243 N 
ATOM     18  H   LIG d   1       2.357   3.005  -8.530  0.00  0.00     0.311 HD
ENDROOT
BRANCH   8  19
ATOM     19  C   LIG d   1       4.655  -2.589  -6.805  0.00  0.00     0.276 A 
ATOM     20  O   LIG d   1       4.201  -3.845  -6.782  0.00  0.00    -0.332 OA
ATOM     21  N   LIG d   1       4.986  -4.559  -6.193  0.00  0.00    -0.056 NA
ATOM     22  C   LIG d   1       6.010  -3.858  -5.782  0.00  0.00     0.202 A 
ATOM     23  N   LIG d   1       5.805  -2.581  -6.179  0.00  0.00    -0.186 NA
BRANCH  22  24
ATOM     24  C   LIG d   1       7.180  -4.368  -5.026  0.00  0.00     0.023 A 
ATOM     25  C   LIG d   1       7.622  -5.676  -5.222  0.00  0.00    -0.048 A 
ATOM     26  C   LIG d   1       8.710  -6.147  -4.518  0.00  0.00    -0.019 A 
ATOM     27  H   LIG d   1       7.112  -6.319  -5.925  0.00  0.00     0.063 H 
ATOM     28  C   LIG d   1       9.365  -5.321  -3.615  0.00  0.00     0.130 A 
ATOM     29  H   LIG d   1       9.052  -7.160  -4.669  0.00  0.00     0.065 H 
ATOM     30  C   LIG d   1       8.927  -4.019  -3.417  0.00  0.00    -0.019 A 
ATOM     31  C   LIG d   1       7.844  -3.539  -4.123  0.00  0.00    -0.048 A 
ATOM     32  H   LIG d   1       9.439  -3.378  -2.714  0.00  0.00     0.065 H 
ATOM     33  H   LIG d   1       7.507  -2.524  -3.973  0.00  0.00     0.063 H 
BRANCH  28  34
ATOM     34  O   LIG d   1      10.436  -5.789  -2.922  0.00  0.00    -0.406 OA
BRANCH  34  35
ATOM     35  C   LIG d   1      10.169  -6.453  -1.686  0.00  0.00     0.575 C 
ATOM     36  F   LIG d   1      11.349  -7.025  -1.199  0.00  0.00    -0.133 F 
ATOM     37  F   LIG d   1       9.680  -5.528  -0.757  0.00  0.00    -0.133 F 
ATOM     38  F   LIG d   1       9.215  -7.455  -1.891  0.00  0.00    -0.133 F 
ENDBRANCH  34  35
ENDBRANCH  28  34
ENDBRANCH  22  24
ENDBRANCH   8  19
BRANCH  15  39
ATOM     39  C   LIG d   1       3.069  -1.063  -5.220  0.00  0.00     0.013 C 
ATOM     40  H   LIG d   1       3.358  -2.114  -5.218  0.00  0.00     0.088 H 
ATOM     41  H   LIG d   1       1.982  -0.986  -5.252  0.00  0.00     0.088 H 
BRANCH  39  42
ATOM     42  C   LIG d   1       3.583  -0.399  -3.969  0.00  0.00     0.086 A 
ATOM     43  N   LIG d   1       3.583   0.917  -3.882  0.00  0.00    -0.255 NA
ATOM     44  C   LIG d   1       4.019   1.541  -2.806  0.00  0.00     0.028 A 
ATOM     45  C   LIG d   1       4.506   0.831  -1.725  0.00  0.00    -0.044 A 
ATOM     46  H   LIG d   1       3.999   2.620  -2.770  0.00  0.00     0.083 H 
ATOM     47  C   LIG d   1       4.528  -0.555  -1.782  0.00  0.00    -0.058 A 
ATOM     48  H   LIG d   1       4.866   1.348  -0.848  0.00  0.00     0.063 H 
ATOM     49  C   LIG d   1       4.056  -1.176  -2.928  0.00  0.00    -0.035 A 
ATOM     50  H   LIG d   1       4.901  -1.136  -0.952  0.00  0.00     0.062 H 
ATOM     51  H   LIG d   1       4.058  -2.253  -3.006  0.00  0.00     0.064 H 
ENDBRANCH  39  42
ENDBRANCH  15  39
TORSDOF 6
ENDMDL
MODEL 5
REMARK VINA RESULT:      -6.8      4.551      8.592
REMARK  6 active torsions:
REMARK  status: ('A' for Active; 'I' for Inactive)
REMARK    1  A    between atoms: C_5  and  C_7 
REMARK    2  A    between atoms: C_7  and  N_48 
REMARK    3  A    between atoms: C_15  and  C_17 
REMARK    4  A    between atoms: C_19  and  C_22 
REMARK    5  A    between atoms: C_25  and  O_28 
REMARK    6  A    between atoms: O_28  and  C_29 
ROOT
ATOM      1  C   LIG d   1      11.264   7.014  -4.875  0.00  0.00     0.036 C 
ATOM      2  C   LIG d   1      10.692   7.845  -3.754  0.00  0.00     0.190 A 
ATOM      3  C   LIG d   1       9.934   7.329  -2.760  0.00  0.00     0.156 A 
ATOM      4  N   LIG d   1       9.593   8.357  -1.940  0.00  0.00    -0.247 N 
ATOM      5  H   LIG d   1       9.033   8.299  -1.114  0.00  0.00     0.310 HD
ATOM      6  C   LIG d   1      10.155   9.476  -2.456  0.00  0.00     0.243 A 
ATOM      7  C   LIG d   1       9.580   5.868  -2.657  0.00  0.00     0.065 C 
ATOM      8  C   LIG d   1      10.522   5.089  -3.587  0.00  0.00     0.068 C 
ATOM      9  H   LIG d   1      11.527   5.087  -3.166  0.00  0.00     0.096 H 
ATOM     10  H   LIG d   1      12.325   6.838  -4.698  0.00  0.00     0.090 H 
ATOM     11  H   LIG d   1      11.131   7.534  -5.823  0.00  0.00     0.090 H 
ATOM     12  H   LIG d   1      10.075  10.469  -2.038  0.00  0.00     0.158 H 
ATOM     13  H   LIG d   1       8.546   5.715  -2.968  0.00  0.00     0.041 H 
ATOM     14  H   LIG d   1       9.712   5.528  -1.630  0.00  0.00     0.041 H 
ATOM     15  N   LIG d   1      10.517   5.733  -4.920  0.00  0.00     0.255 N 
ATOM     16  H   LIG d   1       9.545   5.924  -5.192  0.00  0.00     0.205 HD
ATOM     17  N   LIG d   1      10.810   9.155  -3.540  0.00  0.00    -0.243 N 
ATOM     18  H   LIG d   1      11.333   9.809  -4.134  0.00  0.00     0.311 HD
ENDROOT
BRANCH   8  19
ATOM     19  C   LIG d   1      10.032   3.670  -3.723  0.00  0.00     0.276 A 
ATOM     20  O   LIG d   1      10.779   2.595  -3.986  0.00  0.00    -0.332 OA
ATOM     21  N   LIG d   1      10.081   1.603  -4.030  0.00  0.00    -0.056 NA
ATOM     22  C   LIG d   1       8.833   1.924  -3.803  0.00  0.00     0.202 A 
ATOM     23  N   LIG d   1       8.794   3.260  -3.599  0.00  0.00    -0.186 NA
BRANCH  22  24
ATOM     24  C   LIG d   1       7.677   0.994  -3.772  0.00  0.00     0.023 A 
ATOM     25  C   LIG d   1       7.843  -0.340  -4.139  0.00  0.00    -0.048 A 
ATOM     26  C   LIG d   1       6.767  -1.202  -4.108  0.00  0.00    -0.019 A 
ATOM     27  H   LIG d   1       8.815  -0.699  -4.447  0.00  0.00     0.063 H 
ATOM     28  C   LIG d   1       5.518  -0.741  -3.713  0.00  0.00     0.130 A 
ATOM     29  H   LIG d   1       6.896  -2.236  -4.393  0.00  0.00     0.065 H 
ATOM     30  C   LIG d   1       5.349   0.588  -3.348  0.00  0.00    -0.019 A 
ATOM     31  C   LIG d   1       6.423   1.452  -3.370  0.00  0.00    -0.048 A 
ATOM     32  H   LIG d   1       4.377   0.943  -3.040  0.00  0.00     0.065 H 
ATOM     33  H   LIG d   1       6.292   2.485  -3.080  0.00  0.00     0.063 H 
BRANCH  28  34
ATOM     34  O   LIG d   1       4.460  -1.592  -3.685  0.00  0.00    -0.406 OA
BRANCH  34  35
ATOM     35  C   LIG d   1       3.760  -1.715  -2.446  0.00  0.00     0.575 C 
ATOM     36  F   LIG d   1       3.569  -3.070  -2.150  0.00  0.00    -0.133 F 
ATOM     37  F   LIG d   1       4.508  -1.116  -1.427  0.00  0.00    -0.133 F 
ATOM     38  F   LIG d   1       2.517  -1.082  -2.547  0.00  0.00    -0.133 F 
ENDBRANCH  34  35
ENDBRANCH  28  34
ENDBRANCH  22  24
ENDBRANCH   8  19
BRANCH  15  39
ATOM     39  C   LIG d   1      11.125   4.829  -5.918  0.00  0.00     0.013 C 
ATOM     40  H   LIG d   1      11.192   3.827  -5.495  0.00  0.00     0.088 H 
ATOM     41  H   LIG d   1      12.123   5.174  -6.192  0.00  0.00     0.088 H 
BRANCH  39  42
ATOM     42  C   LIG d   1      10.249   4.801  -7.143  0.00  0.00     0.086 A 
ATOM     43  N   LIG d   1      10.133   5.884  -7.886  0.00  0.00    -0.255 NA
ATOM     44  C   LIG d   1       9.380   5.904  -8.970  0.00  0.00     0.028 A 
ATOM     45  C   LIG d   1       8.675   4.782  -9.361  0.00  0.00    -0.044 A 
ATOM     46  H   LIG d   1       9.313   6.808  -9.555  0.00  0.00     0.083 H 
ATOM     47  C   LIG d   1       8.768   3.626  -8.601  0.00  0.00    -0.058 A 
ATOM     48  H   LIG d   1       8.058   4.806 -10.247  0.00  0.00     0.063 H 
ATOM     49  C   LIG d   1       9.573   3.641  -7.472  0.00  0.00    -0.035 A 
ATOM     50  H   LIG d   1       8.229   2.734  -8.883  0.00  0.00     0.062 H 
ATOM     51  H   LIG d   1       9.669   2.759  -6.857  0.00  0.00     0.064 H 
ENDBRANCH  39  42
ENDBRANCH  15  39
TORSDOF 6
ENDMDL
MODEL 6
REMARK VINA RESULT:      -6.6      1.831      2.260
REMARK  6 active torsions:
REMARK  status: ('A' for Active; 'I' for Inactive)
REMARK    1  A    between atoms: C_5  and  C_7 
REMARK    2  A    between atoms: C_7  and  N_48 
REMARK    3  A    between atoms: C_15  and  C_17 
REMARK    4  A    between atoms: C_19  and  C_22 
REMARK    5  A    between atoms: C_25  and  O_28 
REMARK    6  A    between atoms: O_28  and  C_29 
ROOT
ATOM      1  C   LIG d   1       4.660  -1.810  -6.636  0.00  0.00     0.036 C 
ATOM      2  C   LIG d   1       3.993  -1.403  -7.926  0.00  0.00     0.190 A 
ATOM      3  C   LIG d   1       4.494  -0.460  -8.756  0.00  0.00     0.156 A 
ATOM      4  N   LIG d   1       3.637  -0.352  -9.804  0.00  0.00    -0.247 N 
ATOM      5  H   LIG d   1       3.729   0.263 -10.587  0.00  0.00     0.310 HD
ATOM      6  C   LIG d   1       2.634  -1.236  -9.587  0.00  0.00     0.243 A 
ATOM      7  C   LIG d   1       5.776   0.285  -8.489  0.00  0.00     0.065 C 
ATOM      8  C   LIG d   1       6.546  -0.476  -7.400  0.00  0.00     0.068 C 
ATOM      9  H   LIG d   1       6.931  -1.407  -7.812  0.00  0.00     0.096 H 
ATOM     10  H   LIG d   1       5.166  -2.766  -6.770  0.00  0.00     0.090 H 
ATOM     11  H   LIG d   1       3.914  -1.896  -5.847  0.00  0.00     0.090 H 
ATOM     12  H   LIG d   1       1.787  -1.398 -10.238  0.00  0.00     0.158 H 
ATOM     13  H   LIG d   1       5.551   1.295  -8.145  0.00  0.00     0.041 H 
ATOM     14  H   LIG d   1       6.373   0.330  -9.400  0.00  0.00     0.041 H 
ATOM     15  N   LIG d   1       5.629  -0.747  -6.269  0.00  0.00     0.255 N 
ATOM     16  H   LIG d   1       5.112   0.112  -6.048  0.00  0.00     0.205 HD
ATOM     17  N   LIG d   1       2.860  -1.858  -8.460  0.00  0.00    -0.243 N 
ATOM     18  H   LIG d   1       2.259  -2.583  -8.050  0.00  0.00     0.311 HD
ENDROOT
BRANCH   8  19
ATOM     19  C   LIG d   1       7.693   0.371  -6.911  0.00  0.00     0.276 A 
ATOM     20  O   LIG d   1       8.947  -0.037  -6.702  0.00  0.00    -0.332 OA
ATOM     21  N   LIG d   1       9.626   0.889  -6.311  0.00  0.00    -0.056 NA
ATOM     22  C   LIG d   1       8.900   1.974  -6.227  0.00  0.00     0.202 A 
ATOM     23  N   LIG d   1       7.647   1.647  -6.619  0.00  0.00    -0.186 NA
BRANCH  22  24
ATOM     24  C   LIG d   1       9.364   3.313  -5.788  0.00  0.00     0.023 A 
ATOM     25  C   LIG d   1       9.165   3.724  -4.471  0.00  0.00    -0.048 A 
ATOM     26  C   LIG d   1       9.599   4.969  -4.066  0.00  0.00    -0.019 A 
ATOM     27  H   LIG d   1       8.673   3.068  -3.768  0.00  0.00     0.063 H 
ATOM     28  C   LIG d   1      10.232   5.813  -4.970  0.00  0.00     0.130 A 
ATOM     29  H   LIG d   1       9.445   5.288  -3.046  0.00  0.00     0.065 H 
ATOM     30  C   LIG d   1      10.430   5.406  -6.282  0.00  0.00    -0.019 A 
ATOM     31  C   LIG d   1      10.005   4.160  -6.691  0.00  0.00    -0.048 A 
ATOM     32  H   LIG d   1      10.923   6.065  -6.983  0.00  0.00     0.065 H 
ATOM     33  H   LIG d   1      10.165   3.842  -7.711  0.00  0.00     0.063 H 
BRANCH  28  34
ATOM     34  O   LIG d   1      10.657   7.039  -4.568  0.00  0.00    -0.406 OA
BRANCH  34  35
ATOM     35  C   LIG d   1       9.978   8.171  -5.114  0.00  0.00     0.575 C 
ATOM     36  F   LIG d   1       9.888   9.174  -4.142  0.00  0.00    -0.133 F 
ATOM     37  F   LIG d   1      10.689   8.653  -6.217  0.00  0.00    -0.133 F 
ATOM     38  F   LIG d   1       8.692   7.795  -5.516  0.00  0.00    -0.133 F 
ENDBRANCH  34  35
ENDBRANCH  28  34
ENDBRANCH  22  24
ENDBRANCH   8  19
BRANCH  15  39
ATOM     39  C   LIG d   1       6.403  -1.160  -5.081  0.00  0.00     0.013 C 
ATOM     40  H   LIG d   1       7.403  -0.728  -5.141  0.00  0.00     0.088 H 
ATOM     41  H   LIG d   1       6.480  -2.246  -5.030  0.00  0.00     0.088 H 
BRANCH  39  42
ATOM     42  C   LIG d   1       5.708  -0.646  -3.847  0.00  0.00     0.086 A 
ATOM     43  N   LIG d   1       4.997  -1.474  -3.107  0.00  0.00    -0.255 NA
ATOM     44  C   LIG d   1       4.375  -1.069  -2.017  0.00  0.00     0.028 A 
ATOM     45  C   LIG d   1       4.440   0.251  -1.614  0.00  0.00    -0.044 A 
ATOM     46  H   LIG d   1       3.806  -1.777  -1.434  0.00  0.00     0.083 H 
ATOM     47  C   LIG d   1       5.174   1.153  -2.371  0.00  0.00    -0.058 A 
ATOM     48  H   LIG d   1       3.925   0.577  -0.723  0.00  0.00     0.063 H 
ATOM     49  C   LIG d   1       5.818   0.690  -3.507  0.00  0.00    -0.035 A 
ATOM     50  H   LIG d   1       5.243   2.190  -2.080  0.00  0.00     0.062 H 
ATOM     51  H   LIG d   1       6.398   1.364  -4.120  0.00  0.00     0.064 H 
ENDBRANCH  39  42
ENDBRANCH  15  39
TORSDOF 6
ENDMDL
MODEL 7
REMARK VINA RESULT:      -6.5      6.562      9.424
REMARK  6 active torsions:
REMARK  status: ('A' for Active; 'I' for Inactive)
REMARK    1  A    between atoms: C_5  and  C_7 
REMARK    2  A    between atoms: C_7  and  N_48 
REMARK    3  A    between atoms: C_15  and  C_17 
REMARK    4  A    between atoms: C_19  and  C_22 
REMARK    5  A    between atoms: C_25  and  O_28 
REMARK    6  A    between atoms: O_28  and  C_29 
ROOT
ATOM      1  C   LIG d   1      12.548  -6.647  -2.967  0.00  0.00     0.036 C 
ATOM      2  C   LIG d   1      12.127  -7.278  -1.663  0.00  0.00     0.190 A 
ATOM      3  C   LIG d   1      10.874  -7.181  -1.162  0.00  0.00     0.156 A 
ATOM      4  N   LIG d   1      10.861  -7.858   0.016  0.00  0.00    -0.247 N 
ATOM      5  H   LIG d   1      10.079  -7.970   0.629  0.00  0.00     0.310 HD
ATOM      6  C   LIG d   1      12.107  -8.354   0.201  0.00  0.00     0.243 A 
ATOM      7  C   LIG d   1       9.759  -6.438  -1.850  0.00  0.00     0.065 C 
ATOM      8  C   LIG d   1      10.181  -6.198  -3.306  0.00  0.00     0.068 C 
ATOM      9  H   LIG d   1      10.164  -7.142  -3.849  0.00  0.00     0.096 H 
ATOM     10  H   LIG d   1      12.607  -7.410  -3.743  0.00  0.00     0.090 H 
ATOM     11  H   LIG d   1      13.519  -6.168  -2.847  0.00  0.00     0.090 H 
ATOM     12  H   LIG d   1      12.430  -8.944   1.046  0.00  0.00     0.158 H 
ATOM     13  H   LIG d   1       9.590  -5.483  -1.352  0.00  0.00     0.041 H 
ATOM     14  H   LIG d   1       8.847  -7.035  -1.823  0.00  0.00     0.041 H 
ATOM     15  N   LIG d   1      11.542  -5.614  -3.319  0.00  0.00     0.255 N 
ATOM     16  H   LIG d   1      11.585  -4.858  -2.625  0.00  0.00     0.205 HD
ATOM     17  N   LIG d   1      12.854  -7.999  -0.811  0.00  0.00    -0.243 N 
ATOM     18  H   LIG d   1      13.845  -8.238  -0.931  0.00  0.00     0.311 HD
ENDROOT
BRANCH   8  19
ATOM     19  C   LIG d   1       9.224  -5.229  -3.953  0.00  0.00     0.276 A 
ATOM     20  O   LIG d   1       8.865  -5.208  -5.239  0.00  0.00    -0.332 OA
ATOM     21  N   LIG d   1       8.079  -4.305  -5.437  0.00  0.00    -0.056 NA
ATOM     22  C   LIG d   1       7.848  -3.660  -4.323  0.00  0.00     0.202 A 
ATOM     23  N   LIG d   1       8.582  -4.256  -3.356  0.00  0.00    -0.186 NA
BRANCH  22  24
ATOM     24  C   LIG d   1       6.946  -2.494  -4.151  0.00  0.00     0.023 A 
ATOM     25  C   LIG d   1       5.564  -2.665  -4.218  0.00  0.00    -0.048 A 
ATOM     26  C   LIG d   1       4.728  -1.580  -4.058  0.00  0.00    -0.019 A 
ATOM     27  H   LIG d   1       5.148  -3.647  -4.394  0.00  0.00     0.063 H 
ATOM     28  C   LIG d   1       5.262  -0.318  -3.831  0.00  0.00     0.130 A 
ATOM     29  H   LIG d   1       3.657  -1.712  -4.109  0.00  0.00     0.065 H 
ATOM     30  C   LIG d   1       6.637  -0.145  -3.766  0.00  0.00    -0.019 A 
ATOM     31  C   LIG d   1       7.478  -1.227  -3.918  0.00  0.00    -0.048 A 
ATOM     32  H   LIG d   1       7.050   0.838  -3.589  0.00  0.00     0.065 H 
ATOM     33  H   LIG d   1       8.549  -1.093  -3.861  0.00  0.00     0.063 H 
BRANCH  28  34
ATOM     34  O   LIG d   1       4.435   0.748  -3.675  0.00  0.00    -0.406 OA
BRANCH  34  35
ATOM     35  C   LIG d   1       3.693   0.820  -2.457  0.00  0.00     0.575 C 
ATOM     36  F   LIG d   1       4.535   0.523  -1.379  0.00  0.00    -0.133 F 
ATOM     37  F   LIG d   1       3.174   2.110  -2.302  0.00  0.00    -0.133 F 
ATOM     38  F   LIG d   1       2.643  -0.103  -2.495  0.00  0.00    -0.133 F 
ENDBRANCH  34  35
ENDBRANCH  28  34
ENDBRANCH  22  24
ENDBRANCH   8  19
BRANCH  15  39
ATOM     39  C   LIG d   1      11.838  -5.057  -4.654  0.00  0.00     0.013 C 
ATOM     40  H   LIG d   1      10.903  -4.923  -5.199  0.00  0.00     0.088 H 
ATOM     41  H   LIG d   1      12.492  -5.726  -5.214  0.00  0.00     0.088 H 
BRANCH  39  42
ATOM     42  C   LIG d   1      12.514  -3.721  -4.482  0.00  0.00     0.086 A 
ATOM     43  N   LIG d   1      13.830  -3.648  -4.509  0.00  0.00    -0.255 NA
ATOM     44  C   LIG d   1      14.464  -2.501  -4.367  0.00  0.00     0.028 A 
ATOM     45  C   LIG d   1      13.764  -1.325  -4.174  0.00  0.00    -0.044 A 
ATOM     46  H   LIG d   1      15.543  -2.480  -4.400  0.00  0.00     0.083 H 
ATOM     47  C   LIG d   1      12.378  -1.363  -4.134  0.00  0.00    -0.058 A 
ATOM     48  H   LIG d   1      14.289  -0.389  -4.054  0.00  0.00     0.063 H 
ATOM     49  C   LIG d   1      11.747  -2.587  -4.292  0.00  0.00    -0.035 A 
ATOM     50  H   LIG d   1      11.805  -0.460  -3.985  0.00  0.00     0.062 H 
ATOM     51  H   LIG d   1      10.669  -2.653  -4.266  0.00  0.00     0.064 H 
ENDBRANCH  39  42
ENDBRANCH  15  39
TORSDOF 6
ENDMDL
MODEL 8
REMARK VINA RESULT:      -6.5      7.268      9.239
REMARK  6 active torsions:
REMARK  status: ('A' for Active; 'I' for Inactive)
REMARK    1  A    between atoms: C_5  and  C_7 
REMARK    2  A    between atoms: C_7  and  N_48 
REMARK    3  A    between atoms: C_15  and  C_17 
REMARK    4  A    between atoms: C_19  and  C_22 
REMARK    5  A    between atoms: C_25  and  O_28 
REMARK    6  A    between atoms: O_28  and  C_29 
ROOT
ATOM      1  C   LIG d   1       6.077  -9.912  -7.522  0.00  0.00     0.036 C 
ATOM      2  C   LIG d   1       5.478 -10.124  -8.891  0.00  0.00     0.190 A 
ATOM      3  C   LIG d   1       4.696  -9.209  -9.509  0.00  0.00     0.156 A 
ATOM      4  N   LIG d   1       4.335  -9.736 -10.709  0.00  0.00    -0.247 N 
ATOM      5  H   LIG d   1       3.757  -9.301 -11.398  0.00  0.00     0.310 HD
ATOM      6  C   LIG d   1       4.909 -10.959 -10.792  0.00  0.00     0.243 A 
ATOM      7  C   LIG d   1       4.342  -7.875  -8.905  0.00  0.00     0.065 C 
ATOM      8  C   LIG d   1       5.306  -7.615  -7.739  0.00  0.00     0.068 C 
ATOM      9  H   LIG d   1       6.300  -7.405  -8.131  0.00  0.00     0.096 H 
ATOM     10  H   LIG d   1       7.133  -9.662  -7.619  0.00  0.00     0.090 H 
ATOM     11  H   LIG d   1       5.965 -10.818  -6.928  0.00  0.00     0.090 H 
ATOM     12  H   LIG d   1       4.818 -11.640 -11.625  0.00  0.00     0.158 H 
ATOM     13  H   LIG d   1       3.315  -7.898  -8.538  0.00  0.00     0.041 H 
ATOM     14  H   LIG d   1       4.449  -7.091  -9.655  0.00  0.00     0.041 H 
ATOM     15  N   LIG d   1       5.331  -8.810  -6.865  0.00  0.00     0.255 N 
ATOM     16  H   LIG d   1       4.367  -9.117  -6.694  0.00  0.00     0.205 HD
ATOM     17  N   LIG d   1       5.589 -11.179  -9.698  0.00  0.00    -0.243 N 
ATOM     18  H   LIG d   1       6.126 -12.030  -9.492  0.00  0.00     0.311 HD
ENDROOT
BRANCH   8  19
ATOM     19  C   LIG d   1       4.820  -6.432  -6.941  0.00  0.00     0.276 A 
ATOM     20  O   LIG d   1       3.548  -6.068  -6.757  0.00  0.00    -0.332 OA
ATOM     21  N   LIG d   1       3.497  -5.072  -6.064  0.00  0.00    -0.056 NA
ATOM     22  C   LIG d   1       4.704  -4.694  -5.733  0.00  0.00     0.202 A 
ATOM     23  N   LIG d   1       5.566  -5.573  -6.293  0.00  0.00    -0.186 NA
BRANCH  22  24
ATOM     24  C   LIG d   1       5.061  -3.523  -4.895  0.00  0.00     0.023 A 
ATOM     25  C   LIG d   1       4.298  -3.210  -3.770  0.00  0.00    -0.048 A 
ATOM     26  C   LIG d   1       4.633  -2.121  -2.993  0.00  0.00    -0.019 A 
ATOM     27  H   LIG d   1       3.448  -3.822  -3.507  0.00  0.00     0.063 H 
ATOM     28  C   LIG d   1       5.727  -1.335  -3.331  0.00  0.00     0.130 A 
ATOM     29  H   LIG d   1       4.043  -1.879  -2.122  0.00  0.00     0.065 H 
ATOM     30  C   LIG d   1       6.486  -1.643  -4.451  0.00  0.00    -0.019 A 
ATOM     31  C   LIG d   1       6.162  -2.735  -5.228  0.00  0.00    -0.048 A 
ATOM     32  H   LIG d   1       7.337  -1.030  -4.711  0.00  0.00     0.065 H 
ATOM     33  H   LIG d   1       6.757  -2.977  -6.096  0.00  0.00     0.063 H 
BRANCH  28  34
ATOM     34  O   LIG d   1       6.052  -0.262  -2.564  0.00  0.00    -0.406 OA
BRANCH  34  35
ATOM     35  C   LIG d   1       5.293   0.931  -2.764  0.00  0.00     0.575 C 
ATOM     36  F   LIG d   1       4.311   0.703  -3.734  0.00  0.00    -0.133 F 
ATOM     37  F   LIG d   1       4.684   1.302  -1.561  0.00  0.00    -0.133 F 
ATOM     38  F   LIG d   1       6.142   1.958  -3.192  0.00  0.00    -0.133 F 
ENDBRANCH  34  35
ENDBRANCH  28  34
ENDBRANCH  22  24
ENDBRANCH   8  19
BRANCH  15  39
ATOM     39  C   LIG d   1       5.964  -8.475  -5.573  0.00  0.00     0.013 C 
ATOM     40  H   LIG d   1       5.754  -7.433  -5.334  0.00  0.00     0.088 H 
ATOM     41  H   LIG d   1       7.043  -8.626  -5.622  0.00  0.00     0.088 H 
BRANCH  39  42
ATOM     42  C   LIG d   1       5.381  -9.363  -4.504  0.00  0.00     0.086 A 
ATOM     43  N   LIG d   1       4.075  -9.398  -4.328  0.00  0.00    -0.255 NA
ATOM     44  C   LIG d   1       3.520 -10.163  -3.407  0.00  0.00     0.028 A 
ATOM     45  C   LIG d   1       4.297 -10.954  -2.582  0.00  0.00    -0.044 A 
ATOM     46  H   LIG d   1       2.446 -10.169  -3.295  0.00  0.00     0.083 H 
ATOM     47  C   LIG d   1       5.675 -10.938  -2.734  0.00  0.00    -0.058 A 
ATOM     48  H   LIG d   1       3.837 -11.575  -1.828  0.00  0.00     0.063 H 
ATOM     49  C   LIG d   1       6.222 -10.126  -3.716  0.00  0.00    -0.035 A 
ATOM     50  H   LIG d   1       6.308 -11.546  -2.105  0.00  0.00     0.062 H 
ATOM     51  H   LIG d   1       7.291 -10.089  -3.862  0.00  0.00     0.064 H 
ENDBRANCH  39  42
ENDBRANCH  15  39
TORSDOF 6
ENDMDL
MODEL 9
REMARK VINA RESULT:      -6.5      5.346      8.514
REMARK  6 active torsions:
REMARK  status: ('A' for Active; 'I' for Inactive)
REMARK    1  A    between atoms: C_5  and  C_7 
REMARK    2  A    between atoms: C_7  and  N_48 
REMARK    3  A    between atoms: C_15  and  C_17 
REMARK    4  A    between atoms: C_19  and  C_22 
REMARK    5  A    between atoms: C_25  and  O_28 
REMARK    6  A    between atoms: O_28  and  C_29 
ROOT
ATOM      1  C   LIG d   1       3.018  -2.574 -13.630  0.00  0.00     0.036 C 
ATOM      2  C   LIG d   1       3.992  -1.779 -14.464  0.00  0.00     0.190 A 
ATOM      3  C   LIG d   1       4.658  -0.698 -13.998  0.00  0.00     0.156 A 
ATOM      4  N   LIG d   1       5.434  -0.236 -15.014  0.00  0.00    -0.247 N 
ATOM      5  H   LIG d   1       6.045   0.554 -14.983  0.00  0.00     0.310 HD
ATOM      6  C   LIG d   1       5.221  -1.051 -16.074  0.00  0.00     0.243 A 
ATOM      7  C   LIG d   1       4.508  -0.171 -12.594  0.00  0.00     0.065 C 
ATOM      8  C   LIG d   1       3.833  -1.262 -11.751  0.00  0.00     0.068 C 
ATOM      9  H   LIG d   1       4.533  -2.080 -11.590  0.00  0.00     0.096 H 
ATOM     10  H   LIG d   1       3.488  -3.502 -13.303  0.00  0.00     0.090 H 
ATOM     11  H   LIG d   1       2.129  -2.799 -14.218  0.00  0.00     0.090 H 
ATOM     12  H   LIG d   1       5.689  -0.955 -17.043  0.00  0.00     0.158 H 
ATOM     13  H   LIG d   1       3.889   0.727 -12.602  0.00  0.00     0.041 H 
ATOM     14  H   LIG d   1       5.490   0.061 -12.181  0.00  0.00     0.041 H 
ATOM     15  N   LIG d   1       2.628  -1.740 -12.467  0.00  0.00     0.255 N 
ATOM     16  H   LIG d   1       2.097  -0.928 -12.803  0.00  0.00     0.205 HD
ATOM     17  N   LIG d   1       4.357  -1.969 -15.732  0.00  0.00    -0.243 N 
ATOM     18  H   LIG d   1       4.013  -2.719 -16.342  0.00  0.00     0.311 HD
ENDROOT
BRANCH   8  19
ATOM     19  C   LIG d   1       3.419  -0.684 -10.422  0.00  0.00     0.276 A 
ATOM     20  O   LIG d   1       2.487   0.252 -10.219  0.00  0.00    -0.332 OA
ATOM     21  N   LIG d   1       2.395   0.496  -9.034  0.00  0.00    -0.056 NA
ATOM     22  C   LIG d   1       3.238  -0.241  -8.357  0.00  0.00     0.202 A 
ATOM     23  N   LIG d   1       3.901  -1.011  -9.249  0.00  0.00    -0.186 NA
BRANCH  22  24
ATOM     24  C   LIG d   1       3.427  -0.235  -6.886  0.00  0.00     0.023 A 
ATOM     25  C   LIG d   1       4.539  -0.858  -6.322  0.00  0.00    -0.048 A 
ATOM     26  C   LIG d   1       4.713  -0.851  -4.954  0.00  0.00    -0.019 A 
ATOM     27  H   LIG d   1       5.265  -1.346  -6.956  0.00  0.00     0.063 H 
ATOM     28  C   LIG d   1       3.780  -0.224  -4.138  0.00  0.00     0.130 A 
ATOM     29  H   LIG d   1       5.574  -1.333  -4.517  0.00  0.00     0.065 H 
ATOM     30  C   LIG d   1       2.671   0.396  -4.696  0.00  0.00    -0.019 A 
ATOM     31  C   LIG d   1       2.496   0.398  -6.064  0.00  0.00    -0.048 A 
ATOM     32  H   LIG d   1       1.947   0.883  -4.059  0.00  0.00     0.065 H 
ATOM     33  H   LIG d   1       1.635   0.886  -6.498  0.00  0.00     0.063 H 
BRANCH  28  34
ATOM     34  O   LIG d   1       3.953  -0.220  -2.790  0.00  0.00    -0.406 OA
BRANCH  34  35
ATOM     35  C   LIG d   1       4.313   1.024  -2.188  0.00  0.00     0.575 C 
ATOM     36  F   LIG d   1       4.846   0.789  -0.915  0.00  0.00    -0.133 F 
ATOM     37  F   LIG d   1       5.268   1.667  -2.981  0.00  0.00    -0.133 F 
ATOM     38  F   LIG d   1       3.178   1.834  -2.075  0.00  0.00    -0.133 F 
ENDBRANCH  34  35
ENDBRANCH  28  34
ENDBRANCH  22  24
ENDBRANCH   8  19
BRANCH  15  39
ATOM     39  C   LIG d   1       1.776  -2.524 -11.549  0.00  0.00     0.013 C 
ATOM     40  H   LIG d   1       1.663  -1.976 -10.614  0.00  0.00     0.088 H 
ATOM     41  H   LIG d   1       2.222  -3.498 -11.347  0.00  0.00     0.088 H 
BRANCH  39  42
ATOM     42  C   LIG d   1       0.424  -2.713 -12.187  0.00  0.00     0.086 A 
ATOM     43  N   LIG d   1      -0.139  -3.905 -12.181  0.00  0.00    -0.255 NA
ATOM     44  C   LIG d   1      -1.323  -4.116 -12.723  0.00  0.00     0.028 A 
ATOM     45  C   LIG d   1      -2.016  -3.086 -13.330  0.00  0.00    -0.044 A 
ATOM     46  H   LIG d   1      -1.754  -5.105 -12.694  0.00  0.00     0.083 H 
ATOM     47  C   LIG d   1      -1.453  -1.819 -13.361  0.00  0.00    -0.058 A 
ATOM     48  H   LIG d   1      -2.983  -3.266 -13.775  0.00  0.00     0.063 H 
ATOM     49  C   LIG d   1      -0.210  -1.634 -12.776  0.00  0.00    -0.035 A 
ATOM     50  H   LIG d   1      -1.972  -0.995 -13.827  0.00  0.00     0.062 H 
ATOM     51  H   LIG d   1       0.258  -0.661 -12.782  0.00  0.00     0.064 H 
ENDBRANCH  39  42
ENDBRANCH  15  39
TORSDOF 6
ENDMDL
MODEL 10
REMARK VINA RESULT:      -6.4      7.533     10.965
REMARK  6 active torsions:
REMARK  status: ('A' for Active; 'I' for Inactive)
REMARK    1  A    between atoms: C_5  and  C_7 
REMARK    2  A    between atoms: C_7  and  N_48 
REMARK    3  A    between atoms: C_15  and  C_17 
REMARK    4  A    between atoms: C_19  and  C_22 
REMARK    5  A    between atoms: C_25  and  O_28 
REMARK    6  A    between atoms: O_28  and  C_29 
ROOT
ATOM      1  C   LIG d   1       7.986  -2.401  -4.097  0.00  0.00     0.036 C 
ATOM      2  C   LIG d   1       8.874  -3.558  -3.710  0.00  0.00     0.190 A 
ATOM      3  C   LIG d   1       8.640  -4.834  -4.090  0.00  0.00     0.156 A 
ATOM      4  N   LIG d   1       9.629  -5.599  -3.559  0.00  0.00    -0.247 N 
ATOM      5  H   LIG d   1       9.735  -6.588  -3.660  0.00  0.00     0.310 HD
ATOM      6  C   LIG d   1      10.445  -4.767  -2.870  0.00  0.00     0.243 A 
ATOM      7  C   LIG d   1       7.470  -5.244  -4.947  0.00  0.00     0.065 C 
ATOM      8  C   LIG d   1       6.893  -3.977  -5.594  0.00  0.00     0.068 C 
ATOM      9  H   LIG d   1       7.584  -3.609  -6.352  0.00  0.00     0.096 H 
ATOM     10  H   LIG d   1       8.456  -1.829  -4.896  0.00  0.00     0.090 H 
ATOM     11  H   LIG d   1       7.820  -1.760  -3.232  0.00  0.00     0.090 H 
ATOM     12  H   LIG d   1      11.331  -5.062  -2.327  0.00  0.00     0.158 H 
ATOM     13  H   LIG d   1       6.710  -5.723  -4.330  0.00  0.00     0.041 H 
ATOM     14  H   LIG d   1       7.806  -5.934  -5.722  0.00  0.00     0.041 H 
ATOM     15  N   LIG d   1       6.684  -2.957  -4.541  0.00  0.00     0.255 N 
ATOM     16  H   LIG d   1       6.220  -3.399  -3.739  0.00  0.00     0.205 HD
ATOM     17  N   LIG d   1       9.981  -3.549  -2.968  0.00  0.00    -0.243 N 
ATOM     18  H   LIG d   1      10.403  -2.716  -2.541  0.00  0.00     0.311 HD
ENDROOT
BRANCH   8  19
ATOM     19  C   LIG d   1       5.568  -4.301  -6.236  0.00  0.00     0.276 A 
ATOM     20  O   LIG d   1       4.509  -4.852  -5.637  0.00  0.00    -0.332 OA
ATOM     21  N   LIG d   1       3.601  -4.979  -6.432  0.00  0.00    -0.056 NA
ATOM     22  C   LIG d   1       3.967  -4.533  -7.606  0.00  0.00     0.202 A 
ATOM     23  N   LIG d   1       5.238  -4.088  -7.486  0.00  0.00    -0.186 NA
BRANCH  22  24
ATOM     24  C   LIG d   1       3.140  -4.515  -8.837  0.00  0.00     0.023 A 
ATOM     25  C   LIG d   1       2.714  -5.713  -9.410  0.00  0.00    -0.048 A 
ATOM     26  C   LIG d   1       1.944  -5.693 -10.554  0.00  0.00    -0.019 A 
ATOM     27  H   LIG d   1       2.985  -6.655  -8.957  0.00  0.00     0.063 H 
ATOM     28  C   LIG d   1       1.596  -4.482 -11.137  0.00  0.00     0.130 A 
ATOM     29  H   LIG d   1       1.614  -6.620 -10.998  0.00  0.00     0.065 H 
ATOM     30  C   LIG d   1       2.020  -3.288 -10.570  0.00  0.00    -0.019 A 
ATOM     31  C   LIG d   1       2.783  -3.301  -9.422  0.00  0.00    -0.048 A 
ATOM     32  H   LIG d   1       1.747  -2.347 -11.025  0.00  0.00     0.065 H 
ATOM     33  H   LIG d   1       3.109  -2.371  -8.978  0.00  0.00     0.063 H 
BRANCH  28  34
ATOM     34  O   LIG d   1       0.839  -4.466 -12.265  0.00  0.00    -0.406 OA
BRANCH  34  35
ATOM     35  C   LIG d   1      -0.566  -4.667 -12.106  0.00  0.00     0.575 C 
ATOM     36  F   LIG d   1      -0.933  -4.371 -10.788  0.00  0.00    -0.133 F 
ATOM     37  F   LIG d   1      -1.260  -3.828 -12.983  0.00  0.00    -0.133 F 
ATOM     38  F   LIG d   1      -0.881  -6.000 -12.388  0.00  0.00    -0.133 F 
ENDBRANCH  34  35
ENDBRANCH  28  34
ENDBRANCH  22  24
ENDBRANCH   8  19
BRANCH  15  39
ATOM     39  C   LIG d   1       5.823  -1.872  -5.056  0.00  0.00     0.013 C 
ATOM     40  H   LIG d   1       4.957  -2.311  -5.553  0.00  0.00     0.088 H 
ATOM     41  H   LIG d   1       6.370  -1.249  -5.763  0.00  0.00     0.088 H 
BRANCH  39  42
ATOM     42  C   LIG d   1       5.361  -1.029  -3.895  0.00  0.00     0.086 A 
ATOM     43  N   LIG d   1       5.552   0.275  -3.921  0.00  0.00    -0.255 NA
ATOM     44  C   LIG d   1       5.161   1.053  -2.930  0.00  0.00     0.028 A 
ATOM     45  C   LIG d   1       4.541   0.521  -1.816  0.00  0.00    -0.044 A 
ATOM     46  H   LIG d   1       5.331   2.117  -2.989  0.00  0.00     0.083 H 
ATOM     47  C   LIG d   1       4.328  -0.848  -1.750  0.00  0.00    -0.058 A 
ATOM     48  H   LIG d   1       4.226   1.162  -1.006  0.00  0.00     0.063 H 
ATOM     49  C   LIG d   1       4.748  -1.633  -2.813  0.00  0.00    -0.035 A 
ATOM     50  H   LIG d   1       3.845  -1.292  -0.893  0.00  0.00     0.062 H 
ATOM     51  H   LIG d   1       4.599  -2.702  -2.796  0.00  0.00     0.064 H 
ENDBRANCH  39  42
ENDBRANCH  15  39
TORSDOF 6
ENDMDL
