MODEL 1
REMARK VINA RESULT:      -7.5      0.000      0.000
REMARK  6 active torsions:
REMARK  status: ('A' for Active; 'I' for Inactive)
REMARK    1  A    between atoms: C_1  and  C_2 
REMARK    2  A    between atoms: C_5  and  C_8 
REMARK    3  A    between atoms: C_8  and  C_9 
REMARK    4  A    between atoms: C_9  and  C_24 
REMARK    5  A    between atoms: N_15  and  C_18 
REMARK    6  A    between atoms: C_24  and  N_25 
ROOT
ATOM      1  C   LIG d   1       5.052  -3.235  -8.122  0.00  0.00     0.117 A 
ATOM      2  C   LIG d   1       5.757  -2.091  -8.827  0.00  0.00    -0.022 A 
ATOM      3  O   LIG d   1       6.170  -2.211  -9.961  0.00  0.00    -0.864 OA
ATOM      4  N   LIG d   1       5.906  -0.935  -8.146  0.00  0.00    -0.182 NA
ATOM      5  C   LIG d   1       5.455  -0.788  -6.895  0.00  0.00     0.336 A 
ATOM      6  O   LIG d   1       5.632   0.286  -6.355  0.00  0.00    -0.250 OA
ATOM      7  N   LIG d   1       4.823  -1.736  -6.194  0.00  0.00    -0.192 N 
ATOM      8  C   LIG d   1       4.580  -2.962  -6.707  0.00  0.00     0.243 A 
ATOM      9  O   LIG d   1       4.007  -3.811  -6.061  0.00  0.00    -0.274 OA
ENDROOT
BRANCH   1  10
ATOM     10  C   LIG d   1       6.006  -4.430  -8.084  0.00  0.00    -0.004 C 
ATOM     11  H   LIG d   1       6.492  -4.543  -9.065  0.00  0.00     0.033 H 
ATOM     12  H   LIG d   1       5.441  -5.343  -7.848  0.00  0.00     0.033 H 
BRANCH  10  13
ATOM     13  C   LIG d   1       7.055  -4.202  -7.026  0.00  0.00    -0.046 A 
ATOM     14  C   LIG d   1       8.145  -3.397  -7.298  0.00  0.00    -0.058 A 
ATOM     15  C   LIG d   1       9.105  -3.183  -6.325  0.00  0.00    -0.059 A 
ATOM     16  H   LIG d   1       8.246  -2.931  -8.266  0.00  0.00     0.062 H 
ATOM     17  C   LIG d   1       8.979  -3.782  -5.087  0.00  0.00    -0.050 A 
ATOM     18  H   LIG d   1       9.955  -2.550  -6.535  0.00  0.00     0.062 H 
ATOM     19  C   LIG d   1       7.889  -4.588  -4.815  0.00  0.00    -0.059 A 
ATOM     20  C   LIG d   1       6.927  -4.798  -5.786  0.00  0.00    -0.058 A 
ATOM     21  H   LIG d   1       7.788  -5.052  -3.846  0.00  0.00     0.062 H 
ATOM     22  H   LIG d   1       6.074  -5.426  -5.574  0.00  0.00     0.062 H 
BRANCH  17  23
ATOM     23  C   LIG d   1      10.028  -3.553  -4.028  0.00  0.00    -0.040 C 
ATOM     24  H   LIG d   1       9.769  -4.127  -3.126  0.00  0.00     0.028 H 
ATOM     25  H   LIG d   1      10.071  -2.483  -3.781  0.00  0.00     0.028 H 
ATOM     26  H   LIG d   1      11.006  -3.883  -4.404  0.00  0.00     0.028 H 
ENDBRANCH  17  23
ENDBRANCH  10  13
ENDBRANCH   1  10
BRANCH   1  27
ATOM     27  C   LIG d   1       3.833  -3.630  -8.958  0.00  0.00    -0.013 C 
ATOM     28  H   LIG d   1       4.089  -4.485  -9.600  0.00  0.00     0.083 H 
ATOM     29  H   LIG d   1       3.005  -3.909  -8.290  0.00  0.00     0.083 H 
BRANCH  27  30
ATOM     30  N   LIG d   1       3.423  -2.494  -9.795  0.00  0.00     0.237 N 
ATOM     31  C   LIG d   1       2.032  -2.108  -9.515  0.00  0.00    -0.024 C 
ATOM     32  C   LIG d   1       1.730  -0.817 -10.293  0.00  0.00     0.040 C 
ATOM     33  H   LIG d   1       1.356  -2.913  -9.839  0.00  0.00     0.082 H 
ATOM     34  H   LIG d   1       1.908  -1.938  -8.435  0.00  0.00     0.082 H 
ATOM     35  C   LIG d   1       1.804  -1.136 -11.791  0.00  0.00    -0.031 C 
ATOM     36  H   LIG d   1       0.740  -0.405 -10.045  0.00  0.00     0.042 H 
ATOM     37  C   LIG d   1       2.799   0.191  -9.935  0.00  0.00     0.030 C 
ATOM     38  C   LIG d   1       3.247  -1.596 -12.082  0.00  0.00     0.018 C 
ATOM     39  H   LIG d   1       1.575  -0.243 -12.391  0.00  0.00     0.028 H 
ATOM     40  H   LIG d   1       1.102  -1.943 -12.051  0.00  0.00     0.028 H 
ATOM     41  C   LIG d   1       3.613  -2.793 -11.218  0.00  0.00    -0.027 C 
ATOM     42  H   LIG d   1       3.339  -1.919 -13.129  0.00  0.00     0.037 H 
ATOM     43  C   LIG d   1       4.207  -0.435 -11.874  0.00  0.00     0.034 C 
ATOM     44  H   LIG d   1       4.667  -3.051 -11.400  0.00  0.00     0.082 H 
ATOM     45  H   LIG d   1       2.974  -3.642 -11.502  0.00  0.00     0.082 H 
ATOM     46  N   LIG d   1       3.966   0.269 -10.616  0.00  0.00    -0.311 N 
ATOM     47  H   LIG d   1       5.240  -0.813 -11.860  0.00  0.00     0.050 H 
ATOM     48  H   LIG d   1       4.092   0.286 -12.697  0.00  0.00     0.050 H 
ATOM     49  C   LIG d   1       4.957   1.075 -10.163  0.00  0.00     0.252 C 
ATOM     50  C   LIG d   1       4.730   1.958  -9.097  0.00  0.00     0.003 C 
ATOM     51  O   LIG d   1       6.058   1.033 -10.688  0.00  0.00    -0.268 OA
ATOM     52  C   LIG d   1       3.519   1.944  -8.471  0.00  0.00    -0.055 C 
ATOM     53  H   LIG d   1       5.443   2.593  -8.796  0.00  0.00     0.067 H 
ATOM     54  C   LIG d   1       2.547   1.031  -8.896  0.00  0.00    -0.042 C 
ATOM     55  H   LIG d   1       3.336   2.580  -7.720  0.00  0.00     0.062 H 
ATOM     56  H   LIG d   1       1.663   1.000  -8.430  0.00  0.00     0.064 H 
ATOM     57  H   LIG d   1       4.068  -1.639  -9.545  0.00  0.00     0.203 HD
ENDBRANCH  27  30
ENDBRANCH   1  27
BRANCH   7  58
ATOM     58  C   LIG d   1       4.402  -1.450  -4.888  0.00  0.00     0.045 A 
ATOM     59  C   LIG d   1       5.140  -1.908  -3.804  0.00  0.00    -0.040 A 
ATOM     60  C   LIG d   1       4.722  -1.626  -2.518  0.00  0.00    -0.060 A 
ATOM     61  H   LIG d   1       6.038  -2.485  -3.966  0.00  0.00     0.064 H 
ATOM     62  C   LIG d   1       3.572  -0.888  -2.309  0.00  0.00    -0.062 A 
ATOM     63  H   LIG d   1       5.296  -1.982  -1.675  0.00  0.00     0.062 H 
ATOM     64  C   LIG d   1       2.836  -0.430  -3.387  0.00  0.00    -0.060 A 
ATOM     65  H   LIG d   1       3.247  -0.667  -1.303  0.00  0.00     0.062 H 
ATOM     66  C   LIG d   1       3.251  -0.704  -4.675  0.00  0.00    -0.040 A 
ATOM     67  H   LIG d   1       1.938   0.147  -3.221  0.00  0.00     0.062 H 
ATOM     68  H   LIG d   1       2.678  -0.343  -5.516  0.00  0.00     0.064 H 
ENDBRANCH   7  58
TORSDOF 6
ENDMDL
MODEL 2
REMARK VINA RESULT:      -7.5      2.357      5.753
REMARK  6 active torsions:
REMARK  status: ('A' for Active; 'I' for Inactive)
REMARK    1  A    between atoms: C_1  and  C_2 
REMARK    2  A    between atoms: C_5  and  C_8 
REMARK    3  A    between atoms: C_8  and  C_9 
REMARK    4  A    between atoms: C_9  and  C_24 
REMARK    5  A    between atoms: N_15  and  C_18 
REMARK    6  A    between atoms: C_24  and  N_25 
ROOT
ATOM      1  C   LIG d   1       7.567  -2.500  -7.298  0.00  0.00     0.117 A 
ATOM      2  C   LIG d   1       8.625  -1.621  -6.659  0.00  0.00    -0.022 A 
ATOM      3  O   LIG d   1       9.667  -2.088  -6.252  0.00  0.00    -0.864 OA
ATOM      4  N   LIG d   1       8.365  -0.300  -6.563  0.00  0.00    -0.182 NA
ATOM      5  C   LIG d   1       7.221   0.230  -7.009  0.00  0.00     0.336 A 
ATOM      6  O   LIG d   1       7.067   1.429  -6.882  0.00  0.00    -0.250 OA
ATOM      7  N   LIG d   1       6.232  -0.463  -7.585  0.00  0.00    -0.192 N 
ATOM      8  C   LIG d   1       6.308  -1.798  -7.770  0.00  0.00     0.243 A 
ATOM      9  O   LIG d   1       5.404  -2.413  -8.293  0.00  0.00    -0.274 OA
ENDROOT
BRANCH   1  10
ATOM     10  C   LIG d   1       7.163  -3.572  -6.284  0.00  0.00    -0.004 C 
ATOM     11  H   LIG d   1       8.065  -4.068  -5.897  0.00  0.00     0.033 H 
ATOM     12  H   LIG d   1       6.517  -4.316  -6.774  0.00  0.00     0.033 H 
BRANCH  10  13
ATOM     13  C   LIG d   1       6.414  -2.929  -5.145  0.00  0.00    -0.046 A 
ATOM     14  C   LIG d   1       7.111  -2.344  -4.104  0.00  0.00    -0.058 A 
ATOM     15  C   LIG d   1       6.424  -1.749  -3.062  0.00  0.00    -0.059 A 
ATOM     16  H   LIG d   1       8.190  -2.346  -4.107  0.00  0.00     0.062 H 
ATOM     17  C   LIG d   1       5.042  -1.750  -3.055  0.00  0.00    -0.050 A 
ATOM     18  H   LIG d   1       6.968  -1.287  -2.251  0.00  0.00     0.062 H 
ATOM     19  C   LIG d   1       4.345  -2.335  -4.096  0.00  0.00    -0.059 A 
ATOM     20  C   LIG d   1       5.032  -2.925  -5.141  0.00  0.00    -0.058 A 
ATOM     21  H   LIG d   1       3.266  -2.331  -4.093  0.00  0.00     0.062 H 
ATOM     22  H   LIG d   1       4.489  -3.382  -5.955  0.00  0.00     0.062 H 
BRANCH  17  23
ATOM     23  C   LIG d   1       4.293  -1.106  -1.917  0.00  0.00    -0.040 C 
ATOM     24  H   LIG d   1       4.238  -1.808  -1.071  0.00  0.00     0.028 H 
ATOM     25  H   LIG d   1       3.276  -0.849  -2.246  0.00  0.00     0.028 H 
ATOM     26  H   LIG d   1       4.819  -0.194  -1.602  0.00  0.00     0.028 H 
ENDBRANCH  17  23
ENDBRANCH  10  13
ENDBRANCH   1  10
BRANCH   1  27
ATOM     27  C   LIG d   1       8.195  -3.202  -8.503  0.00  0.00    -0.013 C 
ATOM     28  H   LIG d   1       8.056  -2.584  -9.402  0.00  0.00     0.083 H 
ATOM     29  H   LIG d   1       9.270  -3.349  -8.323  0.00  0.00     0.083 H 
BRANCH  27  30
ATOM     30  N   LIG d   1       7.550  -4.507  -8.702  0.00  0.00     0.237 N 
ATOM     31  C   LIG d   1       8.509  -5.604  -8.508  0.00  0.00    -0.024 C 
ATOM     32  C   LIG d   1       7.734  -6.930  -8.560  0.00  0.00     0.040 C 
ATOM     33  H   LIG d   1       9.266  -5.576  -9.306  0.00  0.00     0.082 H 
ATOM     34  H   LIG d   1       9.003  -5.491  -7.531  0.00  0.00     0.082 H 
ATOM     35  C   LIG d   1       7.162  -7.092  -9.973  0.00  0.00    -0.031 C 
ATOM     36  H   LIG d   1       8.369  -7.794  -8.310  0.00  0.00     0.042 H 
ATOM     37  C   LIG d   1       6.601  -6.835  -7.562  0.00  0.00     0.030 C 
ATOM     38  C   LIG d   1       6.196  -5.912 -10.205  0.00  0.00     0.018 C 
ATOM     39  H   LIG d   1       6.613  -8.040 -10.065  0.00  0.00     0.028 H 
ATOM     40  H   LIG d   1       7.967  -7.061 -10.723  0.00  0.00     0.028 H 
ATOM     41  C   LIG d   1       6.917  -4.585 -10.023  0.00  0.00    -0.027 C 
ATOM     42  H   LIG d   1       5.818  -5.929 -11.238  0.00  0.00     0.037 H 
ATOM     43  C   LIG d   1       5.000  -6.038  -9.276  0.00  0.00     0.034 C 
ATOM     44  H   LIG d   1       6.186  -3.769 -10.127  0.00  0.00     0.082 H 
ATOM     45  H   LIG d   1       7.686  -4.491 -10.803  0.00  0.00     0.082 H 
ATOM     46  N   LIG d   1       5.393  -6.324  -7.897  0.00  0.00    -0.311 N 
ATOM     47  H   LIG d   1       4.433  -5.095  -9.279  0.00  0.00     0.050 H 
ATOM     48  H   LIG d   1       4.351  -6.856  -9.623  0.00  0.00     0.050 H 
ATOM     49  C   LIG d   1       4.462  -6.110  -6.936  0.00  0.00     0.252 C 
ATOM     50  C   LIG d   1       4.668  -6.568  -5.626  0.00  0.00     0.003 C 
ATOM     51  O   LIG d   1       3.434  -5.514  -7.212  0.00  0.00    -0.268 OA
ATOM     52  C   LIG d   1       5.852  -7.168  -5.312  0.00  0.00    -0.055 C 
ATOM     53  H   LIG d   1       3.961  -6.460  -4.927  0.00  0.00     0.067 H 
ATOM     54  C   LIG d   1       6.835  -7.286  -6.301  0.00  0.00    -0.042 C 
ATOM     55  H   LIG d   1       6.007  -7.515  -4.386  0.00  0.00     0.062 H 
ATOM     56  H   LIG d   1       7.714  -7.707  -6.075  0.00  0.00     0.064 H 
ATOM     57  H   LIG d   1       6.758  -4.612  -7.946  0.00  0.00     0.203 HD
ENDBRANCH  27  30
ENDBRANCH   1  27
BRANCH   7  58
ATOM     58  C   LIG d   1       5.081   0.218  -8.008  0.00  0.00     0.045 A 
ATOM     59  C   LIG d   1       5.096   0.938  -9.196  0.00  0.00    -0.040 A 
ATOM     60  C   LIG d   1       3.961   1.608  -9.610  0.00  0.00    -0.060 A 
ATOM     61  H   LIG d   1       5.994   0.974  -9.794  0.00  0.00     0.064 H 
ATOM     62  C   LIG d   1       2.811   1.562  -8.844  0.00  0.00    -0.062 A 
ATOM     63  H   LIG d   1       3.973   2.168 -10.533  0.00  0.00     0.062 H 
ATOM     64  C   LIG d   1       2.793   0.845  -7.661  0.00  0.00    -0.060 A 
ATOM     65  H   LIG d   1       1.925   2.086  -9.170  0.00  0.00     0.062 H 
ATOM     66  C   LIG d   1       3.922   0.169  -7.244  0.00  0.00    -0.040 A 
ATOM     67  H   LIG d   1       1.893   0.811  -7.065  0.00  0.00     0.062 H 
ATOM     68  H   LIG d   1       3.907  -0.394  -6.323  0.00  0.00     0.064 H 
ENDBRANCH   7  58
TORSDOF 6
ENDMDL
MODEL 3
REMARK VINA RESULT:      -7.5      1.819      4.417
REMARK  6 active torsions:
REMARK  status: ('A' for Active; 'I' for Inactive)
REMARK    1  A    between atoms: C_1  and  C_2 
REMARK    2  A    between atoms: C_5  and  C_8 
REMARK    3  A    between atoms: C_8  and  C_9 
REMARK    4  A    between atoms: C_9  and  C_24 
REMARK    5  A    between atoms: N_15  and  C_18 
REMARK    6  A    between atoms: C_24  and  N_25 
ROOT
ATOM      1  C   LIG d   1       5.327  -2.577  -6.899  0.00  0.00     0.117 A 
ATOM      2  C   LIG d   1       5.092  -3.457  -5.686  0.00  0.00    -0.022 A 
ATOM      3  O   LIG d   1       4.005  -3.947  -5.468  0.00  0.00    -0.864 OA
ATOM      4  N   LIG d   1       6.137  -3.675  -4.861  0.00  0.00    -0.182 NA
ATOM      5  C   LIG d   1       7.342  -3.142  -5.089  0.00  0.00     0.336 A 
ATOM      6  O   LIG d   1       8.228  -3.389  -4.294  0.00  0.00    -0.250 OA
ATOM      7  N   LIG d   1       7.645  -2.356  -6.128  0.00  0.00    -0.192 N 
ATOM      8  C   LIG d   1       6.730  -2.024  -7.064  0.00  0.00     0.243 A 
ATOM      9  O   LIG d   1       7.019  -1.311  -8.000  0.00  0.00    -0.274 OA
ENDROOT
BRANCH   1  10
ATOM     10  C   LIG d   1       4.356  -1.397  -6.826  0.00  0.00    -0.004 C 
ATOM     11  H   LIG d   1       3.334  -1.751  -7.027  0.00  0.00     0.033 H 
ATOM     12  H   LIG d   1       4.637  -0.644  -7.578  0.00  0.00     0.033 H 
BRANCH  10  13
ATOM     13  C   LIG d   1       4.415  -0.781  -5.452  0.00  0.00    -0.046 A 
ATOM     14  C   LIG d   1       3.319  -0.859  -4.613  0.00  0.00    -0.058 A 
ATOM     15  C   LIG d   1       3.376  -0.299  -3.350  0.00  0.00    -0.059 A 
ATOM     16  H   LIG d   1       2.422  -1.361  -4.941  0.00  0.00     0.062 H 
ATOM     17  C   LIG d   1       4.523   0.348  -2.931  0.00  0.00    -0.050 A 
ATOM     18  H   LIG d   1       2.521  -0.363  -2.692  0.00  0.00     0.062 H 
ATOM     19  C   LIG d   1       5.619   0.426  -3.770  0.00  0.00    -0.059 A 
ATOM     20  C   LIG d   1       5.565  -0.139  -5.031  0.00  0.00    -0.058 A 
ATOM     21  H   LIG d   1       6.516   0.927  -3.441  0.00  0.00     0.062 H 
ATOM     22  H   LIG d   1       6.420  -0.079  -5.687  0.00  0.00     0.062 H 
BRANCH  17  23
ATOM     23  C   LIG d   1       4.583   0.963  -1.556  0.00  0.00    -0.040 C 
ATOM     24  H   LIG d   1       4.413   2.047  -1.632  0.00  0.00     0.028 H 
ATOM     25  H   LIG d   1       5.572   0.777  -1.115  0.00  0.00     0.028 H 
ATOM     26  H   LIG d   1       3.806   0.515  -0.920  0.00  0.00     0.028 H 
ENDBRANCH  17  23
ENDBRANCH  10  13
ENDBRANCH   1  10
BRANCH   1  27
ATOM     27  C   LIG d   1       4.991  -3.390  -8.150  0.00  0.00    -0.013 C 
ATOM     28  H   LIG d   1       5.872  -3.973  -8.457  0.00  0.00     0.083 H 
ATOM     29  H   LIG d   1       4.158  -4.074  -7.930  0.00  0.00     0.083 H 
BRANCH  27  30
ATOM     30  N   LIG d   1       4.602  -2.480  -9.236  0.00  0.00     0.237 N 
ATOM     31  C   LIG d   1       3.165  -2.590  -9.527  0.00  0.00    -0.024 C 
ATOM     32  C   LIG d   1       2.799  -1.497 -10.544  0.00  0.00     0.040 C 
ATOM     33  H   LIG d   1       2.950  -3.585  -9.945  0.00  0.00     0.082 H 
ATOM     34  H   LIG d   1       2.591  -2.452  -8.597  0.00  0.00     0.082 H 
ATOM     35  C   LIG d   1       3.535  -1.800 -11.853  0.00  0.00    -0.031 C 
ATOM     36  H   LIG d   1       1.715  -1.445 -10.725  0.00  0.00     0.042 H 
ATOM     37  C   LIG d   1       3.279  -0.176  -9.985  0.00  0.00     0.030 C 
ATOM     38  C   LIG d   1       5.045  -1.742 -11.544  0.00  0.00     0.018 C 
ATOM     39  H   LIG d   1       3.288  -1.052 -12.621  0.00  0.00     0.028 H 
ATOM     40  H   LIG d   1       3.275  -2.804 -12.222  0.00  0.00     0.028 H 
ATOM     41  C   LIG d   1       5.405  -2.724 -10.439  0.00  0.00    -0.027 C 
ATOM     42  H   LIG d   1       5.626  -2.035 -12.431  0.00  0.00     0.037 H 
ATOM     43  C   LIG d   1       5.441  -0.319 -11.186  0.00  0.00     0.034 C 
ATOM     44  H   LIG d   1       6.472  -2.608 -10.197  0.00  0.00     0.082 H 
ATOM     45  H   LIG d   1       5.221  -3.746 -10.802  0.00  0.00     0.082 H 
ATOM     46  N   LIG d   1       4.531   0.285 -10.213  0.00  0.00    -0.311 N 
ATOM     47  H   LIG d   1       6.452  -0.318 -10.751  0.00  0.00     0.050 H 
ATOM     48  H   LIG d   1       5.432   0.304 -12.093  0.00  0.00     0.050 H 
ATOM     49  C   LIG d   1       4.970   1.391  -9.564  0.00  0.00     0.252 C 
ATOM     50  C   LIG d   1       4.091   2.163  -8.791  0.00  0.00     0.003 C 
ATOM     51  O   LIG d   1       6.142   1.719  -9.654  0.00  0.00    -0.268 OA
ATOM     52  C   LIG d   1       2.801   1.745  -8.638  0.00  0.00    -0.055 C 
ATOM     53  H   LIG d   1       4.399   3.009  -8.355  0.00  0.00     0.067 H 
ATOM     54  C   LIG d   1       2.402   0.547  -9.238  0.00  0.00    -0.042 C 
ATOM     55  H   LIG d   1       2.158   2.294  -8.103  0.00  0.00     0.062 H 
ATOM     56  H   LIG d   1       1.464   0.222  -9.116  0.00  0.00     0.064 H 
ATOM     57  H   LIG d   1       4.803  -1.451  -8.905  0.00  0.00     0.203 HD
ENDBRANCH  27  30
ENDBRANCH   1  27
BRANCH   7  58
ATOM     58  C   LIG d   1       8.952  -1.861  -6.249  0.00  0.00     0.045 A 
ATOM     59  C   LIG d   1       9.296  -0.655  -5.652  0.00  0.00    -0.040 A 
ATOM     60  C   LIG d   1      10.584  -0.169  -5.773  0.00  0.00    -0.060 A 
ATOM     61  H   LIG d   1       8.558  -0.098  -5.093  0.00  0.00     0.064 H 
ATOM     62  C   LIG d   1      11.528  -0.882  -6.487  0.00  0.00    -0.062 A 
ATOM     63  H   LIG d   1      10.852   0.768  -5.308  0.00  0.00     0.062 H 
ATOM     64  C   LIG d   1      11.188  -2.084  -7.082  0.00  0.00    -0.060 A 
ATOM     65  H   LIG d   1      12.535  -0.501  -6.580  0.00  0.00     0.062 H 
ATOM     66  C   LIG d   1       9.905  -2.577  -6.960  0.00  0.00    -0.040 A 
ATOM     67  H   LIG d   1      11.929  -2.638  -7.639  0.00  0.00     0.062 H 
ATOM     68  H   LIG d   1       9.641  -3.517  -7.422  0.00  0.00     0.064 H 
ENDBRANCH   7  58
TORSDOF 6
ENDMDL
MODEL 4
REMARK VINA RESULT:      -7.5      2.595      5.864
REMARK  6 active torsions:
REMARK  status: ('A' for Active; 'I' for Inactive)
REMARK    1  A    between atoms: C_1  and  C_2 
REMARK    2  A    between atoms: C_5  and  C_8 
REMARK    3  A    between atoms: C_8  and  C_9 
REMARK    4  A    between atoms: C_9  and  C_24 
REMARK    5  A    between atoms: N_15  and  C_18 
REMARK    6  A    between atoms: C_24  and  N_25 
ROOT
ATOM      1  C   LIG d   1       7.179  -2.537  -5.958  0.00  0.00     0.117 A 
ATOM      2  C   LIG d   1       6.510  -3.892  -5.825  0.00  0.00    -0.022 A 
ATOM      3  O   LIG d   1       6.944  -4.866  -6.402  0.00  0.00    -0.864 OA
ATOM      4  N   LIG d   1       5.416  -3.973  -5.039  0.00  0.00    -0.182 NA
ATOM      5  C   LIG d   1       4.926  -2.907  -4.395  0.00  0.00     0.336 A 
ATOM      6  O   LIG d   1       3.936  -3.069  -3.710  0.00  0.00    -0.250 OA
ATOM      7  N   LIG d   1       5.446  -1.676  -4.451  0.00  0.00    -0.192 N 
ATOM      8  C   LIG d   1       6.543  -1.396  -5.186  0.00  0.00     0.243 A 
ATOM      9  O   LIG d   1       7.004  -0.276  -5.228  0.00  0.00    -0.274 OA
ENDROOT
BRANCH   1  10
ATOM     10  C   LIG d   1       7.195  -2.158  -7.440  0.00  0.00    -0.004 C 
ATOM     11  H   LIG d   1       7.550  -3.014  -8.033  0.00  0.00     0.033 H 
ATOM     12  H   LIG d   1       7.870  -1.303  -7.593  0.00  0.00     0.033 H 
BRANCH  10  13
ATOM     13  C   LIG d   1       5.803  -1.784  -7.879  0.00  0.00    -0.046 A 
ATOM     14  C   LIG d   1       4.929  -2.763  -8.311  0.00  0.00    -0.058 A 
ATOM     15  C   LIG d   1       3.649  -2.421  -8.708  0.00  0.00    -0.059 A 
ATOM     16  H   LIG d   1       5.243  -3.796  -8.334  0.00  0.00     0.062 H 
ATOM     17  C   LIG d   1       3.249  -1.098  -8.682  0.00  0.00    -0.050 A 
ATOM     18  H   LIG d   1       2.964  -3.187  -9.041  0.00  0.00     0.062 H 
ATOM     19  C   LIG d   1       4.123  -0.119  -8.250  0.00  0.00    -0.059 A 
ATOM     20  C   LIG d   1       5.401  -0.462  -7.848  0.00  0.00    -0.058 A 
ATOM     21  H   LIG d   1       3.808   0.913  -8.226  0.00  0.00     0.062 H 
ATOM     22  H   LIG d   1       6.084   0.303  -7.510  0.00  0.00     0.062 H 
BRANCH  17  23
ATOM     23  C   LIG d   1       1.855  -0.724  -9.120  0.00  0.00    -0.040 C 
ATOM     24  H   LIG d   1       1.306  -0.297  -8.268  0.00  0.00     0.028 H 
ATOM     25  H   LIG d   1       1.331  -1.621  -9.480  0.00  0.00     0.028 H 
ATOM     26  H   LIG d   1       1.912   0.018  -9.928  0.00  0.00     0.028 H 
ENDBRANCH  17  23
ENDBRANCH  10  13
ENDBRANCH   1  10
BRANCH   1  27
ATOM     27  C   LIG d   1       8.629  -2.673  -5.489  0.00  0.00    -0.013 C 
ATOM     28  H   LIG d   1       8.688  -2.457  -4.412  0.00  0.00     0.083 H 
ATOM     29  H   LIG d   1       8.980  -3.699  -5.676  0.00  0.00     0.083 H 
BRANCH  27  30
ATOM     30  N   LIG d   1       9.474  -1.725  -6.227  0.00  0.00     0.237 N 
ATOM     31  C   LIG d   1      10.391  -2.431  -7.134  0.00  0.00    -0.024 C 
ATOM     32  C   LIG d   1      11.116  -1.381  -7.991  0.00  0.00     0.040 C 
ATOM     33  H   LIG d   1      11.119  -3.008  -6.544  0.00  0.00     0.082 H 
ATOM     34  H   LIG d   1       9.816  -3.115  -7.777  0.00  0.00     0.082 H 
ATOM     35  C   LIG d   1      11.989  -0.529  -7.062  0.00  0.00    -0.031 C 
ATOM     36  H   LIG d   1      11.738  -1.841  -8.773  0.00  0.00     0.042 H 
ATOM     37  C   LIG d   1      10.061  -0.511  -8.635  0.00  0.00     0.030 C 
ATOM     38  C   LIG d   1      11.038   0.172  -6.070  0.00  0.00     0.018 C 
ATOM     39  H   LIG d   1      12.544   0.227  -7.635  0.00  0.00     0.028 H 
ATOM     40  H   LIG d   1      12.697  -1.162  -6.506  0.00  0.00     0.028 H 
ATOM     41  C   LIG d   1      10.210  -0.851  -5.307  0.00  0.00    -0.027 C 
ATOM     42  H   LIG d   1      11.616   0.734  -5.323  0.00  0.00     0.037 H 
ATOM     43  C   LIG d   1      10.162   1.166  -6.815  0.00  0.00     0.034 C 
ATOM     44  H   LIG d   1       9.497  -0.316  -4.661  0.00  0.00     0.082 H 
ATOM     45  H   LIG d   1      10.884  -1.457  -4.685  0.00  0.00     0.082 H 
ATOM     46  N   LIG d   1       9.570   0.592  -8.023  0.00  0.00    -0.311 N 
ATOM     47  H   LIG d   1       9.342   1.495  -6.159  0.00  0.00     0.050 H 
ATOM     48  H   LIG d   1      10.766   2.036  -7.112  0.00  0.00     0.050 H 
ATOM     49  C   LIG d   1       8.515   1.250  -8.563  0.00  0.00     0.252 C 
ATOM     50  C   LIG d   1       8.033   0.906  -9.834  0.00  0.00     0.003 C 
ATOM     51  O   LIG d   1       7.980   2.151  -7.937  0.00  0.00    -0.268 OA
ATOM     52  C   LIG d   1       8.592  -0.150 -10.492  0.00  0.00    -0.055 C 
ATOM     53  H   LIG d   1       7.291   1.425 -10.259  0.00  0.00     0.067 H 
ATOM     54  C   LIG d   1       9.614  -0.873  -9.868  0.00  0.00    -0.042 C 
ATOM     55  H   LIG d   1       8.270  -0.396 -11.407  0.00  0.00     0.062 H 
ATOM     56  H   LIG d   1      10.017  -1.661 -10.334  0.00  0.00     0.064 H 
ATOM     57  H   LIG d   1       8.817  -1.089  -6.837  0.00  0.00     0.203 HD
ENDBRANCH  27  30
ENDBRANCH   1  27
BRANCH   7  58
ATOM     58  C   LIG d   1       4.832  -0.644  -3.726  0.00  0.00     0.045 A 
ATOM     59  C   LIG d   1       3.804   0.093  -4.301  0.00  0.00    -0.040 A 
ATOM     60  C   LIG d   1       3.201   1.109  -3.586  0.00  0.00    -0.060 A 
ATOM     61  H   LIG d   1       3.477  -0.128  -5.306  0.00  0.00     0.064 H 
ATOM     62  C   LIG d   1       3.620   1.392  -2.299  0.00  0.00    -0.062 A 
ATOM     63  H   LIG d   1       2.403   1.682  -4.032  0.00  0.00     0.062 H 
ATOM     64  C   LIG d   1       4.643   0.659  -1.723  0.00  0.00    -0.060 A 
ATOM     65  H   LIG d   1       3.147   2.187  -1.740  0.00  0.00     0.062 H 
ATOM     66  C   LIG d   1       5.245  -0.361  -2.432  0.00  0.00    -0.040 A 
ATOM     67  H   LIG d   1       4.967   0.882  -0.718  0.00  0.00     0.062 H 
ATOM     68  H   LIG d   1       6.041  -0.936  -1.981  0.00  0.00     0.064 H 
ENDBRANCH   7  58
TORSDOF 6
ENDMDL
MODEL 5
REMARK VINA RESULT:      -7.5      1.692      3.351
REMARK  6 active torsions:
REMARK  status: ('A' for Active; 'I' for Inactive)
REMARK    1  A    between atoms: C_1  and  C_2 
REMARK    2  A    between atoms: C_5  and  C_8 
REMARK    3  A    between atoms: C_8  and  C_9 
REMARK    4  A    between atoms: C_9  and  C_24 
REMARK    5  A    between atoms: N_15  and  C_18 
REMARK    6  A    between atoms: C_24  and  N_25 
ROOT
ATOM      1  C   LIG d   1       6.178  -0.339  -7.643  0.00  0.00     0.117 A 
ATOM      2  C   LIG d   1       7.621   0.129  -7.611  0.00  0.00    -0.022 A 
ATOM      3  O   LIG d   1       8.269   0.236  -8.631  0.00  0.00    -0.864 OA
ATOM      4  N   LIG d   1       8.156   0.422  -6.407  0.00  0.00    -0.182 NA
ATOM      5  C   LIG d   1       7.455   0.310  -5.274  0.00  0.00     0.336 A 
ATOM      6  O   LIG d   1       8.014   0.593  -4.234  0.00  0.00    -0.250 OA
ATOM      7  N   LIG d   1       6.181  -0.093  -5.202  0.00  0.00    -0.192 N 
ATOM      8  C   LIG d   1       5.474  -0.431  -6.302  0.00  0.00     0.243 A 
ATOM      9  O   LIG d   1       4.321  -0.793  -6.222  0.00  0.00    -0.274 OA
ENDROOT
BRANCH   1  10
ATOM     10  C   LIG d   1       6.141  -1.721  -8.297  0.00  0.00    -0.004 C 
ATOM     11  H   LIG d   1       6.714  -1.699  -9.235  0.00  0.00     0.033 H 
ATOM     12  H   LIG d   1       5.097  -1.997  -8.512  0.00  0.00     0.033 H 
BRANCH  10  13
ATOM     13  C   LIG d   1       6.744  -2.736  -7.361  0.00  0.00    -0.046 A 
ATOM     14  C   LIG d   1       8.114  -2.919  -7.332  0.00  0.00    -0.058 A 
ATOM     15  C   LIG d   1       8.669  -3.847  -6.470  0.00  0.00    -0.059 A 
ATOM     16  H   LIG d   1       8.751  -2.335  -7.979  0.00  0.00     0.062 H 
ATOM     17  C   LIG d   1       7.854  -4.598  -5.645  0.00  0.00    -0.050 A 
ATOM     18  H   LIG d   1       9.740  -3.986  -6.444  0.00  0.00     0.062 H 
ATOM     19  C   LIG d   1       6.484  -4.415  -5.673  0.00  0.00    -0.059 A 
ATOM     20  C   LIG d   1       5.929  -3.484  -6.532  0.00  0.00    -0.058 A 
ATOM     21  H   LIG d   1       5.848  -4.998  -5.025  0.00  0.00     0.062 H 
ATOM     22  H   LIG d   1       4.859  -3.340  -6.555  0.00  0.00     0.062 H 
BRANCH  17  23
ATOM     23  C   LIG d   1       8.458  -5.612  -4.708  0.00  0.00    -0.040 C 
ATOM     24  H   LIG d   1       8.592  -6.567  -5.238  0.00  0.00     0.028 H 
ATOM     25  H   LIG d   1       7.789  -5.762  -3.849  0.00  0.00     0.028 H 
ATOM     26  H   LIG d   1       9.434  -5.250  -4.355  0.00  0.00     0.028 H 
ENDBRANCH  17  23
ENDBRANCH  10  13
ENDBRANCH   1  10
BRANCH   1  27
ATOM     27  C   LIG d   1       5.385   0.625  -8.527  0.00  0.00    -0.013 C 
ATOM     28  H   LIG d   1       4.778   1.289  -7.895  0.00  0.00     0.083 H 
ATOM     29  H   LIG d   1       6.081   1.227  -9.129  0.00  0.00     0.083 H 
BRANCH  27  30
ATOM     30  N   LIG d   1       4.504  -0.142  -9.419  0.00  0.00     0.237 N 
ATOM     31  C   LIG d   1       4.848   0.096 -10.830  0.00  0.00    -0.024 C 
ATOM     32  C   LIG d   1       4.008  -0.861 -11.692  0.00  0.00     0.040 C 
ATOM     33  H   LIG d   1       4.621   1.140 -11.092  0.00  0.00     0.082 H 
ATOM     34  H   LIG d   1       5.920  -0.097 -10.983  0.00  0.00     0.082 H 
ATOM     35  C   LIG d   1       2.533  -0.478 -11.529  0.00  0.00    -0.031 C 
ATOM     36  H   LIG d   1       4.292  -0.821 -12.754  0.00  0.00     0.042 H 
ATOM     37  C   LIG d   1       4.230  -2.262 -11.165  0.00  0.00     0.030 C 
ATOM     38  C   LIG d   1       2.180  -0.670 -10.040  0.00  0.00     0.018 C 
ATOM     39  H   LIG d   1       1.892  -1.125 -12.145  0.00  0.00     0.028 H 
ATOM     40  H   LIG d   1       2.372   0.574 -11.811  0.00  0.00     0.028 H 
ATOM     41  C   LIG d   1       3.094   0.168  -9.159  0.00  0.00    -0.027 C 
ATOM     42  H   LIG d   1       1.152  -0.329  -9.846  0.00  0.00     0.037 H 
ATOM     43  C   LIG d   1       2.248  -2.146  -9.682  0.00  0.00     0.034 C 
ATOM     44  H   LIG d   1       2.861  -0.045  -8.105  0.00  0.00     0.082 H 
ATOM     45  H   LIG d   1       2.908   1.231  -9.368  0.00  0.00     0.082 H 
ATOM     46  N   LIG d   1       3.471  -2.781 -10.172  0.00  0.00    -0.311 N 
ATOM     47  H   LIG d   1       2.220  -2.259  -8.589  0.00  0.00     0.050 H 
ATOM     48  H   LIG d   1       1.390  -2.671 -10.127  0.00  0.00     0.050 H 
ATOM     49  C   LIG d   1       3.805  -3.975  -9.623  0.00  0.00     0.252 C 
ATOM     50  C   LIG d   1       4.824  -4.760 -10.184  0.00  0.00     0.003 C 
ATOM     51  O   LIG d   1       3.214  -4.371  -8.632  0.00  0.00    -0.268 OA
ATOM     52  C   LIG d   1       5.527  -4.273 -11.246  0.00  0.00    -0.055 C 
ATOM     53  H   LIG d   1       5.036  -5.665  -9.815  0.00  0.00     0.067 H 
ATOM     54  C   LIG d   1       5.226  -2.995 -11.729  0.00  0.00    -0.042 C 
ATOM     55  H   LIG d   1       6.245  -4.828 -11.667  0.00  0.00     0.062 H 
ATOM     56  H   LIG d   1       5.749  -2.622 -12.496  0.00  0.00     0.064 H 
ATOM     57  H   LIG d   1       4.655  -1.210  -9.209  0.00  0.00     0.203 HD
ENDBRANCH  27  30
ENDBRANCH   1  27
BRANCH   7  58
ATOM     58  C   LIG d   1       5.561  -0.168  -3.947  0.00  0.00     0.045 A 
ATOM     59  C   LIG d   1       5.348  -1.404  -3.349  0.00  0.00    -0.040 A 
ATOM     60  C   LIG d   1       4.737  -1.475  -2.112  0.00  0.00    -0.060 A 
ATOM     61  H   LIG d   1       5.661  -2.307  -3.850  0.00  0.00     0.064 H 
ATOM     62  C   LIG d   1       4.337  -0.318  -1.470  0.00  0.00    -0.062 A 
ATOM     63  H   LIG d   1       4.572  -2.435  -1.647  0.00  0.00     0.062 H 
ATOM     64  C   LIG d   1       4.547   0.914  -2.063  0.00  0.00    -0.060 A 
ATOM     65  H   LIG d   1       3.859  -0.376  -0.503  0.00  0.00     0.062 H 
ATOM     66  C   LIG d   1       5.163   0.992  -3.296  0.00  0.00    -0.040 A 
ATOM     67  H   LIG d   1       4.234   1.816  -1.559  0.00  0.00     0.062 H 
ATOM     68  H   LIG d   1       5.331   1.954  -3.757  0.00  0.00     0.064 H 
ENDBRANCH   7  58
TORSDOF 6
ENDMDL
MODEL 6
REMARK VINA RESULT:      -7.4      1.965      3.793
REMARK  6 active torsions:
REMARK  status: ('A' for Active; 'I' for Inactive)
REMARK    1  A    between atoms: C_1  and  C_2 
REMARK    2  A    between atoms: C_5  and  C_8 
REMARK    3  A    between atoms: C_8  and  C_9 
REMARK    4  A    between atoms: C_9  and  C_24 
REMARK    5  A    between atoms: N_15  and  C_18 
REMARK    6  A    between atoms: C_24  and  N_25 
ROOT
ATOM      1  C   LIG d   1       5.935  -1.717  -7.700  0.00  0.00     0.117 A 
ATOM      2  C   LIG d   1       7.303  -2.366  -7.601  0.00  0.00    -0.022 A 
ATOM      3  O   LIG d   1       7.874  -2.782  -8.587  0.00  0.00    -0.864 OA
ATOM      4  N   LIG d   1       7.861  -2.463  -6.376  0.00  0.00    -0.182 NA
ATOM      5  C   LIG d   1       7.245  -2.008  -5.280  0.00  0.00     0.336 A 
ATOM      6  O   LIG d   1       7.818  -2.136  -4.216  0.00  0.00    -0.250 OA
ATOM      7  N   LIG d   1       6.041  -1.423  -5.267  0.00  0.00    -0.192 N 
ATOM      8  C   LIG d   1       5.326  -1.236  -6.397  0.00  0.00     0.243 A 
ATOM      9  O   LIG d   1       4.237  -0.705  -6.371  0.00  0.00    -0.274 OA
ENDROOT
BRANCH   1  10
ATOM     10  C   LIG d   1       4.975  -2.727  -8.332  0.00  0.00    -0.004 C 
ATOM     11  H   LIG d   1       5.265  -2.905  -9.377  0.00  0.00     0.033 H 
ATOM     12  H   LIG d   1       3.950  -2.327  -8.299  0.00  0.00     0.033 H 
BRANCH  10  13
ATOM     13  C   LIG d   1       5.032  -4.023  -7.565  0.00  0.00    -0.046 A 
ATOM     14  C   LIG d   1       4.386  -4.134  -6.348  0.00  0.00    -0.058 A 
ATOM     15  C   LIG d   1       4.434  -5.325  -5.647  0.00  0.00    -0.059 A 
ATOM     16  H   LIG d   1       3.841  -3.293  -5.947  0.00  0.00     0.062 H 
ATOM     17  C   LIG d   1       5.136  -6.400  -6.158  0.00  0.00    -0.050 A 
ATOM     18  H   LIG d   1       3.925  -5.413  -4.698  0.00  0.00     0.062 H 
ATOM     19  C   LIG d   1       5.781  -6.289  -7.375  0.00  0.00    -0.059 A 
ATOM     20  C   LIG d   1       5.730  -5.100  -8.079  0.00  0.00    -0.058 A 
ATOM     21  H   LIG d   1       6.325  -7.130  -7.776  0.00  0.00     0.062 H 
ATOM     22  H   LIG d   1       6.233  -5.013  -9.030  0.00  0.00     0.062 H 
BRANCH  17  23
ATOM     23  C   LIG d   1       5.192  -7.697  -5.391  0.00  0.00    -0.040 C 
ATOM     24  H   LIG d   1       5.719  -7.537  -4.439  0.00  0.00     0.028 H 
ATOM     25  H   LIG d   1       5.729  -8.450  -5.985  0.00  0.00     0.028 H 
ATOM     26  H   LIG d   1       4.170  -8.048  -5.190  0.00  0.00     0.028 H 
ENDBRANCH  17  23
ENDBRANCH  10  13
ENDBRANCH   1  10
BRANCH   1  27
ATOM     27  C   LIG d   1       6.045  -0.516  -8.641  0.00  0.00    -0.013 C 
ATOM     28  H   LIG d   1       5.654   0.381  -8.139  0.00  0.00     0.083 H 
ATOM     29  H   LIG d   1       7.100  -0.355  -8.909  0.00  0.00     0.083 H 
BRANCH  27  30
ATOM     30  N   LIG d   1       5.266  -0.776  -9.860  0.00  0.00     0.237 N 
ATOM     31  C   LIG d   1       6.148  -0.930 -11.026  0.00  0.00    -0.024 C 
ATOM     32  C   LIG d   1       5.286  -1.366 -12.221  0.00  0.00     0.040 C 
ATOM     33  H   LIG d   1       6.640   0.030 -11.243  0.00  0.00     0.082 H 
ATOM     34  H   LIG d   1       6.912  -1.692 -10.810  0.00  0.00     0.082 H 
ATOM     35  C   LIG d   1       4.318  -0.224 -12.552  0.00  0.00    -0.031 C 
ATOM     36  H   LIG d   1       5.894  -1.611 -13.105  0.00  0.00     0.042 H 
ATOM     37  C   LIG d   1       4.503  -2.588 -11.796  0.00  0.00     0.030 C 
ATOM     38  C   LIG d   1       3.425  -0.019 -11.310  0.00  0.00     0.018 C 
ATOM     39  H   LIG d   1       3.690  -0.484 -13.416  0.00  0.00     0.028 H 
ATOM     40  H   LIG d   1       4.870   0.704 -12.764  0.00  0.00     0.028 H 
ATOM     41  C   LIG d   1       4.273   0.280 -10.083  0.00  0.00    -0.027 C 
ATOM     42  H   LIG d   1       2.763   0.847 -11.458  0.00  0.00     0.037 H 
ATOM     43  C   LIG d   1       2.544  -1.240 -11.104  0.00  0.00     0.034 C 
ATOM     44  H   LIG d   1       3.612   0.353  -9.207  0.00  0.00     0.082 H 
ATOM     45  H   LIG d   1       4.787   1.241 -10.235  0.00  0.00     0.082 H 
ATOM     46  N   LIG d   1       3.296  -2.491 -11.193  0.00  0.00    -0.311 N 
ATOM     47  H   LIG d   1       2.079  -1.192 -10.108  0.00  0.00     0.050 H 
ATOM     48  H   LIG d   1       1.758  -1.259 -11.874  0.00  0.00     0.050 H 
ATOM     49  C   LIG d   1       2.704  -3.600 -10.686  0.00  0.00     0.252 C 
ATOM     50  C   LIG d   1       3.244  -4.872 -10.928  0.00  0.00     0.003 C 
ATOM     51  O   LIG d   1       1.692  -3.492 -10.013  0.00  0.00    -0.268 OA
ATOM     52  C   LIG d   1       4.415  -4.975 -11.619  0.00  0.00    -0.055 C 
ATOM     53  H   LIG d   1       2.780  -5.696 -10.602  0.00  0.00     0.067 H 
ATOM     54  C   LIG d   1       5.055  -3.806 -12.044  0.00  0.00    -0.042 C 
ATOM     55  H   LIG d   1       4.803  -5.876 -11.814  0.00  0.00     0.062 H 
ATOM     56  H   LIG d   1       5.925  -3.870 -12.535  0.00  0.00     0.064 H 
ATOM     57  H   LIG d   1       4.722  -1.721  -9.719  0.00  0.00     0.203 HD
ENDBRANCH  27  30
ENDBRANCH   1  27
BRANCH   7  58
ATOM     58  C   LIG d   1       5.507  -0.991  -4.045  0.00  0.00     0.045 A 
ATOM     59  C   LIG d   1       5.724   0.311  -3.612  0.00  0.00    -0.040 A 
ATOM     60  C   LIG d   1       5.197   0.733  -2.407  0.00  0.00    -0.060 A 
ATOM     61  H   LIG d   1       6.303   0.992  -4.217  0.00  0.00     0.064 H 
ATOM     62  C   LIG d   1       4.454  -0.139  -1.633  0.00  0.00    -0.062 A 
ATOM     63  H   LIG d   1       5.365   1.745  -2.071  0.00  0.00     0.062 H 
ATOM     64  C   LIG d   1       4.236  -1.436  -2.061  0.00  0.00    -0.060 A 
ATOM     65  H   LIG d   1       4.042   0.194  -0.691  0.00  0.00     0.062 H 
ATOM     66  C   LIG d   1       4.756  -1.862  -3.267  0.00  0.00    -0.040 A 
ATOM     67  H   LIG d   1       3.655  -2.114  -1.454  0.00  0.00     0.062 H 
ATOM     68  H   LIG d   1       4.582  -2.874  -3.604  0.00  0.00     0.064 H 
ENDBRANCH   7  58
TORSDOF 6
ENDMDL
MODEL 7
REMARK VINA RESULT:      -7.3      2.254      5.146
REMARK  6 active torsions:
REMARK  status: ('A' for Active; 'I' for Inactive)
REMARK    1  A    between atoms: C_1  and  C_2 
REMARK    2  A    between atoms: C_5  and  C_8 
REMARK    3  A    between atoms: C_8  and  C_9 
REMARK    4  A    between atoms: C_9  and  C_24 
REMARK    5  A    between atoms: N_15  and  C_18 
REMARK    6  A    between atoms: C_24  and  N_25 
ROOT
ATOM      1  C   LIG d   1       4.311  -1.942  -7.922  0.00  0.00     0.117 A 
ATOM      2  C   LIG d   1       3.543  -0.882  -8.689  0.00  0.00    -0.022 A 
ATOM      3  O   LIG d   1       3.364  -0.978  -9.884  0.00  0.00    -0.864 OA
ATOM      4  N   LIG d   1       3.067   0.170  -7.991  0.00  0.00    -0.182 NA
ATOM      5  C   LIG d   1       3.256   0.290  -6.672  0.00  0.00     0.336 A 
ATOM      6  O   LIG d   1       2.793   1.270  -6.123  0.00  0.00    -0.250 OA
ATOM      7  N   LIG d   1       3.917  -0.591  -5.913  0.00  0.00    -0.192 N 
ATOM      8  C   LIG d   1       4.468  -1.710  -6.431  0.00  0.00     0.243 A 
ATOM      9  O   LIG d   1       5.064  -2.500  -5.732  0.00  0.00    -0.274 OA
ENDROOT
BRANCH   1  10
ATOM     10  C   LIG d   1       5.708  -2.055  -8.536  0.00  0.00    -0.004 C 
ATOM     11  H   LIG d   1       5.622  -2.144  -9.629  0.00  0.00     0.033 H 
ATOM     12  H   LIG d   1       6.214  -2.945  -8.135  0.00  0.00     0.033 H 
BRANCH  10  13
ATOM     13  C   LIG d   1       6.508  -0.825  -8.193  0.00  0.00    -0.046 A 
ATOM     14  C   LIG d   1       7.345  -0.832  -7.092  0.00  0.00    -0.058 A 
ATOM     15  C   LIG d   1       8.084   0.294  -6.780  0.00  0.00    -0.059 A 
ATOM     16  H   LIG d   1       7.425  -1.717  -6.479  0.00  0.00     0.062 H 
ATOM     17  C   LIG d   1       7.978   1.429  -7.562  0.00  0.00    -0.050 A 
ATOM     18  H   LIG d   1       8.741   0.288  -5.923  0.00  0.00     0.062 H 
ATOM     19  C   LIG d   1       7.142   1.436  -8.662  0.00  0.00    -0.059 A 
ATOM     20  C   LIG d   1       6.407   0.308  -8.978  0.00  0.00    -0.058 A 
ATOM     21  H   LIG d   1       7.063   2.320  -9.276  0.00  0.00     0.062 H 
ATOM     22  H   LIG d   1       5.754   0.312  -9.838  0.00  0.00     0.062 H 
BRANCH  17  23
ATOM     23  C   LIG d   1       8.780   2.659  -7.219  0.00  0.00    -0.040 C 
ATOM     24  H   LIG d   1       8.103   3.518  -7.107  0.00  0.00     0.028 H 
ATOM     25  H   LIG d   1       9.501   2.862  -8.023  0.00  0.00     0.028 H 
ATOM     26  H   LIG d   1       9.320   2.493  -6.276  0.00  0.00     0.028 H 
ENDBRANCH  17  23
ENDBRANCH  10  13
ENDBRANCH   1  10
BRANCH   1  27
ATOM     27  C   LIG d   1       3.599  -3.281  -8.119  0.00  0.00    -0.013 C 
ATOM     28  H   LIG d   1       2.726  -3.335  -7.451  0.00  0.00     0.083 H 
ATOM     29  H   LIG d   1       3.266  -3.370  -9.164  0.00  0.00     0.083 H 
BRANCH  27  30
ATOM     30  N   LIG d   1       4.524  -4.379  -7.805  0.00  0.00     0.237 N 
ATOM     31  C   LIG d   1       4.963  -5.064  -9.031  0.00  0.00    -0.024 C 
ATOM     32  C   LIG d   1       6.051  -6.079  -8.645  0.00  0.00     0.040 C 
ATOM     33  H   LIG d   1       4.107  -5.582  -9.488  0.00  0.00     0.082 H 
ATOM     34  H   LIG d   1       5.366  -4.325  -9.740  0.00  0.00     0.082 H 
ATOM     35  C   LIG d   1       5.411  -7.147  -7.751  0.00  0.00    -0.031 C 
ATOM     36  H   LIG d   1       6.509  -6.552  -9.526  0.00  0.00     0.042 H 
ATOM     37  C   LIG d   1       7.113  -5.334  -7.866  0.00  0.00     0.030 C 
ATOM     38  C   LIG d   1       4.897  -6.426  -6.487  0.00  0.00     0.018 C 
ATOM     39  H   LIG d   1       6.150  -7.909  -7.464  0.00  0.00     0.028 H 
ATOM     40  H   LIG d   1       4.567  -7.630  -8.267  0.00  0.00     0.028 H 
ATOM     41  C   LIG d   1       3.918  -5.323  -6.860  0.00  0.00    -0.027 C 
ATOM     42  H   LIG d   1       4.351  -7.131  -5.844  0.00  0.00     0.037 H 
ATOM     43  C   LIG d   1       6.073  -5.891  -5.687  0.00  0.00     0.034 C 
ATOM     44  H   LIG d   1       3.625  -4.787  -5.945  0.00  0.00     0.082 H 
ATOM     45  H   LIG d   1       3.029  -5.780  -7.317  0.00  0.00     0.082 H 
ATOM     46  N   LIG d   1       7.038  -5.178  -6.524  0.00  0.00    -0.311 N 
ATOM     47  H   LIG d   1       5.707  -5.194  -4.920  0.00  0.00     0.050 H 
ATOM     48  H   LIG d   1       6.597  -6.728  -5.201  0.00  0.00     0.050 H 
ATOM     49  C   LIG d   1       7.922  -4.370  -5.889  0.00  0.00     0.252 C 
ATOM     50  C   LIG d   1       9.019  -3.830  -6.577  0.00  0.00     0.003 C 
ATOM     51  O   LIG d   1       7.764  -4.112  -4.707  0.00  0.00    -0.268 OA
ATOM     52  C   LIG d   1       9.143  -4.067  -7.915  0.00  0.00    -0.055 C 
ATOM     53  H   LIG d   1       9.703  -3.279  -6.100  0.00  0.00     0.067 H 
ATOM     54  C   LIG d   1       8.161  -4.821  -8.564  0.00  0.00    -0.042 C 
ATOM     55  H   LIG d   1       9.929  -3.702  -8.416  0.00  0.00     0.062 H 
ATOM     56  H   LIG d   1       8.234  -4.984  -9.548  0.00  0.00     0.064 H 
ATOM     57  H   LIG d   1       5.412  -3.947  -7.322  0.00  0.00     0.203 HD
ENDBRANCH  27  30
ENDBRANCH   1  27
BRANCH   7  58
ATOM     58  C   LIG d   1       4.045  -0.345  -4.539  0.00  0.00     0.045 A 
ATOM     59  C   LIG d   1       3.039  -0.740  -3.666  0.00  0.00    -0.040 A 
ATOM     60  C   LIG d   1       3.167  -0.496  -2.312  0.00  0.00    -0.060 A 
ATOM     61  H   LIG d   1       2.160  -1.239  -4.045  0.00  0.00     0.064 H 
ATOM     62  C   LIG d   1       4.293   0.141  -1.827  0.00  0.00    -0.062 A 
ATOM     63  H   LIG d   1       2.386  -0.804  -1.633  0.00  0.00     0.062 H 
ATOM     64  C   LIG d   1       5.296   0.536  -2.694  0.00  0.00    -0.060 A 
ATOM     65  H   LIG d   1       4.391   0.331  -0.768  0.00  0.00     0.062 H 
ATOM     66  C   LIG d   1       5.177   0.290  -4.047  0.00  0.00    -0.040 A 
ATOM     67  H   LIG d   1       6.175   1.034  -2.311  0.00  0.00     0.062 H 
ATOM     68  H   LIG d   1       5.962   0.594  -4.723  0.00  0.00     0.064 H 
ENDBRANCH   7  58
TORSDOF 6
ENDMDL
MODEL 8
REMARK VINA RESULT:      -7.2      2.414      3.319
REMARK  6 active torsions:
REMARK  status: ('A' for Active; 'I' for Inactive)
REMARK    1  A    between atoms: C_1  and  C_2 
REMARK    2  A    between atoms: C_5  and  C_8 
REMARK    3  A    between atoms: C_8  and  C_9 
REMARK    4  A    between atoms: C_9  and  C_24 
REMARK    5  A    between atoms: N_15  and  C_18 
REMARK    6  A    between atoms: C_24  and  N_25 
ROOT
ATOM      1  C   LIG d   1       6.981  -1.510  -7.582  0.00  0.00     0.117 A 
ATOM      2  C   LIG d   1       6.213  -0.471  -8.378  0.00  0.00    -0.022 A 
ATOM      3  O   LIG d   1       6.482  -0.245  -9.539  0.00  0.00    -0.864 OA
ATOM      4  N   LIG d   1       5.220   0.190  -7.747  0.00  0.00    -0.182 NA
ATOM      5  C   LIG d   1       4.911  -0.049  -6.468  0.00  0.00     0.336 A 
ATOM      6  O   LIG d   1       4.003   0.592  -5.978  0.00  0.00    -0.250 OA
ATOM      7  N   LIG d   1       5.529  -0.943  -5.688  0.00  0.00    -0.192 N 
ATOM      8  C   LIG d   1       6.550  -1.703  -6.140  0.00  0.00     0.243 A 
ATOM      9  O   LIG d   1       7.100  -2.509  -5.422  0.00  0.00    -0.274 OA
ENDROOT
BRANCH   1  10
ATOM     10  C   LIG d   1       8.459  -1.116  -7.589  0.00  0.00    -0.004 C 
ATOM     11  H   LIG d   1       8.793  -0.963  -8.625  0.00  0.00     0.033 H 
ATOM     12  H   LIG d   1       9.054  -1.918  -7.127  0.00  0.00     0.033 H 
BRANCH  10  13
ATOM     13  C   LIG d   1       8.643   0.158  -6.807  0.00  0.00    -0.046 A 
ATOM     14  C   LIG d   1       8.835   0.107  -5.438  0.00  0.00    -0.058 A 
ATOM     15  C   LIG d   1       9.011   1.276  -4.721  0.00  0.00    -0.059 A 
ATOM     16  H   LIG d   1       8.854  -0.845  -4.931  0.00  0.00     0.062 H 
ATOM     17  C   LIG d   1       8.982   2.496  -5.370  0.00  0.00    -0.050 A 
ATOM     18  H   LIG d   1       9.165   1.236  -3.653  0.00  0.00     0.062 H 
ATOM     19  C   LIG d   1       8.791   2.548  -6.738  0.00  0.00    -0.059 A 
ATOM     20  C   LIG d   1       8.621   1.378  -7.456  0.00  0.00    -0.058 A 
ATOM     21  H   LIG d   1       8.773   3.500  -7.246  0.00  0.00     0.062 H 
ATOM     22  H   LIG d   1       8.471   1.417  -8.525  0.00  0.00     0.062 H 
BRANCH  17  23
ATOM     23  C   LIG d   1       9.168   3.771  -4.588  0.00  0.00    -0.040 C 
ATOM     24  H   LIG d   1       9.758   3.563  -3.683  0.00  0.00     0.028 H 
ATOM     25  H   LIG d   1       8.185   4.171  -4.300  0.00  0.00     0.028 H 
ATOM     26  H   LIG d   1       9.697   4.508  -5.209  0.00  0.00     0.028 H 
ENDBRANCH  17  23
ENDBRANCH  10  13
ENDBRANCH   1  10
BRANCH   1  27
ATOM     27  C   LIG d   1       6.846  -2.854  -8.299  0.00  0.00    -0.013 C 
ATOM     28  H   LIG d   1       7.689  -2.986  -8.993  0.00  0.00     0.083 H 
ATOM     29  H   LIG d   1       6.851  -3.667  -7.558  0.00  0.00     0.083 H 
BRANCH  27  30
ATOM     30  N   LIG d   1       5.583  -2.885  -9.049  0.00  0.00     0.237 N 
ATOM     31  C   LIG d   1       4.475  -3.345  -8.197  0.00  0.00    -0.024 C 
ATOM     32  C   LIG d   1       3.168  -3.189  -8.991  0.00  0.00     0.040 C 
ATOM     33  H   LIG d   1       4.633  -4.400  -7.929  0.00  0.00     0.082 H 
ATOM     34  H   LIG d   1       4.439  -2.735  -7.282  0.00  0.00     0.082 H 
ATOM     35  C   LIG d   1       3.223  -4.141 -10.191  0.00  0.00    -0.031 C 
ATOM     36  H   LIG d   1       2.281  -3.407  -8.377  0.00  0.00     0.042 H 
ATOM     37  C   LIG d   1       3.100  -1.759  -9.480  0.00  0.00     0.030 C 
ATOM     38  C   LIG d   1       4.418  -3.700 -11.060  0.00  0.00     0.018 C 
ATOM     39  H   LIG d   1       2.297  -4.078 -10.780  0.00  0.00     0.028 H 
ATOM     40  H   LIG d   1       3.376  -5.178  -9.856  0.00  0.00     0.028 H 
ATOM     41  C   LIG d   1       5.706  -3.717 -10.251  0.00  0.00    -0.027 C 
ATOM     42  H   LIG d   1       4.559  -4.401 -11.896  0.00  0.00     0.037 H 
ATOM     43  C   LIG d   1       4.142  -2.328 -11.655  0.00  0.00     0.034 C 
ATOM     44  H   LIG d   1       6.523  -3.333 -10.880  0.00  0.00     0.082 H 
ATOM     45  H   LIG d   1       5.925  -4.754  -9.958  0.00  0.00     0.082 H 
ATOM     46  N   LIG d   1       3.648  -1.379 -10.657  0.00  0.00    -0.311 N 
ATOM     47  H   LIG d   1       5.070  -1.921 -12.082  0.00  0.00     0.050 H 
ATOM     48  H   LIG d   1       3.383  -2.418 -12.446  0.00  0.00     0.050 H 
ATOM     49  C   LIG d   1       3.705  -0.064 -10.981  0.00  0.00     0.252 C 
ATOM     50  C   LIG d   1       3.051   0.895 -10.193  0.00  0.00     0.003 C 
ATOM     51  O   LIG d   1       4.329   0.290 -11.968  0.00  0.00    -0.268 OA
ATOM     52  C   LIG d   1       2.418   0.496  -9.053  0.00  0.00    -0.055 C 
ATOM     53  H   LIG d   1       3.044   1.859 -10.459  0.00  0.00     0.067 H 
ATOM     54  C   LIG d   1       2.461  -0.854  -8.691  0.00  0.00    -0.042 C 
ATOM     55  H   LIG d   1       1.933   1.166  -8.489  0.00  0.00     0.062 H 
ATOM     56  H   LIG d   1       2.016  -1.153  -7.847  0.00  0.00     0.064 H 
ATOM     57  H   LIG d   1       5.357  -1.860  -9.375  0.00  0.00     0.203 HD
ENDBRANCH  27  30
ENDBRANCH   1  27
BRANCH   7  58
ATOM     58  C   LIG d   1       5.106  -1.095  -4.359  0.00  0.00     0.045 A 
ATOM     59  C   LIG d   1       5.461  -0.150  -3.405  0.00  0.00    -0.040 A 
ATOM     60  C   LIG d   1       5.043  -0.302  -2.097  0.00  0.00    -0.060 A 
ATOM     61  H   LIG d   1       6.062   0.702  -3.685  0.00  0.00     0.064 H 
ATOM     62  C   LIG d   1       4.273  -1.393  -1.738  0.00  0.00    -0.062 A 
ATOM     63  H   LIG d   1       5.318   0.432  -1.354  0.00  0.00     0.062 H 
ATOM     64  C   LIG d   1       3.918  -2.335  -2.687  0.00  0.00    -0.060 A 
ATOM     65  H   LIG d   1       3.947  -1.510  -0.715  0.00  0.00     0.062 H 
ATOM     66  C   LIG d   1       4.328  -2.186  -3.997  0.00  0.00    -0.040 A 
ATOM     67  H   LIG d   1       3.316  -3.186  -2.404  0.00  0.00     0.062 H 
ATOM     68  H   LIG d   1       4.047  -2.919  -4.738  0.00  0.00     0.064 H 
ENDBRANCH   7  58
TORSDOF 6
ENDMDL
MODEL 9
REMARK VINA RESULT:      -7.2      1.577      3.001
REMARK  6 active torsions:
REMARK  status: ('A' for Active; 'I' for Inactive)
REMARK    1  A    between atoms: C_1  and  C_2 
REMARK    2  A    between atoms: C_5  and  C_8 
REMARK    3  A    between atoms: C_8  and  C_9 
REMARK    4  A    between atoms: C_9  and  C_24 
REMARK    5  A    between atoms: N_15  and  C_18 
REMARK    6  A    between atoms: C_24  and  N_25 
ROOT
ATOM      1  C   LIG d   1       4.990  -3.241  -8.121  0.00  0.00     0.117 A 
ATOM      2  C   LIG d   1       5.706  -2.121  -8.851  0.00  0.00    -0.022 A 
ATOM      3  O   LIG d   1       6.096  -2.261  -9.990  0.00  0.00    -0.864 OA
ATOM      4  N   LIG d   1       5.891  -0.961  -8.186  0.00  0.00    -0.182 NA
ATOM      5  C   LIG d   1       5.466  -0.790  -6.929  0.00  0.00     0.336 A 
ATOM      6  O   LIG d   1       5.676   0.286  -6.405  0.00  0.00    -0.250 OA
ATOM      7  N   LIG d   1       4.827  -1.717  -6.207  0.00  0.00    -0.192 N 
ATOM      8  C   LIG d   1       4.549  -2.943  -6.701  0.00  0.00     0.243 A 
ATOM      9  O   LIG d   1       3.970  -3.773  -6.035  0.00  0.00    -0.274 OA
ENDROOT
BRANCH   1  10
ATOM     10  C   LIG d   1       5.920  -4.456  -8.086  0.00  0.00    -0.004 C 
ATOM     11  H   LIG d   1       6.117  -4.736  -7.041  0.00  0.00     0.033 H 
ATOM     12  H   LIG d   1       6.868  -4.206  -8.584  0.00  0.00     0.033 H 
BRANCH  10  13
ATOM     13  C   LIG d   1       5.267  -5.609  -8.803  0.00  0.00    -0.046 A 
ATOM     14  C   LIG d   1       5.471  -5.784 -10.159  0.00  0.00    -0.058 A 
ATOM     15  C   LIG d   1       4.876  -6.846 -10.816  0.00  0.00    -0.059 A 
ATOM     16  H   LIG d   1       6.097  -5.095 -10.704  0.00  0.00     0.062 H 
ATOM     17  C   LIG d   1       4.070  -7.726 -10.119  0.00  0.00    -0.050 A 
ATOM     18  H   LIG d   1       5.039  -6.985 -11.875  0.00  0.00     0.062 H 
ATOM     19  C   LIG d   1       3.866  -7.551  -8.763  0.00  0.00    -0.059 A 
ATOM     20  C   LIG d   1       4.464  -6.492  -8.105  0.00  0.00    -0.058 A 
ATOM     21  H   LIG d   1       3.240  -8.241  -8.218  0.00  0.00     0.062 H 
ATOM     22  H   LIG d   1       4.306  -6.356  -7.046  0.00  0.00     0.062 H 
BRANCH  17  23
ATOM     23  C   LIG d   1       3.418  -8.880 -10.836  0.00  0.00    -0.040 C 
ATOM     24  H   LIG d   1       3.523  -8.743 -11.922  0.00  0.00     0.028 H 
ATOM     25  H   LIG d   1       2.351  -8.919 -10.574  0.00  0.00     0.028 H 
ATOM     26  H   LIG d   1       3.904  -9.819 -10.536  0.00  0.00     0.028 H 
ENDBRANCH  17  23
ENDBRANCH  10  13
ENDBRANCH   1  10
BRANCH   1  27
ATOM     27  C   LIG d   1       3.748  -3.619  -8.931  0.00  0.00    -0.013 C 
ATOM     28  H   LIG d   1       3.974  -4.488  -9.566  0.00  0.00     0.083 H 
ATOM     29  H   LIG d   1       2.926  -3.872  -8.245  0.00  0.00     0.083 H 
BRANCH  27  30
ATOM     30  N   LIG d   1       3.350  -2.485  -9.775  0.00  0.00     0.237 N 
ATOM     31  C   LIG d   1       1.969  -2.070  -9.483  0.00  0.00    -0.024 C 
ATOM     32  C   LIG d   1       1.682  -0.783 -10.272  0.00  0.00     0.040 C 
ATOM     33  H   LIG d   1       1.274  -2.866  -9.789  0.00  0.00     0.082 H 
ATOM     34  H   LIG d   1       1.863  -1.885  -8.403  0.00  0.00     0.082 H 
ATOM     35  C   LIG d   1       1.731  -1.120 -11.766  0.00  0.00    -0.031 C 
ATOM     36  H   LIG d   1       0.704  -0.348 -10.016  0.00  0.00     0.042 H 
ATOM     37  C   LIG d   1       2.774   0.209  -9.939  0.00  0.00     0.030 C 
ATOM     38  C   LIG d   1       3.162  -1.610 -12.070  0.00  0.00     0.018 C 
ATOM     39  H   LIG d   1       1.511  -0.230 -12.374  0.00  0.00     0.028 H 
ATOM     40  H   LIG d   1       1.011  -1.916 -12.008  0.00  0.00     0.028 H 
ATOM     41  C   LIG d   1       3.516  -2.805 -11.197  0.00  0.00    -0.027 C 
ATOM     42  H   LIG d   1       3.234  -1.947 -13.115  0.00  0.00     0.037 H 
ATOM     43  C   LIG d   1       4.146  -0.466 -11.888  0.00  0.00     0.034 C 
ATOM     44  H   LIG d   1       4.562  -3.085 -11.390  0.00  0.00     0.082 H 
ATOM     45  H   LIG d   1       2.857  -3.644 -11.463  0.00  0.00     0.082 H 
ATOM     46  N   LIG d   1       3.934   0.257 -10.635  0.00  0.00    -0.311 N 
ATOM     47  H   LIG d   1       5.172  -0.863 -11.882  0.00  0.00     0.050 H 
ATOM     48  H   LIG d   1       4.034   0.248 -12.717  0.00  0.00     0.050 H 
ATOM     49  C   LIG d   1       4.946   1.049 -10.204  0.00  0.00     0.252 C 
ATOM     50  C   LIG d   1       4.750   1.948  -9.146  0.00  0.00     0.003 C 
ATOM     51  O   LIG d   1       6.039   0.980 -10.743  0.00  0.00    -0.268 OA
ATOM     52  C   LIG d   1       3.546   1.964  -8.504  0.00  0.00    -0.055 C 
ATOM     53  H   LIG d   1       5.477   2.572  -8.861  0.00  0.00     0.067 H 
ATOM     54  C   LIG d   1       2.552   1.066  -8.906  0.00  0.00    -0.042 C 
ATOM     55  H   LIG d   1       3.385   2.612  -7.759  0.00  0.00     0.062 H 
ATOM     56  H   LIG d   1       1.673   1.057  -8.429  0.00  0.00     0.064 H 
ATOM     57  H   LIG d   1       4.014  -1.640  -9.544  0.00  0.00     0.203 HD
ENDBRANCH  27  30
ENDBRANCH   1  27
BRANCH   7  58
ATOM     58  C   LIG d   1       4.436  -1.408  -4.896  0.00  0.00     0.045 A 
ATOM     59  C   LIG d   1       3.296  -0.645  -4.673  0.00  0.00    -0.040 A 
ATOM     60  C   LIG d   1       2.913  -0.341  -3.381  0.00  0.00    -0.060 A 
ATOM     61  H   LIG d   1       2.711  -0.290  -5.508  0.00  0.00     0.064 H 
ATOM     62  C   LIG d   1       3.662  -0.796  -2.312  0.00  0.00    -0.062 A 
ATOM     63  H   LIG d   1       2.028   0.252  -3.207  0.00  0.00     0.062 H 
ATOM     64  C   LIG d   1       4.796  -1.556  -2.531  0.00  0.00    -0.060 A 
ATOM     65  H   LIG d   1       3.360  -0.557  -1.302  0.00  0.00     0.062 H 
ATOM     66  C   LIG d   1       5.181  -1.868  -3.819  0.00  0.00    -0.040 A 
ATOM     67  H   LIG d   1       5.379  -1.910  -1.693  0.00  0.00     0.062 H 
ATOM     68  H   LIG d   1       6.065  -2.465  -3.990  0.00  0.00     0.064 H 
ENDBRANCH   7  58
TORSDOF 6
ENDMDL
