MODEL 1
REMARK VINA RESULT:      -5.8      0.000      0.000
REMARK  6 active torsions:
REMARK  status: ('A' for Active; 'I' for Inactive)
REMARK    1  A    between atoms: C_1  and  O_2 
REMARK    2  A    between atoms: O_2  and  C_3 
REMARK    3  A    between atoms: C_3  and  C_5 
REMARK    4  A    between atoms: C_5  and  O_6 
REMARK    5  A    between atoms: O_6  and  C_7 
REMARK    6  A    between atoms: C_15  and  C_16 
ROOT
ATOM      1  C   LIG d   1       7.083   0.049  -4.295  0.00  0.00     0.125 A 
ATOM      2  C   LIG d   1       7.256   0.158  -5.672  0.00  0.00    -0.019 A 
ATOM      3  C   LIG d   1       7.939   1.219  -6.195  0.00  0.00    -0.044 A 
ATOM      4  C   LIG d   1       8.465   2.195  -5.347  0.00  0.00     0.068 A 
ATOM      5  C   LIG d   1       8.297   2.095  -3.957  0.00  0.00     0.143 A 
ATOM      6  C   LIG d   1       7.599   1.009  -3.441  0.00  0.00     0.023 A 
ATOM      7  O   LIG d   1       8.892   3.145  -3.349  0.00  0.00    -0.451 OA
ATOM      8  C   LIG d   1       9.464   3.986  -4.242  0.00  0.00     0.176 A 
ATOM      9  C   LIG d   1      10.134   5.128  -3.951  0.00  0.00    -0.007 C 
ATOM     10  C   LIG d   1       9.232   3.431  -5.585  0.00  0.00     0.232 A 
ATOM     11  O   LIG d   1       9.592   3.891  -6.654  0.00  0.00    -0.283 OA
ATOM     12  H   LIG d   1       6.850  -0.597  -6.328  0.00  0.00     0.065 H 
ATOM     13  H   LIG d   1       8.072   1.303  -7.264  0.00  0.00     0.063 H 
ATOM     14  H   LIG d   1       7.459   0.915  -2.374  0.00  0.00     0.069 H 
ATOM     15  H   LIG d   1      10.483   5.767  -4.749  0.00  0.00     0.066 H 
ENDROOT
BRANCH   9  16
ATOM     16  C   LIG d   1      10.383   5.498  -2.551  0.00  0.00    -0.003 A 
ATOM     17  C   LIG d   1       9.633   6.506  -1.936  0.00  0.00     0.035 A 
ATOM     18  N   LIG d   1       9.859   6.836  -0.681  0.00  0.00    -0.263 NA
ATOM     19  H   LIG d   1       8.862   7.017  -2.494  0.00  0.00     0.084 H 
ATOM     20  C   LIG d   1      10.788   6.240   0.041  0.00  0.00     0.028 A 
ATOM     21  C   LIG d   1      11.570   5.230  -0.492  0.00  0.00    -0.043 A 
ATOM     22  H   LIG d   1      10.939   6.543   1.066  0.00  0.00     0.083 H 
ATOM     23  C   LIG d   1      11.379   4.847  -1.806  0.00  0.00    -0.052 A 
ATOM     24  H   LIG d   1      12.325   4.748   0.113  0.00  0.00     0.063 H 
ATOM     25  H   LIG d   1      11.978   4.064  -2.248  0.00  0.00     0.062 H 
ENDBRANCH   9  16
BRANCH   1  26
ATOM     26  O   LIG d   1       6.404  -1.010  -3.785  0.00  0.00    -0.481 OA
BRANCH  26  27
ATOM     27  C   LIG d   1       4.983  -1.002  -3.933  0.00  0.00     0.186 C 
ATOM     28  H   LIG d   1       4.666  -0.044  -4.347  0.00  0.00     0.082 H 
ATOM     29  H   LIG d   1       4.683  -1.805  -4.605  0.00  0.00     0.082 H 
BRANCH  27  30
ATOM     30  C   LIG d   1       4.337  -1.205  -2.586  0.00  0.00     0.345 C 
ATOM     31  O   LIG d   1       3.682  -2.198  -2.374  0.00  0.00    -0.247 OA
BRANCH  30  32
ATOM     32  O   LIG d   1       4.488  -0.282  -1.623  0.00  0.00    -0.466 OA
BRANCH  32  33
ATOM     33  C   LIG d   1       4.131   1.085  -1.957  0.00  0.00     0.082 C 
ATOM     34  H   LIG d   1       3.081   1.124  -2.249  0.00  0.00     0.066 H 
ATOM     35  H   LIG d   1       4.289   1.725  -1.090  0.00  0.00     0.066 H 
ATOM     36  H   LIG d   1       4.751   1.431  -2.784  0.00  0.00     0.066 H 
ENDBRANCH  32  33
ENDBRANCH  30  32
ENDBRANCH  27  30
ENDBRANCH  26  27
ENDBRANCH   1  26
TORSDOF 6
ENDMDL
MODEL 2
REMARK VINA RESULT:      -5.7      6.188      8.626
REMARK  6 active torsions:
REMARK  status: ('A' for Active; 'I' for Inactive)
REMARK    1  A    between atoms: C_1  and  O_2 
REMARK    2  A    between atoms: O_2  and  C_3 
REMARK    3  A    between atoms: C_3  and  C_5 
REMARK    4  A    between atoms: C_5  and  O_6 
REMARK    5  A    between atoms: O_6  and  C_7 
REMARK    6  A    between atoms: C_15  and  C_16 
ROOT
ATOM      1  C   LIG d   1       5.113  -7.488  -5.734  0.00  0.00     0.125 A 
ATOM      2  C   LIG d   1       6.465  -7.671  -6.007  0.00  0.00    -0.019 A 
ATOM      3  C   LIG d   1       7.338  -6.628  -5.881  0.00  0.00    -0.044 A 
ATOM      4  C   LIG d   1       6.872  -5.376  -5.477  0.00  0.00     0.068 A 
ATOM      5  C   LIG d   1       5.510  -5.180  -5.198  0.00  0.00     0.143 A 
ATOM      6  C   LIG d   1       4.636  -6.252  -5.332  0.00  0.00     0.023 A 
ATOM      7  O   LIG d   1       5.301  -3.899  -4.824  0.00  0.00    -0.451 OA
ATOM      8  C   LIG d   1       6.447  -3.178  -4.834  0.00  0.00     0.176 A 
ATOM      9  C   LIG d   1       6.571  -1.867  -4.513  0.00  0.00    -0.007 C 
ATOM     10  C   LIG d   1       7.534  -4.079  -5.250  0.00  0.00     0.232 A 
ATOM     11  O   LIG d   1       8.716  -3.812  -5.378  0.00  0.00    -0.283 OA
ATOM     12  H   LIG d   1       6.826  -8.640  -6.320  0.00  0.00     0.065 H 
ATOM     13  H   LIG d   1       8.388  -6.771  -6.095  0.00  0.00     0.063 H 
ATOM     14  H   LIG d   1       3.584  -6.120  -5.122  0.00  0.00     0.069 H 
ATOM     15  H   LIG d   1       7.523  -1.370  -4.631  0.00  0.00     0.066 H 
ENDROOT
BRANCH   9  16
ATOM     16  C   LIG d   1       5.411  -1.121  -4.005  0.00  0.00    -0.003 A 
ATOM     17  C   LIG d   1       4.645  -0.324  -4.863  0.00  0.00     0.035 A 
ATOM     18  N   LIG d   1       3.607   0.344  -4.406  0.00  0.00    -0.263 NA
ATOM     19  H   LIG d   1       4.908  -0.257  -5.909  0.00  0.00     0.084 H 
ATOM     20  C   LIG d   1       3.247   0.292  -3.138  0.00  0.00     0.028 A 
ATOM     21  C   LIG d   1       3.949  -0.477  -2.226  0.00  0.00    -0.043 A 
ATOM     22  H   LIG d   1       2.388   0.856  -2.807  0.00  0.00     0.083 H 
ATOM     23  C   LIG d   1       5.051  -1.194  -2.650  0.00  0.00    -0.052 A 
ATOM     24  H   LIG d   1       3.640  -0.513  -1.191  0.00  0.00     0.063 H 
ATOM     25  H   LIG d   1       5.619  -1.800  -1.959  0.00  0.00     0.062 H 
ENDBRANCH   9  16
BRANCH   1  26
ATOM     26  O   LIG d   1       4.254  -8.532  -5.861  0.00  0.00    -0.481 OA
BRANCH  26  27
ATOM     27  C   LIG d   1       4.661  -9.780  -5.298  0.00  0.00     0.186 C 
ATOM     28  H   LIG d   1       4.177 -10.597  -5.835  0.00  0.00     0.082 H 
ATOM     29  H   LIG d   1       5.743  -9.882  -5.383  0.00  0.00     0.082 H 
BRANCH  27  30
ATOM     30  C   LIG d   1       4.264  -9.829  -3.845  0.00  0.00     0.345 C 
ATOM     31  O   LIG d   1       3.133  -9.558  -3.518  0.00  0.00    -0.247 OA
BRANCH  30  32
ATOM     32  O   LIG d   1       5.168 -10.173  -2.913  0.00  0.00    -0.466 OA
BRANCH  32  33
ATOM     33  C   LIG d   1       6.565 -10.134  -3.304  0.00  0.00     0.082 C 
ATOM     34  H   LIG d   1       6.645  -9.784  -4.333  0.00  0.00     0.066 H 
ATOM     35  H   LIG d   1       7.107  -9.453  -2.648  0.00  0.00     0.066 H 
ATOM     36  H   LIG d   1       6.994 -11.133  -3.225  0.00  0.00     0.066 H 
ENDBRANCH  32  33
ENDBRANCH  30  32
ENDBRANCH  27  30
ENDBRANCH  26  27
ENDBRANCH   1  26
TORSDOF 6
ENDMDL
MODEL 3
REMARK VINA RESULT:      -5.6      2.967      7.128
REMARK  6 active torsions:
REMARK  status: ('A' for Active; 'I' for Inactive)
REMARK    1  A    between atoms: C_1  and  O_2 
REMARK    2  A    between atoms: O_2  and  C_3 
REMARK    3  A    between atoms: C_3  and  C_5 
REMARK    4  A    between atoms: C_5  and  O_6 
REMARK    5  A    between atoms: O_6  and  C_7 
REMARK    6  A    between atoms: C_15  and  C_16 
ROOT
ATOM      1  C   LIG d   1      11.083   4.566  -3.101  0.00  0.00     0.125 A 
ATOM      2  C   LIG d   1      11.439   4.631  -4.445  0.00  0.00    -0.019 A 
ATOM      3  C   LIG d   1      10.767   3.884  -5.370  0.00  0.00    -0.044 A 
ATOM      4  C   LIG d   1       9.720   3.054  -4.966  0.00  0.00     0.068 A 
ATOM      5  C   LIG d   1       9.351   2.981  -3.614  0.00  0.00     0.143 A 
ATOM      6  C   LIG d   1      10.046   3.747  -2.685  0.00  0.00     0.023 A 
ATOM      7  O   LIG d   1       8.318   2.123  -3.468  0.00  0.00    -0.451 OA
ATOM      8  C   LIG d   1       7.944   1.580  -4.650  0.00  0.00     0.176 A 
ATOM      9  C   LIG d   1       6.944   0.684  -4.840  0.00  0.00    -0.007 C 
ATOM     10  C   LIG d   1       8.817   2.144  -5.693  0.00  0.00     0.232 A 
ATOM     11  O   LIG d   1       8.796   1.911  -6.888  0.00  0.00    -0.283 OA
ATOM     12  H   LIG d   1      12.249   5.273  -4.758  0.00  0.00     0.065 H 
ATOM     13  H   LIG d   1      11.045   3.935  -6.413  0.00  0.00     0.063 H 
ATOM     14  H   LIG d   1       9.778   3.704  -1.640  0.00  0.00     0.069 H 
ATOM     15  H   LIG d   1       6.782   0.255  -5.818  0.00  0.00     0.066 H 
ENDROOT
BRANCH   9  16
ATOM     16  C   LIG d   1       6.082   0.295  -3.715  0.00  0.00    -0.003 A 
ATOM     17  C   LIG d   1       5.884  -1.054  -3.402  0.00  0.00     0.035 A 
ATOM     18  N   LIG d   1       5.110  -1.400  -2.394  0.00  0.00    -0.263 NA
ATOM     19  H   LIG d   1       6.369  -1.817  -3.992  0.00  0.00     0.084 H 
ATOM     20  C   LIG d   1       4.497  -0.503  -1.645  0.00  0.00     0.028 A 
ATOM     21  C   LIG d   1       4.646   0.853  -1.885  0.00  0.00    -0.043 A 
ATOM     22  H   LIG d   1       3.872  -0.832  -0.828  0.00  0.00     0.083 H 
ATOM     23  C   LIG d   1       5.442   1.271  -2.934  0.00  0.00    -0.052 A 
ATOM     24  H   LIG d   1       4.141   1.575  -1.261  0.00  0.00     0.063 H 
ATOM     25  H   LIG d   1       5.573   2.323  -3.146  0.00  0.00     0.062 H 
ENDBRANCH   9  16
BRANCH   1  26
ATOM     26  O   LIG d   1      11.757   5.314  -2.190  0.00  0.00    -0.481 OA
BRANCH  26  27
ATOM     27  C   LIG d   1      11.354   6.676  -2.042  0.00  0.00     0.186 C 
ATOM     28  H   LIG d   1      12.228   7.324  -2.119  0.00  0.00     0.082 H 
ATOM     29  H   LIG d   1      10.642   6.932  -2.826  0.00  0.00     0.082 H 
BRANCH  27  30
ATOM     30  C   LIG d   1      10.706   6.864  -0.694  0.00  0.00     0.345 C 
ATOM     31  O   LIG d   1       9.522   7.092  -0.619  0.00  0.00    -0.247 OA
BRANCH  30  32
ATOM     32  O   LIG d   1      11.445   6.778   0.424  0.00  0.00    -0.466 OA
BRANCH  32  33
ATOM     33  C   LIG d   1      11.042   5.787   1.405  0.00  0.00     0.082 C 
ATOM     34  H   LIG d   1      10.129   5.295   1.071  0.00  0.00     0.066 H 
ATOM     35  H   LIG d   1      11.832   5.046   1.519  0.00  0.00     0.066 H 
ATOM     36  H   LIG d   1      10.861   6.276   2.363  0.00  0.00     0.066 H 
ENDBRANCH  32  33
ENDBRANCH  30  32
ENDBRANCH  27  30
ENDBRANCH  26  27
ENDBRANCH   1  26
TORSDOF 6
ENDMDL
MODEL 4
REMARK VINA RESULT:      -5.6      6.172      8.287
REMARK  6 active torsions:
REMARK  status: ('A' for Active; 'I' for Inactive)
REMARK    1  A    between atoms: C_1  and  O_2 
REMARK    2  A    between atoms: O_2  and  C_3 
REMARK    3  A    between atoms: C_3  and  C_5 
REMARK    4  A    between atoms: C_5  and  O_6 
REMARK    5  A    between atoms: O_6  and  C_7 
REMARK    6  A    between atoms: C_15  and  C_16 
ROOT
ATOM      1  C   LIG d   1       6.298  -1.776  -3.567  0.00  0.00     0.125 A 
ATOM      2  C   LIG d   1       5.273  -1.605  -2.640  0.00  0.00    -0.019 A 
ATOM      3  C   LIG d   1       4.086  -1.049  -3.024  0.00  0.00    -0.044 A 
ATOM      4  C   LIG d   1       3.901  -0.652  -4.349  0.00  0.00     0.068 A 
ATOM      5  C   LIG d   1       4.926  -0.821  -5.293  0.00  0.00     0.143 A 
ATOM      6  C   LIG d   1       6.128  -1.387  -4.885  0.00  0.00     0.023 A 
ATOM      7  O   LIG d   1       4.516  -0.371  -6.499  0.00  0.00    -0.451 OA
ATOM      8  C   LIG d   1       3.253   0.115  -6.451  0.00  0.00     0.176 A 
ATOM      9  C   LIG d   1       2.557   0.640  -7.490  0.00  0.00    -0.007 C 
ATOM     10  C   LIG d   1       2.771  -0.037  -5.069  0.00  0.00     0.232 A 
ATOM     11  O   LIG d   1       1.683   0.277  -4.620  0.00  0.00    -0.283 OA
ATOM     12  H   LIG d   1       5.417  -1.912  -1.614  0.00  0.00     0.065 H 
ATOM     13  H   LIG d   1       3.292  -0.916  -2.303  0.00  0.00     0.063 H 
ATOM     14  H   LIG d   1       6.929  -1.524  -5.596  0.00  0.00     0.069 H 
ATOM     15  H   LIG d   1       1.581   1.071  -7.322  0.00  0.00     0.066 H 
ENDROOT
BRANCH   9  16
ATOM     16  C   LIG d   1       3.130   0.623  -8.843  0.00  0.00    -0.003 A 
ATOM     17  C   LIG d   1       4.039   1.608  -9.244  0.00  0.00     0.035 A 
ATOM     18  N   LIG d   1       4.551   1.591 -10.457  0.00  0.00    -0.263 NA
ATOM     19  H   LIG d   1       4.323   2.388  -8.553  0.00  0.00     0.084 H 
ATOM     20  C   LIG d   1       4.235   0.658 -11.335  0.00  0.00     0.028 A 
ATOM     21  C   LIG d   1       3.348  -0.355 -11.014  0.00  0.00    -0.043 A 
ATOM     22  H   LIG d   1       4.680   0.683 -12.319  0.00  0.00     0.083 H 
ATOM     23  C   LIG d   1       2.776  -0.383  -9.757  0.00  0.00    -0.052 A 
ATOM     24  H   LIG d   1       3.102  -1.115 -11.742  0.00  0.00     0.063 H 
ATOM     25  H   LIG d   1       2.078  -1.160  -9.481  0.00  0.00     0.062 H 
ENDBRANCH   9  16
BRANCH   1  26
ATOM     26  O   LIG d   1       7.473  -2.331  -3.174  0.00  0.00    -0.481 OA
BRANCH  26  27
ATOM     27  C   LIG d   1       8.349  -2.792  -4.204  0.00  0.00     0.186 C 
ATOM     28  H   LIG d   1       7.995  -2.431  -5.171  0.00  0.00     0.082 H 
ATOM     29  H   LIG d   1       9.355  -2.414  -4.023  0.00  0.00     0.082 H 
BRANCH  27  30
ATOM     30  C   LIG d   1       8.371  -4.299  -4.207  0.00  0.00     0.345 C 
ATOM     31  O   LIG d   1       7.648  -4.912  -4.955  0.00  0.00    -0.247 OA
BRANCH  30  32
ATOM     32  O   LIG d   1       9.196  -4.960  -3.379  0.00  0.00    -0.466 OA
BRANCH  32  33
ATOM     33  C   LIG d   1      10.292  -4.205  -2.800  0.00  0.00     0.082 C 
ATOM     34  H   LIG d   1      10.076  -3.995  -1.752  0.00  0.00     0.066 H 
ATOM     35  H   LIG d   1      11.211  -4.786  -2.870  0.00  0.00     0.066 H 
ATOM     36  H   LIG d   1      10.413  -3.266  -3.341  0.00  0.00     0.066 H 
ENDBRANCH  32  33
ENDBRANCH  30  32
ENDBRANCH  27  30
ENDBRANCH  26  27
ENDBRANCH   1  26
TORSDOF 6
ENDMDL
MODEL 5
REMARK VINA RESULT:      -5.5      3.552      5.856
REMARK  6 active torsions:
REMARK  status: ('A' for Active; 'I' for Inactive)
REMARK    1  A    between atoms: C_1  and  O_2 
REMARK    2  A    between atoms: O_2  and  C_3 
REMARK    3  A    between atoms: C_3  and  C_5 
REMARK    4  A    between atoms: C_5  and  O_6 
REMARK    5  A    between atoms: O_6  and  C_7 
REMARK    6  A    between atoms: C_15  and  C_16 
ROOT
ATOM      1  C   LIG d   1       4.663  -3.089  -4.061  0.00  0.00     0.125 A 
ATOM      2  C   LIG d   1       3.871  -2.510  -3.074  0.00  0.00    -0.019 A 
ATOM      3  C   LIG d   1       4.166  -1.263  -2.601  0.00  0.00    -0.044 A 
ATOM      4  C   LIG d   1       5.265  -0.569  -3.109  0.00  0.00     0.068 A 
ATOM      5  C   LIG d   1       6.071  -1.142  -4.105  0.00  0.00     0.143 A 
ATOM      6  C   LIG d   1       5.757  -2.412  -4.575  0.00  0.00     0.023 A 
ATOM      7  O   LIG d   1       7.062  -0.287  -4.439  0.00  0.00    -0.451 OA
ATOM      8  C   LIG d   1       7.001   0.859  -3.722  0.00  0.00     0.176 A 
ATOM      9  C   LIG d   1       7.850   1.911  -3.819  0.00  0.00    -0.007 C 
ATOM     10  C   LIG d   1       5.841   0.758  -2.822  0.00  0.00     0.232 A 
ATOM     11  O   LIG d   1       5.445   1.585  -2.020  0.00  0.00    -0.283 OA
ATOM     12  H   LIG d   1       3.021  -3.047  -2.681  0.00  0.00     0.065 H 
ATOM     13  H   LIG d   1       3.551  -0.815  -1.834  0.00  0.00     0.063 H 
ATOM     14  H   LIG d   1       6.365  -2.871  -5.340  0.00  0.00     0.069 H 
ATOM     15  H   LIG d   1       7.755   2.746  -3.141  0.00  0.00     0.066 H 
ENDROOT
BRANCH   9  16
ATOM     16  C   LIG d   1       8.902   1.915  -4.847  0.00  0.00    -0.003 A 
ATOM     17  C   LIG d   1      10.186   1.445  -4.553  0.00  0.00     0.035 A 
ATOM     18  N   LIG d   1      11.126   1.450  -5.475  0.00  0.00    -0.263 NA
ATOM     19  H   LIG d   1      10.408   1.075  -3.564  0.00  0.00     0.084 H 
ATOM     20  C   LIG d   1      10.902   1.892  -6.698  0.00  0.00     0.028 A 
ATOM     21  C   LIG d   1       9.657   2.369  -7.070  0.00  0.00    -0.043 A 
ATOM     22  H   LIG d   1      11.703   1.878  -7.423  0.00  0.00     0.083 H 
ATOM     23  C   LIG d   1       8.635   2.391  -6.140  0.00  0.00    -0.052 A 
ATOM     24  H   LIG d   1       9.487   2.724  -8.076  0.00  0.00     0.063 H 
ATOM     25  H   LIG d   1       7.654   2.762  -6.402  0.00  0.00     0.062 H 
ENDBRANCH   9  16
BRANCH   1  26
ATOM     26  O   LIG d   1       4.360  -4.329  -4.525  0.00  0.00    -0.481 OA
BRANCH  26  27
ATOM     27  C   LIG d   1       5.227  -4.880  -5.517  0.00  0.00     0.186 C 
ATOM     28  H   LIG d   1       5.314  -4.184  -6.352  0.00  0.00     0.082 H 
ATOM     29  H   LIG d   1       6.213  -5.052  -5.084  0.00  0.00     0.082 H 
BRANCH  27  30
ATOM     30  C   LIG d   1       4.660  -6.187  -6.010  0.00  0.00     0.345 C 
ATOM     31  O   LIG d   1       3.843  -6.194  -6.899  0.00  0.00    -0.247 OA
BRANCH  30  32
ATOM     32  O   LIG d   1       5.063  -7.344  -5.460  0.00  0.00    -0.466 OA
BRANCH  32  33
ATOM     33  C   LIG d   1       4.766  -8.561  -6.193  0.00  0.00     0.082 C 
ATOM     34  H   LIG d   1       3.730  -8.537  -6.531  0.00  0.00     0.066 H 
ATOM     35  H   LIG d   1       5.427  -8.636  -7.056  0.00  0.00     0.066 H 
ATOM     36  H   LIG d   1       4.916  -9.423  -5.543  0.00  0.00     0.066 H 
ENDBRANCH  32  33
ENDBRANCH  30  32
ENDBRANCH  27  30
ENDBRANCH  26  27
ENDBRANCH   1  26
TORSDOF 6
ENDMDL
MODEL 6
REMARK VINA RESULT:      -5.5      2.951      7.400
REMARK  6 active torsions:
REMARK  status: ('A' for Active; 'I' for Inactive)
REMARK    1  A    between atoms: C_1  and  O_2 
REMARK    2  A    between atoms: O_2  and  C_3 
REMARK    3  A    between atoms: C_3  and  C_5 
REMARK    4  A    between atoms: C_5  and  O_6 
REMARK    5  A    between atoms: O_6  and  C_7 
REMARK    6  A    between atoms: C_15  and  C_16 
ROOT
ATOM      1  C   LIG d   1      10.069   3.377  -3.998  0.00  0.00     0.125 A 
ATOM      2  C   LIG d   1      11.038   2.701  -4.734  0.00  0.00    -0.019 A 
ATOM      3  C   LIG d   1      10.800   1.431  -5.177  0.00  0.00    -0.044 A 
ATOM      4  C   LIG d   1       9.583   0.810  -4.889  0.00  0.00     0.068 A 
ATOM      5  C   LIG d   1       8.599   1.483  -4.148  0.00  0.00     0.143 A 
ATOM      6  C   LIG d   1       8.857   2.775  -3.705  0.00  0.00     0.023 A 
ATOM      7  O   LIG d   1       7.515   0.689  -4.003  0.00  0.00    -0.451 OA
ATOM      8  C   LIG d   1       7.689  -0.514  -4.598  0.00  0.00     0.176 A 
ATOM      9  C   LIG d   1       6.792  -1.530  -4.629  0.00  0.00    -0.007 C 
ATOM     10  C   LIG d   1       9.027  -0.516  -5.211  0.00  0.00     0.232 A 
ATOM     11  O   LIG d   1       9.557  -1.414  -5.842  0.00  0.00    -0.283 OA
ATOM     12  H   LIG d   1      11.979   3.181  -4.956  0.00  0.00     0.065 H 
ATOM     13  H   LIG d   1      11.553   0.906  -5.747  0.00  0.00     0.063 H 
ATOM     14  H   LIG d   1       8.113   3.308  -3.133  0.00  0.00     0.069 H 
ATOM     15  H   LIG d   1       7.065  -2.479  -5.065  0.00  0.00     0.066 H 
ENDROOT
BRANCH   9  16
ATOM     16  C   LIG d   1       5.447  -1.340  -4.066  0.00  0.00    -0.003 A 
ATOM     17  C   LIG d   1       4.471  -0.632  -4.776  0.00  0.00     0.035 A 
ATOM     18  N   LIG d   1       3.268  -0.463  -4.270  0.00  0.00    -0.263 NA
ATOM     19  H   LIG d   1       4.707  -0.221  -5.746  0.00  0.00     0.084 H 
ATOM     20  C   LIG d   1       2.933  -0.947  -3.089  0.00  0.00     0.028 A 
ATOM     21  C   LIG d   1       3.839  -1.664  -2.326  0.00  0.00    -0.043 A 
ATOM     22  H   LIG d   1       1.934  -0.785  -2.713  0.00  0.00     0.083 H 
ATOM     23  C   LIG d   1       5.118  -1.867  -2.807  0.00  0.00    -0.052 A 
ATOM     24  H   LIG d   1       3.548  -2.058  -1.363  0.00  0.00     0.063 H 
ATOM     25  H   LIG d   1       5.846  -2.420  -2.231  0.00  0.00     0.062 H 
ENDBRANCH   9  16
BRANCH   1  26
ATOM     26  O   LIG d   1      10.315   4.640  -3.563  0.00  0.00    -0.481 OA
BRANCH  26  27
ATOM     27  C   LIG d   1      10.388   4.838  -2.150  0.00  0.00     0.186 C 
ATOM     28  H   LIG d   1       9.723   4.133  -1.650  0.00  0.00     0.082 H 
ATOM     29  H   LIG d   1      11.411   4.675  -1.813  0.00  0.00     0.082 H 
BRANCH  27  30
ATOM     30  C   LIG d   1       9.967   6.247  -1.818  0.00  0.00     0.345 C 
ATOM     31  O   LIG d   1       9.693   7.020  -2.704  0.00  0.00    -0.247 OA
BRANCH  30  32
ATOM     32  O   LIG d   1       9.898   6.642  -0.537  0.00  0.00    -0.466 OA
BRANCH  32  33
ATOM     33  C   LIG d   1      10.977   6.225   0.341  0.00  0.00     0.082 C 
ATOM     34  H   LIG d   1      11.581   7.092   0.611  0.00  0.00     0.066 H 
ATOM     35  H   LIG d   1      10.560   5.779   1.243  0.00  0.00     0.066 H 
ATOM     36  H   LIG d   1      11.601   5.493  -0.172  0.00  0.00     0.066 H 
ENDBRANCH  32  33
ENDBRANCH  30  32
ENDBRANCH  27  30
ENDBRANCH  26  27
ENDBRANCH   1  26
TORSDOF 6
ENDMDL
MODEL 7
REMARK VINA RESULT:      -5.3      5.740      8.393
REMARK  6 active torsions:
REMARK  status: ('A' for Active; 'I' for Inactive)
REMARK    1  A    between atoms: C_1  and  O_2 
REMARK    2  A    between atoms: O_2  and  C_3 
REMARK    3  A    between atoms: C_3  and  C_5 
REMARK    4  A    between atoms: C_5  and  O_6 
REMARK    5  A    between atoms: O_6  and  C_7 
REMARK    6  A    between atoms: C_15  and  C_16 
ROOT
ATOM      1  C   LIG d   1       4.160  -5.553  -7.375  0.00  0.00     0.125 A 
ATOM      2  C   LIG d   1       5.298  -6.353  -7.312  0.00  0.00    -0.019 A 
ATOM      3  C   LIG d   1       6.346  -5.993  -6.514  0.00  0.00    -0.044 A 
ATOM      4  C   LIG d   1       6.276  -4.821  -5.759  0.00  0.00     0.068 A 
ATOM      5  C   LIG d   1       5.133  -4.008  -5.813  0.00  0.00     0.143 A 
ATOM      6  C   LIG d   1       4.075  -4.388  -6.631  0.00  0.00     0.023 A 
ATOM      7  O   LIG d   1       5.293  -2.940  -5.000  0.00  0.00    -0.451 OA
ATOM      8  C   LIG d   1       6.497  -2.956  -4.381  0.00  0.00     0.176 A 
ATOM      9  C   LIG d   1       6.961  -2.029  -3.507  0.00  0.00    -0.007 C 
ATOM     10  C   LIG d   1       7.207  -4.167  -4.823  0.00  0.00     0.232 A 
ATOM     11  O   LIG d   1       8.317  -4.543  -4.490  0.00  0.00    -0.283 OA
ATOM     12  H   LIG d   1       5.352  -7.259  -7.896  0.00  0.00     0.065 H 
ATOM     13  H   LIG d   1       7.229  -6.614  -6.467  0.00  0.00     0.063 H 
ATOM     14  H   LIG d   1       3.188  -3.775  -6.687  0.00  0.00     0.069 H 
ATOM     15  H   LIG d   1       7.970  -2.099  -3.131  0.00  0.00     0.066 H 
ENDROOT
BRANCH   9  16
ATOM     16  C   LIG d   1       6.090  -0.927  -3.073  0.00  0.00    -0.003 A 
ATOM     17  C   LIG d   1       6.416   0.400  -3.373  0.00  0.00     0.035 A 
ATOM     18  N   LIG d   1       5.635   1.385  -2.983  0.00  0.00    -0.263 NA
ATOM     19  H   LIG d   1       7.316   0.618  -3.929  0.00  0.00     0.084 H 
ATOM     20  C   LIG d   1       4.525   1.168  -2.302  0.00  0.00     0.028 A 
ATOM     21  C   LIG d   1       4.129  -0.116  -1.970  0.00  0.00    -0.043 A 
ATOM     22  H   LIG d   1       3.914   2.006  -2.002  0.00  0.00     0.083 H 
ATOM     23  C   LIG d   1       4.915  -1.187  -2.350  0.00  0.00    -0.052 A 
ATOM     24  H   LIG d   1       3.216  -0.278  -1.416  0.00  0.00     0.063 H 
ATOM     25  H   LIG d   1       4.631  -2.200  -2.101  0.00  0.00     0.062 H 
ENDBRANCH   9  16
BRANCH   1  26
ATOM     26  O   LIG d   1       3.123  -5.920  -8.170  0.00  0.00    -0.481 OA
BRANCH  26  27
ATOM     27  C   LIG d   1       3.429  -6.746  -9.295  0.00  0.00     0.186 C 
ATOM     28  H   LIG d   1       4.223  -6.281  -9.882  0.00  0.00     0.082 H 
ATOM     29  H   LIG d   1       3.759  -7.725  -8.949  0.00  0.00     0.082 H 
BRANCH  27  30
ATOM     30  C   LIG d   1       2.199  -6.904 -10.152  0.00  0.00     0.345 C 
ATOM     31  O   LIG d   1       2.306  -7.000 -11.351  0.00  0.00    -0.247 OA
BRANCH  30  32
ATOM     32  O   LIG d   1       0.984  -6.939  -9.581  0.00  0.00    -0.466 OA
BRANCH  32  33
ATOM     33  C   LIG d   1      -0.020  -7.771 -10.218  0.00  0.00     0.082 C 
ATOM     34  H   LIG d   1      -0.044  -8.748  -9.734  0.00  0.00     0.066 H 
ATOM     35  H   LIG d   1      -0.997  -7.298 -10.126  0.00  0.00     0.066 H 
ATOM     36  H   LIG d   1       0.226  -7.895 -11.273  0.00  0.00     0.066 H 
ENDBRANCH  32  33
ENDBRANCH  30  32
ENDBRANCH  27  30
ENDBRANCH  26  27
ENDBRANCH   1  26
TORSDOF 6
ENDMDL
MODEL 8
REMARK VINA RESULT:      -5.3      5.396      8.701
REMARK  6 active torsions:
REMARK  status: ('A' for Active; 'I' for Inactive)
REMARK    1  A    between atoms: C_1  and  O_2 
REMARK    2  A    between atoms: O_2  and  C_3 
REMARK    3  A    between atoms: C_3  and  C_5 
REMARK    4  A    between atoms: C_5  and  O_6 
REMARK    5  A    between atoms: O_6  and  C_7 
REMARK    6  A    between atoms: C_15  and  C_16 
ROOT
ATOM      1  C   LIG d   1       4.137  -2.889  -9.697  0.00  0.00     0.125 A 
ATOM      2  C   LIG d   1       3.941  -4.262  -9.581  0.00  0.00    -0.019 A 
ATOM      3  C   LIG d   1       3.976  -4.858  -8.353  0.00  0.00    -0.044 A 
ATOM      4  C   LIG d   1       4.209  -4.088  -7.212  0.00  0.00     0.068 A 
ATOM      5  C   LIG d   1       4.407  -2.703  -7.317  0.00  0.00     0.143 A 
ATOM      6  C   LIG d   1       4.369  -2.112  -8.575  0.00  0.00     0.023 A 
ATOM      7  O   LIG d   1       4.607  -2.175  -6.089  0.00  0.00    -0.451 OA
ATOM      8  C   LIG d   1       4.568  -3.123  -5.123  0.00  0.00     0.176 A 
ATOM      9  C   LIG d   1       4.735  -2.918  -3.793  0.00  0.00    -0.007 C 
ATOM     10  C   LIG d   1       4.307  -4.414  -5.778  0.00  0.00     0.232 A 
ATOM     11  O   LIG d   1       4.195  -5.508  -5.252  0.00  0.00    -0.283 OA
ATOM     12  H   LIG d   1       3.761  -4.858 -10.464  0.00  0.00     0.065 H 
ATOM     13  H   LIG d   1       3.825  -5.925  -8.264  0.00  0.00     0.063 H 
ATOM     14  H   LIG d   1       4.519  -1.047  -8.676  0.00  0.00     0.069 H 
ATOM     15  H   LIG d   1       4.763  -3.759  -3.116  0.00  0.00     0.066 H 
ENDROOT
BRANCH   9  16
ATOM     16  C   LIG d   1       4.878  -1.551  -3.272  0.00  0.00    -0.003 A 
ATOM     17  C   LIG d   1       6.037  -0.809  -3.527  0.00  0.00     0.035 A 
ATOM     18  N   LIG d   1       6.163   0.415  -3.059  0.00  0.00    -0.263 NA
ATOM     19  H   LIG d   1       6.833  -1.244  -4.113  0.00  0.00     0.084 H 
ATOM     20  C   LIG d   1       5.217   0.988  -2.339  0.00  0.00     0.028 A 
ATOM     21  C   LIG d   1       4.038   0.324  -2.047  0.00  0.00    -0.043 A 
ATOM     22  H   LIG d   1       5.363   1.995  -1.976  0.00  0.00     0.083 H 
ATOM     23  C   LIG d   1       3.855  -0.965  -2.509  0.00  0.00    -0.052 A 
ATOM     24  H   LIG d   1       3.271   0.808  -1.461  0.00  0.00     0.063 H 
ATOM     25  H   LIG d   1       2.946  -1.508  -2.293  0.00  0.00     0.062 H 
ENDBRANCH   9  16
BRANCH   1  26
ATOM     26  O   LIG d   1       4.099  -2.306 -10.923  0.00  0.00    -0.481 OA
BRANCH  26  27
ATOM     27  C   LIG d   1       3.281  -1.143 -11.063  0.00  0.00     0.186 C 
ATOM     28  H   LIG d   1       2.425  -1.375 -11.698  0.00  0.00     0.082 H 
ATOM     29  H   LIG d   1       2.929  -0.825 -10.082  0.00  0.00     0.082 H 
BRANCH  27  30
ATOM     30  C   LIG d   1       4.086  -0.035 -11.692  0.00  0.00     0.345 C 
ATOM     31  O   LIG d   1       3.999   1.092 -11.267  0.00  0.00    -0.247 OA
BRANCH  30  32
ATOM     32  O   LIG d   1       4.901  -0.301 -12.726  0.00  0.00    -0.466 OA
BRANCH  32  33
ATOM     33  C   LIG d   1       4.273  -0.598 -14.000  0.00  0.00     0.082 C 
ATOM     34  H   LIG d   1       3.300  -1.059 -13.827  0.00  0.00     0.066 H 
ATOM     35  H   LIG d   1       4.141   0.324 -14.565  0.00  0.00     0.066 H 
ATOM     36  H   LIG d   1       4.904  -1.284 -14.566  0.00  0.00     0.066 H 
ENDBRANCH  32  33
ENDBRANCH  30  32
ENDBRANCH  27  30
ENDBRANCH  26  27
ENDBRANCH   1  26
TORSDOF 6
ENDMDL
MODEL 9
REMARK VINA RESULT:      -5.1      5.045      8.777
REMARK  6 active torsions:
REMARK  status: ('A' for Active; 'I' for Inactive)
REMARK    1  A    between atoms: C_1  and  O_2 
REMARK    2  A    between atoms: O_2  and  C_3 
REMARK    3  A    between atoms: C_3  and  C_5 
REMARK    4  A    between atoms: C_5  and  O_6 
REMARK    5  A    between atoms: O_6  and  C_7 
REMARK    6  A    between atoms: C_15  and  C_16 
ROOT
ATOM      1  C   LIG d   1       9.826   9.322  -7.540  0.00  0.00     0.125 A 
ATOM      2  C   LIG d   1       9.541   8.293  -8.433  0.00  0.00    -0.019 A 
ATOM      3  C   LIG d   1       9.508   6.998  -7.999  0.00  0.00    -0.044 A 
ATOM      4  C   LIG d   1       9.761   6.707  -6.658  0.00  0.00     0.068 A 
ATOM      5  C   LIG d   1      10.049   7.737  -5.748  0.00  0.00     0.143 A 
ATOM      6  C   LIG d   1      10.079   9.049  -6.206  0.00  0.00     0.023 A 
ATOM      7  O   LIG d   1      10.251   7.216  -4.518  0.00  0.00    -0.451 OA
ATOM      8  C   LIG d   1      10.129   5.868  -4.516  0.00  0.00     0.176 A 
ATOM      9  C   LIG d   1      10.275   5.052  -3.443  0.00  0.00    -0.007 C 
ATOM     10  C   LIG d   1       9.802   5.450  -5.889  0.00  0.00     0.232 A 
ATOM     11  O   LIG d   1       9.609   4.319  -6.298  0.00  0.00    -0.283 OA
ATOM     12  H   LIG d   1       9.346   8.518  -9.471  0.00  0.00     0.065 H 
ATOM     13  H   LIG d   1       9.288   6.200  -8.694  0.00  0.00     0.063 H 
ATOM     14  H   LIG d   1      10.299   9.855  -5.522  0.00  0.00     0.069 H 
ATOM     15  H   LIG d   1      10.233   3.980  -3.571  0.00  0.00     0.066 H 
ENDROOT
BRANCH   9  16
ATOM     16  C   LIG d   1      10.492   5.625  -2.107  0.00  0.00    -0.003 A 
ATOM     17  C   LIG d   1       9.668   6.650  -1.629  0.00  0.00     0.035 A 
ATOM     18  N   LIG d   1       9.864   7.162  -0.433  0.00  0.00    -0.263 NA
ATOM     19  H   LIG d   1       8.864   7.023  -2.247  0.00  0.00     0.084 H 
ATOM     20  C   LIG d   1      10.833   6.738   0.358  0.00  0.00     0.028 A 
ATOM     21  C   LIG d   1      11.688   5.724  -0.039  0.00  0.00    -0.043 A 
ATOM     22  H   LIG d   1      10.957   7.187   1.332  0.00  0.00     0.083 H 
ATOM     23  C   LIG d   1      11.530   5.154  -1.287  0.00  0.00    -0.052 A 
ATOM     24  H   LIG d   1      12.473   5.385   0.621  0.00  0.00     0.063 H 
ATOM     25  H   LIG d   1      12.185   4.364  -1.623  0.00  0.00     0.062 H 
ENDBRANCH   9  16
BRANCH   1  26
ATOM     26  O   LIG d   1       9.855  10.606  -7.981  0.00  0.00    -0.481 OA
BRANCH  26  27
ATOM     27  C   LIG d   1      10.558  11.553  -7.176  0.00  0.00     0.186 C 
ATOM     28  H   LIG d   1      10.897  11.070  -6.259  0.00  0.00     0.082 H 
ATOM     29  H   LIG d   1      11.420  11.931  -7.727  0.00  0.00     0.082 H 
BRANCH  27  30
ATOM     30  C   LIG d   1       9.641  12.698  -6.831  0.00  0.00     0.345 C 
ATOM     31  O   LIG d   1       9.364  12.924  -5.677  0.00  0.00    -0.247 OA
BRANCH  30  32
ATOM     32  O   LIG d   1       9.132  13.468  -7.806  0.00  0.00    -0.466 OA
BRANCH  32  33
ATOM     33  C   LIG d   1      10.025  14.438  -8.414  0.00  0.00     0.082 C 
ATOM     34  H   LIG d   1      10.930  13.934  -8.756  0.00  0.00     0.066 H 
ATOM     35  H   LIG d   1       9.529  14.907  -9.263  0.00  0.00     0.066 H 
ATOM     36  H   LIG d   1      10.288  15.200  -7.680  0.00  0.00     0.066 H 
ENDBRANCH  32  33
ENDBRANCH  30  32
ENDBRANCH  27  30
ENDBRANCH  26  27
ENDBRANCH   1  26
TORSDOF 6
ENDMDL
MODEL 10
REMARK VINA RESULT:      -5.1      6.555      9.008
REMARK  6 active torsions:
REMARK  status: ('A' for Active; 'I' for Inactive)
REMARK    1  A    between atoms: C_1  and  O_2 
REMARK    2  A    between atoms: O_2  and  C_3 
REMARK    3  A    between atoms: C_3  and  C_5 
REMARK    4  A    between atoms: C_5  and  O_6 
REMARK    5  A    between atoms: O_6  and  C_7 
REMARK    6  A    between atoms: C_15  and  C_16 
ROOT
ATOM      1  C   LIG d   1       3.013  -2.118 -10.689  0.00  0.00     0.125 A 
ATOM      2  C   LIG d   1       2.748  -0.867 -11.241  0.00  0.00    -0.019 A 
ATOM      3  C   LIG d   1       2.695   0.239 -10.440  0.00  0.00    -0.044 A 
ATOM      4  C   LIG d   1       2.907   0.113  -9.067  0.00  0.00     0.068 A 
ATOM      5  C   LIG d   1       3.176  -1.142  -8.499  0.00  0.00     0.143 A 
ATOM      6  C   LIG d   1       3.226  -2.257  -9.328  0.00  0.00     0.023 A 
ATOM      7  O   LIG d   1       3.349  -1.013  -7.165  0.00  0.00    -0.451 OA
ATOM      8  C   LIG d   1       3.207   0.271  -6.762  0.00  0.00     0.176 A 
ATOM      9  C   LIG d   1       3.318   0.728  -5.490  0.00  0.00    -0.007 C 
ATOM     10  C   LIG d   1       2.918   1.082  -7.956  0.00  0.00     0.232 A 
ATOM     11  O   LIG d   1       2.729   2.284  -8.013  0.00  0.00    -0.283 OA
ATOM     12  H   LIG d   1       2.585  -0.771 -12.304  0.00  0.00     0.065 H 
ATOM     13  H   LIG d   1       2.489   1.208 -10.870  0.00  0.00     0.063 H 
ATOM     14  H   LIG d   1       3.431  -3.232  -8.910  0.00  0.00     0.069 H 
ATOM     15  H   LIG d   1       3.107   1.764  -5.269  0.00  0.00     0.066 H 
ENDROOT
BRANCH   9  16
ATOM     16  C   LIG d   1       3.723  -0.186  -4.413  0.00  0.00    -0.003 A 
ATOM     17  C   LIG d   1       5.068  -0.531  -4.239  0.00  0.00     0.035 A 
ATOM     18  N   LIG d   1       5.428  -1.351  -3.274  0.00  0.00    -0.263 NA
ATOM     19  H   LIG d   1       5.815  -0.122  -4.902  0.00  0.00     0.084 H 
ATOM     20  C   LIG d   1       4.550  -1.875  -2.440  0.00  0.00     0.028 A 
ATOM     21  C   LIG d   1       3.201  -1.579  -2.540  0.00  0.00    -0.043 A 
ATOM     22  H   LIG d   1       4.891  -2.543  -1.662  0.00  0.00     0.083 H 
ATOM     23  C   LIG d   1       2.767  -0.729  -3.539  0.00  0.00    -0.052 A 
ATOM     24  H   LIG d   1       2.495  -2.013  -1.847  0.00  0.00     0.063 H 
ATOM     25  H   LIG d   1       1.720  -0.484  -3.643  0.00  0.00     0.062 H 
ENDBRANCH   9  16
BRANCH   1  26
ATOM     26  O   LIG d   1       3.065  -3.210 -11.494  0.00  0.00    -0.481 OA
BRANCH  26  27
ATOM     27  C   LIG d   1       1.935  -3.452 -12.334  0.00  0.00     0.186 C 
ATOM     28  H   LIG d   1       1.482  -2.501 -12.616  0.00  0.00     0.082 H 
ATOM     29  H   LIG d   1       2.255  -3.981 -13.231  0.00  0.00     0.082 H 
BRANCH  27  30
ATOM     30  C   LIG d   1       0.926  -4.288 -11.589  0.00  0.00     0.345 C 
ATOM     31  O   LIG d   1      -0.229  -3.939 -11.540  0.00  0.00    -0.247 OA
BRANCH  30  32
ATOM     32  O   LIG d   1       1.312  -5.421 -10.981  0.00  0.00    -0.466 OA
BRANCH  32  33
ATOM     33  C   LIG d   1       1.497  -6.590 -11.821  0.00  0.00     0.082 C 
ATOM     34  H   LIG d   1       0.674  -7.287 -11.660  0.00  0.00     0.066 H 
ATOM     35  H   LIG d   1       1.516  -6.287 -12.867  0.00  0.00     0.066 H 
ATOM     36  H   LIG d   1       2.440  -7.076 -11.566  0.00  0.00     0.066 H 
ENDBRANCH  32  33
ENDBRANCH  30  32
ENDBRANCH  27  30
ENDBRANCH  26  27
ENDBRANCH   1  26
TORSDOF 6
ENDMDL
