MODEL 1
REMARK VINA RESULT:      -8.2      0.000      0.000
REMARK  8 active torsions:
REMARK  status: ('A' for Active; 'I' for Inactive)
REMARK    1  A    between atoms: C_1  and  O_2 
REMARK    2  A    between atoms: O_2  and  C_3 
REMARK    3  A    between atoms: C_3  and  C_4 
REMARK    4  A    between atoms: C_4  and  C_5 
REMARK       I    between atoms: C_5  and  N_7 
REMARK    5  A    between atoms: C_18  and  N_23 
REMARK    6  A    between atoms: N_23  and  S_24 
REMARK    7  A    between atoms: S_24  and  C_27 
REMARK    8  A    between atoms: C_31  and  C_33 
ROOT
ATOM      1  C   LIG d   1       6.518   0.681  -3.457  0.00  0.00     0.218 C 
ATOM      2  O   LIG d   1       6.282   1.789  -3.025  0.00  0.00    -0.276 OA
ATOM      3  N   LIG d   1       5.895  -0.394  -2.934  0.00  0.00    -0.300 N 
ATOM      4  C   LIG d   1       4.937  -0.251  -1.853  0.00  0.00     0.019 C 
ATOM      5  C   LIG d   1       3.636  -0.973  -2.177  0.00  0.00    -0.006 C 
ATOM      6  H   LIG d   1       3.033  -1.011  -1.269  0.00  0.00     0.033 H 
ATOM      7  C   LIG d   1       3.919  -2.409  -2.621  0.00  0.00    -0.037 C 
ATOM      8  C   LIG d   1       4.824  -2.366  -3.855  0.00  0.00     0.016 C 
ATOM      9  H   LIG d   1       4.965  -3.372  -4.251  0.00  0.00     0.038 H 
ATOM     10  C   LIG d   1       6.170  -1.746  -3.447  0.00  0.00     0.023 C 
ATOM     11  C   LIG d   1       4.206  -1.475  -4.907  0.00  0.00     0.027 C 
ATOM     12  C   LIG d   1       4.524  -1.724  -6.204  0.00  0.00    -0.040 C 
ATOM     13  C   LIG d   1       4.096  -0.861  -7.220  0.00  0.00    -0.032 C 
ATOM     14  C   LIG d   1       3.370   0.248  -6.884  0.00  0.00     0.112 C 
ATOM     15  C   LIG d   1       3.057   0.476  -5.529  0.00  0.00     0.274 C 
ATOM     16  O   LIG d   1       2.466   1.494  -5.206  0.00  0.00    -0.266 OA
ATOM     17  N   LIG d   1       3.404  -0.431  -4.582  0.00  0.00    -0.310 N 
ATOM     18  C   LIG d   1       2.836  -0.250  -3.246  0.00  0.00     0.031 C 
ATOM     19  H   LIG d   1       4.734   0.811  -1.709  0.00  0.00     0.047 H 
ATOM     20  H   LIG d   1       5.360  -0.662  -0.936  0.00  0.00     0.047 H 
ATOM     21  H   LIG d   1       4.421  -2.949  -1.817  0.00  0.00     0.028 H 
ATOM     22  H   LIG d   1       2.982  -2.907  -2.870  0.00  0.00     0.028 H 
ATOM     23  H   LIG d   1       6.635  -2.350  -2.667  0.00  0.00     0.047 H 
ATOM     24  H   LIG d   1       6.829  -1.687  -4.313  0.00  0.00     0.047 H 
ATOM     25  H   LIG d   1       5.112  -2.595  -6.454  0.00  0.00     0.064 H 
ATOM     26  H   LIG d   1       4.337  -1.067  -8.253  0.00  0.00     0.064 H 
ATOM     27  H   LIG d   1       2.816   0.815  -3.011  0.00  0.00     0.050 H 
ATOM     28  H   LIG d   1       1.815  -0.631  -3.240  0.00  0.00     0.050 H 
ENDROOT
BRANCH  14  29
ATOM     29  N   LIG d   1       2.948   1.147  -7.871  0.00  0.00    -0.211 N 
ATOM     30  H   LIG d   1       2.037   1.480  -7.867  0.00  0.00     0.174 HD
BRANCH  29  31
ATOM     31  S   LIG d   1       4.006   1.644  -9.045  0.00  0.00     0.072 S 
ATOM     32  O   LIG d   1       5.313   1.411  -8.538  0.00  0.00    -0.150 OA
ATOM     33  O   LIG d   1       3.570   2.929  -9.466  0.00  0.00    -0.150 OA
BRANCH  31  34
ATOM     34  C   LIG d   1       3.800   0.565 -10.422  0.00  0.00     0.109 A 
ATOM     35  C   LIG d   1       2.595  -0.084 -10.618  0.00  0.00    -0.023 A 
ATOM     36  C   LIG d   1       2.434  -0.930 -11.700  0.00  0.00     0.057 A 
ATOM     37  H   LIG d   1       1.780   0.071  -9.928  0.00  0.00     0.064 H 
ATOM     38  C   LIG d   1       3.478  -1.128 -12.583  0.00  0.00    -0.050 A 
ATOM     39  C   LIG d   1       4.683  -0.480 -12.387  0.00  0.00    -0.059 A 
ATOM     40  H   LIG d   1       3.352  -1.790 -13.428  0.00  0.00     0.062 H 
ATOM     41  C   LIG d   1       4.844   0.367 -11.307  0.00  0.00    -0.035 A 
ATOM     42  H   LIG d   1       5.496  -0.630 -13.082  0.00  0.00     0.062 H 
ATOM     43  H   LIG d   1       5.786   0.874 -11.154  0.00  0.00     0.064 H 
BRANCH  36  44
ATOM     44  C   LIG d   1       1.121  -1.638 -11.913  0.00  0.00     0.417 C 
ATOM     45  F   LIG d   1       0.088  -0.696 -11.975  0.00  0.00    -0.166 F 
ATOM     46  F   LIG d   1       1.169  -2.358 -13.112  0.00  0.00    -0.166 F 
ATOM     47  F   LIG d   1       0.887  -2.518 -10.850  0.00  0.00    -0.166 F 
ENDBRANCH  36  44
ENDBRANCH  31  34
ENDBRANCH  29  31
ENDBRANCH  14  29
BRANCH   1  48
ATOM     48  C   LIG d   1       7.509   0.505  -4.580  0.00  0.00     0.048 C 
ATOM     49  H   LIG d   1       8.242  -0.253  -4.302  0.00  0.00     0.038 H 
ATOM     50  H   LIG d   1       6.984   0.189  -5.482  0.00  0.00     0.038 H 
BRANCH  48  51
ATOM     51  C   LIG d   1       8.221   1.833  -4.843  0.00  0.00     0.056 C 
ATOM     52  H   LIG d   1       8.372   1.958  -5.916  0.00  0.00     0.056 H 
ATOM     53  H   LIG d   1       7.612   2.653  -4.464  0.00  0.00     0.056 H 
BRANCH  51  54
ATOM     54  O   LIG d   1       9.487   1.834  -4.181  0.00  0.00    -0.383 OA
BRANCH  54  55
ATOM     55  C   LIG d   1       9.685   2.946  -3.306  0.00  0.00     0.036 C 
ATOM     56  H   LIG d   1       8.720   3.297  -2.940  0.00  0.00     0.052 H 
ATOM     57  H   LIG d   1      10.305   2.640  -2.462  0.00  0.00     0.052 H 
ATOM     58  H   LIG d   1      10.183   3.751  -3.848  0.00  0.00     0.052 H 
ENDBRANCH  54  55
ENDBRANCH  51  54
ENDBRANCH  48  51
ENDBRANCH   1  48
TORSDOF 8
ENDMDL
MODEL 2
REMARK VINA RESULT:      -7.9      4.176      7.743
REMARK  8 active torsions:
REMARK  status: ('A' for Active; 'I' for Inactive)
REMARK    1  A    between atoms: C_1  and  O_2 
REMARK    2  A    between atoms: O_2  and  C_3 
REMARK    3  A    between atoms: C_3  and  C_4 
REMARK    4  A    between atoms: C_4  and  C_5 
REMARK       I    between atoms: C_5  and  N_7 
REMARK    5  A    between atoms: C_18  and  N_23 
REMARK    6  A    between atoms: N_23  and  S_24 
REMARK    7  A    between atoms: S_24  and  C_27 
REMARK    8  A    between atoms: C_31  and  C_33 
ROOT
ATOM      1  C   LIG d   1       4.366  -1.044 -11.303  0.00  0.00     0.218 C 
ATOM      2  O   LIG d   1       3.799  -2.109 -11.423  0.00  0.00    -0.276 OA
ATOM      3  N   LIG d   1       3.716   0.010 -10.771  0.00  0.00    -0.300 N 
ATOM      4  C   LIG d   1       2.336  -0.105 -10.334  0.00  0.00     0.019 C 
ATOM      5  C   LIG d   1       2.167   0.418  -8.914  0.00  0.00    -0.006 C 
ATOM      6  H   LIG d   1       1.100   0.501  -8.707  0.00  0.00     0.033 H 
ATOM      7  C   LIG d   1       2.787   1.810  -8.781  0.00  0.00    -0.037 C 
ATOM      8  C   LIG d   1       4.272   1.717  -9.139  0.00  0.00     0.016 C 
ATOM      9  H   LIG d   1       4.761   2.675  -8.962  0.00  0.00     0.038 H 
ATOM     10  C   LIG d   1       4.389   1.310 -10.618  0.00  0.00     0.023 C 
ATOM     11  C   LIG d   1       4.927   0.637  -8.311  0.00  0.00     0.027 C 
ATOM     12  C   LIG d   1       6.258   0.757  -8.065  0.00  0.00    -0.040 C 
ATOM     13  C   LIG d   1       6.958  -0.270  -7.418  0.00  0.00    -0.032 C 
ATOM     14  C   LIG d   1       6.283  -1.403  -7.056  0.00  0.00     0.112 C 
ATOM     15  C   LIG d   1       4.903  -1.494  -7.325  0.00  0.00     0.274 C 
ATOM     16  O   LIG d   1       4.302  -2.524  -7.067  0.00  0.00    -0.266 OA
ATOM     17  N   LIG d   1       4.238  -0.443  -7.865  0.00  0.00    -0.310 N 
ATOM     18  C   LIG d   1       2.777  -0.519  -7.887  0.00  0.00     0.031 C 
ATOM     19  H   LIG d   1       2.049  -1.156 -10.367  0.00  0.00     0.047 H 
ATOM     20  H   LIG d   1       1.694   0.463 -11.008  0.00  0.00     0.047 H 
ATOM     21  H   LIG d   1       2.288   2.500  -9.464  0.00  0.00     0.028 H 
ATOM     22  H   LIG d   1       2.677   2.163  -7.756  0.00  0.00     0.028 H 
ATOM     23  H   LIG d   1       3.902   2.055 -11.247  0.00  0.00     0.047 H 
ATOM     24  H   LIG d   1       5.439   1.218 -10.895  0.00  0.00     0.047 H 
ATOM     25  H   LIG d   1       6.781   1.651  -8.371  0.00  0.00     0.064 H 
ATOM     26  H   LIG d   1       8.012  -0.168  -7.210  0.00  0.00     0.064 H 
ATOM     27  H   LIG d   1       2.479  -1.541  -8.122  0.00  0.00     0.050 H 
ATOM     28  H   LIG d   1       2.393  -0.258  -6.901  0.00  0.00     0.050 H 
ENDROOT
BRANCH  14  29
ATOM     29  N   LIG d   1       6.956  -2.461  -6.432  0.00  0.00    -0.211 N 
ATOM     30  H   LIG d   1       7.152  -3.272  -6.927  0.00  0.00     0.174 HD
BRANCH  29  31
ATOM     31  S   LIG d   1       7.420  -2.327  -4.847  0.00  0.00     0.072 S 
ATOM     32  O   LIG d   1       8.298  -1.212  -4.775  0.00  0.00    -0.150 OA
ATOM     33  O   LIG d   1       7.803  -3.629  -4.425  0.00  0.00    -0.150 OA
BRANCH  31  34
ATOM     34  C   LIG d   1       5.985  -1.898  -3.919  0.00  0.00     0.109 A 
ATOM     35  C   LIG d   1       5.826  -0.608  -3.448  0.00  0.00    -0.023 A 
ATOM     36  C   LIG d   1       4.700  -0.272  -2.720  0.00  0.00     0.057 A 
ATOM     37  H   LIG d   1       6.581   0.137  -3.650  0.00  0.00     0.064 H 
ATOM     38  C   LIG d   1       3.734  -1.226  -2.462  0.00  0.00    -0.050 A 
ATOM     39  C   LIG d   1       3.892  -2.516  -2.932  0.00  0.00    -0.059 A 
ATOM     40  H   LIG d   1       2.854  -0.963  -1.893  0.00  0.00     0.062 H 
ATOM     41  C   LIG d   1       5.018  -2.852  -3.661  0.00  0.00    -0.035 A 
ATOM     42  H   LIG d   1       3.135  -3.260  -2.736  0.00  0.00     0.062 H 
ATOM     43  H   LIG d   1       5.142  -3.860  -4.029  0.00  0.00     0.064 H 
BRANCH  36  44
ATOM     44  C   LIG d   1       4.526   1.134  -2.207  0.00  0.00     0.417 C 
ATOM     45  F   LIG d   1       5.380   1.995  -2.906  0.00  0.00    -0.166 F 
ATOM     46  F   LIG d   1       3.200   1.539  -2.393  0.00  0.00    -0.166 F 
ATOM     47  F   LIG d   1       4.839   1.175  -0.843  0.00  0.00    -0.166 F 
ENDBRANCH  36  44
ENDBRANCH  31  34
ENDBRANCH  29  31
ENDBRANCH  14  29
BRANCH   1  48
ATOM     48  C   LIG d   1       5.799  -0.898 -11.748  0.00  0.00     0.048 C 
ATOM     49  H   LIG d   1       5.829  -0.716 -12.822  0.00  0.00     0.038 H 
ATOM     50  H   LIG d   1       6.259  -0.060 -11.224  0.00  0.00     0.038 H 
BRANCH  48  51
ATOM     51  C   LIG d   1       6.566  -2.183 -11.427  0.00  0.00     0.056 C 
ATOM     52  H   LIG d   1       5.871  -2.939 -11.060  0.00  0.00     0.056 H 
ATOM     53  H   LIG d   1       7.057  -2.548 -12.329  0.00  0.00     0.056 H 
BRANCH  51  54
ATOM     54  O   LIG d   1       7.549  -1.913 -10.426  0.00  0.00    -0.383 OA
BRANCH  54  55
ATOM     55  C   LIG d   1       8.479  -0.890 -10.784  0.00  0.00     0.036 C 
ATOM     56  H   LIG d   1       9.206  -1.291 -11.492  0.00  0.00     0.052 H 
ATOM     57  H   LIG d   1       7.945  -0.058 -11.245  0.00  0.00     0.052 H 
ATOM     58  H   LIG d   1       8.997  -0.540  -9.892  0.00  0.00     0.052 H 
ENDBRANCH  54  55
ENDBRANCH  51  54
ENDBRANCH  48  51
ENDBRANCH   1  48
TORSDOF 8
ENDMDL
MODEL 3
REMARK VINA RESULT:      -7.8      1.554      2.072
REMARK  8 active torsions:
REMARK  status: ('A' for Active; 'I' for Inactive)
REMARK    1  A    between atoms: C_1  and  O_2 
REMARK    2  A    between atoms: O_2  and  C_3 
REMARK    3  A    between atoms: C_3  and  C_4 
REMARK    4  A    between atoms: C_4  and  C_5 
REMARK       I    between atoms: C_5  and  N_7 
REMARK    5  A    between atoms: C_18  and  N_23 
REMARK    6  A    between atoms: N_23  and  S_24 
REMARK    7  A    between atoms: S_24  and  C_27 
REMARK    8  A    between atoms: C_31  and  C_33 
ROOT
ATOM      1  C   LIG d   1       6.574   0.715  -3.624  0.00  0.00     0.218 C 
ATOM      2  O   LIG d   1       6.353   1.846  -3.247  0.00  0.00    -0.276 OA
ATOM      3  N   LIG d   1       5.957  -0.327  -3.030  0.00  0.00    -0.300 N 
ATOM      4  C   LIG d   1       5.022  -0.119  -1.938  0.00  0.00     0.019 C 
ATOM      5  C   LIG d   1       3.711  -0.850  -2.195  0.00  0.00    -0.006 C 
ATOM      6  H   LIG d   1       3.128  -0.835  -1.275  0.00  0.00     0.033 H 
ATOM      7  C   LIG d   1       3.977  -2.309  -2.567  0.00  0.00    -0.037 C 
ATOM      8  C   LIG d   1       4.856  -2.339  -3.820  0.00  0.00     0.016 C 
ATOM      9  H   LIG d   1       4.983  -3.366  -4.164  0.00  0.00     0.038 H 
ATOM     10  C   LIG d   1       6.214  -1.706  -3.474  0.00  0.00     0.023 C 
ATOM     11  C   LIG d   1       4.221  -1.502  -4.906  0.00  0.00     0.027 C 
ATOM     12  C   LIG d   1       4.509  -1.823  -6.194  0.00  0.00    -0.040 C 
ATOM     13  C   LIG d   1       4.065  -1.013  -7.246  0.00  0.00    -0.032 C 
ATOM     14  C   LIG d   1       3.351   0.117  -6.955  0.00  0.00     0.112 C 
ATOM     15  C   LIG d   1       3.069   0.419  -5.608  0.00  0.00     0.274 C 
ATOM     16  O   LIG d   1       2.490   1.457  -5.328  0.00  0.00    -0.266 OA
ATOM     17  N   LIG d   1       3.431  -0.437  -4.621  0.00  0.00    -0.310 N 
ATOM     18  C   LIG d   1       2.892  -0.180  -3.285  0.00  0.00     0.031 C 
ATOM     19  H   LIG d   1       4.828   0.950  -1.848  0.00  0.00     0.047 H 
ATOM     20  H   LIG d   1       5.463  -0.483  -1.010  0.00  0.00     0.047 H 
ATOM     21  H   LIG d   1       4.494  -2.808  -1.746  0.00  0.00     0.028 H 
ATOM     22  H   LIG d   1       3.032  -2.814  -2.768  0.00  0.00     0.028 H 
ATOM     23  H   LIG d   1       6.692  -2.270  -2.673  0.00  0.00     0.047 H 
ATOM     24  H   LIG d   1       6.854  -1.698  -4.356  0.00  0.00     0.047 H 
ATOM     25  H   LIG d   1       5.087  -2.710  -6.408  0.00  0.00     0.064 H 
ATOM     26  H   LIG d   1       4.282  -1.276  -8.271  0.00  0.00     0.064 H 
ATOM     27  H   LIG d   1       2.882   0.896  -3.108  0.00  0.00     0.050 H 
ATOM     28  H   LIG d   1       1.870  -0.554  -3.237  0.00  0.00     0.050 H 
ENDROOT
BRANCH  14  29
ATOM     29  N   LIG d   1       2.913   0.965  -7.980  0.00  0.00    -0.211 N 
ATOM     30  H   LIG d   1       2.024   1.350  -7.944  0.00  0.00     0.174 HD
BRANCH  29  31
ATOM     31  S   LIG d   1       3.915   1.310  -9.253  0.00  0.00     0.072 S 
ATOM     32  O   LIG d   1       5.219   0.899  -8.866  0.00  0.00    -0.150 OA
ATOM     33  O   LIG d   1       3.621   2.643  -9.650  0.00  0.00    -0.150 OA
BRANCH  31  34
ATOM     34  C   LIG d   1       3.435   0.269 -10.591  0.00  0.00     0.109 A 
ATOM     35  C   LIG d   1       4.244   0.160 -11.707  0.00  0.00    -0.023 A 
ATOM     36  C   LIG d   1       3.868  -0.658 -12.756  0.00  0.00     0.057 A 
ATOM     37  H   LIG d   1       5.170   0.712 -11.758  0.00  0.00     0.064 H 
ATOM     38  C   LIG d   1       2.682  -1.366 -12.689  0.00  0.00    -0.050 A 
ATOM     39  C   LIG d   1       1.873  -1.256 -11.574  0.00  0.00    -0.059 A 
ATOM     40  H   LIG d   1       2.388  -2.004 -13.510  0.00  0.00     0.062 H 
ATOM     41  C   LIG d   1       2.250  -0.440 -10.525  0.00  0.00    -0.035 A 
ATOM     42  H   LIG d   1       0.950  -1.814 -11.520  0.00  0.00     0.062 H 
ATOM     43  H   LIG d   1       1.617  -0.354  -9.653  0.00  0.00     0.064 H 
BRANCH  36  44
ATOM     44  C   LIG d   1       4.749  -0.777 -13.973  0.00  0.00     0.417 C 
ATOM     45  F   LIG d   1       4.332   0.142 -14.942  0.00  0.00    -0.166 F 
ATOM     46  F   LIG d   1       6.075  -0.510 -13.616  0.00  0.00    -0.166 F 
ATOM     47  F   LIG d   1       4.658  -2.075 -14.490  0.00  0.00    -0.166 F 
ENDBRANCH  36  44
ENDBRANCH  31  34
ENDBRANCH  29  31
ENDBRANCH  14  29
BRANCH   1  48
ATOM     48  C   LIG d   1       7.539   0.472  -4.755  0.00  0.00     0.048 C 
ATOM     49  H   LIG d   1       7.781  -0.590  -4.805  0.00  0.00     0.038 H 
ATOM     50  H   LIG d   1       7.085   0.786  -5.695  0.00  0.00     0.038 H 
BRANCH  48  51
ATOM     51  C   LIG d   1       8.819   1.276  -4.514  0.00  0.00     0.056 C 
ATOM     52  H   LIG d   1       8.691   1.908  -3.636  0.00  0.00     0.056 H 
ATOM     53  H   LIG d   1       9.652   0.592  -4.352  0.00  0.00     0.056 H 
BRANCH  51  54
ATOM     54  O   LIG d   1       9.090   2.093  -5.654  0.00  0.00    -0.383 OA
BRANCH  54  55
ATOM     55  C   LIG d   1       8.268   1.804  -6.786  0.00  0.00     0.036 C 
ATOM     56  H   LIG d   1       7.776   0.842  -6.643  0.00  0.00     0.052 H 
ATOM     57  H   LIG d   1       7.513   2.584  -6.897  0.00  0.00     0.052 H 
ATOM     58  H   LIG d   1       8.885   1.766  -7.684  0.00  0.00     0.052 H 
ENDBRANCH  54  55
ENDBRANCH  51  54
ENDBRANCH  48  51
ENDBRANCH   1  48
TORSDOF 8
ENDMDL
MODEL 4
REMARK VINA RESULT:      -7.5      4.183      7.839
REMARK  8 active torsions:
REMARK  status: ('A' for Active; 'I' for Inactive)
REMARK    1  A    between atoms: C_1  and  O_2 
REMARK    2  A    between atoms: O_2  and  C_3 
REMARK    3  A    between atoms: C_3  and  C_4 
REMARK    4  A    between atoms: C_4  and  C_5 
REMARK       I    between atoms: C_5  and  N_7 
REMARK    5  A    between atoms: C_18  and  N_23 
REMARK    6  A    between atoms: N_23  and  S_24 
REMARK    7  A    between atoms: S_24  and  C_27 
REMARK    8  A    between atoms: C_31  and  C_33 
ROOT
ATOM      1  C   LIG d   1       3.394  -1.544 -10.736  0.00  0.00     0.218 C 
ATOM      2  O   LIG d   1       2.509  -2.282 -10.356  0.00  0.00    -0.276 OA
ATOM      3  N   LIG d   1       3.338  -0.226 -10.461  0.00  0.00    -0.300 N 
ATOM      4  C   LIG d   1       2.228   0.335  -9.711  0.00  0.00     0.019 C 
ATOM      5  C   LIG d   1       2.728   1.191  -8.555  0.00  0.00    -0.006 C 
ATOM      6  H   LIG d   1       1.881   1.747  -8.152  0.00  0.00     0.033 H 
ATOM      7  C   LIG d   1       3.768   2.198  -9.047  0.00  0.00    -0.037 C 
ATOM      8  C   LIG d   1       4.930   1.428  -9.678  0.00  0.00     0.016 C 
ATOM      9  H   LIG d   1       5.731   2.115  -9.952  0.00  0.00     0.038 H 
ATOM     10  C   LIG d   1       4.402   0.683 -10.916  0.00  0.00     0.023 C 
ATOM     11  C   LIG d   1       5.444   0.394  -8.703  0.00  0.00     0.027 C 
ATOM     12  C   LIG d   1       6.742   0.012  -8.820  0.00  0.00    -0.040 C 
ATOM     13  C   LIG d   1       7.250  -1.033  -8.040  0.00  0.00    -0.032 C 
ATOM     14  C   LIG d   1       6.412  -1.678  -7.171  0.00  0.00     0.112 C 
ATOM     15  C   LIG d   1       5.072  -1.255  -7.074  0.00  0.00     0.274 C 
ATOM     16  O   LIG d   1       4.297  -1.862  -6.352  0.00  0.00    -0.266 OA
ATOM     17  N   LIG d   1       4.639  -0.178  -7.773  0.00  0.00    -0.310 N 
ATOM     18  C   LIG d   1       3.314   0.347  -7.437  0.00  0.00     0.031 C 
ATOM     19  H   LIG d   1       1.626  -0.484  -9.319  0.00  0.00     0.047 H 
ATOM     20  H   LIG d   1       1.614   0.946 -10.374  0.00  0.00     0.047 H 
ATOM     21  H   LIG d   1       3.318   2.856  -9.792  0.00  0.00     0.028 H 
ATOM     22  H   LIG d   1       4.132   2.788  -8.206  0.00  0.00     0.028 H 
ATOM     23  H   LIG d   1       3.998   1.398 -11.633  0.00  0.00     0.047 H 
ATOM     24  H   LIG d   1       5.207   0.110 -11.375  0.00  0.00     0.047 H 
ATOM     25  H   LIG d   1       7.388   0.520  -9.522  0.00  0.00     0.064 H 
ATOM     26  H   LIG d   1       8.286  -1.327  -8.123  0.00  0.00     0.064 H 
ATOM     27  H   LIG d   1       2.643  -0.489  -7.236  0.00  0.00     0.050 H 
ATOM     28  H   LIG d   1       3.393   0.958  -6.538  0.00  0.00     0.050 H 
ENDROOT
BRANCH  14  29
ATOM     29  N   LIG d   1       6.879  -2.745  -6.394  0.00  0.00    -0.211 N 
ATOM     30  H   LIG d   1       6.649  -3.657  -6.634  0.00  0.00     0.174 HD
BRANCH  29  31
ATOM     31  S   LIG d   1       7.826  -2.451  -5.067  0.00  0.00     0.072 S 
ATOM     32  O   LIG d   1       9.121  -2.129  -5.556  0.00  0.00    -0.150 OA
ATOM     33  O   LIG d   1       7.598  -3.522  -4.161  0.00  0.00    -0.150 OA
BRANCH  31  34
ATOM     34  C   LIG d   1       7.203  -0.996  -4.295  0.00  0.00     0.109 A 
ATOM     35  C   LIG d   1       6.081  -1.066  -3.489  0.00  0.00    -0.023 A 
ATOM     36  C   LIG d   1       5.592   0.076  -2.883  0.00  0.00     0.057 A 
ATOM     37  H   LIG d   1       5.587  -2.014  -3.334  0.00  0.00     0.064 H 
ATOM     38  C   LIG d   1       6.225   1.289  -3.083  0.00  0.00    -0.050 A 
ATOM     39  C   LIG d   1       7.346   1.360  -3.888  0.00  0.00    -0.059 A 
ATOM     40  H   LIG d   1       5.843   2.182  -2.609  0.00  0.00     0.062 H 
ATOM     41  C   LIG d   1       7.836   0.217  -4.493  0.00  0.00    -0.035 A 
ATOM     42  H   LIG d   1       7.844   2.306  -4.039  0.00  0.00     0.062 H 
ATOM     43  H   LIG d   1       8.712   0.273  -5.122  0.00  0.00     0.064 H 
BRANCH  36  44
ATOM     44  C   LIG d   1       4.369  -0.001  -2.006  0.00  0.00     0.417 C 
ATOM     45  F   LIG d   1       3.223  -0.047  -2.807  0.00  0.00    -0.166 F 
ATOM     46  F   LIG d   1       4.434  -1.153  -1.215  0.00  0.00    -0.166 F 
ATOM     47  F   LIG d   1       4.316   1.129  -1.180  0.00  0.00    -0.166 F 
ENDBRANCH  36  44
ENDBRANCH  31  34
ENDBRANCH  29  31
ENDBRANCH  14  29
BRANCH   1  48
ATOM     48  C   LIG d   1       4.557  -2.102 -11.517  0.00  0.00     0.048 C 
ATOM     49  H   LIG d   1       4.184  -2.741 -12.317  0.00  0.00     0.038 H 
ATOM     50  H   LIG d   1       5.134  -1.282 -11.944  0.00  0.00     0.038 H 
BRANCH  48  51
ATOM     51  C   LIG d   1       5.450  -2.921 -10.583  0.00  0.00     0.056 C 
ATOM     52  H   LIG d   1       6.480  -2.882 -10.939  0.00  0.00     0.056 H 
ATOM     53  H   LIG d   1       5.397  -2.510  -9.575  0.00  0.00     0.056 H 
BRANCH  51  54
ATOM     54  O   LIG d   1       5.004  -4.279 -10.567  0.00  0.00    -0.383 OA
BRANCH  54  55
ATOM     55  C   LIG d   1       5.219  -4.947  -9.322  0.00  0.00     0.036 C 
ATOM     56  H   LIG d   1       5.433  -4.211  -8.547  0.00  0.00     0.052 H 
ATOM     57  H   LIG d   1       4.325  -5.510  -9.052  0.00  0.00     0.052 H 
ATOM     58  H   LIG d   1       6.063  -5.630  -9.417  0.00  0.00     0.052 H 
ENDBRANCH  54  55
ENDBRANCH  51  54
ENDBRANCH  48  51
ENDBRANCH   1  48
TORSDOF 8
ENDMDL
MODEL 5
REMARK VINA RESULT:      -7.5      3.865      7.823
REMARK  8 active torsions:
REMARK  status: ('A' for Active; 'I' for Inactive)
REMARK    1  A    between atoms: C_1  and  O_2 
REMARK    2  A    between atoms: O_2  and  C_3 
REMARK    3  A    between atoms: C_3  and  C_4 
REMARK    4  A    between atoms: C_4  and  C_5 
REMARK       I    between atoms: C_5  and  N_7 
REMARK    5  A    between atoms: C_18  and  N_23 
REMARK    6  A    between atoms: N_23  and  S_24 
REMARK    7  A    between atoms: S_24  and  C_27 
REMARK    8  A    between atoms: C_31  and  C_33 
ROOT
ATOM      1  C   LIG d   1       4.216  -1.033 -11.180  0.00  0.00     0.218 C 
ATOM      2  O   LIG d   1       3.759  -2.152 -11.081  0.00  0.00    -0.276 OA
ATOM      3  N   LIG d   1       3.559   0.014 -10.643  0.00  0.00    -0.300 N 
ATOM      4  C   LIG d   1       2.301  -0.172  -9.941  0.00  0.00     0.019 C 
ATOM      5  C   LIG d   1       2.333   0.502  -8.576  0.00  0.00    -0.006 C 
ATOM      6  H   LIG d   1       1.318   0.512  -8.179  0.00  0.00     0.033 H 
ATOM      7  C   LIG d   1       2.807   1.950  -8.707  0.00  0.00    -0.037 C 
ATOM      8  C   LIG d   1       4.205   1.949  -9.330  0.00  0.00     0.016 C 
ATOM      9  H   LIG d   1       4.608   2.962  -9.348  0.00  0.00     0.038 H 
ATOM     10  C   LIG d   1       4.100   1.378 -10.754  0.00  0.00     0.023 C 
ATOM     11  C   LIG d   1       5.115   1.041  -8.537  0.00  0.00     0.027 C 
ATOM     12  C   LIG d   1       6.446   1.309  -8.563  0.00  0.00    -0.040 C 
ATOM     13  C   LIG d   1       7.361   0.436  -7.961  0.00  0.00    -0.032 C 
ATOM     14  C   LIG d   1       6.893  -0.702  -7.363  0.00  0.00     0.112 C 
ATOM     15  C   LIG d   1       5.506  -0.949  -7.353  0.00  0.00     0.274 C 
ATOM     16  O   LIG d   1       5.079  -1.990  -6.881  0.00  0.00    -0.266 OA
ATOM     17  N   LIG d   1       4.642  -0.035  -7.860  0.00  0.00    -0.310 N 
ATOM     18  C   LIG d   1       3.218  -0.245  -7.595  0.00  0.00     0.031 C 
ATOM     19  H   LIG d   1       2.132  -1.241  -9.812  0.00  0.00     0.047 H 
ATOM     20  H   LIG d   1       1.489   0.250 -10.534  0.00  0.00     0.047 H 
ATOM     21  H   LIG d   1       2.121   2.504  -9.348  0.00  0.00     0.028 H 
ATOM     22  H   LIG d   1       2.845   2.413  -7.721  0.00  0.00     0.028 H 
ATOM     23  H   LIG d   1       3.428   1.996 -11.352  0.00  0.00     0.047 H 
ATOM     24  H   LIG d   1       5.086   1.349 -11.216  0.00  0.00     0.047 H 
ATOM     25  H   LIG d   1       6.803   2.203  -9.052  0.00  0.00     0.064 H 
ATOM     26  H   LIG d   1       8.418   0.657  -7.970  0.00  0.00     0.064 H 
ATOM     27  H   LIG d   1       2.999  -1.311  -7.663  0.00  0.00     0.050 H 
ATOM     28  H   LIG d   1       2.991   0.096  -6.585  0.00  0.00     0.050 H 
ENDROOT
BRANCH  14  29
ATOM     29  N   LIG d   1       7.781  -1.611  -6.774  0.00  0.00    -0.211 N 
ATOM     30  H   LIG d   1       7.994  -2.443  -7.226  0.00  0.00     0.174 HD
BRANCH  29  31
ATOM     31  S   LIG d   1       8.467  -1.266  -5.307  0.00  0.00     0.072 S 
ATOM     32  O   LIG d   1       9.414  -0.232  -5.536  0.00  0.00    -0.150 OA
ATOM     33  O   LIG d   1       8.824  -2.512  -4.724  0.00  0.00    -0.150 OA
BRANCH  31  34
ATOM     34  C   LIG d   1       7.204  -0.577  -4.290  0.00  0.00     0.109 A 
ATOM     35  C   LIG d   1       6.218  -1.392  -3.765  0.00  0.00    -0.023 A 
ATOM     36  C   LIG d   1       5.227  -0.850  -2.967  0.00  0.00     0.057 A 
ATOM     37  H   LIG d   1       6.222  -2.450  -3.977  0.00  0.00     0.064 H 
ATOM     38  C   LIG d   1       5.223   0.505  -2.694  0.00  0.00    -0.050 A 
ATOM     39  C   LIG d   1       6.208   1.319  -3.220  0.00  0.00    -0.059 A 
ATOM     40  H   LIG d   1       4.448   0.928  -2.071  0.00  0.00     0.062 H 
ATOM     41  C   LIG d   1       7.199   0.778  -4.017  0.00  0.00    -0.035 A 
ATOM     42  H   LIG d   1       6.208   2.377  -3.002  0.00  0.00     0.062 H 
ATOM     43  H   LIG d   1       7.970   1.415  -4.427  0.00  0.00     0.064 H 
BRANCH  36  44
ATOM     44  C   LIG d   1       4.152  -1.738  -2.394  0.00  0.00     0.417 C 
ATOM     45  F   LIG d   1       4.364  -1.901  -1.021  0.00  0.00    -0.166 F 
ATOM     46  F   LIG d   1       2.900  -1.150  -2.608  0.00  0.00    -0.166 F 
ATOM     47  F   LIG d   1       4.194  -2.987  -3.024  0.00  0.00    -0.166 F 
ENDBRANCH  36  44
ENDBRANCH  31  34
ENDBRANCH  29  31
ENDBRANCH  14  29
BRANCH   1  48
ATOM     48  C   LIG d   1       5.521  -0.813 -11.903  0.00  0.00     0.048 C 
ATOM     49  H   LIG d   1       5.872   0.203 -11.718  0.00  0.00     0.038 H 
ATOM     50  H   LIG d   1       6.262  -1.525 -11.540  0.00  0.00     0.038 H 
BRANCH  48  51
ATOM     51  C   LIG d   1       5.311  -1.016 -13.405  0.00  0.00     0.056 C 
ATOM     52  H   LIG d   1       5.030  -2.051 -13.596  0.00  0.00     0.056 H 
ATOM     53  H   LIG d   1       4.517  -0.354 -13.753  0.00  0.00     0.056 H 
BRANCH  51  54
ATOM     54  O   LIG d   1       6.522  -0.714 -14.100  0.00  0.00    -0.383 OA
BRANCH  54  55
ATOM     55  C   LIG d   1       7.705  -0.930 -13.329  0.00  0.00     0.036 C 
ATOM     56  H   LIG d   1       7.465  -1.543 -12.460  0.00  0.00     0.052 H 
ATOM     57  H   LIG d   1       8.449  -1.442 -13.940  0.00  0.00     0.052 H 
ATOM     58  H   LIG d   1       8.104   0.029 -12.999  0.00  0.00     0.052 H 
ENDBRANCH  54  55
ENDBRANCH  51  54
ENDBRANCH  48  51
ENDBRANCH   1  48
TORSDOF 8
ENDMDL
MODEL 6
REMARK VINA RESULT:      -7.2      4.063      7.372
REMARK  8 active torsions:
REMARK  status: ('A' for Active; 'I' for Inactive)
REMARK    1  A    between atoms: C_1  and  O_2 
REMARK    2  A    between atoms: O_2  and  C_3 
REMARK    3  A    between atoms: C_3  and  C_4 
REMARK    4  A    between atoms: C_4  and  C_5 
REMARK       I    between atoms: C_5  and  N_7 
REMARK    5  A    between atoms: C_18  and  N_23 
REMARK    6  A    between atoms: N_23  and  S_24 
REMARK    7  A    between atoms: S_24  and  C_27 
REMARK    8  A    between atoms: C_31  and  C_33 
ROOT
ATOM      1  C   LIG d   1       4.090  -3.573  -9.094  0.00  0.00     0.218 C 
ATOM      2  O   LIG d   1       3.501  -3.908  -8.088  0.00  0.00    -0.276 OA
ATOM      3  N   LIG d   1       3.456  -2.847 -10.037  0.00  0.00    -0.300 N 
ATOM      4  C   LIG d   1       2.069  -2.452  -9.869  0.00  0.00     0.019 C 
ATOM      5  C   LIG d   1       1.894  -0.958 -10.104  0.00  0.00    -0.006 C 
ATOM      6  H   LIG d   1       0.827  -0.747 -10.169  0.00  0.00     0.033 H 
ATOM      7  C   LIG d   1       2.542  -0.547 -11.427  0.00  0.00    -0.037 C 
ATOM      8  C   LIG d   1       4.029  -0.905 -11.372  0.00  0.00     0.016 C 
ATOM      9  H   LIG d   1       4.536  -0.536 -12.264  0.00  0.00     0.038 H 
ATOM     10  C   LIG d   1       4.155  -2.433 -11.264  0.00  0.00     0.023 C 
ATOM     11  C   LIG d   1       4.651  -0.303 -10.134  0.00  0.00     0.027 C 
ATOM     12  C   LIG d   1       5.981  -0.027 -10.171  0.00  0.00    -0.040 C 
ATOM     13  C   LIG d   1       6.650   0.407  -9.021  0.00  0.00    -0.032 C 
ATOM     14  C   LIG d   1       5.948   0.531  -7.854  0.00  0.00     0.112 C 
ATOM     15  C   LIG d   1       4.570   0.239  -7.851  0.00  0.00     0.274 C 
ATOM     16  O   LIG d   1       3.943   0.283  -6.804  0.00  0.00    -0.266 OA
ATOM     17  N   LIG d   1       3.934  -0.086  -9.004  0.00  0.00    -0.310 N 
ATOM     18  C   LIG d   1       2.471  -0.134  -8.968  0.00  0.00     0.031 C 
ATOM     19  H   LIG d   1       1.760  -2.696  -8.853  0.00  0.00     0.047 H 
ATOM     20  H   LIG d   1       1.447  -3.005 -10.575  0.00  0.00     0.047 H 
ATOM     21  H   LIG d   1       2.067  -1.082 -12.250  0.00  0.00     0.028 H 
ATOM     22  H   LIG d   1       2.427   0.528 -11.572  0.00  0.00     0.028 H 
ATOM     23  H   LIG d   1       3.692  -2.906 -12.131  0.00  0.00     0.047 H 
ATOM     24  H   LIG d   1       5.206  -2.715 -11.205  0.00  0.00     0.047 H 
ATOM     25  H   LIG d   1       6.526  -0.146 -11.096  0.00  0.00     0.064 H 
ATOM     26  H   LIG d   1       7.705   0.639  -9.054  0.00  0.00     0.064 H 
ATOM     27  H   LIG d   1       2.155  -0.569  -8.020  0.00  0.00     0.050 H 
ATOM     28  H   LIG d   1       2.082   0.882  -9.036  0.00  0.00     0.050 H 
ENDROOT
BRANCH  14  29
ATOM     29  N   LIG d   1       6.590   0.938  -6.678  0.00  0.00    -0.211 N 
ATOM     30  H   LIG d   1       6.497   1.851  -6.365  0.00  0.00     0.174 HD
BRANCH  29  31
ATOM     31  S   LIG d   1       7.509  -0.141  -5.820  0.00  0.00     0.072 S 
ATOM     32  O   LIG d   1       8.011   0.561  -4.691  0.00  0.00    -0.150 OA
ATOM     33  O   LIG d   1       8.360  -0.784  -6.759  0.00  0.00    -0.150 OA
BRANCH  31  34
ATOM     34  C   LIG d   1       6.417  -1.377  -5.201  0.00  0.00     0.109 A 
ATOM     35  C   LIG d   1       5.589  -1.095  -4.129  0.00  0.00    -0.023 A 
ATOM     36  C   LIG d   1       4.732  -2.065  -3.644  0.00  0.00     0.057 A 
ATOM     37  H   LIG d   1       5.612  -0.117  -3.674  0.00  0.00     0.064 H 
ATOM     38  C   LIG d   1       4.704  -3.317  -4.229  0.00  0.00    -0.050 A 
ATOM     39  C   LIG d   1       5.532  -3.600  -5.299  0.00  0.00    -0.059 A 
ATOM     40  H   LIG d   1       4.035  -4.076  -3.848  0.00  0.00     0.062 H 
ATOM     41  C   LIG d   1       6.388  -2.630  -5.785  0.00  0.00    -0.035 A 
ATOM     42  H   LIG d   1       5.505  -4.577  -5.759  0.00  0.00     0.062 H 
ATOM     43  H   LIG d   1       7.034  -2.851  -6.622  0.00  0.00     0.064 H 
BRANCH  36  44
ATOM     44  C   LIG d   1       3.831  -1.758  -2.476  0.00  0.00     0.417 C 
ATOM     45  F   LIG d   1       3.455  -2.951  -1.850  0.00  0.00    -0.166 F 
ATOM     46  F   LIG d   1       4.511  -0.945  -1.563  0.00  0.00    -0.166 F 
ATOM     47  F   LIG d   1       2.688  -1.091  -2.933  0.00  0.00    -0.166 F 
ENDBRANCH  36  44
ENDBRANCH  31  34
ENDBRANCH  29  31
ENDBRANCH  14  29
BRANCH   1  48
ATOM     48  C   LIG d   1       5.531  -3.970  -9.292  0.00  0.00     0.048 C 
ATOM     49  H   LIG d   1       5.854  -3.678 -10.292  0.00  0.00     0.038 H 
ATOM     50  H   LIG d   1       6.151  -3.469  -8.549  0.00  0.00     0.038 H 
BRANCH  48  51
ATOM     51  C   LIG d   1       5.668  -5.485  -9.134  0.00  0.00     0.056 C 
ATOM     52  H   LIG d   1       4.679  -5.931  -9.023  0.00  0.00     0.056 H 
ATOM     53  H   LIG d   1       6.157  -5.900 -10.017  0.00  0.00     0.056 H 
BRANCH  51  54
ATOM     54  O   LIG d   1       6.454  -5.774  -7.976  0.00  0.00    -0.383 OA
BRANCH  54  55
ATOM     55  C   LIG d   1       7.798  -5.294  -8.050  0.00  0.00     0.036 C 
ATOM     56  H   LIG d   1       8.032  -4.729  -7.148  0.00  0.00     0.052 H 
ATOM     57  H   LIG d   1       8.482  -6.140  -8.136  0.00  0.00     0.052 H 
ATOM     58  H   LIG d   1       7.906  -4.649  -8.922  0.00  0.00     0.052 H 
ENDBRANCH  54  55
ENDBRANCH  51  54
ENDBRANCH  48  51
ENDBRANCH   1  48
TORSDOF 8
ENDMDL
MODEL 7
REMARK VINA RESULT:      -7.2      5.829      9.289
REMARK  8 active torsions:
REMARK  status: ('A' for Active; 'I' for Inactive)
REMARK    1  A    between atoms: C_1  and  O_2 
REMARK    2  A    between atoms: O_2  and  C_3 
REMARK    3  A    between atoms: C_3  and  C_4 
REMARK    4  A    between atoms: C_4  and  C_5 
REMARK       I    between atoms: C_5  and  N_7 
REMARK    5  A    between atoms: C_18  and  N_23 
REMARK    6  A    between atoms: N_23  and  S_24 
REMARK    7  A    between atoms: S_24  and  C_27 
REMARK    8  A    between atoms: C_31  and  C_33 
ROOT
ATOM      1  C   LIG d   1      11.985   6.800  -1.713  0.00  0.00     0.218 C 
ATOM      2  O   LIG d   1      12.050   6.241  -0.639  0.00  0.00    -0.276 OA
ATOM      3  N   LIG d   1      12.991   6.672  -2.602  0.00  0.00    -0.300 N 
ATOM      4  C   LIG d   1      14.162   5.869  -2.295  0.00  0.00     0.019 C 
ATOM      5  C   LIG d   1      14.455   4.881  -3.416  0.00  0.00    -0.006 C 
ATOM      6  H   LIG d   1      15.441   4.451  -3.241  0.00  0.00     0.033 H 
ATOM      7  C   LIG d   1      14.482   5.598  -4.766  0.00  0.00    -0.037 C 
ATOM      8  C   LIG d   1      13.123   6.266  -4.990  0.00  0.00     0.016 C 
ATOM      9  H   LIG d   1      13.080   6.705  -5.986  0.00  0.00     0.038 H 
ATOM     10  C   LIG d   1      12.929   7.343  -3.910  0.00  0.00     0.023 C 
ATOM     11  C   LIG d   1      12.022   5.244  -4.823  0.00  0.00     0.027 C 
ATOM     12  C   LIG d   1      10.858   5.464  -5.488  0.00  0.00    -0.040 C 
ATOM     13  C   LIG d   1       9.751   4.633  -5.279  0.00  0.00    -0.032 C 
ATOM     14  C   LIG d   1       9.854   3.607  -4.378  0.00  0.00     0.112 C 
ATOM     15  C   LIG d   1      11.076   3.408  -3.707  0.00  0.00     0.274 C 
ATOM     16  O   LIG d   1      11.165   2.539  -2.855  0.00  0.00    -0.266 OA
ATOM     17  N   LIG d   1      12.157   4.171  -4.005  0.00  0.00    -0.310 N 
ATOM     18  C   LIG d   1      13.445   3.748  -3.452  0.00  0.00     0.031 C 
ATOM     19  H   LIG d   1      13.974   5.322  -1.372  0.00  0.00     0.047 H 
ATOM     20  H   LIG d   1      15.023   6.523  -2.155  0.00  0.00     0.047 H 
ATOM     21  H   LIG d   1      15.266   6.357  -4.763  0.00  0.00     0.028 H 
ATOM     22  H   LIG d   1      14.672   4.876  -5.561  0.00  0.00     0.028 H 
ATOM     23  H   LIG d   1      13.723   8.087  -3.982  0.00  0.00     0.047 H 
ATOM     24  H   LIG d   1      11.959   7.823  -4.034  0.00  0.00     0.047 H 
ATOM     25  H   LIG d   1      10.786   6.286  -6.184  0.00  0.00     0.064 H 
ATOM     26  H   LIG d   1       8.830   4.799  -5.817  0.00  0.00     0.064 H 
ATOM     27  H   LIG d   1      13.290   3.380  -2.438  0.00  0.00     0.050 H 
ATOM     28  H   LIG d   1      13.844   2.939  -4.064  0.00  0.00     0.050 H 
ENDROOT
BRANCH  14  29
ATOM     29  N   LIG d   1       8.759   2.772  -4.124  0.00  0.00    -0.211 N 
ATOM     30  H   LIG d   1       8.148   2.980  -3.399  0.00  0.00     0.174 HD
BRANCH  29  31
ATOM     31  S   LIG d   1       8.505   1.431  -5.062  0.00  0.00     0.072 S 
ATOM     32  O   LIG d   1       9.732   0.713  -5.083  0.00  0.00    -0.150 OA
ATOM     33  O   LIG d   1       7.865   1.881  -6.248  0.00  0.00    -0.150 OA
BRANCH  31  34
ATOM     34  C   LIG d   1       7.342   0.415  -4.215  0.00  0.00     0.109 A 
ATOM     35  C   LIG d   1       6.256   0.989  -3.579  0.00  0.00    -0.023 A 
ATOM     36  C   LIG d   1       5.343   0.192  -2.915  0.00  0.00     0.057 A 
ATOM     37  H   LIG d   1       6.121   2.060  -3.604  0.00  0.00     0.064 H 
ATOM     38  C   LIG d   1       5.516  -1.179  -2.885  0.00  0.00    -0.050 A 
ATOM     39  C   LIG d   1       6.602  -1.753  -3.519  0.00  0.00    -0.059 A 
ATOM     40  H   LIG d   1       4.803  -1.802  -2.364  0.00  0.00     0.062 H 
ATOM     41  C   LIG d   1       7.514  -0.956  -4.184  0.00  0.00    -0.035 A 
ATOM     42  H   LIG d   1       6.734  -2.825  -3.500  0.00  0.00     0.062 H 
ATOM     43  H   LIG d   1       8.363  -1.405  -4.680  0.00  0.00     0.064 H 
BRANCH  36  44
ATOM     44  C   LIG d   1       4.159   0.817  -2.222  0.00  0.00     0.417 C 
ATOM     45  F   LIG d   1       3.128  -0.123  -2.121  0.00  0.00    -0.166 F 
ATOM     46  F   LIG d   1       4.537   1.238  -0.942  0.00  0.00    -0.166 F 
ATOM     47  F   LIG d   1       3.715   1.919  -2.963  0.00  0.00    -0.166 F 
ENDBRANCH  36  44
ENDBRANCH  31  34
ENDBRANCH  29  31
ENDBRANCH  14  29
BRANCH   1  48
ATOM     48  C   LIG d   1      10.781   7.639  -2.056  0.00  0.00     0.048 C 
ATOM     49  H   LIG d   1      10.820   8.576  -1.500  0.00  0.00     0.038 H 
ATOM     50  H   LIG d   1      10.777   7.851  -3.125  0.00  0.00     0.038 H 
BRANCH  48  51
ATOM     51  C   LIG d   1       9.507   6.877  -1.683  0.00  0.00     0.056 C 
ATOM     52  H   LIG d   1       9.024   6.510  -2.589  0.00  0.00     0.056 H 
ATOM     53  H   LIG d   1       9.763   6.034  -1.041  0.00  0.00     0.056 H 
BRANCH  51  54
ATOM     54  O   LIG d   1       8.615   7.751  -0.989  0.00  0.00    -0.383 OA
BRANCH  54  55
ATOM     55  C   LIG d   1       9.164   9.040  -0.709  0.00  0.00     0.036 C 
ATOM     56  H   LIG d   1       8.458   9.614  -0.108  0.00  0.00     0.052 H 
ATOM     57  H   LIG d   1      10.099   8.926  -0.159  0.00  0.00     0.052 H 
ATOM     58  H   LIG d   1       9.355   9.565  -1.645  0.00  0.00     0.052 H 
ENDBRANCH  54  55
ENDBRANCH  51  54
ENDBRANCH  48  51
ENDBRANCH   1  48
TORSDOF 8
ENDMDL
MODEL 8
REMARK VINA RESULT:      -7.0      3.382      4.074
REMARK  8 active torsions:
REMARK  status: ('A' for Active; 'I' for Inactive)
REMARK    1  A    between atoms: C_1  and  O_2 
REMARK    2  A    between atoms: O_2  and  C_3 
REMARK    3  A    between atoms: C_3  and  C_4 
REMARK    4  A    between atoms: C_4  and  C_5 
REMARK       I    between atoms: C_5  and  N_7 
REMARK    5  A    between atoms: C_18  and  N_23 
REMARK    6  A    between atoms: N_23  and  S_24 
REMARK    7  A    between atoms: S_24  and  C_27 
REMARK    8  A    between atoms: C_31  and  C_33 
ROOT
ATOM      1  C   LIG d   1       6.838   0.572  -4.062  0.00  0.00     0.218 C 
ATOM      2  O   LIG d   1       6.685   1.768  -3.931  0.00  0.00    -0.276 OA
ATOM      3  N   LIG d   1       6.150  -0.286  -3.281  0.00  0.00    -0.300 N 
ATOM      4  C   LIG d   1       5.221   0.199  -2.276  0.00  0.00     0.019 C 
ATOM      5  C   LIG d   1       3.868  -0.488  -2.407  0.00  0.00    -0.006 C 
ATOM      6  H   LIG d   1       3.278  -0.249  -1.522  0.00  0.00     0.033 H 
ATOM      7  C   LIG d   1       4.044  -2.006  -2.464  0.00  0.00    -0.037 C 
ATOM      8  C   LIG d   1       4.931  -2.347  -3.664  0.00  0.00     0.016 C 
ATOM      9  H   LIG d   1       4.996  -3.429  -3.787  0.00  0.00     0.038 H 
ATOM     10  C   LIG d   1       6.323  -1.740  -3.426  0.00  0.00     0.023 C 
ATOM     11  C   LIG d   1       4.361  -1.716  -4.913  0.00  0.00     0.027 C 
ATOM     12  C   LIG d   1       4.640  -2.313  -6.101  0.00  0.00    -0.040 C 
ATOM     13  C   LIG d   1       4.257  -1.713  -7.307  0.00  0.00    -0.032 C 
ATOM     14  C   LIG d   1       3.615  -0.505  -7.270  0.00  0.00     0.112 C 
ATOM     15  C   LIG d   1       3.340   0.085  -6.021  0.00  0.00     0.274 C 
ATOM     16  O   LIG d   1       2.825   1.191  -5.973  0.00  0.00    -0.266 OA
ATOM     17  N   LIG d   1       3.638  -0.569  -4.871  0.00  0.00    -0.310 N 
ATOM     18  C   LIG d   1       3.104  -0.010  -3.628  0.00  0.00     0.031 C 
ATOM     19  H   LIG d   1       5.094   1.273  -2.412  0.00  0.00     0.047 H 
ATOM     20  H   LIG d   1       5.629   0.009  -1.283  0.00  0.00     0.047 H 
ATOM     21  H   LIG d   1       4.521  -2.355  -1.547  0.00  0.00     0.028 H 
ATOM     22  H   LIG d   1       3.071  -2.484  -2.579  0.00  0.00     0.028 H 
ATOM     23  H   LIG d   1       6.757  -2.154  -2.516  0.00  0.00     0.047 H 
ATOM     24  H   LIG d   1       6.971  -1.952  -4.276  0.00  0.00     0.047 H 
ATOM     25  H   LIG d   1       5.162  -3.258  -6.115  0.00  0.00     0.064 H 
ATOM     26  H   LIG d   1       4.467  -2.194  -8.250  0.00  0.00     0.064 H 
ATOM     27  H   LIG d   1       3.161   1.077  -3.677  0.00  0.00     0.050 H 
ATOM     28  H   LIG d   1       2.059  -0.304  -3.528  0.00  0.00     0.050 H 
ENDROOT
BRANCH  14  29
ATOM     29  N   LIG d   1       3.241   0.137  -8.457  0.00  0.00    -0.211 N 
ATOM     30  H   LIG d   1       2.421   0.654  -8.491  0.00  0.00     0.174 HD
BRANCH  29  31
ATOM     31  S   LIG d   1       4.199   0.013  -9.802  0.00  0.00     0.072 S 
ATOM     32  O   LIG d   1       3.744   1.002 -10.716  0.00  0.00    -0.150 OA
ATOM     33  O   LIG d   1       4.253  -1.367 -10.136  0.00  0.00    -0.150 OA
BRANCH  31  34
ATOM     34  C   LIG d   1       5.829   0.480  -9.325  0.00  0.00     0.109 A 
ATOM     35  C   LIG d   1       6.849  -0.454  -9.337  0.00  0.00    -0.023 A 
ATOM     36  C   LIG d   1       8.128  -0.087  -8.964  0.00  0.00     0.057 A 
ATOM     37  H   LIG d   1       6.645  -1.471  -9.640  0.00  0.00     0.064 H 
ATOM     38  C   LIG d   1       8.388   1.214  -8.576  0.00  0.00    -0.050 A 
ATOM     39  C   LIG d   1       7.369   2.148  -8.563  0.00  0.00    -0.059 A 
ATOM     40  H   LIG d   1       9.388   1.501  -8.283  0.00  0.00     0.062 H 
ATOM     41  C   LIG d   1       6.091   1.782  -8.938  0.00  0.00    -0.035 A 
ATOM     42  H   LIG d   1       7.574   3.167  -8.266  0.00  0.00     0.062 H 
ATOM     43  H   LIG d   1       5.295   2.512  -8.929  0.00  0.00     0.064 H 
BRANCH  36  44
ATOM     44  C   LIG d   1       9.238  -1.106  -8.977  0.00  0.00     0.417 C 
ATOM     45  F   LIG d   1       9.044  -2.021  -7.936  0.00  0.00    -0.166 F 
ATOM     46  F   LIG d   1       9.236  -1.783 -10.201  0.00  0.00    -0.166 F 
ATOM     47  F   LIG d   1      10.467  -0.458  -8.805  0.00  0.00    -0.166 F 
ENDBRANCH  36  44
ENDBRANCH  31  34
ENDBRANCH  29  31
ENDBRANCH  14  29
BRANCH   1  48
ATOM     48  C   LIG d   1       7.796   0.043  -5.098  0.00  0.00     0.048 C 
ATOM     49  H   LIG d   1       7.875  -1.041  -5.001  0.00  0.00     0.038 H 
ATOM     50  H   LIG d   1       7.430   0.293  -6.094  0.00  0.00     0.038 H 
BRANCH  48  51
ATOM     51  C   LIG d   1       9.174   0.675  -4.887  0.00  0.00     0.056 C 
ATOM     52  H   LIG d   1       9.121   1.742  -5.103  0.00  0.00     0.056 H 
ATOM     53  H   LIG d   1       9.486   0.528  -3.853  0.00  0.00     0.056 H 
BRANCH  51  54
ATOM     54  O   LIG d   1      10.120   0.057  -5.762  0.00  0.00    -0.383 OA
BRANCH  54  55
ATOM     55  C   LIG d   1      10.757  -1.096  -5.209  0.00  0.00     0.036 C 
ATOM     56  H   LIG d   1      11.832  -1.033  -5.376  0.00  0.00     0.052 H 
ATOM     57  H   LIG d   1      10.558  -1.144  -4.138  0.00  0.00     0.052 H 
ATOM     58  H   LIG d   1      10.367  -1.993  -5.690  0.00  0.00     0.052 H 
ENDBRANCH  54  55
ENDBRANCH  51  54
ENDBRANCH  48  51
ENDBRANCH   1  48
TORSDOF 8
ENDMDL
MODEL 9
REMARK VINA RESULT:      -7.0      5.820      8.919
REMARK  8 active torsions:
REMARK  status: ('A' for Active; 'I' for Inactive)
REMARK    1  A    between atoms: C_1  and  O_2 
REMARK    2  A    between atoms: O_2  and  C_3 
REMARK    3  A    between atoms: C_3  and  C_4 
REMARK    4  A    between atoms: C_4  and  C_5 
REMARK       I    between atoms: C_5  and  N_7 
REMARK    5  A    between atoms: C_18  and  N_23 
REMARK    6  A    between atoms: N_23  and  S_24 
REMARK    7  A    between atoms: S_24  and  C_27 
REMARK    8  A    between atoms: C_31  and  C_33 
ROOT
ATOM      1  C   LIG d   1       9.955   6.483  -5.619  0.00  0.00     0.218 C 
ATOM      2  O   LIG d   1       8.908   6.742  -5.065  0.00  0.00    -0.276 OA
ATOM      3  N   LIG d   1      11.126   6.737  -5.000  0.00  0.00    -0.300 N 
ATOM      4  C   LIG d   1      11.158   7.320  -3.670  0.00  0.00     0.019 C 
ATOM      5  C   LIG d   1      12.053   6.512  -2.741  0.00  0.00    -0.006 C 
ATOM      6  H   LIG d   1      12.207   7.090  -1.830  0.00  0.00     0.033 H 
ATOM      7  C   LIG d   1      13.417   6.273  -3.389  0.00  0.00    -0.037 C 
ATOM      8  C   LIG d   1      13.205   5.522  -4.706  0.00  0.00     0.016 C 
ATOM      9  H   LIG d   1      14.166   5.254  -5.144  0.00  0.00     0.038 H 
ATOM     10  C   LIG d   1      12.406   6.430  -5.657  0.00  0.00     0.023 C 
ATOM     11  C   LIG d   1      12.382   4.280  -4.456  0.00  0.00     0.027 C 
ATOM     12  C   LIG d   1      12.542   3.239  -5.314  0.00  0.00    -0.040 C 
ATOM     13  C   LIG d   1      11.721   2.109  -5.224  0.00  0.00    -0.032 C 
ATOM     14  C   LIG d   1      10.741   2.078  -4.270  0.00  0.00     0.112 C 
ATOM     15  C   LIG d   1      10.603   3.174  -3.395  0.00  0.00     0.274 C 
ATOM     16  O   LIG d   1       9.694   3.190  -2.582  0.00  0.00    -0.266 OA
ATOM     17  N   LIG d   1      11.477   4.209  -3.448  0.00  0.00    -0.310 N 
ATOM     18  C   LIG d   1      11.423   5.185  -2.358  0.00  0.00     0.031 C 
ATOM     19  H   LIG d   1      10.143   7.332  -3.273  0.00  0.00     0.047 H 
ATOM     20  H   LIG d   1      11.530   8.343  -3.732  0.00  0.00     0.047 H 
ATOM     21  H   LIG d   1      13.902   7.230  -3.588  0.00  0.00     0.028 H 
ATOM     22  H   LIG d   1      14.040   5.676  -2.723  0.00  0.00     0.028 H 
ATOM     23  H   LIG d   1      12.959   7.352  -5.841  0.00  0.00     0.047 H 
ATOM     24  H   LIG d   1      12.224   5.912  -6.598  0.00  0.00     0.047 H 
ATOM     25  H   LIG d   1      13.309   3.284  -6.073  0.00  0.00     0.064 H 
ATOM     26  H   LIG d   1      11.857   1.276  -5.897  0.00  0.00     0.064 H 
ATOM     27  H   LIG d   1      10.381   5.354  -2.087  0.00  0.00     0.050 H 
ATOM     28  H   LIG d   1      11.950   4.780  -1.494  0.00  0.00     0.050 H 
ENDROOT
BRANCH  14  29
ATOM     29  N   LIG d   1       9.883   0.976  -4.167  0.00  0.00    -0.211 N 
ATOM     30  H   LIG d   1      10.068   0.275  -3.522  0.00  0.00     0.174 HD
BRANCH  29  31
ATOM     31  S   LIG d   1       8.552   0.868  -5.147  0.00  0.00     0.072 S 
ATOM     32  O   LIG d   1       8.904  -0.003  -6.214  0.00  0.00    -0.150 OA
ATOM     33  O   LIG d   1       8.101   2.197  -5.365  0.00  0.00    -0.150 OA
BRANCH  31  34
ATOM     34  C   LIG d   1       7.292   0.052  -4.226  0.00  0.00     0.109 A 
ATOM     35  C   LIG d   1       6.289   0.788  -3.623  0.00  0.00    -0.023 A 
ATOM     36  C   LIG d   1       5.300   0.147  -2.901  0.00  0.00     0.057 A 
ATOM     37  H   LIG d   1       6.279   1.864  -3.717  0.00  0.00     0.064 H 
ATOM     38  C   LIG d   1       5.314  -1.230  -2.781  0.00  0.00    -0.050 A 
ATOM     39  C   LIG d   1       6.316  -1.966  -3.384  0.00  0.00    -0.059 A 
ATOM     40  H   LIG d   1       4.541  -1.731  -2.216  0.00  0.00     0.062 H 
ATOM     41  C   LIG d   1       7.305  -1.326  -4.107  0.00  0.00    -0.035 A 
ATOM     42  H   LIG d   1       6.324  -3.043  -3.295  0.00  0.00     0.062 H 
ATOM     43  H   LIG d   1       8.088  -1.902  -4.578  0.00  0.00     0.064 H 
BRANCH  36  44
ATOM     44  C   LIG d   1       4.207   0.950  -2.243  0.00  0.00     0.417 C 
ATOM     45  F   LIG d   1       4.015   2.142  -2.949  0.00  0.00    -0.166 F 
ATOM     46  F   LIG d   1       3.020   0.210  -2.243  0.00  0.00    -0.166 F 
ATOM     47  F   LIG d   1       4.574   1.242  -0.924  0.00  0.00    -0.166 F 
ENDBRANCH  36  44
ENDBRANCH  31  34
ENDBRANCH  29  31
ENDBRANCH  14  29
BRANCH   1  48
ATOM     48  C   LIG d   1       9.950   5.877  -6.999  0.00  0.00     0.048 C 
ATOM     49  H   LIG d   1      10.935   5.466  -7.220  0.00  0.00     0.038 H 
ATOM     50  H   LIG d   1       9.205   5.081  -7.044  0.00  0.00     0.038 H 
BRANCH  48  51
ATOM     51  C   LIG d   1       9.605   6.956  -8.028  0.00  0.00     0.056 C 
ATOM     52  H   LIG d   1       8.594   7.323  -7.845  0.00  0.00     0.056 H 
ATOM     53  H   LIG d   1      10.312   7.781  -7.940  0.00  0.00     0.056 H 
BRANCH  51  54
ATOM     54  O   LIG d   1       9.680   6.402  -9.343  0.00  0.00    -0.383 OA
BRANCH  54  55
ATOM     55  C   LIG d   1       8.438   5.892  -9.831  0.00  0.00     0.036 C 
ATOM     56  H   LIG d   1       7.758   6.721 -10.030  0.00  0.00     0.052 H 
ATOM     57  H   LIG d   1       8.611   5.335 -10.753  0.00  0.00     0.052 H 
ATOM     58  H   LIG d   1       7.997   5.231  -9.085  0.00  0.00     0.052 H 
ENDBRANCH  54  55
ENDBRANCH  51  54
ENDBRANCH  48  51
ENDBRANCH   1  48
TORSDOF 8
ENDMDL
