MODEL 1
REMARK VINA RESULT:      -7.4      0.000      0.000
REMARK  13 active torsions:
REMARK  status: ('A' for Active; 'I' for Inactive)
REMARK    1  A    between atoms: C_1  and  O_2 
REMARK    2  A    between atoms: O_2  and  C_3 
REMARK    3  A    between atoms: C_8  and  C_9 
REMARK    4  A    between atoms: C_9  and  N_10 
REMARK       I    between atoms: N_10  and  C_11 
REMARK    5  A    between atoms: C_11  and  C_13 
REMARK    6  A    between atoms: C_13  and  O_14 
REMARK    7  A    between atoms: O_14  and  C_15 
REMARK    8  A    between atoms: C_18  and  C_22 
REMARK    9  A    between atoms: C_22  and  N_23 
REMARK   10  A    between atoms: C_28  and  O_35 
REMARK   11  A    between atoms: C_29  and  O_33 
REMARK   12  A    between atoms: O_33  and  C_34 
REMARK   13  A    between atoms: O_35  and  C_36 
ROOT
ATOM      1  C   LIG d   1       6.388  -0.445  -3.650  0.00  0.00     0.202 A 
ATOM      2  C   LIG d   1       7.425  -0.880  -4.400  0.00  0.00     0.137 A 
ATOM      3  O   LIG d   1       8.417  -0.051  -4.750  0.00  0.00    -0.463 OA
ATOM      4  C   LIG d   1       8.432   1.235  -4.379  0.00  0.00     0.123 A 
ATOM      5  C   LIG d   1       7.438   1.754  -3.630  0.00  0.00     0.028 A 
ATOM      6  C   LIG d   1       6.362   0.917  -3.239  0.00  0.00     0.227 A 
ATOM      7  O   LIG d   1       5.442   1.352  -2.566  0.00  0.00    -0.284 OA
ATOM      8  H   LIG d   1       7.454  -1.911  -4.721  0.00  0.00     0.107 H 
ATOM      9  H   LIG d   1       7.459   2.792  -3.335  0.00  0.00     0.069 H 
ENDROOT
BRANCH   4  10
ATOM     10  C   LIG d   1       9.577   2.116  -4.806  0.00  0.00     0.058 C 
ATOM     11  H   LIG d   1      10.520   1.659  -4.508  0.00  0.00     0.051 H 
ATOM     12  H   LIG d   1       9.557   2.237  -5.889  0.00  0.00     0.051 H 
BRANCH  10  13
ATOM     13  N   LIG d   1       9.447   3.431  -4.164  0.00  0.00    -0.291 N 
ATOM     14  C   LIG d   1      10.416   3.583  -3.074  0.00  0.00     0.025 C 
ATOM     15  C   LIG d   1      10.341   4.969  -2.489  0.00  0.00    -0.026 A 
ATOM     16  H   LIG d   1      10.198   2.851  -2.296  0.00  0.00     0.048 H 
ATOM     17  H   LIG d   1      11.421   3.408  -3.460  0.00  0.00     0.048 H 
ATOM     18  C   LIG d   1       9.741   6.010  -3.162  0.00  0.00    -0.038 A 
ATOM     19  C   LIG d   1      10.903   5.187  -1.238  0.00  0.00    -0.012 A 
ATOM     20  C   LIG d   1       9.111   5.818  -4.519  0.00  0.00    -0.014 C 
ATOM     21  C   LIG d   1       9.704   7.275  -2.592  0.00  0.00    -0.013 A 
ATOM     22  C   LIG d   1       9.611   4.516  -5.146  0.00  0.00     0.004 C 
ATOM     23  H   LIG d   1       9.379   6.656  -5.163  0.00  0.00     0.033 H 
ATOM     24  H   LIG d   1       8.028   5.776  -4.413  0.00  0.00     0.033 H 
ATOM     25  H   LIG d   1      10.665   4.617  -5.408  0.00  0.00     0.043 H 
ATOM     26  H   LIG d   1       9.029   4.293  -6.039  0.00  0.00     0.043 H 
ATOM     27  C   LIG d   1      10.263   7.497  -1.347  0.00  0.00     0.162 A 
ATOM     28  H   LIG d   1       9.235   8.090  -3.124  0.00  0.00     0.066 H 
ATOM     29  C   LIG d   1      10.867   6.444  -0.664  0.00  0.00     0.162 A 
ATOM     30  H   LIG d   1      11.370   4.368  -0.710  0.00  0.00     0.066 H 
BRANCH  27  31
ATOM     31  O   LIG d   1      10.226   8.739  -0.793  0.00  0.00    -0.491 OA
BRANCH  31  32
ATOM     32  C   LIG d   1       8.957   9.394  -0.755  0.00  0.00     0.079 C 
ATOM     33  H   LIG d   1       9.038  10.306  -0.162  0.00  0.00     0.066 H 
ATOM     34  H   LIG d   1       8.648   9.646  -1.770  0.00  0.00     0.066 H 
ATOM     35  H   LIG d   1       8.219   8.732  -0.304  0.00  0.00     0.066 H 
ENDBRANCH  31  32
ENDBRANCH  27  31
BRANCH  29  36
ATOM     36  O   LIG d   1      11.419   6.651   0.561  0.00  0.00    -0.491 OA
BRANCH  36  37
ATOM     37  C   LIG d   1      10.998   5.786   1.618  0.00  0.00     0.079 C 
ATOM     38  H   LIG d   1      11.845   5.569   2.269  0.00  0.00     0.066 H 
ATOM     39  H   LIG d   1      10.212   6.274   2.194  0.00  0.00     0.066 H 
ATOM     40  H   LIG d   1      10.615   4.857   1.195  0.00  0.00     0.066 H 
ENDBRANCH  36  37
ENDBRANCH  29  36
ENDBRANCH  10  13
ENDBRANCH   4  10
BRANCH   1  41
ATOM     41  O   LIG d   1       5.383  -1.293  -3.298  0.00  0.00    -0.476 OA
BRANCH  41  42
ATOM     42  C   LIG d   1       4.624  -1.873  -4.361  0.00  0.00     0.166 C 
ATOM     43  H   LIG d   1       4.073  -2.735  -3.985  0.00  0.00     0.080 H 
ATOM     44  H   LIG d   1       5.297  -2.192  -5.157  0.00  0.00     0.080 H 
BRANCH  42  45
ATOM     45  C   LIG d   1       3.655  -0.853  -4.900  0.00  0.00     0.251 C 
ATOM     46  N   LIG d   1       3.613  -0.598  -6.224  0.00  0.00    -0.308 N 
ATOM     47  H   LIG d   1       4.206  -1.071  -6.827  0.00  0.00     0.149 HD
ATOM     48  O   LIG d   1       2.914  -0.262  -4.145  0.00  0.00    -0.272 OA
BRANCH  46  49
ATOM     49  C   LIG d   1       2.671   0.394  -6.748  0.00  0.00     0.040 C 
ATOM     50  H   LIG d   1       2.708   1.292  -6.131  0.00  0.00     0.051 H 
ATOM     51  H   LIG d   1       1.662  -0.019  -6.730  0.00  0.00     0.051 H 
BRANCH  49  52
ATOM     52  C   LIG d   1       3.047   0.742  -8.166  0.00  0.00     0.011 A 
ATOM     53  C   LIG d   1       3.157  -0.258  -9.120  0.00  0.00     0.125 A 
ATOM     54  C   LIG d   1       3.498   0.066 -10.425  0.00  0.00    -0.020 A 
ATOM     55  C   LIG d   1       3.731   1.383 -10.769  0.00  0.00    -0.058 A 
ATOM     56  H   LIG d   1       3.581  -0.711 -11.171  0.00  0.00     0.065 H 
ATOM     57  C   LIG d   1       3.624   2.378  -9.815  0.00  0.00    -0.061 A 
ATOM     58  H   LIG d   1       3.996   1.636 -11.786  0.00  0.00     0.062 H 
ATOM     59  C   LIG d   1       3.286   2.058  -8.514  0.00  0.00    -0.054 A 
ATOM     60  H   LIG d   1       3.807   3.408 -10.087  0.00  0.00     0.062 H 
ATOM     61  H   LIG d   1       3.204   2.836  -7.770  0.00  0.00     0.062 H 
BRANCH  53  62
ATOM     62  O   LIG d   1       2.927  -1.553  -8.778  0.00  0.00    -0.495 OA
BRANCH  62  63
ATOM     63  C   LIG d   1       2.465  -2.425  -9.812  0.00  0.00     0.079 C 
ATOM     64  H   LIG d   1       2.760  -3.448  -9.583  0.00  0.00     0.066 H 
ATOM     65  H   LIG d   1       1.379  -2.366  -9.878  0.00  0.00     0.066 H 
ATOM     66  H   LIG d   1       2.904  -2.124 -10.763  0.00  0.00     0.066 H 
ENDBRANCH  62  63
ENDBRANCH  53  62
ENDBRANCH  49  52
ENDBRANCH  46  49
ENDBRANCH  42  45
ENDBRANCH  41  42
ENDBRANCH   1  41
TORSDOF 13
ENDMDL
MODEL 2
REMARK VINA RESULT:      -7.4      2.016      3.863
REMARK  13 active torsions:
REMARK  status: ('A' for Active; 'I' for Inactive)
REMARK    1  A    between atoms: C_1  and  O_2 
REMARK    2  A    between atoms: O_2  and  C_3 
REMARK    3  A    between atoms: C_8  and  C_9 
REMARK    4  A    between atoms: C_9  and  N_10 
REMARK       I    between atoms: N_10  and  C_11 
REMARK    5  A    between atoms: C_11  and  C_13 
REMARK    6  A    between atoms: C_13  and  O_14 
REMARK    7  A    between atoms: O_14  and  C_15 
REMARK    8  A    between atoms: C_18  and  C_22 
REMARK    9  A    between atoms: C_22  and  N_23 
REMARK   10  A    between atoms: C_28  and  O_35 
REMARK   11  A    between atoms: C_29  and  O_33 
REMARK   12  A    between atoms: O_33  and  C_34 
REMARK   13  A    between atoms: O_35  and  C_36 
ROOT
ATOM      1  C   LIG d   1       6.743   0.099  -7.471  0.00  0.00     0.202 A 
ATOM      2  C   LIG d   1       7.544   0.646  -8.412  0.00  0.00     0.137 A 
ATOM      3  O   LIG d   1       8.643   1.330  -8.067  0.00  0.00    -0.463 OA
ATOM      4  C   LIG d   1       9.000   1.502  -6.789  0.00  0.00     0.123 A 
ATOM      5  C   LIG d   1       8.260   0.991  -5.786  0.00  0.00     0.028 A 
ATOM      6  C   LIG d   1       7.083   0.266  -6.100  0.00  0.00     0.227 A 
ATOM      7  O   LIG d   1       6.383  -0.208  -5.218  0.00  0.00    -0.284 OA
ATOM      8  H   LIG d   1       7.295   0.529  -9.457  0.00  0.00     0.107 H 
ATOM      9  H   LIG d   1       8.555   1.137  -4.757  0.00  0.00     0.069 H 
ENDROOT
BRANCH   4  10
ATOM     10  C   LIG d   1      10.248   2.282  -6.467  0.00  0.00     0.058 C 
ATOM     11  H   LIG d   1      10.922   1.664  -5.875  0.00  0.00     0.051 H 
ATOM     12  H   LIG d   1      10.743   2.574  -7.394  0.00  0.00     0.051 H 
BRANCH  10  13
ATOM     13  N   LIG d   1       9.890   3.485  -5.704  0.00  0.00    -0.291 N 
ATOM     14  C   LIG d   1      10.499   3.463  -4.370  0.00  0.00     0.025 C 
ATOM     15  C   LIG d   1      10.206   4.744  -3.634  0.00  0.00    -0.026 A 
ATOM     16  H   LIG d   1      10.094   2.623  -3.806  0.00  0.00     0.048 H 
ATOM     17  H   LIG d   1      11.578   3.342  -4.469  0.00  0.00     0.048 H 
ATOM     18  C   LIG d   1       9.786   5.880  -4.291  0.00  0.00    -0.038 A 
ATOM     19  C   LIG d   1      10.376   4.766  -2.257  0.00  0.00    -0.012 A 
ATOM     20  C   LIG d   1       9.581   5.900  -5.785  0.00  0.00    -0.014 C 
ATOM     21  C   LIG d   1       9.539   7.043  -3.576  0.00  0.00    -0.013 A 
ATOM     22  C   LIG d   1      10.288   4.705  -6.425  0.00  0.00     0.004 C 
ATOM     23  H   LIG d   1       9.990   6.824  -6.193  0.00  0.00     0.033 H 
ATOM     24  H   LIG d   1       8.515   5.850  -6.005  0.00  0.00     0.033 H 
ATOM     25  H   LIG d   1      11.368   4.838  -6.352  0.00  0.00     0.043 H 
ATOM     26  H   LIG d   1       9.996   4.625  -7.471  0.00  0.00     0.043 H 
ATOM     27  C   LIG d   1       9.708   7.069  -2.204  0.00  0.00     0.162 A 
ATOM     28  H   LIG d   1       9.212   7.933  -4.095  0.00  0.00     0.066 H 
ATOM     29  C   LIG d   1      10.129   5.921  -1.538  0.00  0.00     0.162 A 
ATOM     30  H   LIG d   1      10.703   3.873  -1.742  0.00  0.00     0.066 H 
BRANCH  27  31
ATOM     31  O   LIG d   1       9.466   8.213  -1.508  0.00  0.00    -0.491 OA
BRANCH  31  32
ATOM     32  C   LIG d   1      10.481   9.218  -1.537  0.00  0.00     0.079 C 
ATOM     33  H   LIG d   1      10.903   9.337  -0.539  0.00  0.00     0.066 H 
ATOM     34  H   LIG d   1      11.268   8.919  -2.231  0.00  0.00     0.066 H 
ATOM     35  H   LIG d   1      10.048  10.162  -1.865  0.00  0.00     0.066 H 
ENDBRANCH  31  32
ENDBRANCH  27  31
BRANCH  29  36
ATOM     36  O   LIG d   1      10.298   5.936  -0.189  0.00  0.00    -0.491 OA
BRANCH  36  37
ATOM     37  C   LIG d   1      11.636   5.812   0.299  0.00  0.00     0.079 C 
ATOM     38  H   LIG d   1      12.187   5.110  -0.327  0.00  0.00     0.066 H 
ATOM     39  H   LIG d   1      12.124   6.786   0.270  0.00  0.00     0.066 H 
ATOM     40  H   LIG d   1      11.615   5.446   1.326  0.00  0.00     0.066 H 
ENDBRANCH  36  37
ENDBRANCH  29  36
ENDBRANCH  10  13
ENDBRANCH   4  10
BRANCH   1  41
ATOM     41  O   LIG d   1       5.627  -0.594  -7.829  0.00  0.00    -0.476 OA
BRANCH  41  42
ATOM     42  C   LIG d   1       4.539   0.162  -8.363  0.00  0.00     0.166 C 
ATOM     43  H   LIG d   1       4.017  -0.432  -9.113  0.00  0.00     0.080 H 
ATOM     44  H   LIG d   1       4.921   1.074  -8.824  0.00  0.00     0.080 H 
BRANCH  42  45
ATOM     45  C   LIG d   1       3.585   0.522  -7.254  0.00  0.00     0.251 C 
ATOM     46  N   LIG d   1       3.371  -0.344  -6.242  0.00  0.00    -0.308 N 
ATOM     47  H   LIG d   1       3.831  -1.197  -6.229  0.00  0.00     0.149 HD
ATOM     48  O   LIG d   1       3.010   1.589  -7.270  0.00  0.00    -0.272 OA
BRANCH  46  49
ATOM     49  C   LIG d   1       2.444   0.006  -5.162  0.00  0.00     0.040 C 
ATOM     50  H   LIG d   1       1.674  -0.761  -5.082  0.00  0.00     0.051 H 
ATOM     51  H   LIG d   1       1.979   0.968  -5.381  0.00  0.00     0.051 H 
BRANCH  49  52
ATOM     52  C   LIG d   1       3.200   0.098  -3.862  0.00  0.00     0.011 A 
ATOM     53  C   LIG d   1       3.713  -1.049  -3.275  0.00  0.00     0.125 A 
ATOM     54  C   LIG d   1       4.413  -0.961  -2.080  0.00  0.00    -0.020 A 
ATOM     55  C   LIG d   1       4.593   0.268  -1.477  0.00  0.00    -0.058 A 
ATOM     56  H   LIG d   1       4.817  -1.853  -1.623  0.00  0.00     0.065 H 
ATOM     57  C   LIG d   1       4.077   1.410  -2.061  0.00  0.00    -0.061 A 
ATOM     58  H   LIG d   1       5.139   0.336  -0.546  0.00  0.00     0.062 H 
ATOM     59  C   LIG d   1       3.379   1.324  -3.250  0.00  0.00    -0.054 A 
ATOM     60  H   LIG d   1       4.219   2.370  -1.586  0.00  0.00     0.062 H 
ATOM     61  H   LIG d   1       2.975   2.217  -3.706  0.00  0.00     0.062 H 
BRANCH  53  62
ATOM     62  O   LIG d   1       3.535  -2.257  -3.872  0.00  0.00    -0.495 OA
BRANCH  62  63
ATOM     63  C   LIG d   1       4.707  -3.035  -4.127  0.00  0.00     0.079 C 
ATOM     64  H   LIG d   1       4.503  -4.082  -3.906  0.00  0.00     0.066 H 
ATOM     65  H   LIG d   1       4.990  -2.932  -5.174  0.00  0.00     0.066 H 
ATOM     66  H   LIG d   1       5.521  -2.681  -3.494  0.00  0.00     0.066 H 
ENDBRANCH  62  63
ENDBRANCH  53  62
ENDBRANCH  49  52
ENDBRANCH  46  49
ENDBRANCH  42  45
ENDBRANCH  41  42
ENDBRANCH   1  41
TORSDOF 13
ENDMDL
MODEL 3
REMARK VINA RESULT:      -7.1      3.109      5.069
REMARK  13 active torsions:
REMARK  status: ('A' for Active; 'I' for Inactive)
REMARK    1  A    between atoms: C_1  and  O_2 
REMARK    2  A    between atoms: O_2  and  C_3 
REMARK    3  A    between atoms: C_8  and  C_9 
REMARK    4  A    between atoms: C_9  and  N_10 
REMARK       I    between atoms: N_10  and  C_11 
REMARK    5  A    between atoms: C_11  and  C_13 
REMARK    6  A    between atoms: C_13  and  O_14 
REMARK    7  A    between atoms: O_14  and  C_15 
REMARK    8  A    between atoms: C_18  and  C_22 
REMARK    9  A    between atoms: C_22  and  N_23 
REMARK   10  A    between atoms: C_28  and  O_35 
REMARK   11  A    between atoms: C_29  and  O_33 
REMARK   12  A    between atoms: O_33  and  C_34 
REMARK   13  A    between atoms: O_35  and  C_36 
ROOT
ATOM      1  C   LIG d   1       6.514   0.683  -8.241  0.00  0.00     0.202 A 
ATOM      2  C   LIG d   1       6.210   1.804  -8.931  0.00  0.00     0.137 A 
ATOM      3  O   LIG d   1       7.167   2.670  -9.291  0.00  0.00    -0.463 OA
ATOM      4  C   LIG d   1       8.455   2.470  -8.991  0.00  0.00     0.123 A 
ATOM      5  C   LIG d   1       8.848   1.378  -8.306  0.00  0.00     0.028 A 
ATOM      6  C   LIG d   1       7.872   0.435  -7.896  0.00  0.00     0.227 A 
ATOM      7  O   LIG d   1       8.188  -0.564  -7.269  0.00  0.00    -0.284 OA
ATOM      8  H   LIG d   1       5.183   2.005  -9.195  0.00  0.00     0.107 H 
ATOM      9  H   LIG d   1       9.891   1.226  -8.068  0.00  0.00     0.069 H 
ENDROOT
BRANCH   4  10
ATOM     10  C   LIG d   1       9.483   3.483  -9.425  0.00  0.00     0.058 C 
ATOM     11  H   LIG d   1      10.481   3.111  -9.196  0.00  0.00     0.051 H 
ATOM     12  H   LIG d   1       9.395   3.652 -10.499  0.00  0.00     0.051 H 
BRANCH  10  13
ATOM     13  N   LIG d   1       9.256   4.747  -8.711  0.00  0.00    -0.291 N 
ATOM     14  C   LIG d   1       9.993   4.775  -7.444  0.00  0.00     0.025 C 
ATOM     15  C   LIG d   1       9.832   6.112  -6.768  0.00  0.00    -0.026 A 
ATOM     16  H   LIG d   1       9.610   3.992  -6.789  0.00  0.00     0.048 H 
ATOM     17  H   LIG d   1      11.051   4.595  -7.639  0.00  0.00     0.048 H 
ATOM     18  C   LIG d   1       9.398   7.226  -7.455  0.00  0.00    -0.038 A 
ATOM     19  C   LIG d   1      10.139   6.209  -5.418  0.00  0.00    -0.012 A 
ATOM     20  C   LIG d   1       9.046   7.165  -8.920  0.00  0.00    -0.014 C 
ATOM     21  C   LIG d   1       9.275   8.441  -6.797  0.00  0.00    -0.013 A 
ATOM     22  C   LIG d   1       9.633   5.899  -9.546  0.00  0.00     0.004 C 
ATOM     23  H   LIG d   1       9.452   8.041  -9.425  0.00  0.00     0.033 H 
ATOM     24  H   LIG d   1       7.962   7.154  -9.032  0.00  0.00     0.033 H 
ATOM     25  H   LIG d   1      10.719   5.982  -9.587  0.00  0.00     0.043 H 
ATOM     26  H   LIG d   1       9.235   5.770 -10.551  0.00  0.00     0.043 H 
ATOM     27  C   LIG d   1       9.582   8.542  -5.453  0.00  0.00     0.162 A 
ATOM     28  H   LIG d   1       8.937   9.313  -7.339  0.00  0.00     0.066 H 
ATOM     29  C   LIG d   1      10.017   7.417  -4.757  0.00  0.00     0.162 A 
ATOM     30  H   LIG d   1      10.476   5.334  -4.881  0.00  0.00     0.066 H 
BRANCH  27  31
ATOM     31  O   LIG d   1       9.461   9.736  -4.812  0.00  0.00    -0.491 OA
BRANCH  31  32
ATOM     32  C   LIG d   1       9.631  10.916  -5.601  0.00  0.00     0.079 C 
ATOM     33  H   LIG d   1      10.228  11.640  -5.046  0.00  0.00     0.066 H 
ATOM     34  H   LIG d   1      10.140  10.660  -6.531  0.00  0.00     0.066 H 
ATOM     35  H   LIG d   1       8.656  11.345  -5.827  0.00  0.00     0.066 H 
ENDBRANCH  31  32
ENDBRANCH  27  31
BRANCH  29  36
ATOM     36  O   LIG d   1      10.320   7.506  -3.435  0.00  0.00    -0.491 OA
BRANCH  36  37
ATOM     37  C   LIG d   1       9.504   6.757  -2.531  0.00  0.00     0.079 C 
ATOM     38  H   LIG d   1       8.574   7.296  -2.349  0.00  0.00     0.066 H 
ATOM     39  H   LIG d   1       9.281   5.783  -2.964  0.00  0.00     0.066 H 
ATOM     40  H   LIG d   1      10.037   6.622  -1.588  0.00  0.00     0.066 H 
ENDBRANCH  36  37
ENDBRANCH  29  36
ENDBRANCH  10  13
ENDBRANCH   4  10
BRANCH   1  41
ATOM     41  O   LIG d   1       5.537  -0.193  -7.877  0.00  0.00    -0.476 OA
BRANCH  41  42
ATOM     42  C   LIG d   1       4.214   0.083  -8.341  0.00  0.00     0.166 C 
ATOM     43  H   LIG d   1       3.791  -0.815  -8.790  0.00  0.00     0.080 H 
ATOM     44  H   LIG d   1       4.249   0.879  -9.085  0.00  0.00     0.080 H 
BRANCH  42  45
ATOM     45  C   LIG d   1       3.357   0.517  -7.181  0.00  0.00     0.251 C 
ATOM     46  N   LIG d   1       3.140  -0.326  -6.150  0.00  0.00    -0.308 N 
ATOM     47  H   LIG d   1       3.537  -1.210  -6.156  0.00  0.00     0.149 HD
ATOM     48  O   LIG d   1       2.861   1.623  -7.174  0.00  0.00    -0.272 OA
BRANCH  46  49
ATOM     49  C   LIG d   1       2.307   0.097  -5.022  0.00  0.00     0.040 C 
ATOM     50  H   LIG d   1       1.497  -0.620  -4.880  0.00  0.00     0.051 H 
ATOM     51  H   LIG d   1       1.888   1.082  -5.228  0.00  0.00     0.051 H 
BRANCH  49  52
ATOM     52  C   LIG d   1       3.148   0.160  -3.773  0.00  0.00     0.011 A 
ATOM     53  C   LIG d   1       3.739  -0.992  -3.275  0.00  0.00     0.125 A 
ATOM     54  C   LIG d   1       4.517  -0.930  -2.128  0.00  0.00    -0.020 A 
ATOM     55  C   LIG d   1       4.696   0.277  -1.482  0.00  0.00    -0.058 A 
ATOM     56  H   LIG d   1       4.982  -1.825  -1.741  0.00  0.00     0.065 H 
ATOM     57  C   LIG d   1       4.102   1.423  -1.977  0.00  0.00    -0.061 A 
ATOM     58  H   LIG d   1       5.302   0.326  -0.589  0.00  0.00     0.062 H 
ATOM     59  C   LIG d   1       3.326   1.364  -3.119  0.00  0.00    -0.054 A 
ATOM     60  H   LIG d   1       4.244   2.366  -1.469  0.00  0.00     0.062 H 
ATOM     61  H   LIG d   1       2.862   2.260  -3.504  0.00  0.00     0.062 H 
BRANCH  53  62
ATOM     62  O   LIG d   1       3.561  -2.179  -3.914  0.00  0.00    -0.495 OA
BRANCH  62  63
ATOM     63  C   LIG d   1       4.729  -2.965  -4.160  0.00  0.00     0.079 C 
ATOM     64  H   LIG d   1       5.436  -2.389  -4.757  0.00  0.00     0.066 H 
ATOM     65  H   LIG d   1       5.192  -3.234  -3.210  0.00  0.00     0.066 H 
ATOM     66  H   LIG d   1       4.451  -3.870  -4.699  0.00  0.00     0.066 H 
ENDBRANCH  62  63
ENDBRANCH  53  62
ENDBRANCH  49  52
ENDBRANCH  46  49
ENDBRANCH  42  45
ENDBRANCH  41  42
ENDBRANCH   1  41
TORSDOF 13
ENDMDL
MODEL 4
REMARK VINA RESULT:      -7.0      2.406      4.174
REMARK  13 active torsions:
REMARK  status: ('A' for Active; 'I' for Inactive)
REMARK    1  A    between atoms: C_1  and  O_2 
REMARK    2  A    between atoms: O_2  and  C_3 
REMARK    3  A    between atoms: C_8  and  C_9 
REMARK    4  A    between atoms: C_9  and  N_10 
REMARK       I    between atoms: N_10  and  C_11 
REMARK    5  A    between atoms: C_11  and  C_13 
REMARK    6  A    between atoms: C_13  and  O_14 
REMARK    7  A    between atoms: O_14  and  C_15 
REMARK    8  A    between atoms: C_18  and  C_22 
REMARK    9  A    between atoms: C_22  and  N_23 
REMARK   10  A    between atoms: C_28  and  O_35 
REMARK   11  A    between atoms: C_29  and  O_33 
REMARK   12  A    between atoms: O_33  and  C_34 
REMARK   13  A    between atoms: O_35  and  C_36 
ROOT
ATOM      1  C   LIG d   1       9.155   0.573  -5.284  0.00  0.00     0.202 A 
ATOM      2  C   LIG d   1      10.479   0.605  -5.014  0.00  0.00     0.137 A 
ATOM      3  O   LIG d   1      10.976   1.465  -4.115  0.00  0.00    -0.463 OA
ATOM      4  C   LIG d   1      10.197   2.324  -3.448  0.00  0.00     0.123 A 
ATOM      5  C   LIG d   1       8.866   2.361  -3.655  0.00  0.00     0.028 A 
ATOM      6  C   LIG d   1       8.293   1.475  -4.601  0.00  0.00     0.227 A 
ATOM      7  O   LIG d   1       7.092   1.482  -4.821  0.00  0.00    -0.284 OA
ATOM      8  H   LIG d   1      11.144  -0.073  -5.528  0.00  0.00     0.107 H 
ATOM      9  H   LIG d   1       8.246   3.059  -3.112  0.00  0.00     0.069 H 
ENDROOT
BRANCH   4  10
ATOM     10  C   LIG d   1      10.819   3.267  -2.450  0.00  0.00     0.058 C 
ATOM     11  H   LIG d   1      10.418   3.064  -1.458  0.00  0.00     0.051 H 
ATOM     12  H   LIG d   1      11.900   3.125  -2.442  0.00  0.00     0.051 H 
BRANCH  10  13
ATOM     13  N   LIG d   1      10.510   4.653  -2.828  0.00  0.00    -0.291 N 
ATOM     14  C   LIG d   1      10.458   5.520  -1.647  0.00  0.00     0.025 C 
ATOM     15  C   LIG d   1      10.239   6.954  -2.055  0.00  0.00    -0.026 A 
ATOM     16  H   LIG d   1       9.639   5.200  -1.002  0.00  0.00     0.048 H 
ATOM     17  H   LIG d   1      11.398   5.441  -1.101  0.00  0.00     0.048 H 
ATOM     18  C   LIG d   1      10.465   7.387  -3.343  0.00  0.00    -0.038 A 
ATOM     19  C   LIG d   1       9.801   7.853  -1.091  0.00  0.00    -0.012 A 
ATOM     20  C   LIG d   1      10.933   6.444  -4.423  0.00  0.00    -0.014 C 
ATOM     21  C   LIG d   1      10.262   8.719  -3.674  0.00  0.00    -0.013 A 
ATOM     22  C   LIG d   1      11.493   5.167  -3.795  0.00  0.00     0.004 C 
ATOM     23  H   LIG d   1      11.711   6.929  -5.013  0.00  0.00     0.033 H 
ATOM     24  H   LIG d   1      10.095   6.191  -5.071  0.00  0.00     0.033 H 
ATOM     25  H   LIG d   1      12.429   5.392  -3.283  0.00  0.00     0.043 H 
ATOM     26  H   LIG d   1      11.667   4.423  -4.572  0.00  0.00     0.043 H 
ATOM     27  C   LIG d   1       9.828   9.618  -2.717  0.00  0.00     0.162 A 
ATOM     28  H   LIG d   1      10.444   9.055  -4.684  0.00  0.00     0.066 H 
ATOM     29  C   LIG d   1       9.595   9.181  -1.415  0.00  0.00     0.162 A 
ATOM     30  H   LIG d   1       9.621   7.512  -0.082  0.00  0.00     0.066 H 
BRANCH  27  31
ATOM     31  O   LIG d   1       9.632  10.923  -3.045  0.00  0.00    -0.491 OA
BRANCH  31  32
ATOM     32  C   LIG d   1       9.042  11.190  -4.319  0.00  0.00     0.079 C 
ATOM     33  H   LIG d   1       9.713  10.849  -5.108  0.00  0.00     0.066 H 
ATOM     34  H   LIG d   1       8.091  10.663  -4.396  0.00  0.00     0.066 H 
ATOM     35  H   LIG d   1       8.873  12.262  -4.423  0.00  0.00     0.066 H 
ENDBRANCH  31  32
ENDBRANCH  27  31
BRANCH  29  36
ATOM     36  O   LIG d   1       9.167  10.057  -0.467  0.00  0.00    -0.491 OA
BRANCH  36  37
ATOM     37  C   LIG d   1      10.162  10.626   0.387  0.00  0.00     0.079 C 
ATOM     38  H   LIG d   1       9.691  10.994   1.299  0.00  0.00     0.066 H 
ATOM     39  H   LIG d   1      10.901   9.866   0.640  0.00  0.00     0.066 H 
ATOM     40  H   LIG d   1      10.653  11.453  -0.128  0.00  0.00     0.066 H 
ENDBRANCH  36  37
ENDBRANCH  29  36
ENDBRANCH  10  13
ENDBRANCH   4  10
BRANCH   1  41
ATOM     41  O   LIG d   1       8.657  -0.303  -6.199  0.00  0.00    -0.476 OA
BRANCH  41  42
ATOM     42  C   LIG d   1       8.810  -1.695  -5.915  0.00  0.00     0.166 C 
ATOM     43  H   LIG d   1       9.806  -1.876  -5.510  0.00  0.00     0.080 H 
ATOM     44  H   LIG d   1       8.682  -2.270  -6.832  0.00  0.00     0.080 H 
BRANCH  42  45
ATOM     45  C   LIG d   1       7.773  -2.119  -4.907  0.00  0.00     0.251 C 
ATOM     46  N   LIG d   1       6.491  -1.730  -5.056  0.00  0.00    -0.308 N 
ATOM     47  H   LIG d   1       6.236  -1.178  -5.812  0.00  0.00     0.149 HD
ATOM     48  O   LIG d   1       8.092  -2.809  -3.963  0.00  0.00    -0.272 OA
BRANCH  46  49
ATOM     49  C   LIG d   1       5.482  -2.143  -4.077  0.00  0.00     0.040 C 
ATOM     50  H   LIG d   1       5.963  -2.701  -3.273  0.00  0.00     0.051 H 
ATOM     51  H   LIG d   1       4.740  -2.776  -4.564  0.00  0.00     0.051 H 
BRANCH  49  52
ATOM     52  C   LIG d   1       4.806  -0.922  -3.508  0.00  0.00     0.011 A 
ATOM     53  C   LIG d   1       3.930  -0.186  -4.291  0.00  0.00     0.125 A 
ATOM     54  C   LIG d   1       3.305   0.935  -3.763  0.00  0.00    -0.020 A 
ATOM     55  C   LIG d   1       3.561   1.316  -2.461  0.00  0.00    -0.058 A 
ATOM     56  H   LIG d   1       2.618   1.507  -4.369  0.00  0.00     0.065 H 
ATOM     57  C   LIG d   1       4.438   0.583  -1.683  0.00  0.00    -0.061 A 
ATOM     58  H   LIG d   1       3.074   2.188  -2.049  0.00  0.00     0.062 H 
ATOM     59  C   LIG d   1       5.063  -0.533  -2.207  0.00  0.00    -0.054 A 
ATOM     60  H   LIG d   1       4.637   0.884  -0.665  0.00  0.00     0.062 H 
ATOM     61  H   LIG d   1       5.749  -1.104  -1.599  0.00  0.00     0.062 H 
BRANCH  53  62
ATOM     62  O   LIG d   1       3.679  -0.565  -5.572  0.00  0.00    -0.495 OA
BRANCH  62  63
ATOM     63  C   LIG d   1       2.833   0.288  -6.347  0.00  0.00     0.079 C 
ATOM     64  H   LIG d   1       2.278   0.949  -5.683  0.00  0.00     0.066 H 
ATOM     65  H   LIG d   1       3.442   0.883  -7.027  0.00  0.00     0.066 H 
ATOM     66  H   LIG d   1       2.135  -0.320  -6.922  0.00  0.00     0.066 H 
ENDBRANCH  62  63
ENDBRANCH  53  62
ENDBRANCH  49  52
ENDBRANCH  46  49
ENDBRANCH  42  45
ENDBRANCH  41  42
ENDBRANCH   1  41
TORSDOF 13
ENDMDL
MODEL 5
REMARK VINA RESULT:      -7.0      2.175      3.980
REMARK  13 active torsions:
REMARK  status: ('A' for Active; 'I' for Inactive)
REMARK    1  A    between atoms: C_1  and  O_2 
REMARK    2  A    between atoms: O_2  and  C_3 
REMARK    3  A    between atoms: C_8  and  C_9 
REMARK    4  A    between atoms: C_9  and  N_10 
REMARK       I    between atoms: N_10  and  C_11 
REMARK    5  A    between atoms: C_11  and  C_13 
REMARK    6  A    between atoms: C_13  and  O_14 
REMARK    7  A    between atoms: O_14  and  C_15 
REMARK    8  A    between atoms: C_18  and  C_22 
REMARK    9  A    between atoms: C_22  and  N_23 
REMARK   10  A    between atoms: C_28  and  O_35 
REMARK   11  A    between atoms: C_29  and  O_33 
REMARK   12  A    between atoms: O_33  and  C_34 
REMARK   13  A    between atoms: O_35  and  C_36 
ROOT
ATOM      1  C   LIG d   1       8.322   1.885  -5.896  0.00  0.00     0.202 A 
ATOM      2  C   LIG d   1       9.563   2.358  -6.143  0.00  0.00     0.137 A 
ATOM      3  O   LIG d   1      10.348   2.784  -5.144  0.00  0.00    -0.463 OA
ATOM      4  C   LIG d   1       9.948   2.761  -3.867  0.00  0.00     0.123 A 
ATOM      5  C   LIG d   1       8.725   2.305  -3.530  0.00  0.00     0.028 A 
ATOM      6  C   LIG d   1       7.855   1.850  -4.552  0.00  0.00     0.227 A 
ATOM      7  O   LIG d   1       6.738   1.434  -4.288  0.00  0.00    -0.284 OA
ATOM      8  H   LIG d   1       9.928   2.393  -7.159  0.00  0.00     0.107 H 
ATOM      9  H   LIG d   1       8.411   2.291  -2.497  0.00  0.00     0.069 H 
ENDROOT
BRANCH   4  10
ATOM     10  C   LIG d   1      10.878   3.254  -2.790  0.00  0.00     0.058 C 
ATOM     11  H   LIG d   1      10.882   2.549  -1.960  0.00  0.00     0.051 H 
ATOM     12  H   LIG d   1      11.887   3.345  -3.195  0.00  0.00     0.051 H 
BRANCH  10  13
ATOM     13  N   LIG d   1      10.423   4.567  -2.313  0.00  0.00    -0.291 N 
ATOM     14  C   LIG d   1      11.331   5.101  -1.294  0.00  0.00     0.025 C 
ATOM     15  C   LIG d   1      10.909   6.488  -0.884  0.00  0.00    -0.026 A 
ATOM     16  H   LIG d   1      11.315   4.447  -0.421  0.00  0.00     0.048 H 
ATOM     17  H   LIG d   1      12.343   5.137  -1.697  0.00  0.00     0.048 H 
ATOM     18  C   LIG d   1      10.055   7.246  -1.656  0.00  0.00    -0.038 A 
ATOM     19  C   LIG d   1      11.408   7.004   0.304  0.00  0.00    -0.012 A 
ATOM     20  C   LIG d   1       9.483   6.722  -2.949  0.00  0.00    -0.014 C 
ATOM     21  C   LIG d   1       9.701   8.524  -1.248  0.00  0.00    -0.013 A 
ATOM     22  C   LIG d   1      10.294   5.518  -3.429  0.00  0.00     0.004 C 
ATOM     23  H   LIG d   1       9.521   7.508  -3.704  0.00  0.00     0.033 H 
ATOM     24  H   LIG d   1       8.448   6.422  -2.792  0.00  0.00     0.033 H 
ATOM     25  H   LIG d   1      11.284   5.846  -3.747  0.00  0.00     0.043 H 
ATOM     26  H   LIG d   1       9.779   5.039  -4.261  0.00  0.00     0.043 H 
ATOM     27  C   LIG d   1      10.197   9.042  -0.066  0.00  0.00     0.162 A 
ATOM     28  H   LIG d   1       9.034   9.116  -1.857  0.00  0.00     0.066 H 
ATOM     29  C   LIG d   1      11.057   8.276   0.717  0.00  0.00     0.162 A 
ATOM     30  H   LIG d   1      12.075   6.408   0.910  0.00  0.00     0.066 H 
BRANCH  27  31
ATOM     31  O   LIG d   1       9.849  10.296   0.329  0.00  0.00    -0.491 OA
BRANCH  31  32
ATOM     32  C   LIG d   1      10.274  11.380  -0.499  0.00  0.00     0.079 C 
ATOM     33  H   LIG d   1       9.437  12.058  -0.667  0.00  0.00     0.066 H 
ATOM     34  H   LIG d   1      11.085  11.917  -0.006  0.00  0.00     0.066 H 
ATOM     35  H   LIG d   1      10.624  10.990  -1.454  0.00  0.00     0.066 H 
ENDBRANCH  31  32
ENDBRANCH  27  31
BRANCH  29  36
ATOM     36  O   LIG d   1      11.550   8.777   1.881  0.00  0.00    -0.491 OA
BRANCH  36  37
ATOM     37  C   LIG d   1      12.738   9.567   1.797  0.00  0.00     0.079 C 
ATOM     38  H   LIG d   1      13.309   9.464   2.720  0.00  0.00     0.066 H 
ATOM     39  H   LIG d   1      13.342   9.225   0.957  0.00  0.00     0.066 H 
ATOM     40  H   LIG d   1      12.468  10.613   1.650  0.00  0.00     0.066 H 
ENDBRANCH  36  37
ENDBRANCH  29  36
ENDBRANCH  10  13
ENDBRANCH   4  10
BRANCH   1  41
ATOM     41  O   LIG d   1       7.530   1.455  -6.916  0.00  0.00    -0.476 OA
BRANCH  41  42
ATOM     42  C   LIG d   1       7.935   0.264  -7.594  0.00  0.00     0.166 C 
ATOM     43  H   LIG d   1       8.924  -0.033  -7.247  0.00  0.00     0.080 H 
ATOM     44  H   LIG d   1       7.967   0.450  -8.667  0.00  0.00     0.080 H 
BRANCH  42  45
ATOM     45  C   LIG d   1       6.949  -0.838  -7.304  0.00  0.00     0.251 C 
ATOM     46  N   LIG d   1       6.571  -1.088  -6.034  0.00  0.00    -0.308 N 
ATOM     47  H   LIG d   1       6.934  -0.558  -5.307  0.00  0.00     0.149 HD
ATOM     48  O   LIG d   1       6.496  -1.500  -8.213  0.00  0.00    -0.272 OA
BRANCH  46  49
ATOM     49  C   LIG d   1       5.612  -2.159  -5.753  0.00  0.00     0.040 C 
ATOM     50  H   LIG d   1       6.147  -3.044  -5.406  0.00  0.00     0.051 H 
ATOM     51  H   LIG d   1       5.060  -2.400  -6.662  0.00  0.00     0.051 H 
BRANCH  49  52
ATOM     52  C   LIG d   1       4.649  -1.703  -4.686  0.00  0.00     0.011 A 
ATOM     53  C   LIG d   1       3.876  -0.570  -4.888  0.00  0.00     0.125 A 
ATOM     54  C   LIG d   1       2.987  -0.155  -3.906  0.00  0.00    -0.020 A 
ATOM     55  C   LIG d   1       2.878  -0.870  -2.730  0.00  0.00    -0.058 A 
ATOM     56  H   LIG d   1       2.381   0.725  -4.063  0.00  0.00     0.065 H 
ATOM     57  C   LIG d   1       3.653  -1.998  -2.529  0.00  0.00    -0.061 A 
ATOM     58  H   LIG d   1       2.185  -0.548  -1.966  0.00  0.00     0.062 H 
ATOM     59  C   LIG d   1       4.540  -2.412  -3.505  0.00  0.00    -0.054 A 
ATOM     60  H   LIG d   1       3.565  -2.555  -1.608  0.00  0.00     0.062 H 
ATOM     61  H   LIG d   1       5.145  -3.292  -3.346  0.00  0.00     0.062 H 
BRANCH  53  62
ATOM     62  O   LIG d   1       3.986   0.132  -6.047  0.00  0.00    -0.495 OA
BRANCH  62  63
ATOM     63  C   LIG d   1       2.840   0.155  -6.902  0.00  0.00     0.079 C 
ATOM     64  H   LIG d   1       2.846  -0.726  -7.541  0.00  0.00     0.066 H 
ATOM     65  H   LIG d   1       1.935   0.158  -6.295  0.00  0.00     0.066 H 
ATOM     66  H   LIG d   1       2.867   1.053  -7.519  0.00  0.00     0.066 H 
ENDBRANCH  62  63
ENDBRANCH  53  62
ENDBRANCH  49  52
ENDBRANCH  46  49
ENDBRANCH  42  45
ENDBRANCH  41  42
ENDBRANCH   1  41
TORSDOF 13
ENDMDL
MODEL 6
REMARK VINA RESULT:      -6.8      6.361     11.943
REMARK  13 active torsions:
REMARK  status: ('A' for Active; 'I' for Inactive)
REMARK    1  A    between atoms: C_1  and  O_2 
REMARK    2  A    between atoms: O_2  and  C_3 
REMARK    3  A    between atoms: C_8  and  C_9 
REMARK    4  A    between atoms: C_9  and  N_10 
REMARK       I    between atoms: N_10  and  C_11 
REMARK    5  A    between atoms: C_11  and  C_13 
REMARK    6  A    between atoms: C_13  and  O_14 
REMARK    7  A    between atoms: O_14  and  C_15 
REMARK    8  A    between atoms: C_18  and  C_22 
REMARK    9  A    between atoms: C_22  and  N_23 
REMARK   10  A    between atoms: C_28  and  O_35 
REMARK   11  A    between atoms: C_29  and  O_33 
REMARK   12  A    between atoms: O_33  and  C_34 
REMARK   13  A    between atoms: O_35  and  C_36 
ROOT
ATOM      1  C   LIG d   1      10.795  -4.344  -3.291  0.00  0.00     0.202 A 
ATOM      2  C   LIG d   1      11.507  -5.390  -3.765  0.00  0.00     0.137 A 
ATOM      3  O   LIG d   1      11.328  -6.623  -3.273  0.00  0.00    -0.463 OA
ATOM      4  C   LIG d   1      10.445  -6.878  -2.301  0.00  0.00     0.123 A 
ATOM      5  C   LIG d   1       9.692  -5.894  -1.769  0.00  0.00     0.028 A 
ATOM      6  C   LIG d   1       9.850  -4.571  -2.252  0.00  0.00     0.227 A 
ATOM      7  O   LIG d   1       9.190  -3.652  -1.792  0.00  0.00    -0.284 OA
ATOM      8  H   LIG d   1      12.230  -5.230  -4.551  0.00  0.00     0.107 H 
ATOM      9  H   LIG d   1       8.982  -6.110  -0.984  0.00  0.00     0.069 H 
ENDROOT
BRANCH   4  10
ATOM     10  C   LIG d   1      10.291  -8.287  -1.790  0.00  0.00     0.058 C 
ATOM     11  H   LIG d   1      10.922  -8.957  -2.374  0.00  0.00     0.051 H 
ATOM     12  H   LIG d   1      10.589  -8.328  -0.742  0.00  0.00     0.051 H 
BRANCH  10  13
ATOM     13  N   LIG d   1       8.888  -8.703  -1.917  0.00  0.00    -0.291 N 
ATOM     14  C   LIG d   1       8.423  -8.573  -3.302  0.00  0.00     0.025 C 
ATOM     15  C   LIG d   1       7.016  -9.094  -3.438  0.00  0.00    -0.026 A 
ATOM     16  H   LIG d   1       8.448  -7.522  -3.591  0.00  0.00     0.048 H 
ATOM     17  H   LIG d   1       9.083  -9.142  -3.957  0.00  0.00     0.048 H 
ATOM     18  C   LIG d   1       6.451  -9.918  -2.490  0.00  0.00    -0.038 A 
ATOM     19  C   LIG d   1       6.285  -8.728  -4.560  0.00  0.00    -0.012 A 
ATOM     20  C   LIG d   1       7.206 -10.335  -1.253  0.00  0.00    -0.014 C 
ATOM     21  C   LIG d   1       5.156 -10.386  -2.660  0.00  0.00    -0.013 A 
ATOM     22  C   LIG d   1       8.702 -10.085  -1.445  0.00  0.00     0.004 C 
ATOM     23  H   LIG d   1       7.037 -11.396  -1.068  0.00  0.00     0.033 H 
ATOM     24  H   LIG d   1       6.849  -9.759  -0.399  0.00  0.00     0.033 H 
ATOM     25  H   LIG d   1       9.097 -10.781  -2.185  0.00  0.00     0.043 H 
ATOM     26  H   LIG d   1       9.221 -10.221  -0.497  0.00  0.00     0.043 H 
ATOM     27  C   LIG d   1       4.424 -10.025  -3.777  0.00  0.00     0.162 A 
ATOM     28  H   LIG d   1       4.717 -11.034  -1.917  0.00  0.00     0.066 H 
ATOM     29  C   LIG d   1       4.993  -9.188  -4.734  0.00  0.00     0.162 A 
ATOM     30  H   LIG d   1       6.728  -8.078  -5.301  0.00  0.00     0.066 H 
BRANCH  27  31
ATOM     31  O   LIG d   1       3.155 -10.486  -3.940  0.00  0.00    -0.491 OA
BRANCH  31  32
ATOM     32  C   LIG d   1       2.996 -11.701  -4.676  0.00  0.00     0.079 C 
ATOM     33  H   LIG d   1       3.875 -11.865  -5.300  0.00  0.00     0.066 H 
ATOM     34  H   LIG d   1       2.882 -12.534  -3.982  0.00  0.00     0.066 H 
ATOM     35  H   LIG d   1       2.111 -11.630  -5.307  0.00  0.00     0.066 H 
ENDBRANCH  31  32
ENDBRANCH  27  31
BRANCH  29  36
ATOM     36  O   LIG d   1       4.281  -8.827  -5.835  0.00  0.00    -0.491 OA
BRANCH  36  37
ATOM     37  C   LIG d   1       4.796  -9.236  -7.103  0.00  0.00     0.079 C 
ATOM     38  H   LIG d   1       4.224 -10.088  -7.470  0.00  0.00     0.066 H 
ATOM     39  H   LIG d   1       4.715  -8.412  -7.811  0.00  0.00     0.066 H 
ATOM     40  H   LIG d   1       5.844  -9.521  -6.995  0.00  0.00     0.066 H 
ENDBRANCH  36  37
ENDBRANCH  29  36
ENDBRANCH  10  13
ENDBRANCH   4  10
BRANCH   1  41
ATOM     41  O   LIG d   1      10.982  -3.093  -3.795  0.00  0.00    -0.476 OA
BRANCH  41  42
ATOM     42  C   LIG d   1      10.501  -2.848  -5.118  0.00  0.00     0.166 C 
ATOM     43  H   LIG d   1      10.031  -3.751  -5.507  0.00  0.00     0.080 H 
ATOM     44  H   LIG d   1      11.335  -2.566  -5.761  0.00  0.00     0.080 H 
BRANCH  42  45
ATOM     45  C   LIG d   1       9.491  -1.730  -5.085  0.00  0.00     0.251 C 
ATOM     46  N   LIG d   1       8.420  -1.813  -4.270  0.00  0.00    -0.308 N 
ATOM     47  H   LIG d   1       8.301  -2.591  -3.705  0.00  0.00     0.149 HD
ATOM     48  O   LIG d   1       9.642  -0.757  -5.792  0.00  0.00    -0.272 OA
BRANCH  46  49
ATOM     49  C   LIG d   1       7.439  -0.725  -4.238  0.00  0.00     0.040 C 
ATOM     50  H   LIG d   1       7.237  -0.388  -5.255  0.00  0.00     0.051 H 
ATOM     51  H   LIG d   1       7.836   0.105  -3.652  0.00  0.00     0.051 H 
BRANCH  49  52
ATOM     52  C   LIG d   1       6.162  -1.220  -3.609  0.00  0.00     0.011 A 
ATOM     53  C   LIG d   1       5.532  -2.349  -4.113  0.00  0.00     0.125 A 
ATOM     54  C   LIG d   1       4.360  -2.805  -3.528  0.00  0.00    -0.020 A 
ATOM     55  C   LIG d   1       3.820  -2.131  -2.451  0.00  0.00    -0.058 A 
ATOM     56  H   LIG d   1       3.870  -3.686  -3.916  0.00  0.00     0.065 H 
ATOM     57  C   LIG d   1       4.447  -1.003  -1.953  0.00  0.00    -0.061 A 
ATOM     58  H   LIG d   1       2.907  -2.486  -1.995  0.00  0.00     0.062 H 
ATOM     59  C   LIG d   1       5.614  -0.546  -2.534  0.00  0.00    -0.054 A 
ATOM     60  H   LIG d   1       4.022  -0.478  -1.110  0.00  0.00     0.062 H 
ATOM     61  H   LIG d   1       6.103   0.335  -2.145  0.00  0.00     0.062 H 
BRANCH  53  62
ATOM     62  O   LIG d   1       6.067  -3.010  -5.173  0.00  0.00    -0.495 OA
BRANCH  62  63
ATOM     63  C   LIG d   1       5.378  -2.899  -6.421  0.00  0.00     0.079 C 
ATOM     64  H   LIG d   1       4.409  -3.390  -6.346  0.00  0.00     0.066 H 
ATOM     65  H   LIG d   1       5.233  -1.846  -6.663  0.00  0.00     0.066 H 
ATOM     66  H   LIG d   1       5.967  -3.375  -7.204  0.00  0.00     0.066 H 
ENDBRANCH  62  63
ENDBRANCH  53  62
ENDBRANCH  49  52
ENDBRANCH  46  49
ENDBRANCH  42  45
ENDBRANCH  41  42
ENDBRANCH   1  41
TORSDOF 13
ENDMDL
MODEL 7
REMARK VINA RESULT:      -6.6      5.862     13.735
REMARK  13 active torsions:
REMARK  status: ('A' for Active; 'I' for Inactive)
REMARK    1  A    between atoms: C_1  and  O_2 
REMARK    2  A    between atoms: O_2  and  C_3 
REMARK    3  A    between atoms: C_8  and  C_9 
REMARK    4  A    between atoms: C_9  and  N_10 
REMARK       I    between atoms: N_10  and  C_11 
REMARK    5  A    between atoms: C_11  and  C_13 
REMARK    6  A    between atoms: C_13  and  O_14 
REMARK    7  A    between atoms: O_14  and  C_15 
REMARK    8  A    between atoms: C_18  and  C_22 
REMARK    9  A    between atoms: C_22  and  N_23 
REMARK   10  A    between atoms: C_28  and  O_35 
REMARK   11  A    between atoms: C_29  and  O_33 
REMARK   12  A    between atoms: O_33  and  C_34 
REMARK   13  A    between atoms: O_35  and  C_36 
ROOT
ATOM      1  C   LIG d   1       3.338  -2.466  -8.868  0.00  0.00     0.202 A 
ATOM      2  C   LIG d   1       2.351  -1.970  -9.646  0.00  0.00     0.137 A 
ATOM      3  O   LIG d   1       1.580  -2.783 -10.382  0.00  0.00    -0.463 OA
ATOM      4  C   LIG d   1       1.747  -4.111 -10.381  0.00  0.00     0.123 A 
ATOM      5  C   LIG d   1       2.707  -4.691  -9.634  0.00  0.00     0.028 A 
ATOM      6  C   LIG d   1       3.553  -3.872  -8.845  0.00  0.00     0.227 A 
ATOM      7  O   LIG d   1       4.437  -4.360  -8.159  0.00  0.00    -0.284 OA
ATOM      8  H   LIG d   1       2.180  -0.904  -9.675  0.00  0.00     0.107 H 
ATOM      9  H   LIG d   1       2.834  -5.763  -9.641  0.00  0.00     0.069 H 
ENDROOT
BRANCH   4  10
ATOM     10  C   LIG d   1       0.847  -4.970 -11.231  0.00  0.00     0.058 C 
ATOM     11  H   LIG d   1       1.005  -4.735 -12.283  0.00  0.00     0.051 H 
ATOM     12  H   LIG d   1       1.077  -6.021 -11.055  0.00  0.00     0.051 H 
BRANCH  10  13
ATOM     13  N   LIG d   1      -0.555  -4.711 -10.877  0.00  0.00    -0.291 N 
ATOM     14  C   LIG d   1      -1.306  -4.214 -12.034  0.00  0.00     0.025 C 
ATOM     15  C   LIG d   1      -2.762  -4.045 -11.686  0.00  0.00    -0.026 A 
ATOM     16  H   LIG d   1      -0.895  -3.252 -12.343  0.00  0.00     0.048 H 
ATOM     17  H   LIG d   1      -1.212  -4.925 -12.856  0.00  0.00     0.048 H 
ATOM     18  C   LIG d   1      -3.321  -4.653 -10.583  0.00  0.00    -0.038 A 
ATOM     19  C   LIG d   1      -3.549  -3.255 -12.513  0.00  0.00    -0.012 A 
ATOM     20  C   LIG d   1      -2.502  -5.513  -9.654  0.00  0.00    -0.014 C 
ATOM     21  C   LIG d   1      -4.669  -4.481 -10.305  0.00  0.00    -0.013 A 
ATOM     22  C   LIG d   1      -1.195  -5.920 -10.335  0.00  0.00     0.004 C 
ATOM     23  H   LIG d   1      -3.069  -6.408  -9.396  0.00  0.00     0.033 H 
ATOM     24  H   LIG d   1      -2.278  -4.954  -8.746  0.00  0.00     0.033 H 
ATOM     25  H   LIG d   1      -1.406  -6.617 -11.146  0.00  0.00     0.043 H 
ATOM     26  H   LIG d   1      -0.534  -6.389  -9.608  0.00  0.00     0.043 H 
ATOM     27  C   LIG d   1      -5.457  -3.697 -11.127  0.00  0.00     0.162 A 
ATOM     28  H   LIG d   1      -5.105  -4.962  -9.442  0.00  0.00     0.066 H 
ATOM     29  C   LIG d   1      -4.893  -3.078 -12.239  0.00  0.00     0.162 A 
ATOM     30  H   LIG d   1      -3.109  -2.776 -13.375  0.00  0.00     0.066 H 
BRANCH  27  31
ATOM     31  O   LIG d   1      -6.779  -3.532 -10.851  0.00  0.00    -0.491 OA
BRANCH  31  32
ATOM     32  C   LIG d   1      -7.619  -4.679 -10.991  0.00  0.00     0.079 C 
ATOM     33  H   LIG d   1      -8.665  -4.370 -10.957  0.00  0.00     0.066 H 
ATOM     34  H   LIG d   1      -7.415  -5.165 -11.945  0.00  0.00     0.066 H 
ATOM     35  H   LIG d   1      -7.420  -5.376 -10.178  0.00  0.00     0.066 H 
ENDBRANCH  31  32
ENDBRANCH  27  31
BRANCH  29  36
ATOM     36  O   LIG d   1      -5.659  -2.304 -13.053  0.00  0.00    -0.491 OA
BRANCH  36  37
ATOM     37  C   LIG d   1      -5.064  -1.107 -13.560  0.00  0.00     0.079 C 
ATOM     38  H   LIG d   1      -4.161  -0.882 -12.991  0.00  0.00     0.066 H 
ATOM     39  H   LIG d   1      -4.808  -1.245 -14.609  0.00  0.00     0.066 H 
ATOM     40  H   LIG d   1      -5.770  -0.281 -13.463  0.00  0.00     0.066 H 
ENDBRANCH  36  37
ENDBRANCH  29  36
ENDBRANCH  10  13
ENDBRANCH   4  10
BRANCH   1  41
ATOM     41  O   LIG d   1       4.117  -1.634  -8.124  0.00  0.00    -0.476 OA
BRANCH  41  42
ATOM     42  C   LIG d   1       3.970  -0.231  -8.353  0.00  0.00     0.166 C 
ATOM     43  H   LIG d   1       3.401  -0.069  -9.268  0.00  0.00     0.080 H 
ATOM     44  H   LIG d   1       4.956   0.226  -8.453  0.00  0.00     0.080 H 
BRANCH  42  45
ATOM     45  C   LIG d   1       3.243   0.394  -7.191  0.00  0.00     0.251 C 
ATOM     46  N   LIG d   1       2.967  -0.341  -6.095  0.00  0.00    -0.308 N 
ATOM     47  H   LIG d   1       3.238  -1.271  -6.054  0.00  0.00     0.149 HD
ATOM     48  O   LIG d   1       2.904   1.557  -7.242  0.00  0.00    -0.272 OA
BRANCH  46  49
ATOM     49  C   LIG d   1       2.260   0.267  -4.965  0.00  0.00     0.040 C 
ATOM     50  H   LIG d   1       1.351  -0.298  -4.759  0.00  0.00     0.051 H 
ATOM     51  H   LIG d   1       2.001   1.297  -5.210  0.00  0.00     0.051 H 
BRANCH  49  52
ATOM     52  C   LIG d   1       3.149   0.248  -3.748  0.00  0.00     0.011 A 
ATOM     53  C   LIG d   1       3.709  -0.945  -3.315  0.00  0.00     0.125 A 
ATOM     54  C   LIG d   1       4.531  -0.958  -2.198  0.00  0.00    -0.020 A 
ATOM     55  C   LIG d   1       4.786   0.216  -1.517  0.00  0.00    -0.058 A 
ATOM     56  H   LIG d   1       4.972  -1.885  -1.861  0.00  0.00     0.065 H 
ATOM     57  C   LIG d   1       4.224   1.404  -1.947  0.00  0.00    -0.061 A 
ATOM     58  H   LIG d   1       5.427   0.206  -0.647  0.00  0.00     0.062 H 
ATOM     59  C   LIG d   1       3.404   1.419  -3.059  0.00  0.00    -0.054 A 
ATOM     60  H   LIG d   1       4.425   2.321  -1.412  0.00  0.00     0.062 H 
ATOM     61  H   LIG d   1       2.964   2.348  -3.394  0.00  0.00     0.062 H 
BRANCH  53  62
ATOM     62  O   LIG d   1       3.456  -2.098  -3.988  0.00  0.00    -0.495 OA
BRANCH  62  63
ATOM     63  C   LIG d   1       4.565  -2.969  -4.222  0.00  0.00     0.079 C 
ATOM     64  H   LIG d   1       4.429  -3.891  -3.658  0.00  0.00     0.066 H 
ATOM     65  H   LIG d   1       4.628  -3.199  -5.285  0.00  0.00     0.066 H 
ATOM     66  H   LIG d   1       5.485  -2.480  -3.901  0.00  0.00     0.066 H 
ENDBRANCH  62  63
ENDBRANCH  53  62
ENDBRANCH  49  52
ENDBRANCH  46  49
ENDBRANCH  42  45
ENDBRANCH  41  42
ENDBRANCH   1  41
TORSDOF 13
ENDMDL
MODEL 8
REMARK VINA RESULT:      -6.5      1.407      1.925
REMARK  13 active torsions:
REMARK  status: ('A' for Active; 'I' for Inactive)
REMARK    1  A    between atoms: C_1  and  O_2 
REMARK    2  A    between atoms: O_2  and  C_3 
REMARK    3  A    between atoms: C_8  and  C_9 
REMARK    4  A    between atoms: C_9  and  N_10 
REMARK       I    between atoms: N_10  and  C_11 
REMARK    5  A    between atoms: C_11  and  C_13 
REMARK    6  A    between atoms: C_13  and  O_14 
REMARK    7  A    between atoms: O_14  and  C_15 
REMARK    8  A    between atoms: C_18  and  C_22 
REMARK    9  A    between atoms: C_22  and  N_23 
REMARK   10  A    between atoms: C_28  and  O_35 
REMARK   11  A    between atoms: C_29  and  O_33 
REMARK   12  A    between atoms: O_33  and  C_34 
REMARK   13  A    between atoms: O_35  and  C_36 
ROOT
ATOM      1  C   LIG d   1       5.484  -0.134  -3.423  0.00  0.00     0.202 A 
ATOM      2  C   LIG d   1       5.813   1.112  -3.019  0.00  0.00     0.137 A 
ATOM      3  O   LIG d   1       7.007   1.641  -3.322  0.00  0.00    -0.463 OA
ATOM      4  C   LIG d   1       7.920   0.969  -4.033  0.00  0.00     0.123 A 
ATOM      5  C   LIG d   1       7.676  -0.280  -4.476  0.00  0.00     0.028 A 
ATOM      6  C   LIG d   1       6.430  -0.885  -4.175  0.00  0.00     0.227 A 
ATOM      7  O   LIG d   1       6.174  -2.017  -4.555  0.00  0.00    -0.284 OA
ATOM      8  H   LIG d   1       5.105   1.691  -2.444  0.00  0.00     0.107 H 
ATOM      9  H   LIG d   1       8.420  -0.813  -5.048  0.00  0.00     0.069 H 
ENDROOT
BRANCH   4  10
ATOM     10  C   LIG d   1       9.244   1.620  -4.340  0.00  0.00     0.058 C 
ATOM     11  H   LIG d   1      10.041   1.091  -3.818  0.00  0.00     0.051 H 
ATOM     12  H   LIG d   1       9.426   1.583  -5.415  0.00  0.00     0.051 H 
BRANCH  10  13
ATOM     13  N   LIG d   1       9.216   3.021  -3.897  0.00  0.00    -0.291 N 
ATOM     14  C   LIG d   1      10.187   3.253  -2.824  0.00  0.00     0.025 C 
ATOM     15  C   LIG d   1      10.219   4.711  -2.446  0.00  0.00    -0.026 A 
ATOM     16  H   LIG d   1       9.907   2.661  -1.952  0.00  0.00     0.048 H 
ATOM     17  H   LIG d   1      11.177   2.947  -3.163  0.00  0.00     0.048 H 
ATOM     18  C   LIG d   1       9.706   5.687  -3.273  0.00  0.00    -0.038 A 
ATOM     19  C   LIG d   1      10.788   5.064  -1.230  0.00  0.00    -0.012 A 
ATOM     20  C   LIG d   1       9.072   5.349  -4.598  0.00  0.00    -0.014 C 
ATOM     21  C   LIG d   1       9.766   7.020  -2.892  0.00  0.00    -0.013 A 
ATOM     22  C   LIG d   1       9.471   3.935  -5.022  0.00  0.00     0.004 C 
ATOM     23  H   LIG d   1       9.409   6.061  -5.352  0.00  0.00     0.033 H 
ATOM     24  H   LIG d   1       7.988   5.407  -4.506  0.00  0.00     0.033 H 
ATOM     25  H   LIG d   1      10.530   3.915  -5.277  0.00  0.00     0.043 H 
ATOM     26  H   LIG d   1       8.878   3.630  -5.884  0.00  0.00     0.043 H 
ATOM     27  C   LIG d   1      10.334   7.376  -1.682  0.00  0.00     0.162 A 
ATOM     28  H   LIG d   1       9.367   7.783  -3.544  0.00  0.00     0.066 H 
ATOM     29  C   LIG d   1      10.849   6.390  -0.844  0.00  0.00     0.162 A 
ATOM     30  H   LIG d   1      11.186   4.297  -0.582  0.00  0.00     0.066 H 
BRANCH  27  31
ATOM     31  O   LIG d   1      10.392   8.684  -1.314  0.00  0.00    -0.491 OA
BRANCH  31  32
ATOM     32  C   LIG d   1       9.175   9.289  -0.874  0.00  0.00     0.079 C 
ATOM     33  H   LIG d   1       9.391  10.007  -0.083  0.00  0.00     0.066 H 
ATOM     34  H   LIG d   1       8.701   9.803  -1.712  0.00  0.00     0.066 H 
ATOM     35  H   LIG d   1       8.504   8.520  -0.494  0.00  0.00     0.066 H 
ENDBRANCH  31  32
ENDBRANCH  27  31
BRANCH  29  36
ATOM     36  O   LIG d   1      11.408   6.730   0.347  0.00  0.00    -0.491 OA
BRANCH  36  37
ATOM     37  C   LIG d   1      11.073   5.920   1.476  0.00  0.00     0.079 C 
ATOM     38  H   LIG d   1      11.972   5.429   1.851  0.00  0.00     0.066 H 
ATOM     39  H   LIG d   1      10.648   6.546   2.259  0.00  0.00     0.066 H 
ATOM     40  H   LIG d   1      10.345   5.165   1.178  0.00  0.00     0.066 H 
ENDBRANCH  36  37
ENDBRANCH  29  36
ENDBRANCH  10  13
ENDBRANCH   4  10
BRANCH   1  41
ATOM     41  O   LIG d   1       4.270  -0.666  -3.110  0.00  0.00    -0.476 OA
BRANCH  41  42
ATOM     42  C   LIG d   1       3.144   0.212  -3.168  0.00  0.00     0.166 C 
ATOM     43  H   LIG d   1       3.349   1.106  -2.581  0.00  0.00     0.080 H 
ATOM     44  H   LIG d   1       2.267  -0.294  -2.764  0.00  0.00     0.080 H 
BRANCH  42  45
ATOM     45  C   LIG d   1       2.884   0.600  -4.601  0.00  0.00     0.251 C 
ATOM     46  N   LIG d   1       2.921  -0.336  -5.570  0.00  0.00    -0.308 N 
ATOM     47  H   LIG d   1       3.115  -1.259  -5.345  0.00  0.00     0.149 HD
ATOM     48  O   LIG d   1       2.641   1.754  -4.882  0.00  0.00    -0.272 OA
BRANCH  46  49
ATOM     49  C   LIG d   1       2.667   0.041  -6.963  0.00  0.00     0.040 C 
ATOM     50  H   LIG d   1       2.935   1.087  -7.110  0.00  0.00     0.051 H 
ATOM     51  H   LIG d   1       1.610  -0.099  -7.190  0.00  0.00     0.051 H 
BRANCH  49  52
ATOM     52  C   LIG d   1       3.496  -0.825  -7.876  0.00  0.00     0.011 A 
ATOM     53  C   LIG d   1       2.955  -1.301  -9.061  0.00  0.00     0.125 A 
ATOM     54  C   LIG d   1       3.723  -2.093  -9.903  0.00  0.00    -0.020 A 
ATOM     55  C   LIG d   1       5.021  -2.409  -9.556  0.00  0.00    -0.058 A 
ATOM     56  H   LIG d   1       3.305  -2.462 -10.828  0.00  0.00     0.065 H 
ATOM     57  C   LIG d   1       5.557  -1.937  -8.372  0.00  0.00    -0.061 A 
ATOM     58  H   LIG d   1       5.619  -3.026 -10.211  0.00  0.00     0.062 H 
ATOM     59  C   LIG d   1       4.795  -1.149  -7.532  0.00  0.00    -0.054 A 
ATOM     60  H   LIG d   1       6.574  -2.186  -8.103  0.00  0.00     0.062 H 
ATOM     61  H   LIG d   1       5.214  -0.781  -6.607  0.00  0.00     0.062 H 
BRANCH  53  62
ATOM     62  O   LIG d   1       1.677  -0.987  -9.400  0.00  0.00    -0.495 OA
BRANCH  62  63
ATOM     63  C   LIG d   1       1.346  -1.025 -10.790  0.00  0.00     0.079 C 
ATOM     64  H   LIG d   1       2.250  -0.885 -11.382  0.00  0.00     0.066 H 
ATOM     65  H   LIG d   1       0.899  -1.989 -11.031  0.00  0.00     0.066 H 
ATOM     66  H   LIG d   1       0.637  -0.229 -11.016  0.00  0.00     0.066 H 
ENDBRANCH  62  63
ENDBRANCH  53  62
ENDBRANCH  49  52
ENDBRANCH  46  49
ENDBRANCH  42  45
ENDBRANCH  41  42
ENDBRANCH   1  41
TORSDOF 13
ENDMDL
MODEL 9
REMARK VINA RESULT:      -6.5      1.201      2.097
REMARK  13 active torsions:
REMARK  status: ('A' for Active; 'I' for Inactive)
REMARK    1  A    between atoms: C_1  and  O_2 
REMARK    2  A    between atoms: O_2  and  C_3 
REMARK    3  A    between atoms: C_8  and  C_9 
REMARK    4  A    between atoms: C_9  and  N_10 
REMARK       I    between atoms: N_10  and  C_11 
REMARK    5  A    between atoms: C_11  and  C_13 
REMARK    6  A    between atoms: C_13  and  O_14 
REMARK    7  A    between atoms: O_14  and  C_15 
REMARK    8  A    between atoms: C_18  and  C_22 
REMARK    9  A    between atoms: C_22  and  N_23 
REMARK   10  A    between atoms: C_28  and  O_35 
REMARK   11  A    between atoms: C_29  and  O_33 
REMARK   12  A    between atoms: O_33  and  C_34 
REMARK   13  A    between atoms: O_35  and  C_36 
ROOT
ATOM      1  C   LIG d   1       6.532  -0.067  -3.575  0.00  0.00     0.202 A 
ATOM      2  C   LIG d   1       6.401   1.272  -3.448  0.00  0.00     0.137 A 
ATOM      3  O   LIG d   1       7.361   2.101  -3.880  0.00  0.00    -0.463 OA
ATOM      4  C   LIG d   1       8.483   1.651  -4.452  0.00  0.00     0.123 A 
ATOM      5  C   LIG d   1       8.698   0.330  -4.618  0.00  0.00     0.028 A 
ATOM      6  C   LIG d   1       7.715  -0.588  -4.171  0.00  0.00     0.227 A 
ATOM      7  O   LIG d   1       7.875  -1.791  -4.300  0.00  0.00    -0.284 OA
ATOM      8  H   LIG d   1       5.510   1.679  -2.994  0.00  0.00     0.107 H 
ATOM      9  H   LIG d   1       9.607  -0.023  -5.080  0.00  0.00     0.069 H 
ENDROOT
BRANCH   4  10
ATOM     10  C   LIG d   1       9.525   2.636  -4.916  0.00  0.00     0.058 C 
ATOM     11  H   LIG d   1      10.519   2.229  -4.732  0.00  0.00     0.051 H 
ATOM     12  H   LIG d   1       9.400   2.821  -5.983  0.00  0.00     0.051 H 
BRANCH  10  13
ATOM     13  N   LIG d   1       9.369   3.897  -4.179  0.00  0.00    -0.291 N 
ATOM     14  C   LIG d   1      10.287   3.956  -3.037  0.00  0.00     0.025 C 
ATOM     15  C   LIG d   1      10.187   5.292  -2.347  0.00  0.00    -0.026 A 
ATOM     16  H   LIG d   1      10.031   3.166  -2.330  0.00  0.00     0.048 H 
ATOM     17  H   LIG d   1      11.308   3.807  -3.388  0.00  0.00     0.048 H 
ATOM     18  C   LIG d   1       9.620   6.387  -2.963  0.00  0.00    -0.038 A 
ATOM     19  C   LIG d   1      10.690   5.407  -1.059  0.00  0.00    -0.012 A 
ATOM     20  C   LIG d   1       9.055   6.305  -4.359  0.00  0.00    -0.014 C 
ATOM     21  C   LIG d   1       9.559   7.603  -2.297  0.00  0.00    -0.013 A 
ATOM     22  C   LIG d   1       9.580   5.054  -5.063  0.00  0.00     0.004 C 
ATOM     23  H   LIG d   1       9.353   7.190  -4.921  0.00  0.00     0.033 H 
ATOM     24  H   LIG d   1       7.967   6.261  -4.306  0.00  0.00     0.033 H 
ATOM     25  H   LIG d   1      10.645   5.170  -5.267  0.00  0.00     0.043 H 
ATOM     26  H   LIG d   1       9.040   4.906  -5.997  0.00  0.00     0.043 H 
ATOM     27  C   LIG d   1      10.061   7.722  -1.014  0.00  0.00     0.162 A 
ATOM     28  H   LIG d   1       9.118   8.460  -2.784  0.00  0.00     0.066 H 
ATOM     29  C   LIG d   1      10.630   6.615  -0.389  0.00  0.00     0.162 A 
ATOM     30  H   LIG d   1      11.131   4.547  -0.576  0.00  0.00     0.066 H 
BRANCH  27  31
ATOM     31  O   LIG d   1      10.001   8.917  -0.365  0.00  0.00    -0.491 OA
BRANCH  31  32
ATOM     32  C   LIG d   1       9.150   9.918  -0.927  0.00  0.00     0.079 C 
ATOM     33  H   LIG d   1       8.156   9.500  -1.090  0.00  0.00     0.066 H 
ATOM     34  H   LIG d   1       9.082  10.763  -0.241  0.00  0.00     0.066 H 
ATOM     35  H   LIG d   1       9.563  10.254  -1.878  0.00  0.00     0.066 H 
ENDBRANCH  31  32
ENDBRANCH  27  31
BRANCH  29  36
ATOM     36  O   LIG d   1      11.125   6.722   0.873  0.00  0.00    -0.491 OA
BRANCH  36  37
ATOM     37  C   LIG d   1      10.958   5.594   1.733  0.00  0.00     0.079 C 
ATOM     38  H   LIG d   1      10.367   5.884   2.603  0.00  0.00     0.066 H 
ATOM     39  H   LIG d   1      10.444   4.799   1.194  0.00  0.00     0.066 H 
ATOM     40  H   LIG d   1      11.936   5.238   2.060  0.00  0.00     0.066 H 
ENDBRANCH  36  37
ENDBRANCH  29  36
ENDBRANCH  10  13
ENDBRANCH   4  10
BRANCH   1  41
ATOM     41  O   LIG d   1       5.554  -0.904  -3.133  0.00  0.00    -0.476 OA
BRANCH  41  42
ATOM     42  C   LIG d   1       4.322  -0.900  -3.858  0.00  0.00     0.166 C 
ATOM     43  H   LIG d   1       3.988   0.127  -4.002  0.00  0.00     0.080 H 
ATOM     44  H   LIG d   1       3.568  -1.452  -3.296  0.00  0.00     0.080 H 
BRANCH  42  45
ATOM     45  C   LIG d   1       4.528  -1.555  -5.199  0.00  0.00     0.251 C 
ATOM     46  N   LIG d   1       4.596  -0.800  -6.315  0.00  0.00    -0.308 N 
ATOM     47  H   LIG d   1       4.512   0.164  -6.253  0.00  0.00     0.149 HD
ATOM     48  O   LIG d   1       4.632  -2.761  -5.276  0.00  0.00    -0.272 OA
BRANCH  46  49
ATOM     49  C   LIG d   1       4.796  -1.438  -7.619  0.00  0.00     0.040 C 
ATOM     50  H   LIG d   1       4.885  -2.516  -7.486  0.00  0.00     0.051 H 
ATOM     51  H   LIG d   1       5.708  -1.052  -8.075  0.00  0.00     0.051 H 
BRANCH  49  52
ATOM     52  C   LIG d   1       3.620  -1.135  -8.511  0.00  0.00     0.011 A 
ATOM     53  C   LIG d   1       3.271   0.181  -8.777  0.00  0.00     0.125 A 
ATOM     54  C   LIG d   1       2.191   0.456  -9.603  0.00  0.00    -0.020 A 
ATOM     55  C   LIG d   1       1.464  -0.580 -10.155  0.00  0.00    -0.058 A 
ATOM     56  H   LIG d   1       1.920   1.480  -9.815  0.00  0.00     0.065 H 
ATOM     57  C   LIG d   1       1.812  -1.891  -9.885  0.00  0.00    -0.061 A 
ATOM     58  H   LIG d   1       0.624  -0.365 -10.799  0.00  0.00     0.062 H 
ATOM     59  C   LIG d   1       2.886  -2.168  -9.062  0.00  0.00    -0.054 A 
ATOM     60  H   LIG d   1       1.241  -2.700 -10.318  0.00  0.00     0.062 H 
ATOM     61  H   LIG d   1       3.156  -3.193  -8.852  0.00  0.00     0.062 H 
BRANCH  53  62
ATOM     62  O   LIG d   1       3.989   1.199  -8.232  0.00  0.00    -0.495 OA
BRANCH  62  63
ATOM     63  C   LIG d   1       4.702   2.045  -9.136  0.00  0.00     0.079 C 
ATOM     64  H   LIG d   1       5.662   2.317  -8.699  0.00  0.00     0.066 H 
ATOM     65  H   LIG d   1       4.867   1.517 -10.075  0.00  0.00     0.066 H 
ATOM     66  H   LIG d   1       4.120   2.948  -9.324  0.00  0.00     0.066 H 
ENDBRANCH  62  63
ENDBRANCH  53  62
ENDBRANCH  49  52
ENDBRANCH  46  49
ENDBRANCH  42  45
ENDBRANCH  41  42
ENDBRANCH   1  41
TORSDOF 13
ENDMDL
