MODEL 1
REMARK VINA RESULT:      -7.3      0.000      0.000
REMARK  4 active torsions:
REMARK  status: ('A' for Active; 'I' for Inactive)
REMARK    1  A    between atoms: C_4  and  C_7 
REMARK       I    between atoms: C_7  and  N_9 
REMARK    2  A    between atoms: C_20  and  N_25 
REMARK    3  A    between atoms: N_25  and  S_26 
REMARK    4  A    between atoms: S_26  and  C_29 
ROOT
ATOM      1  C   LIG d   1       6.522  -2.060  -3.669  0.00  0.00     0.247 C 
ATOM      2  O   LIG d   1       7.450  -2.350  -2.940  0.00  0.00    -0.270 OA
ATOM      3  N   LIG d   1       6.421  -2.623  -4.888  0.00  0.00    -0.297 N 
ATOM      4  C   LIG d   1       5.267  -2.342  -5.752  0.00  0.00     0.019 C 
ATOM      5  C   LIG d   1       5.738  -1.929  -7.141  0.00  0.00    -0.006 C 
ATOM      6  H   LIG d   1       4.869  -1.932  -7.797  0.00  0.00     0.033 H 
ATOM      7  C   LIG d   1       6.755  -2.929  -7.692  0.00  0.00    -0.037 C 
ATOM      8  C   LIG d   1       7.950  -2.983  -6.737  0.00  0.00     0.016 C 
ATOM      9  H   LIG d   1       8.734  -3.617  -7.153  0.00  0.00     0.038 H 
ATOM     10  C   LIG d   1       7.464  -3.533  -5.385  0.00  0.00     0.023 C 
ATOM     11  C   LIG d   1       8.478  -1.587  -6.504  0.00  0.00     0.027 C 
ATOM     12  C   LIG d   1       9.789  -1.461  -6.172  0.00  0.00    -0.040 C 
ATOM     13  C   LIG d   1      10.316  -0.214  -5.813  0.00  0.00    -0.032 C 
ATOM     14  C   LIG d   1       9.483   0.870  -5.780  0.00  0.00     0.112 C 
ATOM     15  C   LIG d   1       8.132   0.706  -6.139  0.00  0.00     0.274 C 
ATOM     16  O   LIG d   1       7.364   1.651  -6.060  0.00  0.00    -0.266 OA
ATOM     17  N   LIG d   1       7.676  -0.497  -6.569  0.00  0.00    -0.310 N 
ATOM     18  C   LIG d   1       6.331  -0.532  -7.146  0.00  0.00     0.031 C 
ATOM     19  H   LIG d   1       4.678  -1.535  -5.316  0.00  0.00     0.047 H 
ATOM     20  H   LIG d   1       4.649  -3.236  -5.830  0.00  0.00     0.047 H 
ATOM     21  H   LIG d   1       6.298  -3.916  -7.762  0.00  0.00     0.028 H 
ATOM     22  H   LIG d   1       7.086  -2.607  -8.679  0.00  0.00     0.028 H 
ATOM     23  H   LIG d   1       7.052  -4.533  -5.518  0.00  0.00     0.047 H 
ATOM     24  H   LIG d   1       8.294  -3.565  -4.679  0.00  0.00     0.047 H 
ATOM     25  H   LIG d   1      10.431  -2.330  -6.184  0.00  0.00     0.064 H 
ATOM     26  H   LIG d   1      11.362  -0.111  -5.565  0.00  0.00     0.064 H 
ATOM     27  H   LIG d   1       5.683   0.129  -6.570  0.00  0.00     0.050 H 
ATOM     28  H   LIG d   1       6.378  -0.172  -8.174  0.00  0.00     0.050 H 
ENDROOT
BRANCH   1  29
ATOM     29  C   LIG d   1       5.503  -1.087  -3.217  0.00  0.00     0.037 A 
ATOM     30  C   LIG d   1       5.811   0.273  -3.158  0.00  0.00    -0.050 A 
ATOM     31  C   LIG d   1       4.855   1.175  -2.736  0.00  0.00    -0.061 A 
ATOM     32  H   LIG d   1       6.794   0.619  -3.441  0.00  0.00     0.062 H 
ATOM     33  C   LIG d   1       3.595   0.733  -2.372  0.00  0.00    -0.062 A 
ATOM     34  H   LIG d   1       5.092   2.228  -2.689  0.00  0.00     0.062 H 
ATOM     35  C   LIG d   1       3.284  -0.613  -2.428  0.00  0.00    -0.061 A 
ATOM     36  H   LIG d   1       2.852   1.444  -2.042  0.00  0.00     0.062 H 
ATOM     37  C   LIG d   1       4.228  -1.525  -2.853  0.00  0.00    -0.050 A 
ATOM     38  H   LIG d   1       2.299  -0.952  -2.143  0.00  0.00     0.062 H 
ATOM     39  H   LIG d   1       3.984  -2.576  -2.901  0.00  0.00     0.062 H 
ENDBRANCH   1  29
BRANCH  14  40
ATOM     40  N   LIG d   1       9.969   2.127  -5.397  0.00  0.00    -0.210 N 
ATOM     41  H   LIG d   1      10.297   2.746  -6.068  0.00  0.00     0.174 HD
BRANCH  40  42
ATOM     42  S   LIG d   1       9.983   2.558  -3.798  0.00  0.00     0.079 S 
ATOM     43  O   LIG d   1       8.796   2.029  -3.224  0.00  0.00    -0.149 OA
ATOM     44  O   LIG d   1      11.277   2.239  -3.303  0.00  0.00    -0.149 OA
BRANCH  42  45
ATOM     45  C   LIG d   1       9.837   4.312  -3.730  0.00  0.00     0.146 A 
ATOM     46  S   LIG d   1      10.239   5.423  -2.391  0.00  0.00    -0.077 SA
ATOM     47  C   LIG d   1       9.785   6.954  -3.189  0.00  0.00    -0.022 A 
ATOM     48  C   LIG d   1       9.364   6.524  -4.403  0.00  0.00    -0.053 A 
ATOM     49  H   LIG d   1       9.834   7.962  -2.804  0.00  0.00     0.069 H 
ATOM     50  C   LIG d   1       9.396   5.170  -4.682  0.00  0.00    -0.028 A 
ATOM     51  H   LIG d   1       9.013   7.228  -5.142  0.00  0.00     0.062 H 
ATOM     52  H   LIG d   1       9.070   4.801  -5.644  0.00  0.00     0.064 H 
ENDBRANCH  42  45
ENDBRANCH  40  42
ENDBRANCH  14  40
TORSDOF 4
ENDMDL
MODEL 2
REMARK VINA RESULT:      -7.3      4.121      6.372
REMARK  4 active torsions:
REMARK  status: ('A' for Active; 'I' for Inactive)
REMARK    1  A    between atoms: C_4  and  C_7 
REMARK       I    between atoms: C_7  and  N_9 
REMARK    2  A    between atoms: C_20  and  N_25 
REMARK    3  A    between atoms: N_25  and  S_26 
REMARK    4  A    between atoms: S_26  and  C_29 
ROOT
ATOM      1  C   LIG d   1       6.339  -0.142  -5.244  0.00  0.00     0.247 C 
ATOM      2  O   LIG d   1       6.349   0.615  -6.196  0.00  0.00    -0.270 OA
ATOM      3  N   LIG d   1       7.331  -1.039  -5.086  0.00  0.00    -0.297 N 
ATOM      4  C   LIG d   1       7.375  -1.908  -3.904  0.00  0.00     0.019 C 
ATOM      5  C   LIG d   1       7.553  -3.361  -4.326  0.00  0.00    -0.006 C 
ATOM      6  H   LIG d   1       7.786  -3.938  -3.431  0.00  0.00     0.033 H 
ATOM      7  C   LIG d   1       8.718  -3.508  -5.304  0.00  0.00    -0.037 C 
ATOM      8  C   LIG d   1       8.430  -2.644  -6.535  0.00  0.00     0.016 C 
ATOM      9  H   LIG d   1       9.200  -2.803  -7.292  0.00  0.00     0.038 H 
ATOM     10  C   LIG d   1       8.394  -1.172  -6.095  0.00  0.00     0.023 C 
ATOM     11  C   LIG d   1       7.071  -2.993  -7.094  0.00  0.00     0.027 C 
ATOM     12  C   LIG d   1       6.865  -2.777  -8.419  0.00  0.00    -0.040 C 
ATOM     13  C   LIG d   1       5.593  -2.952  -8.979  0.00  0.00    -0.032 C 
ATOM     14  C   LIG d   1       4.558  -3.321  -8.165  0.00  0.00     0.112 C 
ATOM     15  C   LIG d   1       4.809  -3.546  -6.798  0.00  0.00     0.274 C 
ATOM     16  O   LIG d   1       3.885  -3.819  -6.049  0.00  0.00    -0.266 OA
ATOM     17  N   LIG d   1       6.070  -3.456  -6.307  0.00  0.00    -0.310 N 
ATOM     18  C   LIG d   1       6.287  -3.931  -4.939  0.00  0.00     0.031 C 
ATOM     19  H   LIG d   1       6.445  -1.805  -3.345  0.00  0.00     0.047 H 
ATOM     20  H   LIG d   1       8.210  -1.611  -3.269  0.00  0.00     0.047 H 
ATOM     21  H   LIG d   1       9.640  -3.172  -4.829  0.00  0.00     0.028 H 
ATOM     22  H   LIG d   1       8.818  -4.552  -5.600  0.00  0.00     0.028 H 
ATOM     23  H   LIG d   1       9.353  -0.889  -5.662  0.00  0.00     0.047 H 
ATOM     24  H   LIG d   1       8.172  -0.534  -6.952  0.00  0.00     0.047 H 
ATOM     25  H   LIG d   1       7.688  -2.467  -9.046  0.00  0.00     0.064 H 
ATOM     26  H   LIG d   1       5.433  -2.796 -10.035  0.00  0.00     0.064 H 
ATOM     27  H   LIG d   1       5.435  -3.641  -4.325  0.00  0.00     0.050 H 
ATOM     28  H   LIG d   1       6.359  -5.019  -4.951  0.00  0.00     0.050 H 
ENDROOT
BRANCH   1  29
ATOM     29  C   LIG d   1       5.237  -0.075  -4.260  0.00  0.00     0.037 A 
ATOM     30  C   LIG d   1       5.383   0.682  -3.096  0.00  0.00    -0.050 A 
ATOM     31  C   LIG d   1       4.351   0.740  -2.182  0.00  0.00    -0.061 A 
ATOM     32  H   LIG d   1       6.301   1.220  -2.911  0.00  0.00     0.062 H 
ATOM     33  C   LIG d   1       3.174   0.051  -2.417  0.00  0.00    -0.062 A 
ATOM     34  H   LIG d   1       4.463   1.325  -1.280  0.00  0.00     0.062 H 
ATOM     35  C   LIG d   1       3.024  -0.701  -3.568  0.00  0.00    -0.061 A 
ATOM     36  H   LIG d   1       2.370   0.100  -1.698  0.00  0.00     0.062 H 
ATOM     37  C   LIG d   1       4.046  -0.763  -4.493  0.00  0.00    -0.050 A 
ATOM     38  H   LIG d   1       2.103  -1.236  -3.746  0.00  0.00     0.062 H 
ATOM     39  H   LIG d   1       3.926  -1.347  -5.394  0.00  0.00     0.062 H 
ENDBRANCH   1  29
BRANCH  14  40
ATOM     40  N   LIG d   1       3.266  -3.475  -8.685  0.00  0.00    -0.210 N 
ATOM     41  H   LIG d   1       2.697  -4.194  -8.366  0.00  0.00     0.174 HD
BRANCH  40  42
ATOM     42  S   LIG d   1       2.709  -2.433  -9.845  0.00  0.00     0.079 S 
ATOM     43  O   LIG d   1       3.586  -2.555 -10.956  0.00  0.00    -0.149 OA
ATOM     44  O   LIG d   1       1.309  -2.653  -9.950  0.00  0.00    -0.149 OA
BRANCH  42  45
ATOM     45  C   LIG d   1       2.916  -0.799  -9.218  0.00  0.00     0.146 A 
ATOM     46  S   LIG d   1       3.487   0.666 -10.064  0.00  0.00    -0.077 SA
ATOM     47  C   LIG d   1       3.374   1.807  -8.695  0.00  0.00    -0.022 A 
ATOM     48  C   LIG d   1       2.916   1.008  -7.701  0.00  0.00    -0.053 A 
ATOM     49  H   LIG d   1       3.609   2.860  -8.667  0.00  0.00     0.069 H 
ATOM     50  C   LIG d   1       2.676  -0.327  -7.970  0.00  0.00    -0.028 A 
ATOM     51  H   LIG d   1       2.738   1.409  -6.714  0.00  0.00     0.062 H 
ATOM     52  H   LIG d   1       2.306  -0.984  -7.197  0.00  0.00     0.064 H 
ENDBRANCH  42  45
ENDBRANCH  40  42
ENDBRANCH  14  40
TORSDOF 4
ENDMDL
MODEL 3
REMARK VINA RESULT:      -7.3      1.410      1.974
REMARK  4 active torsions:
REMARK  status: ('A' for Active; 'I' for Inactive)
REMARK    1  A    between atoms: C_4  and  C_7 
REMARK       I    between atoms: C_7  and  N_9 
REMARK    2  A    between atoms: C_20  and  N_25 
REMARK    3  A    between atoms: N_25  and  S_26 
REMARK    4  A    between atoms: S_26  and  C_29 
ROOT
ATOM      1  C   LIG d   1       7.020  -2.134  -4.061  0.00  0.00     0.247 C 
ATOM      2  O   LIG d   1       7.888  -2.652  -3.386  0.00  0.00    -0.270 OA
ATOM      3  N   LIG d   1       7.129  -2.118  -5.404  0.00  0.00    -0.297 N 
ATOM      4  C   LIG d   1       6.056  -1.564  -6.238  0.00  0.00     0.019 C 
ATOM      5  C   LIG d   1       6.626  -0.561  -7.232  0.00  0.00    -0.006 C 
ATOM      6  H   LIG d   1       5.844  -0.334  -7.956  0.00  0.00     0.033 H 
ATOM      7  C   LIG d   1       7.816  -1.156  -7.986  0.00  0.00    -0.037 C 
ATOM      8  C   LIG d   1       8.892  -1.543  -6.968  0.00  0.00     0.016 C 
ATOM      9  H   LIG d   1       9.791  -1.882  -7.484  0.00  0.00     0.038 H 
ATOM     10  C   LIG d   1       8.328  -2.654  -6.068  0.00  0.00     0.023 C 
ATOM     11  C   LIG d   1       9.212  -0.355  -6.091  0.00  0.00     0.027 C 
ATOM     12  C   LIG d   1      10.451  -0.303  -5.536  0.00  0.00    -0.040 C 
ATOM     13  C   LIG d   1      10.774   0.696  -4.610  0.00  0.00    -0.032 C 
ATOM     14  C   LIG d   1       9.814   1.603  -4.254  0.00  0.00     0.112 C 
ATOM     15  C   LIG d   1       8.543   1.526  -4.856  0.00  0.00     0.274 C 
ATOM     16  O   LIG d   1       7.660   2.291  -4.508  0.00  0.00    -0.266 OA
ATOM     17  N   LIG d   1       8.293   0.602  -5.817  0.00  0.00    -0.310 N 
ATOM     18  C   LIG d   1       7.037   0.735  -6.557  0.00  0.00     0.031 C 
ATOM     19  H   LIG d   1       5.324  -1.065  -5.601  0.00  0.00     0.047 H 
ATOM     20  H   LIG d   1       5.566  -2.373  -6.780  0.00  0.00     0.047 H 
ATOM     21  H   LIG d   1       7.496  -2.041  -8.535  0.00  0.00     0.028 H 
ATOM     22  H   LIG d   1       8.214  -0.417  -8.682  0.00  0.00     0.028 H 
ATOM     23  H   LIG d   1       8.061  -3.521  -6.671  0.00  0.00     0.047 H 
ATOM     24  H   LIG d   1       9.069  -2.936  -5.320  0.00  0.00     0.047 H 
ATOM     25  H   LIG d   1      11.193  -1.038  -5.812  0.00  0.00     0.064 H 
ATOM     26  H   LIG d   1      11.763   0.748  -4.181  0.00  0.00     0.064 H 
ATOM     27  H   LIG d   1       6.250   1.038  -5.866  0.00  0.00     0.050 H 
ATOM     28  H   LIG d   1       7.155   1.507  -7.318  0.00  0.00     0.050 H 
ENDROOT
BRANCH   1  29
ATOM     29  C   LIG d   1       5.843  -1.521  -3.408  0.00  0.00     0.037 A 
ATOM     30  C   LIG d   1       4.680  -2.269  -3.216  0.00  0.00    -0.050 A 
ATOM     31  C   LIG d   1       3.586  -1.691  -2.605  0.00  0.00    -0.061 A 
ATOM     32  H   LIG d   1       4.636  -3.296  -3.547  0.00  0.00     0.062 H 
ATOM     33  C   LIG d   1       3.640  -0.375  -2.182  0.00  0.00    -0.062 A 
ATOM     34  H   LIG d   1       2.684  -2.268  -2.457  0.00  0.00     0.062 H 
ATOM     35  C   LIG d   1       4.790   0.371  -2.369  0.00  0.00    -0.061 A 
ATOM     36  H   LIG d   1       2.781   0.072  -1.705  0.00  0.00     0.062 H 
ATOM     37  C   LIG d   1       5.893  -0.196  -2.973  0.00  0.00    -0.050 A 
ATOM     38  H   LIG d   1       4.826   1.398  -2.036  0.00  0.00     0.062 H 
ATOM     39  H   LIG d   1       6.792   0.386  -3.115  0.00  0.00     0.062 H 
ENDBRANCH   1  29
BRANCH  14  40
ATOM     40  N   LIG d   1      10.093   2.598  -3.308  0.00  0.00    -0.210 N 
ATOM     41  H   LIG d   1       9.778   2.501  -2.395  0.00  0.00     0.174 HD
BRANCH  40  42
ATOM     42  S   LIG d   1      10.959   3.939  -3.746  0.00  0.00     0.079 S 
ATOM     43  O   LIG d   1      12.331   3.603  -3.598  0.00  0.00    -0.149 OA
ATOM     44  O   LIG d   1      10.413   4.390  -4.978  0.00  0.00    -0.149 OA
BRANCH  42  45
ATOM     45  C   LIG d   1      10.616   5.192  -2.556  0.00  0.00     0.146 A 
ATOM     46  S   LIG d   1      11.358   5.453  -0.953  0.00  0.00    -0.077 SA
ATOM     47  C   LIG d   1      10.425   6.899  -0.477  0.00  0.00    -0.022 A 
ATOM     48  C   LIG d   1       9.624   7.084  -1.554  0.00  0.00    -0.053 A 
ATOM     49  H   LIG d   1      10.485   7.477   0.433  0.00  0.00     0.069 H 
ATOM     50  C   LIG d   1       9.725   6.212  -2.622  0.00  0.00    -0.028 A 
ATOM     51  H   LIG d   1       8.919   7.902  -1.579  0.00  0.00     0.062 H 
ATOM     52  H   LIG d   1       9.102   6.339  -3.495  0.00  0.00     0.064 H 
ENDBRANCH  42  45
ENDBRANCH  40  42
ENDBRANCH  14  40
TORSDOF 4
ENDMDL
MODEL 4
REMARK VINA RESULT:      -7.1      2.301      3.797
REMARK  4 active torsions:
REMARK  status: ('A' for Active; 'I' for Inactive)
REMARK    1  A    between atoms: C_4  and  C_7 
REMARK       I    between atoms: C_7  and  N_9 
REMARK    2  A    between atoms: C_20  and  N_25 
REMARK    3  A    between atoms: N_25  and  S_26 
REMARK    4  A    between atoms: S_26  and  C_29 
ROOT
ATOM      1  C   LIG d   1       3.587  -0.092  -6.103  0.00  0.00     0.247 C 
ATOM      2  O   LIG d   1       3.170   0.760  -5.343  0.00  0.00    -0.270 OA
ATOM      3  N   LIG d   1       4.060  -1.256  -5.617  0.00  0.00    -0.297 N 
ATOM      4  C   LIG d   1       4.498  -2.325  -6.522  0.00  0.00     0.019 C 
ATOM      5  C   LIG d   1       5.887  -2.811  -6.130  0.00  0.00    -0.006 C 
ATOM      6  H   LIG d   1       6.085  -3.727  -6.685  0.00  0.00     0.033 H 
ATOM      7  C   LIG d   1       5.952  -3.134  -4.637  0.00  0.00    -0.037 C 
ATOM      8  C   LIG d   1       5.607  -1.867  -3.850  0.00  0.00     0.016 C 
ATOM      9  H   LIG d   1       5.737  -2.043  -2.782  0.00  0.00     0.038 H 
ATOM     10  C   LIG d   1       4.151  -1.484  -4.166  0.00  0.00     0.023 C 
ATOM     11  C   LIG d   1       6.492  -0.731  -4.303  0.00  0.00     0.027 C 
ATOM     12  C   LIG d   1       6.738   0.264  -3.412  0.00  0.00    -0.040 C 
ATOM     13  C   LIG d   1       7.440   1.411  -3.802  0.00  0.00    -0.032 C 
ATOM     14  C   LIG d   1       7.853   1.524  -5.101  0.00  0.00     0.112 C 
ATOM     15  C   LIG d   1       7.589   0.470  -5.996  0.00  0.00     0.274 C 
ATOM     16  O   LIG d   1       7.900   0.580  -7.171  0.00  0.00    -0.266 OA
ATOM     17  N   LIG d   1       6.988  -0.666  -5.563  0.00  0.00    -0.310 N 
ATOM     18  C   LIG d   1       6.962  -1.800  -6.488  0.00  0.00     0.031 C 
ATOM     19  H   LIG d   1       4.523  -1.945  -7.544  0.00  0.00     0.047 H 
ATOM     20  H   LIG d   1       3.795  -3.156  -6.466  0.00  0.00     0.047 H 
ATOM     21  H   LIG d   1       5.233  -3.919  -4.401  0.00  0.00     0.028 H 
ATOM     22  H   LIG d   1       6.957  -3.468  -4.378  0.00  0.00     0.028 H 
ATOM     23  H   LIG d   1       3.482  -2.293  -3.875  0.00  0.00     0.047 H 
ATOM     24  H   LIG d   1       3.885  -0.572  -3.631  0.00  0.00     0.047 H 
ATOM     25  H   LIG d   1       6.390   0.170  -2.394  0.00  0.00     0.064 H 
ATOM     26  H   LIG d   1       7.650   2.195  -3.089  0.00  0.00     0.064 H 
ATOM     27  H   LIG d   1       6.778  -1.430  -7.496  0.00  0.00     0.050 H 
ATOM     28  H   LIG d   1       7.933  -2.296  -6.466  0.00  0.00     0.050 H 
ENDROOT
BRANCH   1  29
ATOM     29  C   LIG d   1       3.575   0.150  -7.562  0.00  0.00     0.037 A 
ATOM     30  C   LIG d   1       4.689   0.713  -8.188  0.00  0.00    -0.050 A 
ATOM     31  C   LIG d   1       4.671   0.935  -9.549  0.00  0.00    -0.061 A 
ATOM     32  H   LIG d   1       5.561   0.975  -7.608  0.00  0.00     0.062 H 
ATOM     33  C   LIG d   1       3.553   0.601 -10.294  0.00  0.00    -0.062 A 
ATOM     34  H   LIG d   1       5.531   1.372 -10.035  0.00  0.00     0.062 H 
ATOM     35  C   LIG d   1       2.447   0.042  -9.680  0.00  0.00    -0.061 A 
ATOM     36  H   LIG d   1       3.545   0.777 -11.359  0.00  0.00     0.062 H 
ATOM     37  C   LIG d   1       2.453  -0.190  -8.320  0.00  0.00    -0.050 A 
ATOM     38  H   LIG d   1       1.578  -0.217 -10.266  0.00  0.00     0.062 H 
ATOM     39  H   LIG d   1       1.591  -0.630  -7.842  0.00  0.00     0.062 H 
ENDBRANCH   1  29
BRANCH  14  40
ATOM     40  N   LIG d   1       8.531   2.671  -5.534  0.00  0.00    -0.210 N 
ATOM     41  H   LIG d   1       8.082   3.313  -6.107  0.00  0.00     0.174 HD
BRANCH  40  42
ATOM     42  S   LIG d   1      10.098   2.933  -5.067  0.00  0.00     0.079 S 
ATOM     43  O   LIG d   1      10.517   1.763  -4.378  0.00  0.00    -0.149 OA
ATOM     44  O   LIG d   1      10.783   3.433  -6.208  0.00  0.00    -0.149 OA
BRANCH  42  45
ATOM     45  C   LIG d   1      10.078   4.236  -3.882  0.00  0.00     0.146 A 
ATOM     46  S   LIG d   1       9.581   5.938  -4.090  0.00  0.00    -0.077 SA
ATOM     47  C   LIG d   1       9.883   6.495  -2.421  0.00  0.00    -0.022 A 
ATOM     48  C   LIG d   1      10.334   5.364  -1.825  0.00  0.00    -0.053 A 
ATOM     49  H   LIG d   1       9.742   7.477  -1.996  0.00  0.00     0.069 H 
ATOM     50  C   LIG d   1      10.429   4.205  -2.573  0.00  0.00    -0.028 A 
ATOM     51  H   LIG d   1      10.613   5.368  -0.782  0.00  0.00     0.062 H 
ATOM     52  H   LIG d   1      10.781   3.289  -2.121  0.00  0.00     0.064 H 
ENDBRANCH  42  45
ENDBRANCH  40  42
ENDBRANCH  14  40
TORSDOF 4
ENDMDL
MODEL 5
REMARK VINA RESULT:      -6.9      3.785      6.639
REMARK  4 active torsions:
REMARK  status: ('A' for Active; 'I' for Inactive)
REMARK    1  A    between atoms: C_4  and  C_7 
REMARK       I    between atoms: C_7  and  N_9 
REMARK    2  A    between atoms: C_20  and  N_25 
REMARK    3  A    between atoms: N_25  and  S_26 
REMARK    4  A    between atoms: S_26  and  C_29 
ROOT
ATOM      1  C   LIG d   1       4.319  -1.409 -10.849  0.00  0.00     0.247 C 
ATOM      2  O   LIG d   1       5.441  -1.452 -11.315  0.00  0.00    -0.270 OA
ATOM      3  N   LIG d   1       3.759  -0.221 -10.548  0.00  0.00    -0.297 N 
ATOM      4  C   LIG d   1       2.378  -0.146 -10.056  0.00  0.00     0.019 C 
ATOM      5  C   LIG d   1       2.318   0.695  -8.787  0.00  0.00    -0.006 C 
ATOM      6  H   LIG d   1       1.268   0.896  -8.575  0.00  0.00     0.033 H 
ATOM      7  C   LIG d   1       3.029   2.035  -8.984  0.00  0.00    -0.037 C 
ATOM      8  C   LIG d   1       4.489   1.759  -9.353  0.00  0.00     0.016 C 
ATOM      9  H   LIG d   1       5.045   2.696  -9.407  0.00  0.00     0.038 H 
ATOM     10  C   LIG d   1       4.517   1.030 -10.706  0.00  0.00     0.023 C 
ATOM     11  C   LIG d   1       5.109   0.845  -8.322  0.00  0.00     0.027 C 
ATOM     12  C   LIG d   1       6.454   0.922  -8.146  0.00  0.00    -0.040 C 
ATOM     13  C   LIG d   1       7.114   0.018  -7.306  0.00  0.00    -0.032 C 
ATOM     14  C   LIG d   1       6.387  -0.960  -6.685  0.00  0.00     0.112 C 
ATOM     15  C   LIG d   1       4.993  -1.006  -6.883  0.00  0.00     0.274 C 
ATOM     16  O   LIG d   1       4.339  -1.905  -6.383  0.00  0.00    -0.266 OA
ATOM     17  N   LIG d   1       4.374  -0.058  -7.630  0.00  0.00    -0.310 N 
ATOM     18  C   LIG d   1       2.910  -0.035  -7.595  0.00  0.00     0.031 C 
ATOM     19  H   LIG d   1       2.016  -1.151  -9.840  0.00  0.00     0.047 H 
ATOM     20  H   LIG d   1       1.746   0.307 -10.820  0.00  0.00     0.047 H 
ATOM     21  H   LIG d   1       2.547   2.590  -9.789  0.00  0.00     0.028 H 
ATOM     22  H   LIG d   1       2.983   2.613  -8.062  0.00  0.00     0.028 H 
ATOM     23  H   LIG d   1       4.054   1.650 -11.472  0.00  0.00     0.047 H 
ATOM     24  H   LIG d   1       5.547   0.805 -10.984  0.00  0.00     0.047 H 
ATOM     25  H   LIG d   1       7.019   1.688  -8.657  0.00  0.00     0.064 H 
ATOM     26  H   LIG d   1       8.181   0.089  -7.153  0.00  0.00     0.064 H 
ATOM     27  H   LIG d   1       2.541  -1.059  -7.589  0.00  0.00     0.050 H 
ATOM     28  H   LIG d   1       2.587   0.463  -6.680  0.00  0.00     0.050 H 
ENDROOT
BRANCH   1  29
ATOM     29  C   LIG d   1       3.569  -2.662 -10.611  0.00  0.00     0.037 A 
ATOM     30  C   LIG d   1       3.712  -3.344  -9.402  0.00  0.00    -0.050 A 
ATOM     31  C   LIG d   1       3.009  -4.512  -9.187  0.00  0.00    -0.061 A 
ATOM     32  H   LIG d   1       4.372  -2.961  -8.638  0.00  0.00     0.062 H 
ATOM     33  C   LIG d   1       2.164  -5.005 -10.165  0.00  0.00    -0.062 A 
ATOM     34  H   LIG d   1       3.119  -5.043  -8.252  0.00  0.00     0.062 H 
ATOM     35  C   LIG d   1       2.018  -4.333 -11.365  0.00  0.00    -0.061 A 
ATOM     36  H   LIG d   1       1.616  -5.920  -9.991  0.00  0.00     0.062 H 
ATOM     37  C   LIG d   1       2.711  -3.162 -11.591  0.00  0.00    -0.050 A 
ATOM     38  H   LIG d   1       1.357  -4.723 -12.125  0.00  0.00     0.062 H 
ATOM     39  H   LIG d   1       2.593  -2.635 -12.527  0.00  0.00     0.062 H 
ENDBRANCH   1  29
BRANCH  14  40
ATOM     40  N   LIG d   1       7.018  -1.901  -5.862  0.00  0.00    -0.210 N 
ATOM     41  H   LIG d   1       7.123  -2.818  -6.163  0.00  0.00     0.174 HD
BRANCH  40  42
ATOM     42  S   LIG d   1       7.588  -1.450  -4.374  0.00  0.00     0.079 S 
ATOM     43  O   LIG d   1       8.088  -2.628  -3.756  0.00  0.00    -0.149 OA
ATOM     44  O   LIG d   1       8.393  -0.297  -4.580  0.00  0.00    -0.149 OA
BRANCH  42  45
ATOM     45  C   LIG d   1       6.201  -0.931  -3.420  0.00  0.00     0.146 A 
ATOM     46  S   LIG d   1       5.676   0.726  -3.009  0.00  0.00    -0.077 SA
ATOM     47  C   LIG d   1       4.231   0.301  -2.050  0.00  0.00    -0.022 A 
ATOM     48  C   LIG d   1       4.244  -1.053  -2.108  0.00  0.00    -0.053 A 
ATOM     49  H   LIG d   1       3.528   0.953  -1.555  0.00  0.00     0.069 H 
ATOM     50  C   LIG d   1       5.251  -1.684  -2.814  0.00  0.00    -0.028 A 
ATOM     51  H   LIG d   1       3.478  -1.630  -1.611  0.00  0.00     0.062 H 
ATOM     52  H   LIG d   1       5.282  -2.762  -2.879  0.00  0.00     0.064 H 
ENDBRANCH  42  45
ENDBRANCH  40  42
ENDBRANCH  14  40
TORSDOF 4
ENDMDL
MODEL 6
REMARK VINA RESULT:      -6.9      2.126      4.522
REMARK  4 active torsions:
REMARK  status: ('A' for Active; 'I' for Inactive)
REMARK    1  A    between atoms: C_4  and  C_7 
REMARK       I    between atoms: C_7  and  N_9 
REMARK    2  A    between atoms: C_20  and  N_25 
REMARK    3  A    between atoms: N_25  and  S_26 
REMARK    4  A    between atoms: S_26  and  C_29 
ROOT
ATOM      1  C   LIG d   1       4.099  -0.507  -6.256  0.00  0.00     0.247 C 
ATOM      2  O   LIG d   1       3.911   0.667  -6.509  0.00  0.00    -0.270 OA
ATOM      3  N   LIG d   1       3.786  -0.994  -5.040  0.00  0.00    -0.297 N 
ATOM      4  C   LIG d   1       3.937  -2.423  -4.742  0.00  0.00     0.019 C 
ATOM      5  C   LIG d   1       4.726  -2.611  -3.452  0.00  0.00    -0.006 C 
ATOM      6  H   LIG d   1       4.637  -3.658  -3.162  0.00  0.00     0.033 H 
ATOM      7  C   LIG d   1       4.147  -1.754  -2.327  0.00  0.00    -0.037 C 
ATOM      8  C   LIG d   1       4.203  -0.285  -2.757  0.00  0.00     0.016 C 
ATOM      9  H   LIG d   1       3.885   0.358  -1.936  0.00  0.00     0.038 H 
ATOM     10  C   LIG d   1       3.288  -0.104  -3.979  0.00  0.00     0.023 C 
ATOM     11  C   LIG d   1       5.611   0.066  -3.178  0.00  0.00     0.027 C 
ATOM     12  C   LIG d   1       5.993   1.365  -3.061  0.00  0.00    -0.040 C 
ATOM     13  C   LIG d   1       7.233   1.789  -3.553  0.00  0.00    -0.032 C 
ATOM     14  C   LIG d   1       8.044   0.879  -4.175  0.00  0.00     0.112 C 
ATOM     15  C   LIG d   1       7.620  -0.461  -4.271  0.00  0.00     0.274 C 
ATOM     16  O   LIG d   1       8.305  -1.271  -4.873  0.00  0.00    -0.266 OA
ATOM     17  N   LIG d   1       6.454  -0.856  -3.703  0.00  0.00    -0.310 N 
ATOM     18  C   LIG d   1       6.199  -2.296  -3.639  0.00  0.00     0.031 C 
ATOM     19  H   LIG d   1       4.464  -2.910  -5.562  0.00  0.00     0.047 H 
ATOM     20  H   LIG d   1       2.951  -2.874  -4.632  0.00  0.00     0.047 H 
ATOM     21  H   LIG d   1       3.111  -2.041  -2.142  0.00  0.00     0.028 H 
ATOM     22  H   LIG d   1       4.734  -1.895  -1.420  0.00  0.00     0.028 H 
ATOM     23  H   LIG d   1       2.265  -0.374  -3.720  0.00  0.00     0.047 H 
ATOM     24  H   LIG d   1       3.324   0.932  -4.318  0.00  0.00     0.047 H 
ATOM     25  H   LIG d   1       5.334   2.077  -2.585  0.00  0.00     0.064 H 
ATOM     26  H   LIG d   1       7.544   2.817  -3.446  0.00  0.00     0.064 H 
ATOM     27  H   LIG d   1       6.545  -2.757  -4.563  0.00  0.00     0.050 H 
ATOM     28  H   LIG d   1       6.758  -2.717  -2.803  0.00  0.00     0.050 H 
ENDROOT
BRANCH   1  29
ATOM     29  C   LIG d   1       4.672  -1.402  -7.286  0.00  0.00     0.037 A 
ATOM     30  C   LIG d   1       3.831  -2.082  -8.168  0.00  0.00    -0.050 A 
ATOM     31  C   LIG d   1       4.371  -2.915  -9.126  0.00  0.00    -0.061 A 
ATOM     32  H   LIG d   1       2.760  -1.959  -8.100  0.00  0.00     0.062 H 
ATOM     33  C   LIG d   1       5.743  -3.075  -9.215  0.00  0.00    -0.062 A 
ATOM     34  H   LIG d   1       3.722  -3.443  -9.809  0.00  0.00     0.062 H 
ATOM     35  C   LIG d   1       6.582  -2.403  -8.343  0.00  0.00    -0.061 A 
ATOM     36  H   LIG d   1       6.160  -3.728  -9.967  0.00  0.00     0.062 H 
ATOM     37  C   LIG d   1       6.054  -1.563  -7.384  0.00  0.00    -0.050 A 
ATOM     38  H   LIG d   1       7.651  -2.532  -8.417  0.00  0.00     0.062 H 
ATOM     39  H   LIG d   1       6.710  -1.036  -6.707  0.00  0.00     0.062 H 
ENDBRANCH   1  29
BRANCH  14  40
ATOM     40  N   LIG d   1       9.278   1.274  -4.706  0.00  0.00    -0.210 N 
ATOM     41  H   LIG d   1      10.093   1.129  -4.200  0.00  0.00     0.174 HD
BRANCH  40  42
ATOM     42  S   LIG d   1       9.348   1.987  -6.199  0.00  0.00     0.079 S 
ATOM     43  O   LIG d   1      10.543   1.527  -6.814  0.00  0.00    -0.149 OA
ATOM     44  O   LIG d   1       8.069   1.813  -6.793  0.00  0.00    -0.149 OA
BRANCH  42  45
ATOM     45  C   LIG d   1       9.550   3.719  -5.940  0.00  0.00     0.146 A 
ATOM     46  S   LIG d   1       9.932   4.996  -7.127  0.00  0.00    -0.077 SA
ATOM     47  C   LIG d   1       9.939   6.386  -6.007  0.00  0.00    -0.022 A 
ATOM     48  C   LIG d   1       9.653   5.794  -4.822  0.00  0.00    -0.053 A 
ATOM     49  H   LIG d   1      10.122   7.429  -6.219  0.00  0.00     0.069 H 
ATOM     50  C   LIG d   1       9.449   4.427  -4.788  0.00  0.00    -0.028 A 
ATOM     51  H   LIG d   1       9.584   6.381  -3.919  0.00  0.00     0.062 H 
ATOM     52  H   LIG d   1       9.215   3.931  -3.858  0.00  0.00     0.064 H 
ENDBRANCH  42  45
ENDBRANCH  40  42
ENDBRANCH  14  40
TORSDOF 4
ENDMDL
MODEL 7
REMARK VINA RESULT:      -6.8      4.559      7.958
REMARK  4 active torsions:
REMARK  status: ('A' for Active; 'I' for Inactive)
REMARK    1  A    between atoms: C_4  and  C_7 
REMARK       I    between atoms: C_7  and  N_9 
REMARK    2  A    between atoms: C_20  and  N_25 
REMARK    3  A    between atoms: N_25  and  S_26 
REMARK    4  A    between atoms: S_26  and  C_29 
ROOT
ATOM      1  C   LIG d   1       5.199  -0.134  -6.134  0.00  0.00     0.247 C 
ATOM      2  O   LIG d   1       6.268   0.332  -6.477  0.00  0.00    -0.270 OA
ATOM      3  N   LIG d   1       4.886  -0.214  -4.826  0.00  0.00    -0.297 N 
ATOM      4  C   LIG d   1       3.571  -0.704  -4.397  0.00  0.00     0.019 C 
ATOM      5  C   LIG d   1       3.734  -1.792  -3.344  0.00  0.00    -0.006 C 
ATOM      6  H   LIG d   1       2.752  -1.979  -2.909  0.00  0.00     0.033 H 
ATOM      7  C   LIG d   1       4.671  -1.336  -2.226  0.00  0.00    -0.037 C 
ATOM      8  C   LIG d   1       6.034  -1.005  -2.841  0.00  0.00     0.016 C 
ATOM      9  H   LIG d   1       6.752  -0.767  -2.054  0.00  0.00     0.038 H 
ATOM     10  C   LIG d   1       5.857   0.187  -3.796  0.00  0.00     0.023 C 
ATOM     11  C   LIG d   1       6.523  -2.179  -3.654  0.00  0.00     0.027 C 
ATOM     12  C   LIG d   1       7.866  -2.319  -3.808  0.00  0.00    -0.040 C 
ATOM     13  C   LIG d   1       8.387  -3.304  -4.655  0.00  0.00    -0.032 C 
ATOM     14  C   LIG d   1       7.522  -4.108  -5.345  0.00  0.00     0.112 C 
ATOM     15  C   LIG d   1       6.136  -3.943  -5.155  0.00  0.00     0.274 C 
ATOM     16  O   LIG d   1       5.351  -4.613  -5.805  0.00  0.00    -0.266 OA
ATOM     17  N   LIG d   1       5.668  -3.040  -4.257  0.00  0.00    -0.310 N 
ATOM     18  C   LIG d   1       4.238  -3.091  -3.945  0.00  0.00     0.031 C 
ATOM     19  H   LIG d   1       3.039  -1.110  -5.257  0.00  0.00     0.047 H 
ATOM     20  H   LIG d   1       2.997   0.122  -3.978  0.00  0.00     0.047 H 
ATOM     21  H   LIG d   1       4.262  -0.448  -1.744  0.00  0.00     0.028 H 
ATOM     22  H   LIG d   1       4.781  -2.134  -1.492  0.00  0.00     0.028 H 
ATOM     23  H   LIG d   1       5.479   1.050  -3.247  0.00  0.00     0.047 H 
ATOM     24  H   LIG d   1       6.811   0.433  -4.262  0.00  0.00     0.047 H 
ATOM     25  H   LIG d   1       8.538  -1.664  -3.272  0.00  0.00     0.064 H 
ATOM     26  H   LIG d   1       9.454  -3.425  -4.765  0.00  0.00     0.064 H 
ATOM     27  H   LIG d   1       3.684  -3.296  -4.861  0.00  0.00     0.050 H 
ATOM     28  H   LIG d   1       4.060  -3.901  -3.237  0.00  0.00     0.050 H 
ENDROOT
BRANCH   1  29
ATOM     29  C   LIG d   1       4.241  -0.614  -7.154  0.00  0.00     0.037 A 
ATOM     30  C   LIG d   1       3.222   0.226  -7.607  0.00  0.00    -0.050 A 
ATOM     31  C   LIG d   1       2.331  -0.228  -8.559  0.00  0.00    -0.061 A 
ATOM     32  H   LIG d   1       3.129   1.227  -7.213  0.00  0.00     0.062 H 
ATOM     33  C   LIG d   1       2.448  -1.511  -9.064  0.00  0.00    -0.062 A 
ATOM     34  H   LIG d   1       1.541   0.420  -8.910  0.00  0.00     0.062 H 
ATOM     35  C   LIG d   1       3.456  -2.348  -8.619  0.00  0.00    -0.061 A 
ATOM     36  H   LIG d   1       1.748  -1.861  -9.809  0.00  0.00     0.062 H 
ATOM     37  C   LIG d   1       4.356  -1.905  -7.672  0.00  0.00    -0.050 A 
ATOM     38  H   LIG d   1       3.541  -3.348  -9.018  0.00  0.00     0.062 H 
ATOM     39  H   LIG d   1       5.145  -2.557  -7.328  0.00  0.00     0.062 H 
ENDBRANCH   1  29
BRANCH  14  40
ATOM     40  N   LIG d   1       8.007  -5.084  -6.224  0.00  0.00    -0.210 N 
ATOM     41  H   LIG d   1       8.165  -4.863  -7.156  0.00  0.00     0.174 HD
BRANCH  40  42
ATOM     42  S   LIG d   1       8.312  -6.616  -5.675  0.00  0.00     0.079 S 
ATOM     43  O   LIG d   1       9.304  -7.165  -6.531  0.00  0.00    -0.149 OA
ATOM     44  O   LIG d   1       8.489  -6.515  -4.268  0.00  0.00    -0.149 OA
BRANCH  42  45
ATOM     45  C   LIG d   1       6.847  -7.562  -5.930  0.00  0.00     0.146 A 
ATOM     46  S   LIG d   1       5.991  -7.919  -7.455  0.00  0.00    -0.077 SA
ATOM     47  C   LIG d   1       4.667  -8.905  -6.775  0.00  0.00    -0.022 A 
ATOM     48  C   LIG d   1       4.962  -8.898  -5.453  0.00  0.00    -0.053 A 
ATOM     49  H   LIG d   1       3.845  -9.385  -7.286  0.00  0.00     0.069 H 
ATOM     50  C   LIG d   1       6.082  -8.213  -5.020  0.00  0.00    -0.028 A 
ATOM     51  H   LIG d   1       4.332  -9.420  -4.748  0.00  0.00     0.062 H 
ATOM     52  H   LIG d   1       6.342  -8.195  -3.971  0.00  0.00     0.064 H 
ENDBRANCH  42  45
ENDBRANCH  40  42
ENDBRANCH  14  40
TORSDOF 4
ENDMDL
MODEL 8
REMARK VINA RESULT:      -6.8      3.736      4.715
REMARK  4 active torsions:
REMARK  status: ('A' for Active; 'I' for Inactive)
REMARK    1  A    between atoms: C_4  and  C_7 
REMARK       I    between atoms: C_7  and  N_9 
REMARK    2  A    between atoms: C_20  and  N_25 
REMARK    3  A    between atoms: N_25  and  S_26 
REMARK    4  A    between atoms: S_26  and  C_29 
ROOT
ATOM      1  C   LIG d   1       6.233  -1.205  -3.836  0.00  0.00     0.247 C 
ATOM      2  O   LIG d   1       7.060  -0.389  -3.480  0.00  0.00    -0.270 OA
ATOM      3  N   LIG d   1       6.569  -2.505  -3.940  0.00  0.00    -0.297 N 
ATOM      4  C   LIG d   1       5.564  -3.515  -4.296  0.00  0.00     0.019 C 
ATOM      5  C   LIG d   1       6.071  -4.379  -5.444  0.00  0.00    -0.006 C 
ATOM      6  H   LIG d   1       5.397  -5.230  -5.537  0.00  0.00     0.033 H 
ATOM      7  C   LIG d   1       7.474  -4.910  -5.151  0.00  0.00    -0.037 C 
ATOM      8  C   LIG d   1       8.412  -3.718  -4.950  0.00  0.00     0.016 C 
ATOM      9  H   LIG d   1       9.440  -4.065  -4.833  0.00  0.00     0.038 H 
ATOM     10  C   LIG d   1       7.953  -2.946  -3.702  0.00  0.00     0.023 C 
ATOM     11  C   LIG d   1       8.310  -2.785  -6.133  0.00  0.00     0.027 C 
ATOM     12  C   LIG d   1       9.391  -2.014  -6.418  0.00  0.00    -0.040 C 
ATOM     13  C   LIG d   1       9.324  -1.034  -7.416  0.00  0.00    -0.032 C 
ATOM     14  C   LIG d   1       8.144  -0.849  -8.082  0.00  0.00     0.112 C 
ATOM     15  C   LIG d   1       7.045  -1.673  -7.769  0.00  0.00     0.274 C 
ATOM     16  O   LIG d   1       5.970  -1.483  -8.313  0.00  0.00    -0.266 OA
ATOM     17  N   LIG d   1       7.172  -2.673  -6.861  0.00  0.00    -0.310 N 
ATOM     18  C   LIG d   1       6.067  -3.627  -6.763  0.00  0.00     0.031 C 
ATOM     19  H   LIG d   1       4.643  -3.016  -4.598  0.00  0.00     0.047 H 
ATOM     20  H   LIG d   1       5.364  -4.145  -3.430  0.00  0.00     0.047 H 
ATOM     21  H   LIG d   1       7.454  -5.517  -4.246  0.00  0.00     0.028 H 
ATOM     22  H   LIG d   1       7.819  -5.514  -5.990  0.00  0.00     0.028 H 
ATOM     23  H   LIG d   1       7.989  -3.596  -2.828  0.00  0.00     0.047 H 
ATOM     24  H   LIG d   1       8.595  -2.079  -3.545  0.00  0.00     0.047 H 
ATOM     25  H   LIG d   1      10.312  -2.158  -5.870  0.00  0.00     0.064 H 
ATOM     26  H   LIG d   1      10.188  -0.432  -7.653  0.00  0.00     0.064 H 
ATOM     27  H   LIG d   1       5.125  -3.087  -6.859  0.00  0.00     0.050 H 
ATOM     28  H   LIG d   1       6.147  -4.346  -7.579  0.00  0.00     0.050 H 
ENDROOT
BRANCH   1  29
ATOM     29  C   LIG d   1       4.855  -0.770  -4.155  0.00  0.00     0.037 A 
ATOM     30  C   LIG d   1       3.873  -0.775  -3.163  0.00  0.00    -0.050 A 
ATOM     31  C   LIG d   1       2.590  -0.367  -3.467  0.00  0.00    -0.061 A 
ATOM     32  H   LIG d   1       4.115  -1.099  -2.162  0.00  0.00     0.062 H 
ATOM     33  C   LIG d   1       2.278   0.047  -4.750  0.00  0.00    -0.062 A 
ATOM     34  H   LIG d   1       1.827  -0.372  -2.702  0.00  0.00     0.062 H 
ATOM     35  C   LIG d   1       3.247   0.055  -5.737  0.00  0.00    -0.061 A 
ATOM     36  H   LIG d   1       1.272   0.365  -4.982  0.00  0.00     0.062 H 
ATOM     37  C   LIG d   1       4.535  -0.346  -5.445  0.00  0.00    -0.050 A 
ATOM     38  H   LIG d   1       2.997   0.379  -6.736  0.00  0.00     0.062 H 
ATOM     39  H   LIG d   1       5.292  -0.336  -6.215  0.00  0.00     0.062 H 
ENDBRANCH   1  29
BRANCH  14  40
ATOM     40  N   LIG d   1       8.031   0.142  -9.065  0.00  0.00    -0.210 N 
ATOM     41  H   LIG d   1       8.347  -0.030  -9.967  0.00  0.00     0.174 HD
BRANCH  40  42
ATOM     42  S   LIG d   1       7.359   1.608  -8.690  0.00  0.00     0.079 S 
ATOM     43  O   LIG d   1       7.192   1.629  -7.280  0.00  0.00    -0.149 OA
ATOM     44  O   LIG d   1       8.117   2.591  -9.383  0.00  0.00    -0.149 OA
BRANCH  42  45
ATOM     45  C   LIG d   1       5.743   1.634  -9.391  0.00  0.00     0.146 A 
ATOM     46  S   LIG d   1       5.032   0.552 -10.620  0.00  0.00    -0.077 SA
ATOM     47  C   LIG d   1       3.414   1.302 -10.710  0.00  0.00    -0.022 A 
ATOM     48  C   LIG d   1       3.522   2.310  -9.811  0.00  0.00    -0.053 A 
ATOM     49  H   LIG d   1       2.569   1.023 -11.321  0.00  0.00     0.069 H 
ATOM     50  C   LIG d   1       4.714   2.478  -9.131  0.00  0.00    -0.028 A 
ATOM     51  H   LIG d   1       2.688   2.971  -9.627  0.00  0.00     0.062 H 
ATOM     52  H   LIG d   1       4.824   3.271  -8.406  0.00  0.00     0.064 H 
ENDBRANCH  42  45
ENDBRANCH  40  42
ENDBRANCH  14  40
TORSDOF 4
ENDMDL
MODEL 9
REMARK VINA RESULT:      -6.7      2.493      2.995
REMARK  4 active torsions:
REMARK  status: ('A' for Active; 'I' for Inactive)
REMARK    1  A    between atoms: C_4  and  C_7 
REMARK       I    between atoms: C_7  and  N_9 
REMARK    2  A    between atoms: C_20  and  N_25 
REMARK    3  A    between atoms: N_25  and  S_26 
REMARK    4  A    between atoms: S_26  and  C_29 
ROOT
ATOM      1  C   LIG d   1       6.776  -2.317  -3.934  0.00  0.00     0.247 C 
ATOM      2  O   LIG d   1       7.942  -2.491  -3.638  0.00  0.00    -0.270 OA
ATOM      3  N   LIG d   1       6.206  -3.064  -4.900  0.00  0.00    -0.297 N 
ATOM      4  C   LIG d   1       4.781  -2.920  -5.218  0.00  0.00     0.019 C 
ATOM      5  C   LIG d   1       4.593  -2.730  -6.718  0.00  0.00    -0.006 C 
ATOM      6  H   LIG d   1       3.530  -2.834  -6.933  0.00  0.00     0.033 H 
ATOM      7  C   LIG d   1       5.346  -3.804  -7.503  0.00  0.00    -0.037 C 
ATOM      8  C   LIG d   1       6.833  -3.710  -7.153  0.00  0.00     0.016 C 
ATOM      9  H   LIG d   1       7.408  -4.402  -7.770  0.00  0.00     0.038 H 
ATOM     10  C   LIG d   1       7.000  -4.041  -5.661  0.00  0.00     0.023 C 
ATOM     11  C   LIG d   1       7.317  -2.295  -7.368  0.00  0.00     0.027 C 
ATOM     12  C   LIG d   1       8.634  -2.120  -7.650  0.00  0.00    -0.040 C 
ATOM     13  C   LIG d   1       9.180  -0.833  -7.731  0.00  0.00    -0.032 C 
ATOM     14  C   LIG d   1       8.370   0.244  -7.499  0.00  0.00     0.112 C 
ATOM     15  C   LIG d   1       7.006   0.027  -7.220  0.00  0.00     0.274 C 
ATOM     16  O   LIG d   1       6.284   0.974  -6.954  0.00  0.00    -0.266 OA
ATOM     17  N   LIG d   1       6.492  -1.227  -7.239  0.00  0.00    -0.310 N 
ATOM     18  C   LIG d   1       5.035  -1.351  -7.173  0.00  0.00     0.031 C 
ATOM     19  H   LIG d   1       4.379  -2.054  -4.691  0.00  0.00     0.047 H 
ATOM     20  H   LIG d   1       4.247  -3.814  -4.897  0.00  0.00     0.047 H 
ATOM     21  H   LIG d   1       4.967  -4.790  -7.231  0.00  0.00     0.028 H 
ATOM     22  H   LIG d   1       5.207  -3.641  -8.572  0.00  0.00     0.028 H 
ATOM     23  H   LIG d   1       6.637  -5.049  -5.462  0.00  0.00     0.047 H 
ATOM     24  H   LIG d   1       8.051  -3.964  -5.380  0.00  0.00     0.047 H 
ATOM     25  H   LIG d   1       9.267  -2.981  -7.812  0.00  0.00     0.064 H 
ATOM     26  H   LIG d   1      10.223  -0.694  -7.971  0.00  0.00     0.064 H 
ATOM     27  H   LIG d   1       4.648  -0.608  -6.476  0.00  0.00     0.050 H 
ATOM     28  H   LIG d   1       4.619  -1.156  -8.163  0.00  0.00     0.050 H 
ENDROOT
BRANCH   1  29
ATOM     29  C   LIG d   1       5.981  -1.285  -3.233  0.00  0.00     0.037 A 
ATOM     30  C   LIG d   1       6.255   0.069  -3.438  0.00  0.00    -0.050 A 
ATOM     31  C   LIG d   1       5.510   1.026  -2.781  0.00  0.00    -0.061 A 
ATOM     32  H   LIG d   1       7.048   0.365  -4.109  0.00  0.00     0.062 H 
ATOM     33  C   LIG d   1       4.494   0.648  -1.922  0.00  0.00    -0.062 A 
ATOM     34  H   LIG d   1       5.721   2.074  -2.938  0.00  0.00     0.062 H 
ATOM     35  C   LIG d   1       4.218  -0.692  -1.714  0.00  0.00    -0.061 A 
ATOM     36  H   LIG d   1       3.914   1.402  -1.410  0.00  0.00     0.062 H 
ATOM     37  C   LIG d   1       4.952  -1.659  -2.368  0.00  0.00    -0.050 A 
ATOM     38  H   LIG d   1       3.424  -0.981  -1.041  0.00  0.00     0.062 H 
ATOM     39  H   LIG d   1       4.733  -2.705  -2.209  0.00  0.00     0.062 H 
ENDBRANCH   1  29
BRANCH  14  40
ATOM     40  N   LIG d   1       8.888   1.545  -7.543  0.00  0.00    -0.210 N 
ATOM     41  H   LIG d   1       9.218   1.963  -6.732  0.00  0.00     0.174 HD
BRANCH  40  42
ATOM     42  S   LIG d   1       8.938   2.369  -8.978  0.00  0.00     0.079 S 
ATOM     43  O   LIG d   1      10.083   1.899  -9.676  0.00  0.00    -0.149 OA
ATOM     44  O   LIG d   1       7.630   2.305  -9.529  0.00  0.00    -0.149 OA
BRANCH  42  45
ATOM     45  C   LIG d   1       9.241   4.062  -8.596  0.00  0.00     0.146 A 
ATOM     46  S   LIG d   1       9.957   4.772  -7.123  0.00  0.00    -0.077 SA
ATOM     47  C   LIG d   1       9.875   6.488  -7.605  0.00  0.00    -0.022 A 
ATOM     48  C   LIG d   1       9.317   6.408  -8.837  0.00  0.00    -0.053 A 
ATOM     49  H   LIG d   1      10.190   7.364  -7.057  0.00  0.00     0.069 H 
ATOM     50  C   LIG d   1       8.997   5.163  -9.347  0.00  0.00    -0.028 A 
ATOM     51  H   LIG d   1       9.128   7.302  -9.413  0.00  0.00     0.062 H 
ATOM     52  H   LIG d   1       8.555   5.071 -10.329  0.00  0.00     0.064 H 
ENDBRANCH  42  45
ENDBRANCH  40  42
ENDBRANCH  14  40
TORSDOF 4
ENDMDL
