MODEL 1
REMARK VINA RESULT:      -5.1      0.000      0.000
REMARK  2 active torsions:
REMARK  status: ('A' for Active; 'I' for Inactive)
REMARK    1  A    between atoms: C_3  and  N_10 
REMARK    2  A    between atoms: C_6  and  C_7 
ROOT
ATOM      1  C   LIG d   1       4.158  -0.818  -6.165  0.00  0.00    -0.044 A 
ATOM      2  C   LIG d   1       4.390  -1.369  -4.923  0.00  0.00     0.016 A 
ATOM      3  C   LIG d   1       3.631  -0.977  -3.834  0.00  0.00     0.273 A 
ATOM      4  C   LIG d   1       2.632  -0.031  -3.983  0.00  0.00     0.016 A 
ATOM      5  C   LIG d   1       2.387   0.529  -5.219  0.00  0.00    -0.044 A 
ATOM      6  C   LIG d   1       3.150   0.139  -6.324  0.00  0.00     0.034 A 
ATOM      7  H   LIG d   1       4.754  -1.121  -7.013  0.00  0.00     0.063 H 
ATOM      8  H   LIG d   1       5.168  -2.108  -4.799  0.00  0.00     0.069 H 
ATOM      9  H   LIG d   1       2.043   0.270  -3.129  0.00  0.00     0.069 H 
ATOM     10  H   LIG d   1       1.607   1.267  -5.335  0.00  0.00     0.063 H 
ENDROOT
BRANCH   3  11
ATOM     11  N   LIG d   1       3.887  -1.574  -2.504  0.00  0.00     0.080 N 
ATOM     12  O   LIG d   1       3.637  -2.740  -2.307  0.00  0.00     0.041 OA
ATOM     13  O   LIG d   1       4.346  -0.895  -1.615  0.00  0.00    -0.576 OA
ENDBRANCH   3  11
BRANCH   6  14
ATOM     14  C   LIG d   1       2.895   0.733  -7.647  0.00  0.00     0.252 C 
ATOM     15  O   LIG d   1       3.144   1.903  -7.846  0.00  0.00    -0.274 OA
ATOM     16 CL   LIG d   1       2.234  -0.242  -8.923  0.00  0.00    -0.038 Cl
ENDBRANCH   6  14
TORSDOF 2
ENDMDL
MODEL 2
REMARK VINA RESULT:      -5.1      0.055      1.392
REMARK  2 active torsions:
REMARK  status: ('A' for Active; 'I' for Inactive)
REMARK    1  A    between atoms: C_3  and  N_10 
REMARK    2  A    between atoms: C_6  and  C_7 
ROOT
ATOM      1  C   LIG d   1       2.412   0.521  -5.259  0.00  0.00    -0.044 A 
ATOM      2  C   LIG d   1       2.646  -0.030  -4.017  0.00  0.00     0.016 A 
ATOM      3  C   LIG d   1       3.637  -0.983  -3.854  0.00  0.00     0.273 A 
ATOM      4  C   LIG d   1       4.400  -1.389  -4.934  0.00  0.00     0.016 A 
ATOM      5  C   LIG d   1       4.178  -0.846  -6.182  0.00  0.00    -0.044 A 
ATOM      6  C   LIG d   1       3.179   0.116  -6.355  0.00  0.00     0.034 A 
ATOM      7  H   LIG d   1       1.636   1.262  -5.386  0.00  0.00     0.063 H 
ATOM      8  H   LIG d   1       2.054   0.282  -3.169  0.00  0.00     0.069 H 
ATOM      9  H   LIG d   1       5.172  -2.133  -4.800  0.00  0.00     0.069 H 
ATOM     10  H   LIG d   1       4.775  -1.163  -7.025  0.00  0.00     0.063 H 
ENDROOT
BRANCH   3  11
ATOM     11  N   LIG d   1       3.882  -1.570  -2.518  0.00  0.00     0.080 N 
ATOM     12  O   LIG d   1       3.631  -2.735  -2.314  0.00  0.00     0.041 OA
ATOM     13  O   LIG d   1       4.332  -0.884  -1.630  0.00  0.00    -0.576 OA
ENDBRANCH   3  11
BRANCH   6  14
ATOM     14  C   LIG d   1       2.936   0.700  -7.686  0.00  0.00     0.252 C 
ATOM     15  O   LIG d   1       3.255   1.846  -7.914  0.00  0.00    -0.274 OA
ATOM     16 CL   LIG d   1       2.188  -0.256  -8.928  0.00  0.00    -0.038 Cl
ENDBRANCH   6  14
TORSDOF 2
ENDMDL
MODEL 3
REMARK VINA RESULT:      -5.1      2.948      5.017
REMARK  2 active torsions:
REMARK  status: ('A' for Active; 'I' for Inactive)
REMARK    1  A    between atoms: C_3  and  N_10 
REMARK    2  A    between atoms: C_6  and  C_7 
ROOT
ATOM      1  C   LIG d   1       4.414  -1.326  -5.311  0.00  0.00    -0.044 A 
ATOM      2  C   LIG d   1       4.132  -0.684  -6.498  0.00  0.00     0.016 A 
ATOM      3  C   LIG d   1       3.127   0.267  -6.554  0.00  0.00     0.273 A 
ATOM      4  C   LIG d   1       2.398   0.581  -5.421  0.00  0.00     0.016 A 
ATOM      5  C   LIG d   1       2.669  -0.052  -4.226  0.00  0.00    -0.044 A 
ATOM      6  C   LIG d   1       3.682  -1.013  -4.161  0.00  0.00     0.034 A 
ATOM      7  H   LIG d   1       5.195  -2.070  -5.269  0.00  0.00     0.063 H 
ATOM      8  H   LIG d   1       4.696  -0.923  -7.387  0.00  0.00     0.069 H 
ATOM      9  H   LIG d   1       1.616   1.324  -5.471  0.00  0.00     0.069 H 
ATOM     10  H   LIG d   1       2.100   0.194  -3.341  0.00  0.00     0.063 H 
ENDROOT
BRANCH   3  11
ATOM     11  N   LIG d   1       2.831   0.951  -7.832  0.00  0.00     0.080 N 
ATOM     12  O   LIG d   1       2.459   0.312  -8.789  0.00  0.00     0.041 OA
ATOM     13  O   LIG d   1       2.962   2.150  -7.921  0.00  0.00    -0.576 OA
ENDBRANCH   3  11
BRANCH   6  14
ATOM     14  C   LIG d   1       3.976  -1.695  -2.888  0.00  0.00     0.252 C 
ATOM     15  O   LIG d   1       3.850  -2.897  -2.800  0.00  0.00    -0.274 OA
ATOM     16 CL   LIG d   1       4.501  -0.773  -1.513  0.00  0.00    -0.038 Cl
ENDBRANCH   6  14
TORSDOF 2
ENDMDL
MODEL 4
REMARK VINA RESULT:      -5.0      3.560      4.358
REMARK  2 active torsions:
REMARK  status: ('A' for Active; 'I' for Inactive)
REMARK    1  A    between atoms: C_3  and  N_10 
REMARK    2  A    between atoms: C_6  and  C_7 
ROOT
ATOM      1  C   LIG d   1       5.591  -1.615  -4.749  0.00  0.00    -0.044 A 
ATOM      2  C   LIG d   1       5.427  -0.371  -4.177  0.00  0.00     0.016 A 
ATOM      3  C   LIG d   1       4.634  -0.222  -3.052  0.00  0.00     0.273 A 
ATOM      4  C   LIG d   1       4.001  -1.317  -2.493  0.00  0.00     0.016 A 
ATOM      5  C   LIG d   1       4.156  -2.568  -3.053  0.00  0.00    -0.044 A 
ATOM      6  C   LIG d   1       4.955  -2.727  -4.190  0.00  0.00     0.034 A 
ATOM      7  H   LIG d   1       6.207  -1.731  -5.629  0.00  0.00     0.063 H 
ATOM      8  H   LIG d   1       5.918   0.489  -4.608  0.00  0.00     0.069 H 
ATOM      9  H   LIG d   1       3.384  -1.194  -1.615  0.00  0.00     0.069 H 
ATOM     10  H   LIG d   1       3.662  -3.423  -2.615  0.00  0.00     0.063 H 
ENDROOT
BRANCH   3  11
ATOM     11  N   LIG d   1       4.464   1.116  -2.445  0.00  0.00     0.080 N 
ATOM     12  O   LIG d   1       4.779   1.302  -1.292  0.00  0.00     0.041 OA
ATOM     13  O   LIG d   1       4.009   2.025  -3.100  0.00  0.00    -0.576 OA
ENDBRANCH   3  11
BRANCH   6  14
ATOM     14  C   LIG d   1       5.124  -4.060  -4.794  0.00  0.00     0.252 C 
ATOM     15  O   LIG d   1       4.169  -4.796  -4.918  0.00  0.00    -0.274 OA
ATOM     16 CL   LIG d   1       6.694  -4.577  -5.329  0.00  0.00    -0.038 Cl
ENDBRANCH   6  14
TORSDOF 2
ENDMDL
MODEL 5
REMARK VINA RESULT:      -4.8      3.855      4.404
REMARK  2 active torsions:
REMARK  status: ('A' for Active; 'I' for Inactive)
REMARK    1  A    between atoms: C_3  and  N_10 
REMARK    2  A    between atoms: C_6  and  C_7 
ROOT
ATOM      1  C   LIG d   1       5.460  -0.481  -3.994  0.00  0.00    -0.044 A 
ATOM      2  C   LIG d   1       5.659  -1.698  -4.612  0.00  0.00     0.016 A 
ATOM      3  C   LIG d   1       4.987  -2.823  -4.165  0.00  0.00     0.273 A 
ATOM      4  C   LIG d   1       4.111  -2.736  -3.098  0.00  0.00     0.016 A 
ATOM      5  C   LIG d   1       3.901  -1.525  -2.471  0.00  0.00    -0.044 A 
ATOM      6  C   LIG d   1       4.577  -0.385  -2.915  0.00  0.00     0.034 A 
ATOM      7  H   LIG d   1       5.988   0.395  -4.340  0.00  0.00     0.063 H 
ATOM      8  H   LIG d   1       6.341  -1.773  -5.446  0.00  0.00     0.069 H 
ATOM      9  H   LIG d   1       3.589  -3.617  -2.755  0.00  0.00     0.069 H 
ATOM     10  H   LIG d   1       3.216  -1.458  -1.638  0.00  0.00     0.063 H 
ENDROOT
BRANCH   3  11
ATOM     11  N   LIG d   1       5.205  -4.124  -4.834  0.00  0.00     0.080 N 
ATOM     12  O   LIG d   1       6.311  -4.428  -5.219  0.00  0.00     0.041 OA
ATOM     13  O   LIG d   1       4.279  -4.884  -4.996  0.00  0.00    -0.576 OA
ENDBRANCH   3  11
BRANCH   6  14
ATOM     14  C   LIG d   1       4.359   0.911  -2.249  0.00  0.00     0.252 C 
ATOM     15  O   LIG d   1       4.874   1.136  -1.175  0.00  0.00    -0.274 OA
ATOM     16 CL   LIG d   1       3.361   2.116  -3.003  0.00  0.00    -0.038 Cl
ENDBRANCH   6  14
TORSDOF 2
ENDMDL
MODEL 6
REMARK VINA RESULT:      -4.6      3.255      5.062
REMARK  2 active torsions:
REMARK  status: ('A' for Active; 'I' for Inactive)
REMARK    1  A    between atoms: C_3  and  N_10 
REMARK    2  A    between atoms: C_6  and  C_7 
ROOT
ATOM      1  C   LIG d   1       2.580   0.634  -4.669  0.00  0.00    -0.044 A 
ATOM      2  C   LIG d   1       2.474   0.498  -6.037  0.00  0.00     0.016 A 
ATOM      3  C   LIG d   1       3.461  -0.160  -6.750  0.00  0.00     0.273 A 
ATOM      4  C   LIG d   1       4.562  -0.686  -6.097  0.00  0.00     0.016 A 
ATOM      5  C   LIG d   1       4.682  -0.559  -4.729  0.00  0.00    -0.044 A 
ATOM      6  C   LIG d   1       3.689   0.105  -4.002  0.00  0.00     0.034 A 
ATOM      7  H   LIG d   1       1.811   1.151  -4.114  0.00  0.00     0.063 H 
ATOM      8  H   LIG d   1       1.617   0.906  -6.554  0.00  0.00     0.069 H 
ATOM      9  H   LIG d   1       5.329  -1.198  -6.660  0.00  0.00     0.069 H 
ATOM     10  H   LIG d   1       5.541  -0.970  -4.220  0.00  0.00     0.063 H 
ENDROOT
BRANCH   3  11
ATOM     11  N   LIG d   1       3.339  -0.301  -8.218  0.00  0.00     0.080 N 
ATOM     12  O   LIG d   1       4.229   0.086  -8.939  0.00  0.00     0.041 OA
ATOM     13  O   LIG d   1       2.349  -0.803  -8.696  0.00  0.00    -0.576 OA
ENDBRANCH   3  11
BRANCH   6  14
ATOM     14  C   LIG d   1       3.811   0.246  -2.541  0.00  0.00     0.252 C 
ATOM     15  O   LIG d   1       3.493   1.284  -2.002  0.00  0.00    -0.274 OA
ATOM     16 CL   LIG d   1       4.414  -1.077  -1.589  0.00  0.00    -0.038 Cl
ENDBRANCH   6  14
TORSDOF 2
ENDMDL
MODEL 7
REMARK VINA RESULT:      -4.5      4.018      4.989
REMARK  2 active torsions:
REMARK  status: ('A' for Active; 'I' for Inactive)
REMARK    1  A    between atoms: C_3  and  N_10 
REMARK    2  A    between atoms: C_6  and  C_7 
ROOT
ATOM      1  C   LIG d   1       4.301  -2.389  -3.870  0.00  0.00    -0.044 A 
ATOM      2  C   LIG d   1       5.168  -3.290  -4.451  0.00  0.00     0.016 A 
ATOM      3  C   LIG d   1       6.536  -3.098  -4.359  0.00  0.00     0.273 A 
ATOM      4  C   LIG d   1       7.044  -2.003  -3.683  0.00  0.00     0.016 A 
ATOM      5  C   LIG d   1       6.189  -1.094  -3.096  0.00  0.00    -0.044 A 
ATOM      6  C   LIG d   1       4.807  -1.280  -3.185  0.00  0.00     0.034 A 
ATOM      7  H   LIG d   1       3.234  -2.537  -3.946  0.00  0.00     0.063 H 
ATOM      8  H   LIG d   1       4.779  -4.147  -4.980  0.00  0.00     0.069 H 
ATOM      9  H   LIG d   1       8.112  -1.860  -3.615  0.00  0.00     0.069 H 
ATOM     10  H   LIG d   1       6.587  -0.240  -2.568  0.00  0.00     0.063 H 
ENDROOT
BRANCH   3  11
ATOM     11  N   LIG d   1       7.459  -4.070  -4.985  0.00  0.00     0.080 N 
ATOM     12  O   LIG d   1       7.340  -4.350  -6.156  0.00  0.00     0.041 OA
ATOM     13  O   LIG d   1       8.333  -4.585  -4.327  0.00  0.00    -0.576 OA
ENDBRANCH   3  11
BRANCH   6  14
ATOM     14  C   LIG d   1       3.888  -0.312  -2.561  0.00  0.00     0.252 C 
ATOM     15  O   LIG d   1       2.694  -0.394  -2.758  0.00  0.00    -0.274 OA
ATOM     16 CL   LIG d   1       4.515   0.948  -1.544  0.00  0.00    -0.038 Cl
ENDBRANCH   6  14
TORSDOF 2
ENDMDL
MODEL 8
REMARK VINA RESULT:      -4.1      9.893     10.241
REMARK  2 active torsions:
REMARK  status: ('A' for Active; 'I' for Inactive)
REMARK    1  A    between atoms: C_3  and  N_10 
REMARK    2  A    between atoms: C_6  and  C_7 
ROOT
ATOM      1  C   LIG d   1       9.442   6.892  -2.344  0.00  0.00    -0.044 A 
ATOM      2  C   LIG d   1       9.837   7.068  -1.035  0.00  0.00     0.016 A 
ATOM      3  C   LIG d   1      10.653   6.132  -0.422  0.00  0.00     0.273 A 
ATOM      4  C   LIG d   1      11.078   5.015  -1.117  0.00  0.00     0.016 A 
ATOM      5  C   LIG d   1      10.692   4.825  -2.428  0.00  0.00    -0.044 A 
ATOM      6  C   LIG d   1       9.869   5.765  -3.053  0.00  0.00     0.034 A 
ATOM      7  H   LIG d   1       8.803   7.621  -2.820  0.00  0.00     0.063 H 
ATOM      8  H   LIG d   1       9.509   7.938  -0.485  0.00  0.00     0.069 H 
ATOM      9  H   LIG d   1      11.715   4.288  -0.633  0.00  0.00     0.069 H 
ATOM     10  H   LIG d   1      11.026   3.953  -2.970  0.00  0.00     0.063 H 
ENDROOT
BRANCH   3  11
ATOM     11  N   LIG d   1      11.072   6.329   0.983  0.00  0.00     0.080 N 
ATOM     12  O   LIG d   1      11.765   7.274   1.281  0.00  0.00     0.041 OA
ATOM     13  O   LIG d   1      10.722   5.544   1.834  0.00  0.00    -0.576 OA
ENDBRANCH   3  11
BRANCH   6  14
ATOM     14  C   LIG d   1       9.451   5.569  -4.452  0.00  0.00     0.252 C 
ATOM     15  O   LIG d   1       9.202   4.455  -4.861  0.00  0.00    -0.274 OA
ATOM     16 CL   LIG d   1       9.318   6.935  -5.517  0.00  0.00    -0.038 Cl
ENDBRANCH   6  14
TORSDOF 2
ENDMDL
MODEL 9
REMARK VINA RESULT:      -4.1     10.806     11.263
REMARK  2 active torsions:
REMARK  status: ('A' for Active; 'I' for Inactive)
REMARK    1  A    between atoms: C_3  and  N_10 
REMARK    2  A    between atoms: C_6  and  C_7 
ROOT
ATOM      1  C   LIG d   1      11.189   5.223  -0.796  0.00  0.00    -0.044 A 
ATOM      2  C   LIG d   1      11.520   6.036   0.267  0.00  0.00     0.016 A 
ATOM      3  C   LIG d   1      10.954   7.294   0.384  0.00  0.00     0.273 A 
ATOM      4  C   LIG d   1      10.051   7.745  -0.563  0.00  0.00     0.016 A 
ATOM      5  C   LIG d   1       9.709   6.942  -1.631  0.00  0.00    -0.044 A 
ATOM      6  C   LIG d   1      10.277   5.671  -1.756  0.00  0.00     0.034 A 
ATOM      7  H   LIG d   1      11.634   4.243  -0.888  0.00  0.00     0.063 H 
ATOM      8  H   LIG d   1      12.224   5.691   1.011  0.00  0.00     0.069 H 
ATOM      9  H   LIG d   1       9.613   8.727  -0.465  0.00  0.00     0.069 H 
ATOM     10  H   LIG d   1       9.004   7.294  -2.369  0.00  0.00     0.063 H 
ENDROOT
BRANCH   3  11
ATOM     11  N   LIG d   1      11.315   8.161   1.528  0.00  0.00     0.080 N 
ATOM     12  O   LIG d   1      11.362   9.360   1.386  0.00  0.00     0.041 OA
ATOM     13  O   LIG d   1      11.563   7.669   2.604  0.00  0.00    -0.576 OA
ENDBRANCH   3  11
BRANCH   6  14
ATOM     14  C   LIG d   1       9.918   4.809  -2.895  0.00  0.00     0.252 C 
ATOM     15  O   LIG d   1       9.961   3.603  -2.782  0.00  0.00    -0.274 OA
ATOM     16 CL   LIG d   1       9.433   5.521  -4.404  0.00  0.00    -0.038 Cl
ENDBRANCH   6  14
TORSDOF 2
ENDMDL
MODEL 10
REMARK VINA RESULT:      -4.0      5.144      7.213
REMARK  2 active torsions:
REMARK  status: ('A' for Active; 'I' for Inactive)
REMARK    1  A    between atoms: C_3  and  N_10 
REMARK    2  A    between atoms: C_6  and  C_7 
ROOT
ATOM      1  C   LIG d   1       1.822  -0.355  -9.668  0.00  0.00    -0.044 A 
ATOM      2  C   LIG d   1       1.795  -0.972 -10.902  0.00  0.00     0.016 A 
ATOM      3  C   LIG d   1       2.773  -0.691 -11.841  0.00  0.00     0.273 A 
ATOM      4  C   LIG d   1       3.784   0.208 -11.551  0.00  0.00     0.016 A 
ATOM      5  C   LIG d   1       3.824   0.831 -10.321  0.00  0.00    -0.044 A 
ATOM      6  C   LIG d   1       2.841   0.554  -9.368  0.00  0.00     0.034 A 
ATOM      7  H   LIG d   1       1.057  -0.571  -8.938  0.00  0.00     0.063 H 
ATOM      8  H   LIG d   1       1.009  -1.675 -11.136  0.00  0.00     0.069 H 
ATOM      9  H   LIG d   1       4.543   0.421 -12.288  0.00  0.00     0.069 H 
ATOM     10  H   LIG d   1       4.615   1.532 -10.095  0.00  0.00     0.063 H 
ENDROOT
BRANCH   3  11
ATOM     11  N   LIG d   1       2.737  -1.357 -13.162  0.00  0.00     0.080 N 
ATOM     12  O   LIG d   1       1.839  -2.122 -13.429  0.00  0.00     0.041 OA
ATOM     13  O   LIG d   1       3.606  -1.137 -13.974  0.00  0.00    -0.576 OA
ENDBRANCH   3  11
BRANCH   6  14
ATOM     14  C   LIG d   1       2.877   1.218  -8.053  0.00  0.00     0.252 C 
ATOM     15  O   LIG d   1       2.882   2.428  -7.983  0.00  0.00    -0.274 OA
ATOM     16 CL   LIG d   1       2.914   0.265  -6.601  0.00  0.00    -0.038 Cl
ENDBRANCH   6  14
TORSDOF 2
ENDMDL
