MODEL 1
REMARK VINA RESULT:      -7.8      0.000      0.000
REMARK  9 active torsions:
REMARK  status: ('A' for Active; 'I' for Inactive)
REMARK    1  A    between atoms: C_4  and  C_7 
REMARK    2  A    between atoms: C_15  and  O_20 
REMARK    3  A    between atoms: C_16  and  O_19 
REMARK    4  A    between atoms: C_17  and  O_18 
REMARK    5  A    between atoms: O_20  and  C_21 
REMARK    6  A    between atoms: C_23  and  O_37 
REMARK    7  A    between atoms: C_25  and  O_36 
REMARK    8  A    between atoms: C_27  and  O_35 
REMARK    9  A    between atoms: C_29  and  C_32 
ROOT
ATOM      1  C   LIG d   1       7.381   1.162  -3.960  0.00  0.00     0.139 A 
ATOM      2  C   LIG d   1       7.633   0.990  -5.284  0.00  0.00     0.029 A 
ATOM      3  C   LIG d   1       8.624   1.781  -5.915  0.00  0.00     0.197 A 
ATOM      4  O   LIG d   1       8.877   1.654  -7.102  0.00  0.00    -0.287 OA
ATOM      5  C   LIG d   1       9.340   2.762  -5.081  0.00  0.00     0.109 A 
ATOM      6  C   LIG d   1       9.001   2.858  -3.720  0.00  0.00     0.146 A 
ATOM      7  O   LIG d   1       8.035   2.063  -3.211  0.00  0.00    -0.454 OA
ATOM      8  C   LIG d   1       9.660   3.774  -2.916  0.00  0.00     0.027 A 
ATOM      9  C   LIG d   1      10.644   4.589  -3.453  0.00  0.00     0.172 A 
ATOM     10  C   LIG d   1      10.983   4.497  -4.801  0.00  0.00     0.202 A 
ATOM     11  C   LIG d   1      10.334   3.586  -5.621  0.00  0.00     0.177 A 
ATOM     12  H   LIG d   1       7.080   0.257  -5.852  0.00  0.00     0.069 H 
ATOM     13  H   LIG d   1       9.406   3.855  -1.869  0.00  0.00     0.069 H 
ENDROOT
BRANCH   9  14
ATOM     14  O   LIG d   1      11.286   5.485  -2.658  0.00  0.00    -0.457 OA
BRANCH  14  15
ATOM     15  C   LIG d   1      10.967   5.460  -1.265  0.00  0.00     0.231 C 
ATOM     16  H   LIG d   1      10.595   4.472  -0.995  0.00  0.00     0.108 H 
ATOM     17  O   LIG d   1       9.963   6.439  -0.988  0.00  0.00    -0.328 OA
ATOM     18  C   LIG d   1      10.341   7.775  -1.332  0.00  0.00     0.130 C 
ATOM     19  C   LIG d   1      11.572   8.181  -0.518  0.00  0.00     0.115 C 
ATOM     20  H   LIG d   1      10.576   7.823  -2.395  0.00  0.00     0.069 H 
ATOM     21  C   LIG d   1      12.705   7.186  -0.790  0.00  0.00     0.116 C 
ATOM     22  H   LIG d   1      11.888   9.182  -0.810  0.00  0.00     0.065 H 
ATOM     23  C   LIG d   1      12.223   5.773  -0.448  0.00  0.00     0.145 C 
ATOM     24  H   LIG d   1      12.985   7.231  -1.843  0.00  0.00     0.065 H 
ATOM     25  H   LIG d   1      13.005   5.053  -0.691  0.00  0.00     0.068 H 
BRANCH  18  26
ATOM     26  C   LIG d   1       9.203   8.713  -1.024  0.00  0.00     0.073 C 
ATOM     27  O   LIG d   1       9.397   9.917  -0.994  0.00  0.00    -0.547 OA
ATOM     28  O   LIG d   1       8.089   8.269  -0.806  0.00  0.00    -0.547 OA
ENDBRANCH  18  26
BRANCH  19  29
ATOM     29  O   LIG d   1      11.251   8.169   0.875  0.00  0.00    -0.386 OA
ATOM     30  H   LIG d   1      10.356   7.857   1.069  0.00  0.00     0.210 HD
ENDBRANCH  19  29
BRANCH  21  31
ATOM     31  O   LIG d   1      13.836   7.514   0.020  0.00  0.00    -0.386 OA
ATOM     32  H   LIG d   1      14.647   7.673  -0.483  0.00  0.00     0.210 HD
ENDBRANCH  21  31
BRANCH  23  33
ATOM     33  O   LIG d   1      11.919   5.695   0.946  0.00  0.00    -0.383 OA
ATOM     34  H   LIG d   1      12.052   4.817   1.329  0.00  0.00     0.210 HD
ENDBRANCH  23  33
ENDBRANCH  14  15
ENDBRANCH   9  14
BRANCH  10  35
ATOM     35  O   LIG d   1      11.952   5.303  -5.316  0.00  0.00    -0.501 OA
ATOM     36  H   LIG d   1      11.917   6.214  -4.997  0.00  0.00     0.292 HD
ENDBRANCH  10  35
BRANCH  11  37
ATOM     37  O   LIG d   1      10.662   3.493  -6.935  0.00  0.00    -0.503 OA
ATOM     38  H   LIG d   1       9.912   3.597  -7.536  0.00  0.00     0.292 HD
ENDBRANCH  11  37
BRANCH   1  39
ATOM     39  C   LIG d   1       6.342   0.328  -3.322  0.00  0.00     0.017 A 
ATOM     40  C   LIG d   1       5.371   0.917  -2.510  0.00  0.00    -0.051 A 
ATOM     41  C   LIG d   1       4.403   0.134  -1.917  0.00  0.00    -0.061 A 
ATOM     42  H   LIG d   1       5.377   1.986  -2.348  0.00  0.00     0.062 H 
ATOM     43  C   LIG d   1       4.394  -1.235  -2.125  0.00  0.00    -0.062 A 
ATOM     44  H   LIG d   1       3.651   0.588  -1.289  0.00  0.00     0.062 H 
ATOM     45  C   LIG d   1       5.353  -1.825  -2.927  0.00  0.00    -0.061 A 
ATOM     46  H   LIG d   1       3.637  -1.845  -1.654  0.00  0.00     0.062 H 
ATOM     47  C   LIG d   1       6.327  -1.054  -3.527  0.00  0.00    -0.051 A 
ATOM     48  H   LIG d   1       5.340  -2.893  -3.085  0.00  0.00     0.062 H 
ATOM     49  H   LIG d   1       7.075  -1.516  -4.153  0.00  0.00     0.062 H 
ENDBRANCH   1  39
TORSDOF 9
ENDMDL
MODEL 2
REMARK VINA RESULT:      -7.5      1.081      2.531
REMARK  9 active torsions:
REMARK  status: ('A' for Active; 'I' for Inactive)
REMARK    1  A    between atoms: C_4  and  C_7 
REMARK    2  A    between atoms: C_15  and  O_20 
REMARK    3  A    between atoms: C_16  and  O_19 
REMARK    4  A    between atoms: C_17  and  O_18 
REMARK    5  A    between atoms: O_20  and  C_21 
REMARK    6  A    between atoms: C_23  and  O_37 
REMARK    7  A    between atoms: C_25  and  O_36 
REMARK    8  A    between atoms: C_27  and  O_35 
REMARK    9  A    between atoms: C_29  and  C_32 
ROOT
ATOM      1  C   LIG d   1       7.367   1.183  -3.956  0.00  0.00     0.139 A 
ATOM      2  C   LIG d   1       7.632   0.889  -5.257  0.00  0.00     0.029 A 
ATOM      3  C   LIG d   1       8.661   1.589  -5.935  0.00  0.00     0.197 A 
ATOM      4  O   LIG d   1       8.926   1.351  -7.102  0.00  0.00    -0.287 OA
ATOM      5  C   LIG d   1       9.397   2.613  -5.176  0.00  0.00     0.109 A 
ATOM      6  C   LIG d   1       9.042   2.838  -3.834  0.00  0.00     0.146 A 
ATOM      7  O   LIG d   1       8.041   2.123  -3.277  0.00  0.00    -0.454 OA
ATOM      8  C   LIG d   1       9.721   3.798  -3.100  0.00  0.00     0.027 A 
ATOM      9  C   LIG d   1      10.742   4.529  -3.688  0.00  0.00     0.172 A 
ATOM     10  C   LIG d   1      11.097   4.309  -5.017  0.00  0.00     0.202 A 
ATOM     11  C   LIG d   1      10.429   3.353  -5.766  0.00  0.00     0.177 A 
ATOM     12  H   LIG d   1       7.063   0.129  -5.769  0.00  0.00     0.069 H 
ATOM     13  H   LIG d   1       9.455   3.977  -2.069  0.00  0.00     0.069 H 
ENDROOT
BRANCH   9  14
ATOM     14  O   LIG d   1      11.403   5.468  -2.961  0.00  0.00    -0.457 OA
BRANCH  14  15
ATOM     15  C   LIG d   1      11.232   6.831  -3.356  0.00  0.00     0.231 C 
ATOM     16  H   LIG d   1      11.392   6.921  -4.430  0.00  0.00     0.108 H 
ATOM     17  O   LIG d   1      12.175   7.650  -2.662  0.00  0.00    -0.328 OA
ATOM     18  C   LIG d   1      12.067   7.584  -1.237  0.00  0.00     0.130 C 
ATOM     19  C   LIG d   1      10.680   8.071  -0.809  0.00  0.00     0.115 C 
ATOM     20  H   LIG d   1      12.209   6.555  -0.910  0.00  0.00     0.069 H 
ATOM     21  C   LIG d   1       9.613   7.213  -1.495  0.00  0.00     0.116 C 
ATOM     22  H   LIG d   1      10.581   7.980   0.273  0.00  0.00     0.065 H 
ATOM     23  C   LIG d   1       9.811   7.287  -3.012  0.00  0.00     0.145 C 
ATOM     24  H   LIG d   1       9.708   6.178  -1.165  0.00  0.00     0.065 H 
ATOM     25  H   LIG d   1       9.089   6.635  -3.506  0.00  0.00     0.068 H 
BRANCH  18  26
ATOM     26  C   LIG d   1      13.122   8.461  -0.613  0.00  0.00     0.073 C 
ATOM     27  O   LIG d   1      13.393   9.539  -1.114  0.00  0.00    -0.547 OA
ATOM     28  O   LIG d   1      13.705   8.092   0.393  0.00  0.00    -0.547 OA
ENDBRANCH  18  26
BRANCH  19  29
ATOM     29  O   LIG d   1      10.513   9.437  -1.191  0.00  0.00    -0.386 OA
ATOM     30  H   LIG d   1      10.930   9.664  -2.034  0.00  0.00     0.210 HD
ENDBRANCH  19  29
BRANCH  21  31
ATOM     31  O   LIG d   1       8.313   7.704  -1.159  0.00  0.00    -0.386 OA
ATOM     32  H   LIG d   1       7.684   7.013  -0.912  0.00  0.00     0.210 HD
ENDBRANCH  21  31
BRANCH  23  33
ATOM     33  O   LIG d   1       9.621   8.632  -3.455  0.00  0.00    -0.383 OA
ATOM     34  H   LIG d   1       8.788   9.029  -3.163  0.00  0.00     0.210 HD
ENDBRANCH  23  33
ENDBRANCH  14  15
ENDBRANCH   9  14
BRANCH  10  35
ATOM     35  O   LIG d   1      12.102   5.033  -5.581  0.00  0.00    -0.501 OA
ATOM     36  H   LIG d   1      12.985   4.790  -5.272  0.00  0.00     0.292 HD
ENDBRANCH  10  35
BRANCH  11  37
ATOM     37  O   LIG d   1      10.773   3.136  -7.062  0.00  0.00    -0.503 OA
ATOM     38  H   LIG d   1      11.131   3.914  -7.509  0.00  0.00     0.292 HD
ENDBRANCH  11  37
BRANCH   1  39
ATOM     39  C   LIG d   1       6.290   0.444  -3.268  0.00  0.00     0.017 A 
ATOM     40  C   LIG d   1       6.221  -0.947  -3.365  0.00  0.00    -0.051 A 
ATOM     41  C   LIG d   1       5.213  -1.632  -2.720  0.00  0.00    -0.061 A 
ATOM     42  H   LIG d   1       6.957  -1.486  -3.944  0.00  0.00     0.062 H 
ATOM     43  C   LIG d   1       4.269  -0.943  -1.978  0.00  0.00    -0.062 A 
ATOM     44  H   LIG d   1       5.159  -2.708  -2.794  0.00  0.00     0.062 H 
ATOM     45  C   LIG d   1       4.331   0.435  -1.877  0.00  0.00    -0.061 A 
ATOM     46  H   LIG d   1       3.479  -1.484  -1.478  0.00  0.00     0.062 H 
ATOM     47  C   LIG d   1       5.334   1.133  -2.518  0.00  0.00    -0.051 A 
ATOM     48  H   LIG d   1       3.592   0.966  -1.297  0.00  0.00     0.062 H 
ATOM     49  H   LIG d   1       5.381   2.208  -2.438  0.00  0.00     0.062 H 
ENDBRANCH   1  39
TORSDOF 9
ENDMDL
MODEL 3
REMARK VINA RESULT:      -7.5      2.849      8.382
REMARK  9 active torsions:
REMARK  status: ('A' for Active; 'I' for Inactive)
REMARK    1  A    between atoms: C_4  and  C_7 
REMARK    2  A    between atoms: C_15  and  O_20 
REMARK    3  A    between atoms: C_16  and  O_19 
REMARK    4  A    between atoms: C_17  and  O_18 
REMARK    5  A    between atoms: O_20  and  C_21 
REMARK    6  A    between atoms: C_23  and  O_37 
REMARK    7  A    between atoms: C_25  and  O_36 
REMARK    8  A    between atoms: C_27  and  O_35 
REMARK    9  A    between atoms: C_29  and  C_32 
ROOT
ATOM      1  C   LIG d   1      10.056   4.430  -3.276  0.00  0.00     0.139 A 
ATOM      2  C   LIG d   1      10.852   4.536  -4.372  0.00  0.00     0.029 A 
ATOM      3  C   LIG d   1      10.779   3.550  -5.386  0.00  0.00     0.197 A 
ATOM      4  O   LIG d   1      11.479   3.613  -6.384  0.00  0.00    -0.287 OA
ATOM      5  C   LIG d   1       9.824   2.446  -5.190  0.00  0.00     0.109 A 
ATOM      6  C   LIG d   1       9.047   2.432  -4.019  0.00  0.00     0.146 A 
ATOM      7  O   LIG d   1       9.193   3.417  -3.105  0.00  0.00    -0.454 OA
ATOM      8  C   LIG d   1       8.142   1.404  -3.812  0.00  0.00     0.027 A 
ATOM      9  C   LIG d   1       8.007   0.397  -4.755  0.00  0.00     0.172 A 
ATOM     10  C   LIG d   1       8.775   0.407  -5.917  0.00  0.00     0.202 A 
ATOM     11  C   LIG d   1       9.685   1.428  -6.141  0.00  0.00     0.177 A 
ATOM     12  H   LIG d   1      11.537   5.365  -4.469  0.00  0.00     0.069 H 
ATOM     13  H   LIG d   1       7.541   1.386  -2.914  0.00  0.00     0.069 H 
ENDROOT
BRANCH   9  14
ATOM     14  O   LIG d   1       7.117  -0.608  -4.545  0.00  0.00    -0.457 OA
BRANCH  14  15
ATOM     15  C   LIG d   1       5.927  -0.596  -5.335  0.00  0.00     0.231 C 
ATOM     16  H   LIG d   1       6.179  -0.351  -6.367  0.00  0.00     0.108 H 
ATOM     17  O   LIG d   1       5.022   0.382  -4.819  0.00  0.00    -0.328 OA
ATOM     18  C   LIG d   1       4.646   0.167  -3.456  0.00  0.00     0.130 C 
ATOM     19  C   LIG d   1       3.935  -1.183  -3.331  0.00  0.00     0.115 C 
ATOM     20  H   LIG d   1       5.537   0.168  -2.830  0.00  0.00     0.069 H 
ATOM     21  C   LIG d   1       4.864  -2.289  -3.841  0.00  0.00     0.116 C 
ATOM     22  H   LIG d   1       3.687  -1.368  -2.286  0.00  0.00     0.065 H 
ATOM     23  C   LIG d   1       5.267  -1.977  -5.285  0.00  0.00     0.145 C 
ATOM     24  H   LIG d   1       5.755  -2.335  -3.215  0.00  0.00     0.065 H 
ATOM     25  H   LIG d   1       5.972  -2.730  -5.638  0.00  0.00     0.068 H 
BRANCH  18  26
ATOM     26  C   LIG d   1       3.717   1.268  -3.012  0.00  0.00     0.073 C 
ATOM     27  O   LIG d   1       3.489   1.431  -1.825  0.00  0.00    -0.547 OA
ATOM     28  O   LIG d   1       3.194   1.995  -3.839  0.00  0.00    -0.547 OA
ENDBRANCH  18  26
BRANCH  19  29
ATOM     29  O   LIG d   1       2.738  -1.167  -4.111  0.00  0.00    -0.386 OA
ATOM     30  H   LIG d   1       1.939  -1.383  -3.610  0.00  0.00     0.210 HD
ENDBRANCH  19  29
BRANCH  21  31
ATOM     31  O   LIG d   1       4.183  -3.545  -3.796  0.00  0.00    -0.386 OA
ATOM     32  H   LIG d   1       4.771  -4.312  -3.829  0.00  0.00     0.210 HD
ENDBRANCH  21  31
BRANCH  23  33
ATOM     33  O   LIG d   1       4.106  -1.982  -6.119  0.00  0.00    -0.383 OA
ATOM     34  H   LIG d   1       3.353  -2.459  -5.742  0.00  0.00     0.210 HD
ENDBRANCH  23  33
ENDBRANCH  14  15
ENDBRANCH   9  14
BRANCH  10  35
ATOM     35  O   LIG d   1       8.632  -0.588  -6.836  0.00  0.00    -0.501 OA
ATOM     36  H   LIG d   1       9.022  -1.431  -6.567  0.00  0.00     0.292 HD
ENDBRANCH  10  35
BRANCH  11  37
ATOM     37  O   LIG d   1      10.435   1.441  -7.273  0.00  0.00    -0.503 OA
ATOM     38  H   LIG d   1      10.698   2.326  -7.560  0.00  0.00     0.292 HD
ENDBRANCH  11  37
BRANCH   1  39
ATOM     39  C   LIG d   1      10.149   5.467  -2.229  0.00  0.00     0.017 A 
ATOM     40  C   LIG d   1       9.445   6.666  -2.365  0.00  0.00    -0.051 A 
ATOM     41  C   LIG d   1       9.536   7.631  -1.383  0.00  0.00    -0.061 A 
ATOM     42  H   LIG d   1       8.830   6.836  -3.237  0.00  0.00     0.062 H 
ATOM     43  C   LIG d   1      10.324   7.414  -0.266  0.00  0.00    -0.062 A 
ATOM     44  H   LIG d   1       8.992   8.559  -1.487  0.00  0.00     0.062 H 
ATOM     45  C   LIG d   1      11.024   6.229  -0.125  0.00  0.00    -0.061 A 
ATOM     46  H   LIG d   1      10.396   8.175   0.497  0.00  0.00     0.062 H 
ATOM     47  C   LIG d   1      10.942   5.255  -1.099  0.00  0.00    -0.051 A 
ATOM     48  H   LIG d   1      11.636   6.066   0.748  0.00  0.00     0.062 H 
ATOM     49  H   LIG d   1      11.489   4.331  -0.987  0.00  0.00     0.062 H 
ENDBRANCH   1  39
TORSDOF 9
ENDMDL
MODEL 4
REMARK VINA RESULT:      -7.4      1.438      1.920
REMARK  9 active torsions:
REMARK  status: ('A' for Active; 'I' for Inactive)
REMARK    1  A    between atoms: C_4  and  C_7 
REMARK    2  A    between atoms: C_15  and  O_20 
REMARK    3  A    between atoms: C_16  and  O_19 
REMARK    4  A    between atoms: C_17  and  O_18 
REMARK    5  A    between atoms: O_20  and  C_21 
REMARK    6  A    between atoms: C_23  and  O_37 
REMARK    7  A    between atoms: C_25  and  O_36 
REMARK    8  A    between atoms: C_27  and  O_35 
REMARK    9  A    between atoms: C_29  and  C_32 
ROOT
ATOM      1  C   LIG d   1       7.176   1.028  -4.071  0.00  0.00     0.139 A 
ATOM      2  C   LIG d   1       7.290   0.844  -5.413  0.00  0.00     0.029 A 
ATOM      3  C   LIG d   1       8.245   1.594  -6.142  0.00  0.00     0.197 A 
ATOM      4  O   LIG d   1       8.375   1.455  -7.347  0.00  0.00    -0.287 OA
ATOM      5  C   LIG d   1       9.076   2.548  -5.388  0.00  0.00     0.109 A 
ATOM      6  C   LIG d   1       8.876   2.661  -4.001  0.00  0.00     0.146 A 
ATOM      7  O   LIG d   1       7.934   1.905  -3.396  0.00  0.00    -0.454 OA
ATOM      8  C   LIG d   1       9.645   3.552  -3.270  0.00  0.00     0.027 A 
ATOM      9  C   LIG d   1      10.603   4.326  -3.905  0.00  0.00     0.172 A 
ATOM     10  C   LIG d   1      10.805   4.218  -5.280  0.00  0.00     0.202 A 
ATOM     11  C   LIG d   1      10.045   3.331  -6.026  0.00  0.00     0.177 A 
ATOM     12  H   LIG d   1       6.656   0.132  -5.920  0.00  0.00     0.069 H 
ATOM     13  H   LIG d   1       9.498   3.644  -2.204  0.00  0.00     0.069 H 
ENDROOT
BRANCH   9  14
ATOM     14  O   LIG d   1      11.354   5.197  -3.182  0.00  0.00    -0.457 OA
BRANCH  14  15
ATOM     15  C   LIG d   1      12.253   4.637  -2.223  0.00  0.00     0.231 C 
ATOM     16  H   LIG d   1      12.230   3.550  -2.295  0.00  0.00     0.108 H 
ATOM     17  O   LIG d   1      11.858   5.037  -0.909  0.00  0.00    -0.328 OA
ATOM     18  C   LIG d   1      11.829   6.453  -0.714  0.00  0.00     0.130 C 
ATOM     19  C   LIG d   1      13.232   7.026  -0.933  0.00  0.00     0.115 C 
ATOM     20  H   LIG d   1      11.137   6.903  -1.425  0.00  0.00     0.069 H 
ATOM     21  C   LIG d   1      13.710   6.660  -2.341  0.00  0.00     0.116 C 
ATOM     22  H   LIG d   1      13.203   8.110  -0.828  0.00  0.00     0.065 H 
ATOM     23  C   LIG d   1      13.673   5.138  -2.502  0.00  0.00     0.145 C 
ATOM     24  H   LIG d   1      13.054   7.121  -3.080  0.00  0.00     0.065 H 
ATOM     25  H   LIG d   1      13.959   4.872  -3.520  0.00  0.00     0.068 H 
BRANCH  18  26
ATOM     26  C   LIG d   1      11.375   6.757   0.691  0.00  0.00     0.073 C 
ATOM     27  O   LIG d   1      10.610   5.999   1.261  0.00  0.00    -0.547 OA
ATOM     28  O   LIG d   1      11.774   7.761   1.256  0.00  0.00    -0.547 OA
ENDBRANCH  18  26
BRANCH  19  29
ATOM     29  O   LIG d   1      14.130   6.476   0.034  0.00  0.00    -0.386 OA
ATOM     30  H   LIG d   1      15.004   6.262  -0.319  0.00  0.00     0.210 HD
ENDBRANCH  19  29
BRANCH  21  31
ATOM     31  O   LIG d   1      15.047   7.128  -2.531  0.00  0.00    -0.386 OA
ATOM     32  H   LIG d   1      15.179   8.053  -2.281  0.00  0.00     0.210 HD
ENDBRANCH  21  31
BRANCH  23  33
ATOM     33  O   LIG d   1      14.582   4.536  -1.578  0.00  0.00    -0.383 OA
ATOM     34  H   LIG d   1      14.202   3.802  -1.075  0.00  0.00     0.210 HD
ENDBRANCH  23  33
ENDBRANCH  14  15
ENDBRANCH   9  14
BRANCH  10  35
ATOM     35  O   LIG d   1      11.750   4.983  -5.891  0.00  0.00    -0.501 OA
ATOM     36  H   LIG d   1      11.868   4.788  -6.830  0.00  0.00     0.292 HD
ENDBRANCH  10  35
BRANCH  11  37
ATOM     37  O   LIG d   1      10.239   3.222  -7.366  0.00  0.00    -0.503 OA
ATOM     38  H   LIG d   1      10.374   4.068  -7.813  0.00  0.00     0.292 HD
ENDBRANCH  11  37
BRANCH   1  39
ATOM     39  C   LIG d   1       6.172   0.238  -3.330  0.00  0.00     0.017 A 
ATOM     40  C   LIG d   1       5.292   0.870  -2.449  0.00  0.00    -0.051 A 
ATOM     41  C   LIG d   1       4.357   0.126  -1.760  0.00  0.00    -0.061 A 
ATOM     42  H   LIG d   1       5.344   1.940  -2.308  0.00  0.00     0.062 H 
ATOM     43  C   LIG d   1       4.291  -1.245  -1.940  0.00  0.00    -0.062 A 
ATOM     44  H   LIG d   1       3.676   0.614  -1.078  0.00  0.00     0.062 H 
ATOM     45  C   LIG d   1       5.159  -1.878  -2.811  0.00  0.00    -0.061 A 
ATOM     46  H   LIG d   1       3.559  -1.823  -1.394  0.00  0.00     0.062 H 
ATOM     47  C   LIG d   1       6.099  -1.146  -3.507  0.00  0.00    -0.051 A 
ATOM     48  H   LIG d   1       5.100  -2.947  -2.947  0.00  0.00     0.062 H 
ATOM     49  H   LIG d   1       6.775  -1.641  -4.186  0.00  0.00     0.062 H 
ENDBRANCH   1  39
TORSDOF 9
ENDMDL
MODEL 5
REMARK VINA RESULT:      -7.3      2.003      2.560
REMARK  9 active torsions:
REMARK  status: ('A' for Active; 'I' for Inactive)
REMARK    1  A    between atoms: C_4  and  C_7 
REMARK    2  A    between atoms: C_15  and  O_20 
REMARK    3  A    between atoms: C_16  and  O_19 
REMARK    4  A    between atoms: C_17  and  O_18 
REMARK    5  A    between atoms: O_20  and  C_21 
REMARK    6  A    between atoms: C_23  and  O_37 
REMARK    7  A    between atoms: C_25  and  O_36 
REMARK    8  A    between atoms: C_27  and  O_35 
REMARK    9  A    between atoms: C_29  and  C_32 
ROOT
ATOM      1  C   LIG d   1       7.417   0.351  -3.860  0.00  0.00     0.139 A 
ATOM      2  C   LIG d   1       8.164  -0.335  -4.764  0.00  0.00     0.029 A 
ATOM      3  C   LIG d   1       9.328   0.265  -5.306  0.00  0.00     0.197 A 
ATOM      4  O   LIG d   1      10.023  -0.321  -6.120  0.00  0.00    -0.287 OA
ATOM      5  C   LIG d   1       9.666   1.623  -4.847  0.00  0.00     0.109 A 
ATOM      6  C   LIG d   1       8.824   2.242  -3.908  0.00  0.00     0.146 A 
ATOM      7  O   LIG d   1       7.732   1.590  -3.454  0.00  0.00    -0.454 OA
ATOM      8  C   LIG d   1       9.121   3.520  -3.462  0.00  0.00     0.027 A 
ATOM      9  C   LIG d   1      10.242   4.180  -3.942  0.00  0.00     0.172 A 
ATOM     10  C   LIG d   1      11.080   3.570  -4.873  0.00  0.00     0.202 A 
ATOM     11  C   LIG d   1      10.797   2.292  -5.330  0.00  0.00     0.177 A 
ATOM     12  H   LIG d   1       7.874  -1.329  -5.069  0.00  0.00     0.069 H 
ATOM     13  H   LIG d   1       8.479   4.003  -2.740  0.00  0.00     0.069 H 
ENDROOT
BRANCH   9  14
ATOM     14  O   LIG d   1      10.527   5.433  -3.500  0.00  0.00    -0.457 OA
BRANCH  14  15
ATOM     15  C   LIG d   1       9.428   6.225  -3.046  0.00  0.00     0.231 C 
ATOM     16  H   LIG d   1       8.589   5.575  -2.798  0.00  0.00     0.108 H 
ATOM     17  O   LIG d   1       9.039   7.136  -4.076  0.00  0.00    -0.328 OA
ATOM     18  C   LIG d   1      10.080   8.022  -4.495  0.00  0.00     0.130 C 
ATOM     19  C   LIG d   1      10.525   8.882  -3.309  0.00  0.00     0.115 C 
ATOM     20  H   LIG d   1      10.926   7.440  -4.861  0.00  0.00     0.069 H 
ATOM     21  C   LIG d   1      10.987   7.967  -2.171  0.00  0.00     0.116 C 
ATOM     22  H   LIG d   1      11.348   9.526  -3.616  0.00  0.00     0.065 H 
ATOM     23  C   LIG d   1       9.847   7.013  -1.801  0.00  0.00     0.145 C 
ATOM     24  H   LIG d   1      11.854   7.391  -2.495  0.00  0.00     0.065 H 
ATOM     25  H   LIG d   1      10.186   6.322  -1.029  0.00  0.00     0.068 H 
BRANCH  18  26
ATOM     26  C   LIG d   1       9.568   8.912  -5.598  0.00  0.00     0.073 C 
ATOM     27  O   LIG d   1       9.018   8.424  -6.570  0.00  0.00    -0.547 OA
ATOM     28  O   LIG d   1       9.702  10.122  -5.517  0.00  0.00    -0.547 OA
ENDBRANCH  18  26
BRANCH  19  29
ATOM     29  O   LIG d   1       9.430   9.684  -2.862  0.00  0.00    -0.386 OA
ATOM     30  H   LIG d   1       9.554  10.633  -3.006  0.00  0.00     0.210 HD
ENDBRANCH  19  29
BRANCH  21  31
ATOM     31  O   LIG d   1      11.337   8.757  -1.033  0.00  0.00    -0.386 OA
ATOM     32  H   LIG d   1      12.181   9.220  -1.120  0.00  0.00     0.210 HD
ENDBRANCH  21  31
BRANCH  23  33
ATOM     33  O   LIG d   1       8.733   7.764  -1.314  0.00  0.00    -0.383 OA
ATOM     34  H   LIG d   1       8.521   7.595  -0.385  0.00  0.00     0.210 HD
ENDBRANCH  23  33
ENDBRANCH  14  15
ENDBRANCH   9  14
BRANCH  10  35
ATOM     35  O   LIG d   1      12.177   4.229  -5.336  0.00  0.00    -0.501 OA
ATOM     36  H   LIG d   1      12.680   3.739  -6.000  0.00  0.00     0.292 HD
ENDBRANCH  10  35
BRANCH  11  37
ATOM     37  O   LIG d   1      11.612   1.694  -6.237  0.00  0.00    -0.503 OA
ATOM     38  H   LIG d   1      11.363   1.858  -7.157  0.00  0.00     0.292 HD
ENDBRANCH  11  37
BRANCH   1  39
ATOM     39  C   LIG d   1       6.207  -0.292  -3.308  0.00  0.00     0.017 A 
ATOM     40  C   LIG d   1       5.361   0.421  -2.456  0.00  0.00    -0.051 A 
ATOM     41  C   LIG d   1       4.232  -0.185  -1.945  0.00  0.00    -0.061 A 
ATOM     42  H   LIG d   1       5.590   1.445  -2.199  0.00  0.00     0.062 H 
ATOM     43  C   LIG d   1       3.938  -1.496  -2.273  0.00  0.00    -0.062 A 
ATOM     44  H   LIG d   1       3.577   0.366  -1.286  0.00  0.00     0.062 H 
ATOM     45  C   LIG d   1       4.772  -2.209  -3.117  0.00  0.00    -0.061 A 
ATOM     46  H   LIG d   1       3.055  -1.967  -1.866  0.00  0.00     0.062 H 
ATOM     47  C   LIG d   1       5.904  -1.615  -3.636  0.00  0.00    -0.051 A 
ATOM     48  H   LIG d   1       4.536  -3.231  -3.369  0.00  0.00     0.062 H 
ATOM     49  H   LIG d   1       6.553  -2.172  -4.293  0.00  0.00     0.062 H 
ENDBRANCH   1  39
TORSDOF 9
ENDMDL
MODEL 6
REMARK VINA RESULT:      -7.0      3.096      9.002
REMARK  9 active torsions:
REMARK  status: ('A' for Active; 'I' for Inactive)
REMARK    1  A    between atoms: C_4  and  C_7 
REMARK    2  A    between atoms: C_15  and  O_20 
REMARK    3  A    between atoms: C_16  and  O_19 
REMARK    4  A    between atoms: C_17  and  O_18 
REMARK    5  A    between atoms: O_20  and  C_21 
REMARK    6  A    between atoms: C_23  and  O_37 
REMARK    7  A    between atoms: C_25  and  O_36 
REMARK    8  A    between atoms: C_27  and  O_35 
REMARK    9  A    between atoms: C_29  and  C_32 
ROOT
ATOM      1  C   LIG d   1      10.637   4.323  -2.399  0.00  0.00     0.139 A 
ATOM      2  C   LIG d   1      11.812   3.855  -2.899  0.00  0.00     0.029 A 
ATOM      3  C   LIG d   1      11.804   2.739  -3.771  0.00  0.00     0.197 A 
ATOM      4  O   LIG d   1      12.839   2.292  -4.239  0.00  0.00    -0.287 OA
ATOM      5  C   LIG d   1      10.498   2.139  -4.092  0.00  0.00     0.109 A 
ATOM      6  C   LIG d   1       9.343   2.701  -3.519  0.00  0.00     0.146 A 
ATOM      7  O   LIG d   1       9.454   3.764  -2.693  0.00  0.00    -0.454 OA
ATOM      8  C   LIG d   1       8.103   2.153  -3.805  0.00  0.00     0.027 A 
ATOM      9  C   LIG d   1       8.005   1.058  -4.649  0.00  0.00     0.172 A 
ATOM     10  C   LIG d   1       9.147   0.497  -5.219  0.00  0.00     0.202 A 
ATOM     11  C   LIG d   1      10.396   1.033  -4.944  0.00  0.00     0.177 A 
ATOM     12  H   LIG d   1      12.744   4.331  -2.634  0.00  0.00     0.069 H 
ATOM     13  H   LIG d   1       7.211   2.579  -3.370  0.00  0.00     0.069 H 
ENDROOT
BRANCH   9  14
ATOM     14  O   LIG d   1       6.786   0.526  -4.925  0.00  0.00    -0.457 OA
BRANCH  14  15
ATOM     15  C   LIG d   1       6.095  -0.105  -3.845  0.00  0.00     0.231 C 
ATOM     16  H   LIG d   1       6.421   0.330  -2.901  0.00  0.00     0.108 H 
ATOM     17  O   LIG d   1       6.383  -1.505  -3.849  0.00  0.00    -0.328 OA
ATOM     18  C   LIG d   1       6.016  -2.173  -5.060  0.00  0.00     0.130 C 
ATOM     19  C   LIG d   1       4.506  -2.045  -5.274  0.00  0.00     0.115 C 
ATOM     20  H   LIG d   1       6.542  -1.718  -5.898  0.00  0.00     0.069 H 
ATOM     21  C   LIG d   1       4.127  -0.561  -5.311  0.00  0.00     0.116 C 
ATOM     22  H   LIG d   1       4.231  -2.515  -6.218  0.00  0.00     0.065 H 
ATOM     23  C   LIG d   1       4.587   0.105  -4.011  0.00  0.00     0.145 C 
ATOM     24  H   LIG d   1       4.615  -0.081  -6.159  0.00  0.00     0.065 H 
ATOM     25  H   LIG d   1       4.371   1.173  -4.052  0.00  0.00     0.068 H 
BRANCH  18  26
ATOM     26  C   LIG d   1       6.389  -3.629  -4.962  0.00  0.00     0.073 C 
ATOM     27  O   LIG d   1       7.472  -3.952  -4.505  0.00  0.00    -0.547 OA
ATOM     28  O   LIG d   1       5.607  -4.485  -5.341  0.00  0.00    -0.547 OA
ENDBRANCH  18  26
BRANCH  19  29
ATOM     29  O   LIG d   1       3.814  -2.687  -4.201  0.00  0.00    -0.386 OA
ATOM     30  H   LIG d   1       4.107  -3.594  -4.031  0.00  0.00     0.210 HD
ENDBRANCH  19  29
BRANCH  21  31
ATOM     31  O   LIG d   1       2.710  -0.431  -5.439  0.00  0.00    -0.386 OA
ATOM     32  H   LIG d   1       2.384  -0.544  -6.342  0.00  0.00     0.210 HD
ENDBRANCH  21  31
BRANCH  23  33
ATOM     33  O   LIG d   1       3.899  -0.479  -2.903  0.00  0.00    -0.383 OA
ATOM     34  H   LIG d   1       3.364   0.149  -2.397  0.00  0.00     0.210 HD
ENDBRANCH  23  33
ENDBRANCH  14  15
ENDBRANCH   9  14
BRANCH  10  35
ATOM     35  O   LIG d   1       9.036  -0.577  -6.047  0.00  0.00    -0.501 OA
ATOM     36  H   LIG d   1       9.841  -1.110  -6.110  0.00  0.00     0.292 HD
ENDBRANCH  10  35
BRANCH  11  37
ATOM     37  O   LIG d   1      11.510   0.490  -5.498  0.00  0.00    -0.503 OA
ATOM     38  H   LIG d   1      12.245   1.111  -5.591  0.00  0.00     0.292 HD
ENDBRANCH  11  37
BRANCH   1  39
ATOM     39  C   LIG d   1      10.668   5.486  -1.490  0.00  0.00     0.017 A 
ATOM     40  C   LIG d   1       9.887   6.611  -1.765  0.00  0.00    -0.051 A 
ATOM     41  C   LIG d   1       9.920   7.695  -0.912  0.00  0.00    -0.061 A 
ATOM     42  H   LIG d   1       9.259   6.632  -2.644  0.00  0.00     0.062 H 
ATOM     43  C   LIG d   1      10.725   7.669   0.213  0.00  0.00    -0.062 A 
ATOM     44  H   LIG d   1       9.316   8.566  -1.124  0.00  0.00     0.062 H 
ATOM     45  C   LIG d   1      11.500   6.558   0.492  0.00  0.00    -0.061 A 
ATOM     46  H   LIG d   1      10.750   8.523   0.875  0.00  0.00     0.062 H 
ATOM     47  C   LIG d   1      11.477   5.467  -0.352  0.00  0.00    -0.051 A 
ATOM     48  H   LIG d   1      12.125   6.545   1.372  0.00  0.00     0.062 H 
ATOM     49  H   LIG d   1      12.083   4.602  -0.134  0.00  0.00     0.062 H 
ENDBRANCH   1  39
TORSDOF 9
ENDMDL
MODEL 7
REMARK VINA RESULT:      -6.9      1.755      2.695
REMARK  9 active torsions:
REMARK  status: ('A' for Active; 'I' for Inactive)
REMARK    1  A    between atoms: C_4  and  C_7 
REMARK    2  A    between atoms: C_15  and  O_20 
REMARK    3  A    between atoms: C_16  and  O_19 
REMARK    4  A    between atoms: C_17  and  O_18 
REMARK    5  A    between atoms: O_20  and  C_21 
REMARK    6  A    between atoms: C_23  and  O_37 
REMARK    7  A    between atoms: C_25  and  O_36 
REMARK    8  A    between atoms: C_27  and  O_35 
REMARK    9  A    between atoms: C_29  and  C_32 
ROOT
ATOM      1  C   LIG d   1       7.421   0.838  -4.185  0.00  0.00     0.139 A 
ATOM      2  C   LIG d   1       8.098  -0.008  -5.006  0.00  0.00     0.029 A 
ATOM      3  C   LIG d   1       9.157   0.491  -5.803  0.00  0.00     0.197 A 
ATOM      4  O   LIG d   1       9.786  -0.240  -6.551  0.00  0.00    -0.287 OA
ATOM      5  C   LIG d   1       9.470   1.926  -5.694  0.00  0.00     0.109 A 
ATOM      6  C   LIG d   1       8.706   2.713  -4.814  0.00  0.00     0.146 A 
ATOM      7  O   LIG d   1       7.711   2.145  -4.098  0.00  0.00    -0.454 OA
ATOM      8  C   LIG d   1       8.982   4.065  -4.695  0.00  0.00     0.027 A 
ATOM      9  C   LIG d   1      10.002   4.635  -5.440  0.00  0.00     0.172 A 
ATOM     10  C   LIG d   1      10.761   3.859  -6.314  0.00  0.00     0.202 A 
ATOM     11  C   LIG d   1      10.499   2.504  -6.445  0.00  0.00     0.177 A 
ATOM     12  H   LIG d   1       7.830  -1.053  -5.050  0.00  0.00     0.069 H 
ATOM     13  H   LIG d   1       8.400   4.677  -4.020  0.00  0.00     0.069 H 
ENDROOT
BRANCH   9  14
ATOM     14  O   LIG d   1      10.266   5.963  -5.318  0.00  0.00    -0.457 OA
BRANCH  14  15
ATOM     15  C   LIG d   1      11.372   6.330  -4.491  0.00  0.00     0.231 C 
ATOM     16  H   LIG d   1      12.180   5.610  -4.625  0.00  0.00     0.108 H 
ATOM     17  O   LIG d   1      10.963   6.339  -3.122  0.00  0.00    -0.328 OA
ATOM     18  C   LIG d   1       9.884   7.236  -2.842  0.00  0.00     0.130 C 
ATOM     19  C   LIG d   1      10.315   8.668  -3.171  0.00  0.00     0.115 C 
ATOM     20  H   LIG d   1       9.022   6.967  -3.451  0.00  0.00     0.069 H 
ATOM     21  C   LIG d   1      10.741   8.740  -4.640  0.00  0.00     0.116 C 
ATOM     22  H   LIG d   1       9.480   9.347  -3.000  0.00  0.00     0.065 H 
ATOM     23  C   LIG d   1      11.862   7.726  -4.886  0.00  0.00     0.145 C 
ATOM     24  H   LIG d   1       9.890   8.504  -5.279  0.00  0.00     0.065 H 
ATOM     25  H   LIG d   1      12.134   7.732  -5.942  0.00  0.00     0.068 H 
BRANCH  18  26
ATOM     26  C   LIG d   1       9.520   7.143  -1.383  0.00  0.00     0.073 C 
ATOM     27  O   LIG d   1       8.815   7.999  -0.875  0.00  0.00    -0.547 OA
ATOM     28  O   LIG d   1       9.929   6.212  -0.711  0.00  0.00    -0.547 OA
ENDBRANCH  18  26
BRANCH  19  29
ATOM     29  O   LIG d   1      11.413   9.041  -2.336  0.00  0.00    -0.386 OA
ATOM     30  H   LIG d   1      11.557   8.447  -1.586  0.00  0.00     0.210 HD
ENDBRANCH  19  29
BRANCH  21  31
ATOM     31  O   LIG d   1      11.213  10.055  -4.939  0.00  0.00    -0.386 OA
ATOM     32  H   LIG d   1      10.844  10.431  -5.749  0.00  0.00     0.210 HD
ENDBRANCH  21  31
BRANCH  23  33
ATOM     33  O   LIG d   1      13.003   8.072  -4.098  0.00  0.00    -0.383 OA
ATOM     34  H   LIG d   1      13.193   7.446  -3.385  0.00  0.00     0.210 HD
ENDBRANCH  23  33
ENDBRANCH  14  15
ENDBRANCH   9  14
BRANCH  10  35
ATOM     35  O   LIG d   1      11.760   4.431  -7.039  0.00  0.00    -0.501 OA
ATOM     36  H   LIG d   1      11.457   5.099  -7.669  0.00  0.00     0.292 HD
ENDBRANCH  10  35
BRANCH  11  37
ATOM     37  O   LIG d   1      11.237   1.744  -7.295  0.00  0.00    -0.503 OA
ATOM     38  H   LIG d   1      11.987   2.210  -7.689  0.00  0.00     0.292 HD
ENDBRANCH  11  37
BRANCH   1  39
ATOM     39  C   LIG d   1       6.320   0.299  -3.363  0.00  0.00     0.017 A 
ATOM     40  C   LIG d   1       6.079  -1.076  -3.329  0.00  0.00    -0.051 A 
ATOM     41  C   LIG d   1       5.048  -1.574  -2.559  0.00  0.00    -0.061 A 
ATOM     42  H   LIG d   1       6.699  -1.749  -3.904  0.00  0.00     0.062 H 
ATOM     43  C   LIG d   1       4.252  -0.713  -1.823  0.00  0.00    -0.062 A 
ATOM     44  H   LIG d   1       4.861  -2.638  -2.531  0.00  0.00     0.062 H 
ATOM     45  C   LIG d   1       4.485   0.650  -1.852  0.00  0.00    -0.061 A 
ATOM     46  H   LIG d   1       3.444  -1.108  -1.225  0.00  0.00     0.062 H 
ATOM     47  C   LIG d   1       5.513   1.161  -2.617  0.00  0.00    -0.051 A 
ATOM     48  H   LIG d   1       3.861   1.315  -1.275  0.00  0.00     0.062 H 
ATOM     49  H   LIG d   1       5.693   2.225  -2.639  0.00  0.00     0.062 H 
ENDBRANCH   1  39
TORSDOF 9
ENDMDL
MODEL 8
REMARK VINA RESULT:      -6.9      2.196      8.186
REMARK  9 active torsions:
REMARK  status: ('A' for Active; 'I' for Inactive)
REMARK    1  A    between atoms: C_4  and  C_7 
REMARK    2  A    between atoms: C_15  and  O_20 
REMARK    3  A    between atoms: C_16  and  O_19 
REMARK    4  A    between atoms: C_17  and  O_18 
REMARK    5  A    between atoms: O_20  and  C_21 
REMARK    6  A    between atoms: C_23  and  O_37 
REMARK    7  A    between atoms: C_25  and  O_36 
REMARK    8  A    between atoms: C_27  and  O_35 
REMARK    9  A    between atoms: C_29  and  C_32 
ROOT
ATOM      1  C   LIG d   1      11.051   6.548  -1.742  0.00  0.00     0.139 A 
ATOM      2  C   LIG d   1      12.389   6.398  -1.927  0.00  0.00     0.029 A 
ATOM      3  C   LIG d   1      12.884   5.204  -2.507  0.00  0.00     0.197 A 
ATOM      4  O   LIG d   1      14.079   5.034  -2.688  0.00  0.00    -0.287 OA
ATOM      5  C   LIG d   1      11.900   4.175  -2.884  0.00  0.00     0.109 A 
ATOM      6  C   LIG d   1      10.538   4.433  -2.648  0.00  0.00     0.146 A 
ATOM      7  O   LIG d   1      10.164   5.601  -2.084  0.00  0.00    -0.454 OA
ATOM      8  C   LIG d   1       9.593   3.480  -2.994  0.00  0.00     0.027 A 
ATOM      9  C   LIG d   1       9.992   2.282  -3.567  0.00  0.00     0.172 A 
ATOM     10  C   LIG d   1      11.340   2.023  -3.802  0.00  0.00     0.202 A 
ATOM     11  C   LIG d   1      12.299   2.965  -3.463  0.00  0.00     0.177 A 
ATOM     12  H   LIG d   1      13.071   7.182  -1.633  0.00  0.00     0.069 H 
ATOM     13  H   LIG d   1       8.544   3.670  -2.817  0.00  0.00     0.069 H 
ENDROOT
BRANCH   9  14
ATOM     14  O   LIG d   1       9.059   1.353  -3.903  0.00  0.00    -0.457 OA
BRANCH  14  15
ATOM     15  C   LIG d   1       8.048   1.755  -4.829  0.00  0.00     0.231 C 
ATOM     16  H   LIG d   1       8.370   2.657  -5.349  0.00  0.00     0.108 H 
ATOM     17  O   LIG d   1       6.833   2.019  -4.124  0.00  0.00    -0.328 OA
ATOM     18  C   LIG d   1       6.336   0.902  -3.382  0.00  0.00     0.130 C 
ATOM     19  C   LIG d   1       6.032  -0.252  -4.341  0.00  0.00     0.115 C 
ATOM     20  H   LIG d   1       7.085   0.585  -2.657  0.00  0.00     0.069 H 
ATOM     21  C   LIG d   1       7.305  -0.611  -5.114  0.00  0.00     0.116 C 
ATOM     22  H   LIG d   1       5.694  -1.118  -3.773  0.00  0.00     0.065 H 
ATOM     23  C   LIG d   1       7.813   0.635  -5.847  0.00  0.00     0.145 C 
ATOM     24  H   LIG d   1       8.068  -0.961  -4.419  0.00  0.00     0.065 H 
ATOM     25  H   LIG d   1       8.749   0.402  -6.355  0.00  0.00     0.068 H 
BRANCH  18  26
ATOM     26  C   LIG d   1       5.074   1.301  -2.660  0.00  0.00     0.073 C 
ATOM     27  O   LIG d   1       4.178   1.865  -3.266  0.00  0.00    -0.547 OA
ATOM     28  O   LIG d   1       4.949   1.059  -1.472  0.00  0.00    -0.547 OA
ENDBRANCH  18  26
BRANCH  19  29
ATOM     29  O   LIG d   1       5.012   0.145  -5.260  0.00  0.00    -0.386 OA
ATOM     30  H   LIG d   1       4.411   0.820  -4.913  0.00  0.00     0.210 HD
ENDBRANCH  19  29
BRANCH  21  31
ATOM     31  O   LIG d   1       7.016  -1.638  -6.064  0.00  0.00    -0.386 OA
ATOM     32  H   LIG d   1       6.924  -2.518  -5.675  0.00  0.00     0.210 HD
ENDBRANCH  21  31
BRANCH  23  33
ATOM     33  O   LIG d   1       6.841   1.057  -6.805  0.00  0.00    -0.383 OA
ATOM     34  H   LIG d   1       7.151   1.022  -7.721  0.00  0.00     0.210 HD
ENDBRANCH  23  33
ENDBRANCH  14  15
ENDBRANCH   9  14
BRANCH  10  35
ATOM     35  O   LIG d   1      11.718   0.843  -4.366  0.00  0.00    -0.501 OA
ATOM     36  H   LIG d   1      11.862   0.130  -3.729  0.00  0.00     0.292 HD
ENDBRANCH  10  35
BRANCH  11  37
ATOM     37  O   LIG d   1      13.614   2.716  -3.691  0.00  0.00    -0.503 OA
ATOM     38  H   LIG d   1      13.954   3.115  -4.503  0.00  0.00     0.292 HD
ENDBRANCH  11  37
BRANCH   1  39
ATOM     39  C   LIG d   1      10.556   7.799  -1.134  0.00  0.00     0.017 A 
ATOM     40  C   LIG d   1       9.210   8.150  -1.249  0.00  0.00    -0.051 A 
ATOM     41  C   LIG d   1       8.753   9.320  -0.679  0.00  0.00    -0.061 A 
ATOM     42  H   LIG d   1       8.526   7.506  -1.783  0.00  0.00     0.062 H 
ATOM     43  C   LIG d   1       9.628  10.147   0.006  0.00  0.00    -0.062 A 
ATOM     44  H   LIG d   1       7.712   9.593  -0.767  0.00  0.00     0.062 H 
ATOM     45  C   LIG d   1      10.963   9.805   0.124  0.00  0.00    -0.061 A 
ATOM     46  H   LIG d   1       9.266  11.064   0.447  0.00  0.00     0.062 H 
ATOM     47  C   LIG d   1      11.433   8.638  -0.441  0.00  0.00    -0.051 A 
ATOM     48  H   LIG d   1      11.639  10.454   0.659  0.00  0.00     0.062 H 
ATOM     49  H   LIG d   1      12.475   8.373  -0.349  0.00  0.00     0.062 H 
ENDBRANCH   1  39
TORSDOF 9
ENDMDL
MODEL 9
REMARK VINA RESULT:      -6.9      6.874     10.039
REMARK  9 active torsions:
REMARK  status: ('A' for Active; 'I' for Inactive)
REMARK    1  A    between atoms: C_4  and  C_7 
REMARK    2  A    between atoms: C_15  and  O_20 
REMARK    3  A    between atoms: C_16  and  O_19 
REMARK    4  A    between atoms: C_17  and  O_18 
REMARK    5  A    between atoms: O_20  and  C_21 
REMARK    6  A    between atoms: C_23  and  O_37 
REMARK    7  A    between atoms: C_25  and  O_36 
REMARK    8  A    between atoms: C_27  and  O_35 
REMARK    9  A    between atoms: C_29  and  C_32 
ROOT
ATOM      1  C   LIG d   1       1.824  -1.862 -11.206  0.00  0.00     0.139 A 
ATOM      2  C   LIG d   1       2.672  -1.365 -12.145  0.00  0.00     0.029 A 
ATOM      3  C   LIG d   1       3.783  -0.586 -11.739  0.00  0.00     0.197 A 
ATOM      4  O   LIG d   1       4.565  -0.123 -12.554  0.00  0.00    -0.287 OA
ATOM      5  C   LIG d   1       3.958  -0.356 -10.295  0.00  0.00     0.109 A 
ATOM      6  C   LIG d   1       3.022  -0.917  -9.409  0.00  0.00     0.146 A 
ATOM      7  O   LIG d   1       1.990  -1.642  -9.893  0.00  0.00    -0.454 OA
ATOM      8  C   LIG d   1       3.166  -0.715  -8.045  0.00  0.00     0.027 A 
ATOM      9  C   LIG d   1       4.226   0.036  -7.563  0.00  0.00     0.172 A 
ATOM     10  C   LIG d   1       5.156   0.594  -8.437  0.00  0.00     0.202 A 
ATOM     11  C   LIG d   1       5.028   0.402  -9.804  0.00  0.00     0.177 A 
ATOM     12  H   LIG d   1       2.499  -1.561 -13.192  0.00  0.00     0.069 H 
ATOM     13  H   LIG d   1       2.451  -1.143  -7.357  0.00  0.00     0.069 H 
ENDROOT
BRANCH   9  14
ATOM     14  O   LIG d   1       4.360   0.230  -6.225  0.00  0.00    -0.457 OA
BRANCH  14  15
ATOM     15  C   LIG d   1       3.708  -0.707  -5.365  0.00  0.00     0.231 C 
ATOM     16  H   LIG d   1       2.773  -1.029  -5.823  0.00  0.00     0.108 H 
ATOM     17  O   LIG d   1       3.435  -0.090  -4.106  0.00  0.00    -0.328 OA
ATOM     18  C   LIG d   1       4.599   0.395  -3.430  0.00  0.00     0.130 C 
ATOM     19  C   LIG d   1       5.542  -0.775  -3.139  0.00  0.00     0.115 C 
ATOM     20  H   LIG d   1       5.106   1.124  -4.060  0.00  0.00     0.069 H 
ATOM     21  C   LIG d   1       5.904  -1.469  -4.456  0.00  0.00     0.116 C 
ATOM     22  H   LIG d   1       6.449  -0.401  -2.663  0.00  0.00     0.065 H 
ATOM     23  C   LIG d   1       4.617  -1.921  -5.152  0.00  0.00     0.145 C 
ATOM     24  H   LIG d   1       6.441  -0.773  -5.099  0.00  0.00     0.065 H 
ATOM     25  H   LIG d   1       4.861  -2.368  -6.116  0.00  0.00     0.068 H 
BRANCH  18  26
ATOM     26  C   LIG d   1       4.191   1.047  -2.134  0.00  0.00     0.073 C 
ATOM     27  O   LIG d   1       4.961   1.057  -1.188  0.00  0.00    -0.547 OA
ATOM     28  O   LIG d   1       3.092   1.564  -2.030  0.00  0.00    -0.547 OA
ENDBRANCH  18  26
BRANCH  19  29
ATOM     29  O   LIG d   1       4.896  -1.707  -2.269  0.00  0.00    -0.386 OA
ATOM     30  H   LIG d   1       5.448  -2.006  -1.533  0.00  0.00     0.210 HD
ENDBRANCH  19  29
BRANCH  21  31
ATOM     31  O   LIG d   1       6.727  -2.606  -4.188  0.00  0.00    -0.386 OA
ATOM     32  H   LIG d   1       6.302  -3.279  -3.640  0.00  0.00     0.210 HD
ENDBRANCH  21  31
BRANCH  23  33
ATOM     33  O   LIG d   1       3.944  -2.884  -4.337  0.00  0.00    -0.383 OA
ATOM     34  H   LIG d   1       3.398  -2.495  -3.639  0.00  0.00     0.210 HD
ENDBRANCH  23  33
ENDBRANCH  14  15
ENDBRANCH   9  14
BRANCH  10  35
ATOM     35  O   LIG d   1       6.193   1.329  -7.949  0.00  0.00    -0.501 OA
ATOM     36  H   LIG d   1       6.385   2.127  -8.460  0.00  0.00     0.292 HD
ENDBRANCH  10  35
BRANCH  11  37
ATOM     37  O   LIG d   1       5.933   0.943 -10.659  0.00  0.00    -0.503 OA
ATOM     38  H   LIG d   1       5.566   1.178 -11.522  0.00  0.00     0.292 HD
ENDBRANCH  11  37
BRANCH   1  39
ATOM     39  C   LIG d   1       0.671  -2.670 -11.651  0.00  0.00     0.017 A 
ATOM     40  C   LIG d   1       0.304  -3.818 -10.944  0.00  0.00    -0.051 A 
ATOM     41  C   LIG d   1      -0.774  -4.568 -11.364  0.00  0.00    -0.061 A 
ATOM     42  H   LIG d   1       0.865  -4.116 -10.069  0.00  0.00     0.062 H 
ATOM     43  C   LIG d   1      -1.492  -4.187 -12.484  0.00  0.00    -0.062 A 
ATOM     44  H   LIG d   1      -1.058  -5.456 -10.818  0.00  0.00     0.062 H 
ATOM     45  C   LIG d   1      -1.135  -3.052 -13.189  0.00  0.00    -0.061 A 
ATOM     46  H   LIG d   1      -2.333  -4.781 -12.811  0.00  0.00     0.062 H 
ATOM     47  C   LIG d   1      -0.059  -2.291 -12.780  0.00  0.00    -0.051 A 
ATOM     48  H   LIG d   1      -1.700  -2.760 -14.061  0.00  0.00     0.062 H 
ATOM     49  H   LIG d   1       0.219  -1.406 -13.331  0.00  0.00     0.062 H 
ENDBRANCH   1  39
TORSDOF 9
ENDMDL
