MODEL 1
REMARK VINA RESULT:      -6.6      0.000      0.000
REMARK  13 active torsions:
REMARK  status: ('A' for Active; 'I' for Inactive)
REMARK    1  A    between atoms: C_1  and  C_2 
REMARK    2  A    between atoms: C_2  and  C_24 
REMARK    3  A    between atoms: C_6  and  C_23 
REMARK    4  A    between atoms: C_13  and  C_15 
REMARK    5  A    between atoms: C_15  and  C_16 
REMARK    6  A    between atoms: C_16  and  C_17 
REMARK    7  A    between atoms: C_24  and  O_25 
REMARK    8  A    between atoms: O_25  and  C_26 
REMARK    9  A    between atoms: C_28  and  O_41 
REMARK   10  A    between atoms: C_30  and  O_40 
REMARK   11  A    between atoms: C_32  and  O_39 
REMARK   12  A    between atoms: C_34  and  C_37 
REMARK   13  A    between atoms: C_37  and  O_38 
ROOT
ATOM      1  C   LIG d   1       3.029  -2.258 -11.819  0.00  0.00    -0.005 C 
ATOM      2  C   LIG d   1       3.388  -3.630 -11.248  0.00  0.00    -0.045 C 
ATOM      3  C   LIG d   1       2.881  -3.724  -9.806  0.00  0.00    -0.052 C 
ATOM      4  C   LIG d   1       3.551  -2.637  -8.966  0.00  0.00    -0.047 C 
ATOM      5  C   LIG d   1       3.206  -1.257  -9.533  0.00  0.00    -0.022 C 
ATOM      6  C   LIG d   1       3.687  -1.159 -10.981  0.00  0.00    -0.027 C 
ATOM      7  H   LIG d   1       4.770  -1.276 -11.013  0.00  0.00     0.031 H 
ATOM      8  C   LIG d   1       3.301   0.203 -11.566  0.00  0.00    -0.045 C 
ATOM      9  C   LIG d   1       4.018   1.315 -10.796  0.00  0.00    -0.031 C 
ATOM     10  C   LIG d   1       3.692   1.162  -9.326  0.00  0.00    -0.073 C 
ATOM     11  C   LIG d   1       3.235   2.172  -8.629  0.00  0.00    -0.099 C 
ATOM     12  C   LIG d   1       3.909  -0.190  -8.685  0.00  0.00    -0.014 C 
ATOM     13  H   LIG d   1       4.976  -0.405  -8.639  0.00  0.00     0.035 H 
ATOM     14  H   LIG d   1       2.920  -4.409 -11.850  0.00  0.00     0.027 H 
ATOM     15  H   LIG d   1       4.470  -3.758 -11.263  0.00  0.00     0.027 H 
ATOM     16  H   LIG d   1       1.800  -3.582  -9.791  0.00  0.00     0.027 H 
ATOM     17  H   LIG d   1       3.128  -4.704  -9.398  0.00  0.00     0.027 H 
ATOM     18  H   LIG d   1       3.198  -2.706  -7.937  0.00  0.00     0.027 H 
ATOM     19  H   LIG d   1       4.632  -2.776  -8.987  0.00  0.00     0.027 H 
ATOM     20  H   LIG d   1       3.593   0.243 -12.615  0.00  0.00     0.027 H 
ATOM     21  H   LIG d   1       2.223   0.341 -11.484  0.00  0.00     0.027 H 
ATOM     22  H   LIG d   1       5.094   1.230 -10.944  0.00  0.00     0.031 H 
ATOM     23  H   LIG d   1       3.674   2.287 -11.148  0.00  0.00     0.031 H 
ATOM     24  H   LIG d   1       3.046   3.120  -9.111  0.00  0.00     0.053 H 
ATOM     25  H   LIG d   1       3.047   2.058  -7.571  0.00  0.00     0.053 H 
ENDROOT
BRANCH   1  26
ATOM     26  C   LIG d   1       3.525  -2.163 -13.263  0.00  0.00    -0.057 C 
ATOM     27  H   LIG d   1       4.305  -2.906 -13.429  0.00  0.00     0.024 H 
ATOM     28  H   LIG d   1       2.696  -2.348 -13.946  0.00  0.00     0.024 H 
ATOM     29  H   LIG d   1       3.928  -1.166 -13.444  0.00  0.00     0.024 H 
ENDBRANCH   1  26
BRANCH   1  30
ATOM     30  C   LIG d   1       1.509  -2.079 -11.791  0.00  0.00     0.056 C 
ATOM     31  H   LIG d   1       1.172  -1.998 -10.758  0.00  0.00     0.057 H 
ATOM     32  H   LIG d   1       1.240  -1.173 -12.334  0.00  0.00     0.057 H 
BRANCH  30  33
ATOM     33  O   LIG d   1       0.885  -3.207 -12.408  0.00  0.00    -0.348 OA
BRANCH  33  34
ATOM     34  C   LIG d   1      -0.362  -3.577 -11.816  0.00  0.00     0.188 C 
ATOM     35  H   LIG d   1      -0.712  -2.771 -11.172  0.00  0.00     0.094 H 
ATOM     36  O   LIG d   1      -0.186  -4.765 -11.041  0.00  0.00    -0.341 OA
ATOM     37  C   LIG d   1      -1.372  -5.211 -10.381  0.00  0.00     0.113 C 
ATOM     38  C   LIG d   1      -2.444  -5.536 -11.424  0.00  0.00     0.112 C 
ATOM     39  H   LIG d   1      -1.736  -4.426  -9.718  0.00  0.00     0.065 H 
ATOM     40  C   LIG d   1      -2.708  -4.292 -12.277  0.00  0.00     0.114 C 
ATOM     41  H   LIG d   1      -2.097  -6.348 -12.062  0.00  0.00     0.065 H 
ATOM     42  C   LIG d   1      -1.393  -3.836 -12.917  0.00  0.00     0.134 C 
ATOM     43  H   LIG d   1      -3.102  -3.494 -11.648  0.00  0.00     0.065 H 
ATOM     44  H   LIG d   1      -1.024  -4.615 -13.585  0.00  0.00     0.067 H 
BRANCH  37  45
ATOM     45  C   LIG d   1      -1.060  -6.466  -9.562  0.00  0.00     0.073 C 
ATOM     46  H   LIG d   1      -1.450  -7.343 -10.079  0.00  0.00     0.058 H 
ATOM     47  H   LIG d   1       0.020  -6.564  -9.447  0.00  0.00     0.058 H 
BRANCH  45  48
ATOM     48  O   LIG d   1      -1.670  -6.360  -8.275  0.00  0.00    -0.392 OA
ATOM     49  H   LIG d   1      -2.620  -6.535  -8.274  0.00  0.00     0.209 HD
ENDBRANCH  45  48
ENDBRANCH  37  45
BRANCH  38  50
ATOM     50  O   LIG d   1      -3.651  -5.927 -10.765  0.00  0.00    -0.387 OA
ATOM     51  H   LIG d   1      -3.672  -5.714  -9.823  0.00  0.00     0.210 HD
ENDBRANCH  38  50
BRANCH  40  52
ATOM     52  O   LIG d   1      -3.655  -4.604 -13.301  0.00  0.00    -0.386 OA
ATOM     53  H   LIG d   1      -4.548  -4.277 -13.124  0.00  0.00     0.210 HD
ENDBRANCH  40  52
BRANCH  42  54
ATOM     54  O   LIG d   1      -1.612  -2.635 -13.659  0.00  0.00    -0.384 OA
ATOM     55  H   LIG d   1      -2.544  -2.396 -13.756  0.00  0.00     0.210 HD
ENDBRANCH  42  54
ENDBRANCH  33  34
ENDBRANCH  30  33
ENDBRANCH   1  30
BRANCH   5  56
ATOM     56  C   LIG d   1       1.692  -1.044  -9.473  0.00  0.00    -0.059 C 
ATOM     57  H   LIG d   1       1.477   0.024  -9.420  0.00  0.00     0.024 H 
ATOM     58  H   LIG d   1       1.231  -1.463 -10.367  0.00  0.00     0.024 H 
ATOM     59  H   LIG d   1       1.290  -1.538  -8.589  0.00  0.00     0.024 H 
ENDBRANCH   5  56
BRANCH  12  60
ATOM     60  C   LIG d   1       3.323  -0.188  -7.272  0.00  0.00    -0.042 C 
ATOM     61  H   LIG d   1       2.808   0.756  -7.094  0.00  0.00     0.027 H 
ATOM     62  H   LIG d   1       2.616  -1.012  -7.170  0.00  0.00     0.027 H 
BRANCH  60  63
ATOM     63  C   LIG d   1       4.450  -0.354  -6.252  0.00  0.00    -0.021 C 
ATOM     64  H   LIG d   1       5.050  -1.227  -6.511  0.00  0.00     0.032 H 
ATOM     65  H   LIG d   1       5.082   0.534  -6.260  0.00  0.00     0.032 H 
BRANCH  63  66
ATOM     66  C   LIG d   1       3.861  -0.540  -4.877  0.00  0.00     0.036 A 
ATOM     67  C   LIG d   1       3.081   0.461  -4.143  0.00  0.00     0.335 A 
ATOM     68  O   LIG d   1       2.709  -0.037  -2.949  0.00  0.00    -0.457 OA
ATOM     69  O   LIG d   1       2.810   1.573  -4.552  0.00  0.00    -0.245 OA
ATOM     70  C   LIG d   1       3.227  -1.367  -2.844  0.00  0.00     0.112 A 
ATOM     71  C   LIG d   1       3.969  -1.638  -4.132  0.00  0.00    -0.037 A 
ATOM     72  H   LIG d   1       2.410  -2.080  -2.727  0.00  0.00     0.074 H 
ATOM     73  H   LIG d   1       3.910  -1.437  -1.998  0.00  0.00     0.074 H 
ATOM     74  H   LIG d   1       4.488  -2.548  -4.398  0.00  0.00     0.061 H 
ENDBRANCH  63  66
ENDBRANCH  60  63
ENDBRANCH  12  60
TORSDOF 13
ENDMDL
MODEL 2
REMARK VINA RESULT:      -6.4      4.499      7.877
REMARK  13 active torsions:
REMARK  status: ('A' for Active; 'I' for Inactive)
REMARK    1  A    between atoms: C_1  and  C_2 
REMARK    2  A    between atoms: C_2  and  C_24 
REMARK    3  A    between atoms: C_6  and  C_23 
REMARK    4  A    between atoms: C_13  and  C_15 
REMARK    5  A    between atoms: C_15  and  C_16 
REMARK    6  A    between atoms: C_16  and  C_17 
REMARK    7  A    between atoms: C_24  and  O_25 
REMARK    8  A    between atoms: O_25  and  C_26 
REMARK    9  A    between atoms: C_28  and  O_41 
REMARK   10  A    between atoms: C_30  and  O_40 
REMARK   11  A    between atoms: C_32  and  O_39 
REMARK   12  A    between atoms: C_34  and  C_37 
REMARK   13  A    between atoms: C_37  and  O_38 
ROOT
ATOM      1  C   LIG d   1       4.338  -0.678  -4.116  0.00  0.00    -0.005 C 
ATOM      2  C   LIG d   1       4.988   0.293  -3.131  0.00  0.00    -0.045 C 
ATOM      3  C   LIG d   1       6.468   0.457  -3.486  0.00  0.00    -0.052 C 
ATOM      4  C   LIG d   1       7.162  -0.903  -3.386  0.00  0.00    -0.047 C 
ATOM      5  C   LIG d   1       6.514  -1.888  -4.363  0.00  0.00    -0.022 C 
ATOM      6  C   LIG d   1       5.029  -2.041  -4.033  0.00  0.00    -0.027 C 
ATOM      7  H   LIG d   1       4.920  -2.443  -3.025  0.00  0.00     0.031 H 
ATOM      8  C   LIG d   1       4.369  -2.991  -5.038  0.00  0.00    -0.045 C 
ATOM      9  C   LIG d   1       4.987  -4.385  -4.910  0.00  0.00    -0.031 C 
ATOM     10  C   LIG d   1       6.486  -4.258  -5.077  0.00  0.00    -0.073 C 
ATOM     11  C   LIG d   1       7.133  -5.005  -5.937  0.00  0.00    -0.099 C 
ATOM     12  C   LIG d   1       7.214  -3.245  -4.224  0.00  0.00    -0.014 C 
ATOM     13  H   LIG d   1       7.192  -3.562  -3.182  0.00  0.00     0.035 H 
ATOM     14  H   LIG d   1       4.490   1.261  -3.192  0.00  0.00     0.027 H 
ATOM     15  H   LIG d   1       4.897  -0.100  -2.118  0.00  0.00     0.027 H 
ATOM     16  H   LIG d   1       6.558   0.838  -4.503  0.00  0.00     0.027 H 
ATOM     17  H   LIG d   1       6.933   1.155  -2.791  0.00  0.00     0.027 H 
ATOM     18  H   LIG d   1       8.218  -0.788  -3.632  0.00  0.00     0.027 H 
ATOM     19  H   LIG d   1       7.066  -1.285  -2.370  0.00  0.00     0.027 H 
ATOM     20  H   LIG d   1       3.300  -3.048  -4.833  0.00  0.00     0.027 H 
ATOM     21  H   LIG d   1       4.525  -2.614  -6.048  0.00  0.00     0.027 H 
ATOM     22  H   LIG d   1       4.761  -4.799  -3.928  0.00  0.00     0.031 H 
ATOM     23  H   LIG d   1       4.585  -5.037  -5.686  0.00  0.00     0.031 H 
ATOM     24  H   LIG d   1       6.593  -5.694  -6.569  0.00  0.00     0.053 H 
ATOM     25  H   LIG d   1       8.208  -4.931  -6.015  0.00  0.00     0.053 H 
ENDROOT
BRANCH   1  26
ATOM     26  C   LIG d   1       2.856  -0.837  -3.771  0.00  0.00    -0.057 C 
ATOM     27  H   LIG d   1       2.694  -1.807  -3.301  0.00  0.00     0.024 H 
ATOM     28  H   LIG d   1       2.556  -0.047  -3.084  0.00  0.00     0.024 H 
ATOM     29  H   LIG d   1       2.261  -0.771  -4.683  0.00  0.00     0.024 H 
ENDBRANCH   1  26
BRANCH   1  30
ATOM     30  C   LIG d   1       4.473  -0.125  -5.537  0.00  0.00     0.056 C 
ATOM     31  H   LIG d   1       5.233   0.654  -5.552  0.00  0.00     0.057 H 
ATOM     32  H   LIG d   1       4.762  -0.930  -6.213  0.00  0.00     0.057 H 
BRANCH  30  33
ATOM     33  O   LIG d   1       3.221   0.423  -5.956  0.00  0.00    -0.348 OA
BRANCH  33  34
ATOM     34  C   LIG d   1       2.863   0.094  -7.299  0.00  0.00     0.188 C 
ATOM     35  H   LIG d   1       1.778   0.078  -7.393  0.00  0.00     0.094 H 
ATOM     36  O   LIG d   1       3.390  -1.192  -7.631  0.00  0.00    -0.341 OA
ATOM     37  C   LIG d   1       3.068  -1.632  -8.952  0.00  0.00     0.113 C 
ATOM     38  C   LIG d   1       3.655  -0.653  -9.971  0.00  0.00     0.112 C 
ATOM     39  H   LIG d   1       1.985  -1.671  -9.067  0.00  0.00     0.065 H 
ATOM     40  C   LIG d   1       3.108   0.750  -9.695  0.00  0.00     0.114 C 
ATOM     41  H   LIG d   1       4.741  -0.644  -9.883  0.00  0.00     0.065 H 
ATOM     42  C   LIG d   1       3.442   1.142  -8.253  0.00  0.00     0.134 C 
ATOM     43  H   LIG d   1       2.026   0.754  -9.831  0.00  0.00     0.065 H 
ATOM     44  H   LIG d   1       4.525   1.187  -8.130  0.00  0.00     0.067 H 
BRANCH  37  45
ATOM     45  C   LIG d   1       3.656  -3.025  -9.183  0.00  0.00     0.073 C 
ATOM     46  H   LIG d   1       3.368  -3.380 -10.174  0.00  0.00     0.058 H 
ATOM     47  H   LIG d   1       4.743  -2.976  -9.117  0.00  0.00     0.058 H 
BRANCH  45  48
ATOM     48  O   LIG d   1       3.157  -3.924  -8.191  0.00  0.00    -0.392 OA
ATOM     49  H   LIG d   1       3.261  -3.606  -7.284  0.00  0.00     0.209 HD
ENDBRANCH  45  48
ENDBRANCH  37  45
BRANCH  38  50
ATOM     50  O   LIG d   1       3.286  -1.058 -11.292  0.00  0.00    -0.387 OA
ATOM     51  H   LIG d   1       2.767  -0.400 -11.774  0.00  0.00     0.210 HD
ENDBRANCH  38  50
BRANCH  40  52
ATOM     52  O   LIG d   1       3.706   1.685 -10.596  0.00  0.00    -0.386 OA
ATOM     53  H   LIG d   1       3.140   2.439 -10.812  0.00  0.00     0.210 HD
ENDBRANCH  40  52
BRANCH  42  54
ATOM     54  O   LIG d   1       2.876   2.420  -7.960  0.00  0.00    -0.384 OA
ATOM     55  H   LIG d   1       3.194   2.813  -7.135  0.00  0.00     0.210 HD
ENDBRANCH  42  54
ENDBRANCH  33  34
ENDBRANCH  30  33
ENDBRANCH   1  30
BRANCH   5  56
ATOM     56  C   LIG d   1       6.677  -1.371  -5.794  0.00  0.00    -0.059 C 
ATOM     57  H   LIG d   1       7.697  -1.556  -6.133  0.00  0.00     0.024 H 
ATOM     58  H   LIG d   1       5.977  -1.889  -6.449  0.00  0.00     0.024 H 
ATOM     59  H   LIG d   1       6.476  -0.300  -5.819  0.00  0.00     0.024 H 
ENDBRANCH   5  56
BRANCH  12  60
ATOM     60  C   LIG d   1       8.665  -3.125  -4.696  0.00  0.00    -0.042 C 
ATOM     61  H   LIG d   1       8.844  -3.837  -5.502  0.00  0.00     0.027 H 
ATOM     62  H   LIG d   1       8.848  -2.114  -5.058  0.00  0.00     0.027 H 
BRANCH  60  63
ATOM     63  C   LIG d   1       9.607  -3.428  -3.529  0.00  0.00    -0.021 C 
ATOM     64  H   LIG d   1      10.514  -2.830  -3.630  0.00  0.00     0.032 H 
ATOM     65  H   LIG d   1       9.113  -3.181  -2.590  0.00  0.00     0.032 H 
BRANCH  63  66
ATOM     66  C   LIG d   1       9.966  -4.891  -3.540  0.00  0.00     0.036 A 
ATOM     67  C   LIG d   1       9.917  -5.788  -2.381  0.00  0.00     0.335 A 
ATOM     68  O   LIG d   1      10.300  -7.025  -2.746  0.00  0.00    -0.457 OA
ATOM     69  O   LIG d   1       9.577  -5.463  -1.260  0.00  0.00    -0.245 OA
ATOM     70  C   LIG d   1      10.623  -6.995  -4.140  0.00  0.00     0.112 A 
ATOM     71  C   LIG d   1      10.386  -5.577  -4.601  0.00  0.00    -0.037 A 
ATOM     72  H   LIG d   1       9.976  -7.680  -4.689  0.00  0.00     0.074 H 
ATOM     73  H   LIG d   1      11.668  -7.266  -4.288  0.00  0.00     0.074 H 
ATOM     74  H   LIG d   1      10.528  -5.192  -5.601  0.00  0.00     0.061 H 
ENDBRANCH  63  66
ENDBRANCH  60  63
ENDBRANCH  12  60
TORSDOF 13
ENDMDL
MODEL 3
REMARK VINA RESULT:      -6.4      1.976      8.361
REMARK  13 active torsions:
REMARK  status: ('A' for Active; 'I' for Inactive)
REMARK    1  A    between atoms: C_1  and  C_2 
REMARK    2  A    between atoms: C_2  and  C_24 
REMARK    3  A    between atoms: C_6  and  C_23 
REMARK    4  A    between atoms: C_13  and  C_15 
REMARK    5  A    between atoms: C_15  and  C_16 
REMARK    6  A    between atoms: C_16  and  C_17 
REMARK    7  A    between atoms: C_24  and  O_25 
REMARK    8  A    between atoms: O_25  and  C_26 
REMARK    9  A    between atoms: C_28  and  O_41 
REMARK   10  A    between atoms: C_30  and  O_40 
REMARK   11  A    between atoms: C_32  and  O_39 
REMARK   12  A    between atoms: C_34  and  C_37 
REMARK   13  A    between atoms: C_37  and  O_38 
ROOT
ATOM      1  C   LIG d   1       4.021   0.938  -9.277  0.00  0.00    -0.005 C 
ATOM      2  C   LIG d   1       2.772   1.123  -8.415  0.00  0.00    -0.045 C 
ATOM      3  C   LIG d   1       2.068  -0.226  -8.251  0.00  0.00    -0.052 C 
ATOM      4  C   LIG d   1       1.658  -0.750  -9.628  0.00  0.00    -0.047 C 
ATOM      5  C   LIG d   1       2.900  -0.931 -10.504  0.00  0.00    -0.022 C 
ATOM      6  C   LIG d   1       3.625   0.406 -10.656  0.00  0.00    -0.027 C 
ATOM      7  H   LIG d   1       2.967   1.123 -11.147  0.00  0.00     0.031 H 
ATOM      8  C   LIG d   1       4.894   0.218 -11.494  0.00  0.00    -0.045 C 
ATOM      9  C   LIG d   1       4.515  -0.232 -12.907  0.00  0.00    -0.031 C 
ATOM     10  C   LIG d   1       3.660  -1.476 -12.797  0.00  0.00    -0.073 C 
ATOM     11  C   LIG d   1       3.954  -2.557 -13.475  0.00  0.00    -0.099 C 
ATOM     12  C   LIG d   1       2.456  -1.434 -11.884  0.00  0.00    -0.014 C 
ATOM     13  H   LIG d   1       1.708  -0.757 -12.295  0.00  0.00     0.035 H 
ATOM     14  H   LIG d   1       3.059   1.505  -7.435  0.00  0.00     0.027 H 
ATOM     15  H   LIG d   1       2.098   1.830  -8.898  0.00  0.00     0.027 H 
ATOM     16  H   LIG d   1       2.748  -0.936  -7.779  0.00  0.00     0.027 H 
ATOM     17  H   LIG d   1       1.182  -0.101  -7.630  0.00  0.00     0.027 H 
ATOM     18  H   LIG d   1       1.150  -1.708  -9.514  0.00  0.00     0.027 H 
ATOM     19  H   LIG d   1       0.983  -0.036 -10.101  0.00  0.00     0.027 H 
ATOM     20  H   LIG d   1       5.437   1.161 -11.546  0.00  0.00     0.027 H 
ATOM     21  H   LIG d   1       5.526  -0.538 -11.029  0.00  0.00     0.027 H 
ATOM     22  H   LIG d   1       3.953   0.558 -13.405  0.00  0.00     0.031 H 
ATOM     23  H   LIG d   1       5.417  -0.456 -13.476  0.00  0.00     0.031 H 
ATOM     24  H   LIG d   1       4.840  -2.584 -14.091  0.00  0.00     0.053 H 
ATOM     25  H   LIG d   1       3.310  -3.422 -13.418  0.00  0.00     0.053 H 
ENDROOT
BRANCH   1  26
ATOM     26  C   LIG d   1       4.733   2.283  -9.435  0.00  0.00    -0.057 C 
ATOM     27  H   LIG d   1       5.767   2.114  -9.734  0.00  0.00     0.024 H 
ATOM     28  H   LIG d   1       4.227   2.876 -10.196  0.00  0.00     0.024 H 
ATOM     29  H   LIG d   1       4.714   2.819  -8.485  0.00  0.00     0.024 H 
ENDBRANCH   1  26
BRANCH   1  30
ATOM     30  C   LIG d   1       4.963  -0.059  -8.597  0.00  0.00     0.056 C 
ATOM     31  H   LIG d   1       4.431  -0.991  -8.410  0.00  0.00     0.057 H 
ATOM     32  H   LIG d   1       5.817  -0.251  -9.246  0.00  0.00     0.057 H 
BRANCH  30  33
ATOM     33  O   LIG d   1       5.420   0.485  -7.357  0.00  0.00    -0.348 OA
BRANCH  33  34
ATOM     34  C   LIG d   1       5.303  -0.411  -6.251  0.00  0.00     0.188 C 
ATOM     35  H   LIG d   1       5.160  -1.427  -6.619  0.00  0.00     0.094 H 
ATOM     36  O   LIG d   1       4.183  -0.033  -5.448  0.00  0.00    -0.341 OA
ATOM     37  C   LIG d   1       3.960  -0.884  -4.322  0.00  0.00     0.113 C 
ATOM     38  C   LIG d   1       5.181  -0.840  -3.400  0.00  0.00     0.112 C 
ATOM     39  H   LIG d   1       3.799  -1.906  -4.665  0.00  0.00     0.065 H 
ATOM     40  C   LIG d   1       6.422  -1.266  -4.190  0.00  0.00     0.114 C 
ATOM     41  H   LIG d   1       5.318   0.173  -3.025  0.00  0.00     0.065 H 
ATOM     42  C   LIG d   1       6.579  -0.349  -5.407  0.00  0.00     0.134 C 
ATOM     43  H   LIG d   1       6.306  -2.297  -4.524  0.00  0.00     0.065 H 
ATOM     44  H   LIG d   1       6.744   0.675  -5.072  0.00  0.00     0.067 H 
BRANCH  37  45
ATOM     45  C   LIG d   1       2.725  -0.403  -3.556  0.00  0.00     0.073 C 
ATOM     46  H   LIG d   1       2.038   0.087  -4.247  0.00  0.00     0.058 H 
ATOM     47  H   LIG d   1       2.228  -1.257  -3.096  0.00  0.00     0.058 H 
BRANCH  45  48
ATOM     48  O   LIG d   1       3.122   0.522  -2.543  0.00  0.00    -0.392 OA
ATOM     49  H   LIG d   1       2.503   0.585  -1.803  0.00  0.00     0.209 HD
ENDBRANCH  45  48
ENDBRANCH  37  45
BRANCH  38  50
ATOM     50  O   LIG d   1       4.984  -1.734  -2.302  0.00  0.00    -0.387 OA
ATOM     51  H   LIG d   1       4.578  -1.322  -1.527  0.00  0.00     0.210 HD
ENDBRANCH  38  50
BRANCH  40  52
ATOM     52  O   LIG d   1       7.579  -1.160  -3.359  0.00  0.00    -0.386 OA
ATOM     53  H   LIG d   1       7.386  -1.181  -2.411  0.00  0.00     0.210 HD
ENDBRANCH  40  52
BRANCH  42  54
ATOM     54  O   LIG d   1       7.692  -0.780  -6.191  0.00  0.00    -0.384 OA
ATOM     55  H   LIG d   1       7.952  -0.156  -6.883  0.00  0.00     0.210 HD
ENDBRANCH  42  54
ENDBRANCH  33  34
ENDBRANCH  30  33
ENDBRANCH   1  30
BRANCH   5  56
ATOM     56  C   LIG d   1       3.834  -1.958  -9.861  0.00  0.00    -0.059 C 
ATOM     57  H   LIG d   1       3.556  -2.099  -8.816  0.00  0.00     0.024 H 
ATOM     58  H   LIG d   1       3.750  -2.908 -10.391  0.00  0.00     0.024 H 
ATOM     59  H   LIG d   1       4.862  -1.601  -9.916  0.00  0.00     0.024 H 
ENDBRANCH   5  56
BRANCH  12  60
ATOM     60  C   LIG d   1       1.863  -2.838 -11.752  0.00  0.00    -0.042 C 
ATOM     61  H   LIG d   1       2.538  -3.561 -12.210  0.00  0.00     0.027 H 
ATOM     62  H   LIG d   1       1.733  -3.081 -10.697  0.00  0.00     0.027 H 
BRANCH  60  63
ATOM     63  C   LIG d   1       0.507  -2.888 -12.458  0.00  0.00    -0.021 C 
ATOM     64  H   LIG d   1       0.058  -1.895 -12.452  0.00  0.00     0.032 H 
ATOM     65  H   LIG d   1       0.645  -3.217 -13.488  0.00  0.00     0.032 H 
BRANCH  63  66
ATOM     66  C   LIG d   1      -0.399  -3.854 -11.738  0.00  0.00     0.036 A 
ATOM     67  C   LIG d   1      -1.739  -4.253 -12.179  0.00  0.00     0.335 A 
ATOM     68  O   LIG d   1      -2.264  -5.129 -11.304  0.00  0.00    -0.457 OA
ATOM     69  O   LIG d   1      -2.291  -3.855 -13.186  0.00  0.00    -0.245 OA
ATOM     70  C   LIG d   1      -1.310  -5.336 -10.258  0.00  0.00     0.112 A 
ATOM     71  C   LIG d   1      -0.114  -4.476 -10.596  0.00  0.00    -0.037 A 
ATOM     72  H   LIG d   1      -1.017  -6.385 -10.219  0.00  0.00     0.074 H 
ATOM     73  H   LIG d   1      -1.731  -5.028  -9.300  0.00  0.00     0.074 H 
ATOM     74  H   LIG d   1       0.797  -4.386 -10.023  0.00  0.00     0.061 H 
ENDBRANCH  63  66
ENDBRANCH  60  63
ENDBRANCH  12  60
TORSDOF 13
ENDMDL
MODEL 4
REMARK VINA RESULT:      -6.2     10.642     16.229
REMARK  13 active torsions:
REMARK  status: ('A' for Active; 'I' for Inactive)
REMARK    1  A    between atoms: C_1  and  C_2 
REMARK    2  A    between atoms: C_2  and  C_24 
REMARK    3  A    between atoms: C_6  and  C_23 
REMARK    4  A    between atoms: C_13  and  C_15 
REMARK    5  A    between atoms: C_15  and  C_16 
REMARK    6  A    between atoms: C_16  and  C_17 
REMARK    7  A    between atoms: C_24  and  O_25 
REMARK    8  A    between atoms: O_25  and  C_26 
REMARK    9  A    between atoms: C_28  and  O_41 
REMARK   10  A    between atoms: C_30  and  O_40 
REMARK   11  A    between atoms: C_32  and  O_39 
REMARK   12  A    between atoms: C_34  and  C_37 
REMARK   13  A    between atoms: C_37  and  O_38 
ROOT
ATOM      1  C   LIG d   1      11.414   6.028  -2.321  0.00  0.00    -0.005 C 
ATOM      2  C   LIG d   1      12.299   7.097  -2.961  0.00  0.00    -0.045 C 
ATOM      3  C   LIG d   1      11.622   7.619  -4.231  0.00  0.00    -0.052 C 
ATOM      4  C   LIG d   1      11.437   6.462  -5.214  0.00  0.00    -0.047 C 
ATOM      5  C   LIG d   1      10.558   5.380  -4.581  0.00  0.00    -0.022 C 
ATOM      6  C   LIG d   1      11.214   4.867  -3.298  0.00  0.00    -0.027 C 
ATOM      7  H   LIG d   1      12.180   4.422  -3.537  0.00  0.00     0.031 H 
ATOM      8  C   LIG d   1      10.315   3.817  -2.638  0.00  0.00    -0.045 C 
ATOM      9  C   LIG d   1      10.171   2.607  -3.565  0.00  0.00    -0.031 C 
ATOM     10  C   LIG d   1       9.668   3.092  -4.907  0.00  0.00    -0.073 C 
ATOM     11  C   LIG d   1       8.619   2.547  -5.470  0.00  0.00    -0.099 C 
ATOM     12  C   LIG d   1      10.410   4.225  -5.579  0.00  0.00    -0.014 C 
ATOM     13  H   LIG d   1      11.396   3.882  -5.889  0.00  0.00     0.035 H 
ATOM     14  H   LIG d   1      12.442   7.920  -2.261  0.00  0.00     0.027 H 
ATOM     15  H   LIG d   1      13.267   6.664  -3.216  0.00  0.00     0.027 H 
ATOM     16  H   LIG d   1      10.648   8.040  -3.977  0.00  0.00     0.027 H 
ATOM     17  H   LIG d   1      12.245   8.388  -4.686  0.00  0.00     0.027 H 
ATOM     18  H   LIG d   1      10.960   6.832  -6.122  0.00  0.00     0.027 H 
ATOM     19  H   LIG d   1      12.410   6.039  -5.463  0.00  0.00     0.027 H 
ATOM     20  H   LIG d   1      10.759   3.501  -1.695  0.00  0.00     0.027 H 
ATOM     21  H   LIG d   1       9.333   4.249  -2.449  0.00  0.00     0.027 H 
ATOM     22  H   LIG d   1      11.139   2.123  -3.689  0.00  0.00     0.031 H 
ATOM     23  H   LIG d   1       9.459   1.901  -3.139  0.00  0.00     0.031 H 
ATOM     24  H   LIG d   1       8.074   1.768  -4.957  0.00  0.00     0.053 H 
ATOM     25  H   LIG d   1       8.297   2.877  -6.447  0.00  0.00     0.053 H 
ENDROOT
BRANCH   1  26
ATOM     26  C   LIG d   1      12.084   5.511  -1.046  0.00  0.00    -0.057 C 
ATOM     27  H   LIG d   1      11.649   4.550  -0.772  0.00  0.00     0.024 H 
ATOM     28  H   LIG d   1      13.152   5.390  -1.220  0.00  0.00     0.024 H 
ATOM     29  H   LIG d   1      11.926   6.225  -0.237  0.00  0.00     0.024 H 
ENDBRANCH   1  26
BRANCH   1  30
ATOM     30  C   LIG d   1      10.056   6.638  -1.970  0.00  0.00     0.056 C 
ATOM     31  H   LIG d   1       9.862   7.491  -2.620  0.00  0.00     0.057 H 
ATOM     32  H   LIG d   1       9.275   5.890  -2.109  0.00  0.00     0.057 H 
BRANCH  30  33
ATOM     33  O   LIG d   1      10.064   7.070  -0.608  0.00  0.00    -0.348 OA
BRANCH  33  34
ATOM     34  C   LIG d   1       9.758   8.455  -0.435  0.00  0.00     0.188 C 
ATOM     35  H   LIG d   1       8.886   8.557   0.210  0.00  0.00     0.094 H 
ATOM     36  O   LIG d   1       9.482   9.043  -1.708  0.00  0.00    -0.341 OA
ATOM     37  C   LIG d   1       9.137  10.428  -1.648  0.00  0.00     0.113 C 
ATOM     38  C   LIG d   1      10.307  11.219  -1.056  0.00  0.00     0.112 C 
ATOM     39  H   LIG d   1       8.256  10.556  -1.019  0.00  0.00     0.065 H 
ATOM     40  C   LIG d   1      10.641  10.661   0.330  0.00  0.00     0.114 C 
ATOM     41  H   LIG d   1      11.176  11.124  -1.706  0.00  0.00     0.065 H 
ATOM     42  C   LIG d   1      10.952   9.166   0.205  0.00  0.00     0.134 C 
ATOM     43  H   LIG d   1       9.788  10.799   0.995  0.00  0.00     0.065 H 
ATOM     44  H   LIG d   1      11.836   9.030  -0.420  0.00  0.00     0.067 H 
BRANCH  37  45
ATOM     45  C   LIG d   1       8.835  10.941  -3.058  0.00  0.00     0.073 C 
ATOM     46  H   LIG d   1       9.651  11.583  -3.393  0.00  0.00     0.058 H 
ATOM     47  H   LIG d   1       8.736  10.095  -3.738  0.00  0.00     0.058 H 
BRANCH  45  48
ATOM     48  O   LIG d   1       7.617  11.686  -3.043  0.00  0.00    -0.392 OA
ATOM     49  H   LIG d   1       7.245  11.816  -2.160  0.00  0.00     0.209 HD
ENDBRANCH  45  48
ENDBRANCH  37  45
BRANCH  38  50
ATOM     50  O   LIG d   1       9.944  12.597  -0.941  0.00  0.00    -0.387 OA
ATOM     51  H   LIG d   1      10.693  13.189  -0.788  0.00  0.00     0.210 HD
ENDBRANCH  38  50
BRANCH  40  52
ATOM     52  O   LIG d   1      11.777  11.344   0.861  0.00  0.00    -0.386 OA
ATOM     53  H   LIG d   1      12.625  10.939   0.626  0.00  0.00     0.210 HD
ENDBRANCH  40  52
BRANCH  42  54
ATOM     54  O   LIG d   1      11.196   8.617   1.502  0.00  0.00    -0.384 OA
ATOM     55  H   LIG d   1      10.714   7.798   1.680  0.00  0.00     0.210 HD
ENDBRANCH  42  54
ENDBRANCH  33  34
ENDBRANCH  30  33
ENDBRANCH   1  30
BRANCH   5  56
ATOM     56  C   LIG d   1       9.180   5.962  -4.262  0.00  0.00    -0.059 C 
ATOM     57  H   LIG d   1       8.550   5.912  -5.151  0.00  0.00     0.024 H 
ATOM     58  H   LIG d   1       8.720   5.387  -3.458  0.00  0.00     0.024 H 
ATOM     59  H   LIG d   1       9.286   7.001  -3.952  0.00  0.00     0.024 H 
ENDBRANCH   5  56
BRANCH  12  60
ATOM     60  C   LIG d   1       9.622   4.700  -6.801  0.00  0.00    -0.042 C 
ATOM     61  H   LIG d   1       8.694   4.134  -6.877  0.00  0.00     0.027 H 
ATOM     62  H   LIG d   1       9.393   5.761  -6.697  0.00  0.00     0.027 H 
BRANCH  60  63
ATOM     63  C   LIG d   1      10.458   4.481  -8.064  0.00  0.00    -0.021 C 
ATOM     64  H   LIG d   1      11.496   4.297  -7.785  0.00  0.00     0.032 H 
ATOM     65  H   LIG d   1      10.072   3.621  -8.610  0.00  0.00     0.032 H 
BRANCH  63  66
ATOM     66  C   LIG d   1      10.382   5.708  -8.936  0.00  0.00     0.036 A 
ATOM     67  C   LIG d   1       9.330   5.990  -9.918  0.00  0.00     0.335 A 
ATOM     68  O   LIG d   1       9.571   7.170 -10.517  0.00  0.00    -0.457 OA
ATOM     69  O   LIG d   1       8.381   5.267 -10.152  0.00  0.00    -0.245 OA
ATOM     70  C   LIG d   1      10.780   7.706  -9.969  0.00  0.00     0.112 A 
ATOM     71  C   LIG d   1      11.262   6.706  -8.944  0.00  0.00    -0.037 A 
ATOM     72  H   LIG d   1      10.582   8.665  -9.492  0.00  0.00     0.074 H 
ATOM     73  H   LIG d   1      11.526   7.824 -10.756  0.00  0.00     0.074 H 
ATOM     74  H   LIG d   1      12.150   6.787  -8.334  0.00  0.00     0.061 H 
ENDBRANCH  63  66
ENDBRANCH  60  63
ENDBRANCH  12  60
TORSDOF 13
ENDMDL
MODEL 5
REMARK VINA RESULT:      -6.2      1.788      3.119
REMARK  13 active torsions:
REMARK  status: ('A' for Active; 'I' for Inactive)
REMARK    1  A    between atoms: C_1  and  C_2 
REMARK    2  A    between atoms: C_2  and  C_24 
REMARK    3  A    between atoms: C_6  and  C_23 
REMARK    4  A    between atoms: C_13  and  C_15 
REMARK    5  A    between atoms: C_15  and  C_16 
REMARK    6  A    between atoms: C_16  and  C_17 
REMARK    7  A    between atoms: C_24  and  O_25 
REMARK    8  A    between atoms: O_25  and  C_26 
REMARK    9  A    between atoms: C_28  and  O_41 
REMARK   10  A    between atoms: C_30  and  O_40 
REMARK   11  A    between atoms: C_32  and  O_39 
REMARK   12  A    between atoms: C_34  and  C_37 
REMARK   13  A    between atoms: C_37  and  O_38 
ROOT
ATOM      1  C   LIG d   1       5.255  -2.496  -9.823  0.00  0.00    -0.005 C 
ATOM      2  C   LIG d   1       5.537  -3.539  -8.742  0.00  0.00    -0.045 C 
ATOM      3  C   LIG d   1       4.363  -3.577  -7.760  0.00  0.00    -0.052 C 
ATOM      4  C   LIG d   1       4.208  -2.203  -7.108  0.00  0.00    -0.047 C 
ATOM      5  C   LIG d   1       3.934  -1.147  -8.182  0.00  0.00    -0.022 C 
ATOM      6  C   LIG d   1       5.090  -1.116  -9.182  0.00  0.00    -0.027 C 
ATOM      7  H   LIG d   1       6.010  -0.842  -8.666  0.00  0.00     0.031 H 
ATOM      8  C   LIG d   1       4.796  -0.093 -10.284  0.00  0.00    -0.045 C 
ATOM      9  C   LIG d   1       4.712   1.309  -9.675  0.00  0.00    -0.031 C 
ATOM     10  C   LIG d   1       3.682   1.286  -8.567  0.00  0.00    -0.073 C 
ATOM     11  C   LIG d   1       2.710   2.163  -8.533  0.00  0.00    -0.099 C 
ATOM     12  C   LIG d   1       3.806   0.221  -7.501  0.00  0.00    -0.014 C 
ATOM     13  H   LIG d   1       4.692   0.412  -6.896  0.00  0.00     0.035 H 
ATOM     14  H   LIG d   1       5.657  -4.519  -9.204  0.00  0.00     0.027 H 
ATOM     15  H   LIG d   1       6.449  -3.273  -8.208  0.00  0.00     0.027 H 
ATOM     16  H   LIG d   1       3.448  -3.831  -8.297  0.00  0.00     0.027 H 
ATOM     17  H   LIG d   1       4.556  -4.326  -6.992  0.00  0.00     0.027 H 
ATOM     18  H   LIG d   1       3.377  -2.229  -6.403  0.00  0.00     0.027 H 
ATOM     19  H   LIG d   1       5.125  -1.949  -6.576  0.00  0.00     0.027 H 
ATOM     20  H   LIG d   1       5.594  -0.120 -11.025  0.00  0.00     0.027 H 
ATOM     21  H   LIG d   1       3.849  -0.338 -10.763  0.00  0.00     0.027 H 
ATOM     22  H   LIG d   1       5.683   1.592  -9.269  0.00  0.00     0.031 H 
ATOM     23  H   LIG d   1       4.411   2.025 -10.441  0.00  0.00     0.031 H 
ATOM     24  H   LIG d   1       2.610   2.890  -9.324  0.00  0.00     0.053 H 
ATOM     25  H   LIG d   1       2.007   2.158  -7.713  0.00  0.00     0.053 H 
ENDROOT
BRANCH   1  26
ATOM     26  C   LIG d   1       6.422  -2.461 -10.812  0.00  0.00    -0.057 C 
ATOM     27  H   LIG d   1       6.759  -3.478 -11.013  0.00  0.00     0.024 H 
ATOM     28  H   LIG d   1       6.098  -1.995 -11.742  0.00  0.00     0.024 H 
ATOM     29  H   LIG d   1       7.244  -1.884 -10.384  0.00  0.00     0.024 H 
ENDBRANCH   1  26
BRANCH   1  30
ATOM     30  C   LIG d   1       3.971  -2.870 -10.566  0.00  0.00     0.056 C 
ATOM     31  H   LIG d   1       3.109  -2.649  -9.936  0.00  0.00     0.057 H 
ATOM     32  H   LIG d   1       3.904  -2.292 -11.489  0.00  0.00     0.057 H 
BRANCH  30  33
ATOM     33  O   LIG d   1       3.988  -4.264 -10.877  0.00  0.00    -0.348 OA
BRANCH  33  34
ATOM     34  C   LIG d   1       2.721  -4.786 -11.281  0.00  0.00     0.188 C 
ATOM     35  H   LIG d   1       2.871  -5.667 -11.903  0.00  0.00     0.094 H 
ATOM     36  O   LIG d   1       2.012  -3.792 -12.024  0.00  0.00    -0.341 OA
ATOM     37  C   LIG d   1       0.735  -4.220 -12.500  0.00  0.00     0.113 C 
ATOM     38  C   LIG d   1      -0.157  -4.581 -11.309  0.00  0.00     0.112 C 
ATOM     39  H   LIG d   1       0.859  -5.094 -13.139  0.00  0.00     0.065 H 
ATOM     40  C   LIG d   1       0.528  -5.669 -10.479  0.00  0.00     0.114 C 
ATOM     41  H   LIG d   1      -0.315  -3.697 -10.692  0.00  0.00     0.065 H 
ATOM     42  C   LIG d   1       1.909  -5.169 -10.041  0.00  0.00     0.134 C 
ATOM     43  H   LIG d   1       0.643  -6.571 -11.081  0.00  0.00     0.065 H 
ATOM     44  H   LIG d   1       1.792  -4.296  -9.398  0.00  0.00     0.067 H 
BRANCH  37  45
ATOM     45  C   LIG d   1       0.084  -3.090 -13.302  0.00  0.00     0.073 C 
ATOM     46  H   LIG d   1       0.860  -2.494 -13.783  0.00  0.00     0.058 H 
ATOM     47  H   LIG d   1      -0.571  -3.516 -14.063  0.00  0.00     0.058 H 
BRANCH  45  48
ATOM     48  O   LIG d   1      -0.680  -2.261 -12.425  0.00  0.00    -0.392 OA
ATOM     49  H   LIG d   1      -0.815  -1.362 -12.752  0.00  0.00     0.209 HD
ENDBRANCH  45  48
ENDBRANCH  37  45
BRANCH  38  50
ATOM     50  O   LIG d   1      -1.416  -5.064 -11.783  0.00  0.00    -0.387 OA
ATOM     51  H   LIG d   1      -1.360  -5.898 -12.268  0.00  0.00     0.210 HD
ENDBRANCH  38  50
BRANCH  40  52
ATOM     52  O   LIG d   1      -0.262  -5.962  -9.325  0.00  0.00    -0.386 OA
ATOM     53  H   LIG d   1      -1.212  -6.019  -9.503  0.00  0.00     0.210 HD
ENDBRANCH  40  52
BRANCH  42  54
ATOM     54  O   LIG d   1       2.588  -6.202  -9.326  0.00  0.00    -0.384 OA
ATOM     55  H   LIG d   1       2.025  -6.951  -9.086  0.00  0.00     0.210 HD
ENDBRANCH  42  54
ENDBRANCH  33  34
ENDBRANCH  30  33
ENDBRANCH   1  30
BRANCH   5  56
ATOM     56  C   LIG d   1       2.629  -1.482  -8.907  0.00  0.00    -0.059 C 
ATOM     57  H   LIG d   1       1.783  -1.119  -8.321  0.00  0.00     0.024 H 
ATOM     58  H   LIG d   1       2.624  -1.004  -9.886  0.00  0.00     0.024 H 
ATOM     59  H   LIG d   1       2.547  -2.562  -9.029  0.00  0.00     0.024 H 
ENDBRANCH   5  56
BRANCH  12  60
ATOM     60  C   LIG d   1       2.562   0.238  -6.611  0.00  0.00    -0.042 C 
ATOM     61  H   LIG d   1       1.748   0.739  -7.136  0.00  0.00     0.027 H 
ATOM     62  H   LIG d   1       2.267  -0.785  -6.377  0.00  0.00     0.027 H 
BRANCH  60  63
ATOM     63  C   LIG d   1       2.871   0.989  -5.315  0.00  0.00    -0.021 C 
ATOM     64  H   LIG d   1       3.628   1.750  -5.507  0.00  0.00     0.032 H 
ATOM     65  H   LIG d   1       1.964   1.466  -4.946  0.00  0.00     0.032 H 
BRANCH  63  66
ATOM     66  C   LIG d   1       3.385   0.019  -4.283  0.00  0.00     0.036 A 
ATOM     67  C   LIG d   1       4.798  -0.229  -3.976  0.00  0.00     0.335 A 
ATOM     68  O   LIG d   1       4.897  -1.153  -3.003  0.00  0.00    -0.457 OA
ATOM     69  O   LIG d   1       5.737   0.320  -4.518  0.00  0.00    -0.245 OA
ATOM     70  C   LIG d   1       3.573  -1.554  -2.637  0.00  0.00     0.112 A 
ATOM     71  C   LIG d   1       2.630  -0.756  -3.507  0.00  0.00    -0.037 A 
ATOM     72  H   LIG d   1       3.391  -1.330  -1.586  0.00  0.00     0.074 H 
ATOM     73  H   LIG d   1       3.441  -2.620  -2.823  0.00  0.00     0.074 H 
ATOM     74  H   LIG d   1       1.551  -0.803  -3.499  0.00  0.00     0.061 H 
ENDBRANCH  63  66
ENDBRANCH  60  63
ENDBRANCH  12  60
TORSDOF 13
ENDMDL
MODEL 6
REMARK VINA RESULT:      -6.2      9.338     14.767
REMARK  13 active torsions:
REMARK  status: ('A' for Active; 'I' for Inactive)
REMARK    1  A    between atoms: C_1  and  C_2 
REMARK    2  A    between atoms: C_2  and  C_24 
REMARK    3  A    between atoms: C_6  and  C_23 
REMARK    4  A    between atoms: C_13  and  C_15 
REMARK    5  A    between atoms: C_15  and  C_16 
REMARK    6  A    between atoms: C_16  and  C_17 
REMARK    7  A    between atoms: C_24  and  O_25 
REMARK    8  A    between atoms: O_25  and  C_26 
REMARK    9  A    between atoms: C_28  and  O_41 
REMARK   10  A    between atoms: C_30  and  O_40 
REMARK   11  A    between atoms: C_32  and  O_39 
REMARK   12  A    between atoms: C_34  and  C_37 
REMARK   13  A    between atoms: C_37  and  O_38 
ROOT
ATOM      1  C   LIG d   1      11.663   7.616  -6.405  0.00  0.00    -0.005 C 
ATOM      2  C   LIG d   1      11.203   7.452  -7.853  0.00  0.00    -0.045 C 
ATOM      3  C   LIG d   1       9.804   6.831  -7.871  0.00  0.00    -0.052 C 
ATOM      4  C   LIG d   1       9.855   5.458  -7.200  0.00  0.00    -0.047 C 
ATOM      5  C   LIG d   1      10.323   5.607  -5.750  0.00  0.00    -0.022 C 
ATOM      6  C   LIG d   1      11.711   6.249  -5.718  0.00  0.00    -0.027 C 
ATOM      7  H   LIG d   1      12.420   5.605  -6.238  0.00  0.00     0.031 H 
ATOM      8  C   LIG d   1      12.161   6.442  -4.267  0.00  0.00    -0.045 C 
ATOM      9  C   LIG d   1      12.299   5.078  -3.586  0.00  0.00    -0.031 C 
ATOM     10  C   LIG d   1      10.986   4.339  -3.729  0.00  0.00    -0.073 C 
ATOM     11  C   LIG d   1      10.387   3.823  -2.685  0.00  0.00    -0.099 C 
ATOM     12  C   LIG d   1      10.386   4.214  -5.111  0.00  0.00    -0.014 C 
ATOM     13  H   LIG d   1      11.009   3.561  -5.721  0.00  0.00     0.035 H 
ATOM     14  H   LIG d   1      11.174   8.428  -8.339  0.00  0.00     0.027 H 
ATOM     15  H   LIG d   1      11.897   6.801  -8.385  0.00  0.00     0.027 H 
ATOM     16  H   LIG d   1       9.113   7.476  -7.328  0.00  0.00     0.027 H 
ATOM     17  H   LIG d   1       9.468   6.720  -8.902  0.00  0.00     0.027 H 
ATOM     18  H   LIG d   1       8.861   5.010  -7.217  0.00  0.00     0.027 H 
ATOM     19  H   LIG d   1      10.551   4.816  -7.741  0.00  0.00     0.027 H 
ATOM     20  H   LIG d   1      13.123   6.954  -4.252  0.00  0.00     0.027 H 
ATOM     21  H   LIG d   1      11.423   7.041  -3.735  0.00  0.00     0.027 H 
ATOM     22  H   LIG d   1      13.096   4.508  -4.063  0.00  0.00     0.031 H 
ATOM     23  H   LIG d   1      12.529   5.217  -2.529  0.00  0.00     0.031 H 
ATOM     24  H   LIG d   1      10.806   3.958  -1.699  0.00  0.00     0.053 H 
ATOM     25  H   LIG d   1       9.471   3.264  -2.810  0.00  0.00     0.053 H 
ENDROOT
BRANCH   1  26
ATOM     26  C   LIG d   1      13.057   8.245  -6.382  0.00  0.00    -0.057 C 
ATOM     27  H   LIG d   1      13.212   8.753  -5.430  0.00  0.00     0.024 H 
ATOM     28  H   LIG d   1      13.810   7.468  -6.506  0.00  0.00     0.024 H 
ATOM     29  H   LIG d   1      13.144   8.966  -7.197  0.00  0.00     0.024 H 
ENDBRANCH   1  26
BRANCH   1  30
ATOM     30  C   LIG d   1      10.683   8.525  -5.661  0.00  0.00     0.056 C 
ATOM     31  H   LIG d   1       9.866   8.801  -6.328  0.00  0.00     0.057 H 
ATOM     32  H   LIG d   1      10.283   7.997  -4.795  0.00  0.00     0.057 H 
BRANCH  30  33
ATOM     33  O   LIG d   1      11.362   9.705  -5.227  0.00  0.00    -0.348 OA
BRANCH  33  34
ATOM     34  C   LIG d   1      10.894  10.219  -3.979  0.00  0.00     0.188 C 
ATOM     35  H   LIG d   1      11.516  11.061  -3.675  0.00  0.00     0.094 H 
ATOM     36  O   LIG d   1      10.962   9.193  -2.986  0.00  0.00    -0.341 OA
ATOM     37  C   LIG d   1      10.538   9.610  -1.687  0.00  0.00     0.113 C 
ATOM     38  C   LIG d   1       9.073  10.051  -1.746  0.00  0.00     0.112 C 
ATOM     39  H   LIG d   1      11.156  10.444  -1.353  0.00  0.00     0.065 H 
ATOM     40  C   LIG d   1       8.929  11.177  -2.774  0.00  0.00     0.114 C 
ATOM     41  H   LIG d   1       8.451   9.207  -2.040  0.00  0.00     0.065 H 
ATOM     42  C   LIG d   1       9.444  10.685  -4.130  0.00  0.00     0.134 C 
ATOM     43  H   LIG d   1       9.513  12.040  -2.455  0.00  0.00     0.065 H 
ATOM     44  H   LIG d   1       8.828   9.852  -4.473  0.00  0.00     0.067 H 
BRANCH  37  45
ATOM     45  C   LIG d   1      10.681   8.445  -0.705  0.00  0.00     0.073 C 
ATOM     46  H   LIG d   1      11.521   7.818  -1.006  0.00  0.00     0.058 H 
ATOM     47  H   LIG d   1      10.861   8.835   0.297  0.00  0.00     0.058 H 
BRANCH  45  48
ATOM     48  O   LIG d   1       9.482   7.669  -0.707  0.00  0.00    -0.392 OA
ATOM     49  H   LIG d   1       9.269   7.272   0.148  0.00  0.00     0.209 HD
ENDBRANCH  45  48
ENDBRANCH  37  45
BRANCH  38  50
ATOM     50  O   LIG d   1       8.663  10.523  -0.461  0.00  0.00    -0.387 OA
ATOM     51  H   LIG d   1       7.935  10.019  -0.071  0.00  0.00     0.210 HD
ENDBRANCH  38  50
BRANCH  40  52
ATOM     52  O   LIG d   1       7.553  11.547  -2.890  0.00  0.00    -0.386 OA
ATOM     53  H   LIG d   1       7.414  12.478  -3.112  0.00  0.00     0.210 HD
ENDBRANCH  40  52
BRANCH  42  54
ATOM     54  O   LIG d   1       9.380  11.749  -5.082  0.00  0.00    -0.384 OA
ATOM     55  H   LIG d   1      10.047  12.436  -4.949  0.00  0.00     0.210 HD
ENDBRANCH  42  54
ENDBRANCH  33  34
ENDBRANCH  30  33
ENDBRANCH   1  30
BRANCH   5  56
ATOM     56  C   LIG d   1       9.330   6.479  -4.979  0.00  0.00    -0.059 C 
ATOM     57  H   LIG d   1       8.666   5.844  -4.392  0.00  0.00     0.024 H 
ATOM     58  H   LIG d   1       9.875   7.148  -4.313  0.00  0.00     0.024 H 
ATOM     59  H   LIG d   1       8.740   7.067  -5.682  0.00  0.00     0.024 H 
ENDBRANCH   5  56
BRANCH  12  60
ATOM     60  C   LIG d   1       8.975   3.632  -5.007  0.00  0.00    -0.042 C 
ATOM     61  H   LIG d   1       8.703   3.527  -3.957  0.00  0.00     0.027 H 
ATOM     62  H   LIG d   1       8.269   4.300  -5.499  0.00  0.00     0.027 H 
BRANCH  60  63
ATOM     63  C   LIG d   1       8.938   2.261  -5.684  0.00  0.00    -0.021 C 
ATOM     64  H   LIG d   1       8.670   2.381  -6.734  0.00  0.00     0.032 H 
ATOM     65  H   LIG d   1       9.920   1.793  -5.612  0.00  0.00     0.032 H 
BRANCH  63  66
ATOM     66  C   LIG d   1       7.915   1.391  -5.000  0.00  0.00     0.036 A 
ATOM     67  C   LIG d   1       7.158   0.308  -5.635  0.00  0.00     0.335 A 
ATOM     68  O   LIG d   1       6.335  -0.261  -4.736  0.00  0.00    -0.457 OA
ATOM     69  O   LIG d   1       7.261  -0.027  -6.799  0.00  0.00    -0.245 OA
ATOM     70  C   LIG d   1       6.505   0.419  -3.488  0.00  0.00     0.112 A 
ATOM     71  C   LIG d   1       7.548   1.486  -3.724  0.00  0.00    -0.037 A 
ATOM     72  H   LIG d   1       6.851  -0.279  -2.725  0.00  0.00     0.074 H 
ATOM     73  H   LIG d   1       5.565   0.877  -3.180  0.00  0.00     0.074 H 
ATOM     74  H   LIG d   1       7.925   2.190  -2.996  0.00  0.00     0.061 H 
ENDBRANCH  63  66
ENDBRANCH  60  63
ENDBRANCH  12  60
TORSDOF 13
ENDMDL
MODEL 7
REMARK VINA RESULT:      -6.1      2.826      4.443
REMARK  13 active torsions:
REMARK  status: ('A' for Active; 'I' for Inactive)
REMARK    1  A    between atoms: C_1  and  C_2 
REMARK    2  A    between atoms: C_2  and  C_24 
REMARK    3  A    between atoms: C_6  and  C_23 
REMARK    4  A    between atoms: C_13  and  C_15 
REMARK    5  A    between atoms: C_15  and  C_16 
REMARK    6  A    between atoms: C_16  and  C_17 
REMARK    7  A    between atoms: C_24  and  O_25 
REMARK    8  A    between atoms: O_25  and  C_26 
REMARK    9  A    between atoms: C_28  and  O_41 
REMARK   10  A    between atoms: C_30  and  O_40 
REMARK   11  A    between atoms: C_32  and  O_39 
REMARK   12  A    between atoms: C_34  and  C_37 
REMARK   13  A    between atoms: C_37  and  O_38 
ROOT
ATOM      1  C   LIG d   1       6.086  -4.771  -8.705  0.00  0.00    -0.005 C 
ATOM      2  C   LIG d   1       6.896  -5.819  -7.942  0.00  0.00    -0.045 C 
ATOM      3  C   LIG d   1       6.259  -6.045  -6.568  0.00  0.00    -0.052 C 
ATOM      4  C   LIG d   1       6.270  -4.730  -5.786  0.00  0.00    -0.047 C 
ATOM      5  C   LIG d   1       5.470  -3.669  -6.546  0.00  0.00    -0.022 C 
ATOM      6  C   LIG d   1       6.082  -3.452  -7.929  0.00  0.00    -0.027 C 
ATOM      7  H   LIG d   1       7.105  -3.090  -7.821  0.00  0.00     0.031 H 
ATOM      8  C   LIG d   1       5.255  -2.424  -8.708  0.00  0.00    -0.045 C 
ATOM      9  C   LIG d   1       5.309  -1.072  -7.994  0.00  0.00    -0.031 C 
ATOM     10  C   LIG d   1       4.855  -1.270  -6.564  0.00  0.00    -0.073 C 
ATOM     11  C   LIG d   1       3.914  -0.521  -6.046  0.00  0.00    -0.099 C 
ATOM     12  C   LIG d   1       5.518  -2.358  -5.750  0.00  0.00    -0.014 C 
ATOM     13  H   LIG d   1       6.555  -2.088  -5.556  0.00  0.00     0.035 H 
ATOM     14  H   LIG d   1       6.898  -6.755  -8.500  0.00  0.00     0.027 H 
ATOM     15  H   LIG d   1       7.920  -5.467  -7.815  0.00  0.00     0.027 H 
ATOM     16  H   LIG d   1       5.231  -6.384  -6.695  0.00  0.00     0.027 H 
ATOM     17  H   LIG d   1       6.828  -6.797  -6.023  0.00  0.00     0.027 H 
ATOM     18  H   LIG d   1       5.824  -4.889  -4.805  0.00  0.00     0.027 H 
ATOM     19  H   LIG d   1       7.299  -4.389  -5.665  0.00  0.00     0.027 H 
ATOM     20  H   LIG d   1       5.662  -2.320  -9.714  0.00  0.00     0.027 H 
ATOM     21  H   LIG d   1       4.222  -2.762  -8.769  0.00  0.00     0.027 H 
ATOM     22  H   LIG d   1       6.330  -0.690  -8.005  0.00  0.00     0.031 H 
ATOM     23  H   LIG d   1       4.648  -0.365  -8.494  0.00  0.00     0.031 H 
ATOM     24  H   LIG d   1       3.420   0.223  -6.653  0.00  0.00     0.053 H 
ATOM     25  H   LIG d   1       3.629  -0.649  -5.012  0.00  0.00     0.053 H 
ENDROOT
BRANCH   1  26
ATOM     26  C   LIG d   1       6.714  -4.549 -10.083  0.00  0.00    -0.057 C 
ATOM     27  H   LIG d   1       5.932  -4.547 -10.842  0.00  0.00     0.024 H 
ATOM     28  H   LIG d   1       7.235  -3.592 -10.096  0.00  0.00     0.024 H 
ATOM     29  H   LIG d   1       7.422  -5.351 -10.293  0.00  0.00     0.024 H 
ENDBRANCH   1  26
BRANCH   1  30
ATOM     30  C   LIG d   1       4.648  -5.266  -8.875  0.00  0.00     0.056 C 
ATOM     31  H   LIG d   1       4.463  -6.088  -8.185  0.00  0.00     0.057 H 
ATOM     32  H   LIG d   1       3.956  -4.450  -8.664  0.00  0.00     0.057 H 
BRANCH  30  33
ATOM     33  O   LIG d   1       4.455  -5.718 -10.218  0.00  0.00    -0.348 OA
BRANCH  33  34
ATOM     34  C   LIG d   1       3.151  -5.453 -10.738  0.00  0.00     0.188 C 
ATOM     35  H   LIG d   1       3.045  -5.926 -11.713  0.00  0.00     0.094 H 
ATOM     36  O   LIG d   1       2.969  -4.041 -10.869  0.00  0.00    -0.341 OA
ATOM     37  C   LIG d   1       1.700  -3.665 -11.408  0.00  0.00     0.113 C 
ATOM     38  C   LIG d   1       0.587  -4.155 -10.478  0.00  0.00     0.112 C 
ATOM     39  H   LIG d   1       1.575  -4.115 -12.393  0.00  0.00     0.065 H 
ATOM     40  C   LIG d   1       0.701  -5.673 -10.314  0.00  0.00     0.114 C 
ATOM     41  H   LIG d   1       0.687  -3.675  -9.505  0.00  0.00     0.065 H 
ATOM     42  C   LIG d   1       2.096  -6.015  -9.781  0.00  0.00     0.134 C 
ATOM     43  H   LIG d   1       0.552  -6.157 -11.279  0.00  0.00     0.065 H 
ATOM     44  H   LIG d   1       2.227  -5.571  -8.793  0.00  0.00     0.067 H 
BRANCH  37  45
ATOM     45  C   LIG d   1       1.629  -2.141 -11.530  0.00  0.00     0.073 C 
ATOM     46  H   LIG d   1       2.640  -1.734 -11.573  0.00  0.00     0.058 H 
ATOM     47  H   LIG d   1       1.091  -1.875 -12.440  0.00  0.00     0.058 H 
BRANCH  45  48
ATOM     48  O   LIG d   1       0.946  -1.603 -10.397  0.00  0.00    -0.392 OA
ATOM     49  H   LIG d   1       0.725  -0.665 -10.480  0.00  0.00     0.209 HD
ENDBRANCH  45  48
ENDBRANCH  37  45
BRANCH  38  50
ATOM     50  O   LIG d   1      -0.686  -3.830 -11.042  0.00  0.00    -0.387 OA
ATOM     51  H   LIG d   1      -0.919  -2.894 -10.975  0.00  0.00     0.210 HD
ENDBRANCH  38  50
BRANCH  40  52
ATOM     52  O   LIG d   1      -0.288  -6.132  -9.391  0.00  0.00    -0.386 OA
ATOM     53  H   LIG d   1      -0.254  -7.083  -9.217  0.00  0.00     0.210 HD
ENDBRANCH  40  52
BRANCH  42  54
ATOM     54  O   LIG d   1       2.241  -7.433  -9.691  0.00  0.00    -0.384 OA
ATOM     55  H   LIG d   1       1.741  -7.924 -10.358  0.00  0.00     0.210 HD
ENDBRANCH  42  54
ENDBRANCH  33  34
ENDBRANCH  30  33
ENDBRANCH   1  30
BRANCH   5  56
ATOM     56  C   LIG d   1       4.017  -4.129  -6.687  0.00  0.00    -0.059 C 
ATOM     57  H   LIG d   1       3.994  -5.188  -6.943  0.00  0.00     0.024 H 
ATOM     58  H   LIG d   1       3.493  -3.971  -5.744  0.00  0.00     0.024 H 
ATOM     59  H   LIG d   1       3.529  -3.556  -7.475  0.00  0.00     0.024 H 
ENDBRANCH   5  56
BRANCH  12  60
ATOM     60  C   LIG d   1       4.774  -2.534  -4.425  0.00  0.00    -0.042 C 
ATOM     61  H   LIG d   1       3.908  -1.873  -4.405  0.00  0.00     0.027 H 
ATOM     62  H   LIG d   1       4.443  -3.568  -4.327  0.00  0.00     0.027 H 
BRANCH  60  63
ATOM     63  C   LIG d   1       5.709  -2.185  -3.266  0.00  0.00    -0.021 C 
ATOM     64  H   LIG d   1       5.572  -2.906  -2.459  0.00  0.00     0.032 H 
ATOM     65  H   LIG d   1       6.742  -2.218  -3.609  0.00  0.00     0.032 H 
BRANCH  63  66
ATOM     66  C   LIG d   1       5.390  -0.801  -2.762  0.00  0.00     0.036 A 
ATOM     67  C   LIG d   1       6.109   0.424  -3.124  0.00  0.00     0.335 A 
ATOM     68  O   LIG d   1       5.559   1.478  -2.495  0.00  0.00    -0.457 OA
ATOM     69  O   LIG d   1       7.058   0.478  -3.882  0.00  0.00    -0.245 OA
ATOM     70  C   LIG d   1       4.473   0.999  -1.696  0.00  0.00     0.112 A 
ATOM     71  C   LIG d   1       4.413  -0.495  -1.910  0.00  0.00    -0.037 A 
ATOM     72  H   LIG d   1       3.539   1.461  -2.016  0.00  0.00     0.074 H 
ATOM     73  H   LIG d   1       4.658   1.218  -0.644  0.00  0.00     0.074 H 
ATOM     74  H   LIG d   1       3.711  -1.183  -1.461  0.00  0.00     0.061 H 
ENDBRANCH  63  66
ENDBRANCH  60  63
ENDBRANCH  12  60
TORSDOF 13
ENDMDL
MODEL 8
REMARK VINA RESULT:      -6.0      8.311     11.278
REMARK  13 active torsions:
REMARK  status: ('A' for Active; 'I' for Inactive)
REMARK    1  A    between atoms: C_1  and  C_2 
REMARK    2  A    between atoms: C_2  and  C_24 
REMARK    3  A    between atoms: C_6  and  C_23 
REMARK    4  A    between atoms: C_13  and  C_15 
REMARK    5  A    between atoms: C_15  and  C_16 
REMARK    6  A    between atoms: C_16  and  C_17 
REMARK    7  A    between atoms: C_24  and  O_25 
REMARK    8  A    between atoms: O_25  and  C_26 
REMARK    9  A    between atoms: C_28  and  O_41 
REMARK   10  A    between atoms: C_30  and  O_40 
REMARK   11  A    between atoms: C_32  and  O_39 
REMARK   12  A    between atoms: C_34  and  C_37 
REMARK   13  A    between atoms: C_37  and  O_38 
ROOT
ATOM      1  C   LIG d   1      10.270   2.252  -5.875  0.00  0.00    -0.005 C 
ATOM      2  C   LIG d   1      11.142   1.592  -4.806  0.00  0.00    -0.045 C 
ATOM      3  C   LIG d   1      10.865   2.250  -3.452  0.00  0.00    -0.052 C 
ATOM      4  C   LIG d   1      11.210   3.738  -3.537  0.00  0.00    -0.047 C 
ATOM      5  C   LIG d   1      10.349   4.409  -4.610  0.00  0.00    -0.022 C 
ATOM      6  C   LIG d   1      10.599   3.744  -5.964  0.00  0.00    -0.027 C 
ATOM      7  H   LIG d   1      11.645   3.870  -6.242  0.00  0.00     0.031 H 
ATOM      8  C   LIG d   1       9.704   4.382  -7.030  0.00  0.00    -0.045 C 
ATOM      9  C   LIG d   1      10.076   5.858  -7.197  0.00  0.00    -0.031 C 
ATOM     10  C   LIG d   1       9.991   6.527  -5.843  0.00  0.00    -0.073 C 
ATOM     11  C   LIG d   1       9.296   7.624  -5.676  0.00  0.00    -0.099 C 
ATOM     12  C   LIG d   1      10.731   5.892  -4.687  0.00  0.00    -0.014 C 
ATOM     13  H   LIG d   1      11.805   5.984  -4.848  0.00  0.00     0.035 H 
ATOM     14  H   LIG d   1      10.907   0.529  -4.749  0.00  0.00     0.027 H 
ATOM     15  H   LIG d   1      12.193   1.719  -5.065  0.00  0.00     0.027 H 
ATOM     16  H   LIG d   1       9.811   2.135  -3.200  0.00  0.00     0.027 H 
ATOM     17  H   LIG d   1      11.479   1.777  -2.686  0.00  0.00     0.027 H 
ATOM     18  H   LIG d   1      11.020   4.208  -2.572  0.00  0.00     0.027 H 
ATOM     19  H   LIG d   1      12.263   3.852  -3.794  0.00  0.00     0.027 H 
ATOM     20  H   LIG d   1       9.844   3.863  -7.978  0.00  0.00     0.027 H 
ATOM     21  H   LIG d   1       8.662   4.303  -6.724  0.00  0.00     0.027 H 
ATOM     22  H   LIG d   1      11.092   5.939  -7.584  0.00  0.00     0.031 H 
ATOM     23  H   LIG d   1       9.380   6.336  -7.887  0.00  0.00     0.031 H 
ATOM     24  H   LIG d   1       8.738   8.041  -6.501  0.00  0.00     0.053 H 
ATOM     25  H   LIG d   1       9.279   8.111  -4.712  0.00  0.00     0.053 H 
ENDROOT
BRANCH   1  26
ATOM     26  C   LIG d   1      10.537   1.590  -7.228  0.00  0.00    -0.057 C 
ATOM     27  H   LIG d   1      10.986   2.316  -7.906  0.00  0.00     0.024 H 
ATOM     28  H   LIG d   1      11.217   0.750  -7.094  0.00  0.00     0.024 H 
ATOM     29  H   LIG d   1       9.596   1.232  -7.650  0.00  0.00     0.024 H 
ENDBRANCH   1  26
BRANCH   1  30
ATOM     30  C   LIG d   1       8.796   2.077  -5.505  0.00  0.00     0.056 C 
ATOM     31  H   LIG d   1       8.717   1.752  -4.468  0.00  0.00     0.057 H 
ATOM     32  H   LIG d   1       8.275   3.026  -5.629  0.00  0.00     0.057 H 
BRANCH  30  33
ATOM     33  O   LIG d   1       8.204   1.094  -6.357  0.00  0.00    -0.348 OA
BRANCH  33  34
ATOM     34  C   LIG d   1       7.358   0.167  -5.675  0.00  0.00     0.188 C 
ATOM     35  H   LIG d   1       6.786  -0.408  -6.402  0.00  0.00     0.094 H 
ATOM     36  O   LIG d   1       6.462   0.880  -4.820  0.00  0.00    -0.341 OA
ATOM     37  C   LIG d   1       5.549   0.044  -4.105  0.00  0.00     0.113 C 
ATOM     38  C   LIG d   1       6.334  -0.910  -3.201  0.00  0.00     0.112 C 
ATOM     39  H   LIG d   1       4.954  -0.532  -4.812  0.00  0.00     0.065 H 
ATOM     40  C   LIG d   1       7.299  -1.734  -4.058  0.00  0.00     0.114 C 
ATOM     41  H   LIG d   1       6.898  -0.335  -2.468  0.00  0.00     0.065 H 
ATOM     42  C   LIG d   1       8.215  -0.783  -4.834  0.00  0.00     0.134 C 
ATOM     43  H   LIG d   1       6.733  -2.347  -4.760  0.00  0.00     0.065 H 
ATOM     44  H   LIG d   1       8.818  -0.205  -4.133  0.00  0.00     0.067 H 
BRANCH  37  45
ATOM     45  C   LIG d   1       4.625   0.914  -3.249  0.00  0.00     0.073 C 
ATOM     46  H   LIG d   1       4.392   1.833  -3.787  0.00  0.00     0.058 H 
ATOM     47  H   LIG d   1       3.703   0.370  -3.044  0.00  0.00     0.058 H 
BRANCH  45  48
ATOM     48  O   LIG d   1       5.275   1.233  -2.018  0.00  0.00    -0.392 OA
ATOM     49  H   LIG d   1       4.849   0.851  -1.238  0.00  0.00     0.209 HD
ENDBRANCH  45  48
ENDBRANCH  37  45
BRANCH  38  50
ATOM     50  O   LIG d   1       5.427  -1.785  -2.527  0.00  0.00    -0.387 OA
ATOM     51  H   LIG d   1       5.734  -2.701  -2.469  0.00  0.00     0.210 HD
ENDBRANCH  38  50
BRANCH  40  52
ATOM     52  O   LIG d   1       8.088  -2.577  -3.216  0.00  0.00    -0.386 OA
ATOM     53  H   LIG d   1       9.018  -2.636  -3.478  0.00  0.00     0.210 HD
ENDBRANCH  40  52
BRANCH  42  54
ATOM     54  O   LIG d   1       9.073  -1.538  -5.692  0.00  0.00    -0.384 OA
ATOM     55  H   LIG d   1       9.251  -2.436  -5.380  0.00  0.00     0.210 HD
ENDBRANCH  42  54
ENDBRANCH  33  34
ENDBRANCH  30  33
ENDBRANCH   1  30
BRANCH   5  56
ATOM     56  C   LIG d   1       8.871   4.281  -4.234  0.00  0.00    -0.059 C 
ATOM     57  H   LIG d   1       8.359   5.220  -4.444  0.00  0.00     0.024 H 
ATOM     58  H   LIG d   1       8.416   3.481  -4.818  0.00  0.00     0.024 H 
ATOM     59  H   LIG d   1       8.784   4.051  -3.172  0.00  0.00     0.024 H 
ENDBRANCH   5  56
BRANCH  12  60
ATOM     60  C   LIG d   1      10.344   6.592  -3.383  0.00  0.00    -0.042 C 
ATOM     61  H   LIG d   1       9.661   7.413  -3.601  0.00  0.00     0.027 H 
ATOM     62  H   LIG d   1       9.854   5.879  -2.720  0.00  0.00     0.027 H 
BRANCH  60  63
ATOM     63  C   LIG d   1      11.601   7.139  -2.705  0.00  0.00    -0.021 C 
ATOM     64  H   LIG d   1      12.485   6.699  -3.167  0.00  0.00     0.032 H 
ATOM     65  H   LIG d   1      11.634   8.222  -2.820  0.00  0.00     0.032 H 
BRANCH  63  66
ATOM     66  C   LIG d   1      11.574   6.790  -1.239  0.00  0.00     0.036 A 
ATOM     67  C   LIG d   1      12.544   7.243  -0.238  0.00  0.00     0.335 A 
ATOM     68  O   LIG d   1      12.219   6.746   0.969  0.00  0.00    -0.457 OA
ATOM     69  O   LIG d   1      13.497   7.962  -0.465  0.00  0.00    -0.245 OA
ATOM     70  C   LIG d   1      11.041   5.948   0.816  0.00  0.00     0.112 A 
ATOM     71  C   LIG d   1      10.669   6.014  -0.646  0.00  0.00    -0.037 A 
ATOM     72  H   LIG d   1      10.233   6.351   1.426  0.00  0.00     0.074 H 
ATOM     73  H   LIG d   1      11.249   4.916   1.102  0.00  0.00     0.074 H 
ATOM     74  H   LIG d   1       9.828   5.527  -1.120  0.00  0.00     0.061 H 
ENDBRANCH  63  66
ENDBRANCH  60  63
ENDBRANCH  12  60
TORSDOF 13
ENDMDL
MODEL 9
REMARK VINA RESULT:      -5.9      2.287      7.620
REMARK  13 active torsions:
REMARK  status: ('A' for Active; 'I' for Inactive)
REMARK    1  A    between atoms: C_1  and  C_2 
REMARK    2  A    between atoms: C_2  and  C_24 
REMARK    3  A    between atoms: C_6  and  C_23 
REMARK    4  A    between atoms: C_13  and  C_15 
REMARK    5  A    between atoms: C_15  and  C_16 
REMARK    6  A    between atoms: C_16  and  C_17 
REMARK    7  A    between atoms: C_24  and  O_25 
REMARK    8  A    between atoms: O_25  and  C_26 
REMARK    9  A    between atoms: C_28  and  O_41 
REMARK   10  A    between atoms: C_30  and  O_40 
REMARK   11  A    between atoms: C_32  and  O_39 
REMARK   12  A    between atoms: C_34  and  C_37 
REMARK   13  A    between atoms: C_37  and  O_38 
ROOT
ATOM      1  C   LIG d   1       3.953   0.924  -9.389  0.00  0.00    -0.005 C 
ATOM      2  C   LIG d   1       2.731   1.093  -8.487  0.00  0.00    -0.045 C 
ATOM      3  C   LIG d   1       2.048  -0.265  -8.302  0.00  0.00    -0.052 C 
ATOM      4  C   LIG d   1       1.600  -0.792  -9.666  0.00  0.00    -0.047 C 
ATOM      5  C   LIG d   1       2.815  -0.957 -10.583  0.00  0.00    -0.022 C 
ATOM      6  C   LIG d   1       3.519   0.389 -10.756  0.00  0.00    -0.027 C 
ATOM      7  H   LIG d   1       2.837   1.098 -11.224  0.00  0.00     0.031 H 
ATOM      8  C   LIG d   1       4.762   0.217 -11.634  0.00  0.00    -0.045 C 
ATOM      9  C   LIG d   1       4.343  -0.236 -13.035  0.00  0.00    -0.031 C 
ATOM     10  C   LIG d   1       3.507  -1.490 -12.900  0.00  0.00    -0.073 C 
ATOM     11  C   LIG d   1       3.792  -2.567 -13.589  0.00  0.00    -0.099 C 
ATOM     12  C   LIG d   1       2.333  -1.464 -11.948  0.00  0.00    -0.014 C 
ATOM     13  H   LIG d   1       1.564  -0.796 -12.334  0.00  0.00     0.035 H 
ATOM     14  H   LIG d   1       3.044   1.477  -7.516  0.00  0.00     0.027 H 
ATOM     15  H   LIG d   1       2.032   1.792  -8.947  0.00  0.00     0.027 H 
ATOM     16  H   LIG d   1       2.752  -0.968  -7.854  0.00  0.00     0.027 H 
ATOM     17  H   LIG d   1       1.181  -0.151  -7.653  0.00  0.00     0.027 H 
ATOM     18  H   LIG d   1       1.108  -1.756  -9.538  0.00  0.00     0.027 H 
ATOM     19  H   LIG d   1       0.901  -0.086 -10.116  0.00  0.00     0.027 H 
ATOM     20  H   LIG d   1       5.291   1.167 -11.703  0.00  0.00     0.027 H 
ATOM     21  H   LIG d   1       5.418  -0.532 -11.192  0.00  0.00     0.027 H 
ATOM     22  H   LIG d   1       3.756   0.548 -13.514  0.00  0.00     0.031 H 
ATOM     23  H   LIG d   1       5.229  -0.448 -13.633  0.00  0.00     0.031 H 
ATOM     24  H   LIG d   1       4.658  -2.583 -14.233  0.00  0.00     0.053 H 
ATOM     25  H   LIG d   1       3.161  -3.440 -13.512  0.00  0.00     0.053 H 
ENDROOT
BRANCH   1  26
ATOM     26  C   LIG d   1       4.643   2.277  -9.568  0.00  0.00    -0.057 C 
ATOM     27  H   LIG d   1       3.956   2.976 -10.045  0.00  0.00     0.024 H 
ATOM     28  H   LIG d   1       4.939   2.667  -8.595  0.00  0.00     0.024 H 
ATOM     29  H   LIG d   1       5.529   2.154 -10.193  0.00  0.00     0.024 H 
ENDBRANCH   1  26
BRANCH   1  30
ATOM     30  C   LIG d   1       4.928  -0.063  -8.742  0.00  0.00     0.056 C 
ATOM     31  H   LIG d   1       4.456  -1.042  -8.664  0.00  0.00     0.057 H 
ATOM     32  H   LIG d   1       5.827  -0.139  -9.355  0.00  0.00     0.057 H 
BRANCH  30  33
ATOM     33  O   LIG d   1       5.280   0.401  -7.437  0.00  0.00    -0.348 OA
BRANCH  33  34
ATOM     34  C   LIG d   1       5.433  -0.641  -6.472  0.00  0.00     0.188 C 
ATOM     35  H   LIG d   1       6.304  -0.436  -5.850  0.00  0.00     0.094 H 
ATOM     36  O   LIG d   1       5.611  -1.890  -7.144  0.00  0.00    -0.341 OA
ATOM     37  C   LIG d   1       5.800  -3.002  -6.268  0.00  0.00     0.113 C 
ATOM     38  C   LIG d   1       4.563  -3.167  -5.380  0.00  0.00     0.112 C 
ATOM     39  H   LIG d   1       6.676  -2.828  -5.643  0.00  0.00     0.065 H 
ATOM     40  C   LIG d   1       4.328  -1.870  -4.601  0.00  0.00     0.114 C 
ATOM     41  H   LIG d   1       3.695  -3.381  -6.001  0.00  0.00     0.065 H 
ATOM     42  C   LIG d   1       4.183  -0.711  -5.592  0.00  0.00     0.134 C 
ATOM     43  H   LIG d   1       5.176  -1.680  -3.942  0.00  0.00     0.065 H 
ATOM     44  H   LIG d   1       3.305  -0.876  -6.219  0.00  0.00     0.067 H 
BRANCH  37  45
ATOM     45  C   LIG d   1       6.007  -4.274  -7.095  0.00  0.00     0.073 C 
ATOM     46  H   LIG d   1       6.700  -4.936  -6.574  0.00  0.00     0.058 H 
ATOM     47  H   LIG d   1       5.051  -4.780  -7.228  0.00  0.00     0.058 H 
BRANCH  45  48
ATOM     48  O   LIG d   1       6.547  -3.929  -8.372  0.00  0.00    -0.392 OA
ATOM     49  H   LIG d   1       7.503  -3.784  -8.369  0.00  0.00     0.209 HD
ENDBRANCH  45  48
ENDBRANCH  37  45
BRANCH  38  50
ATOM     50  O   LIG d   1       4.772  -4.243  -4.463  0.00  0.00    -0.387 OA
ATOM     51  H   LIG d   1       4.019  -4.845  -4.384  0.00  0.00     0.210 HD
ENDBRANCH  38  50
BRANCH  40  52
ATOM     52  O   LIG d   1       3.135  -1.987  -3.824  0.00  0.00    -0.386 OA
ATOM     53  H   LIG d   1       2.650  -2.811  -3.969  0.00  0.00     0.210 HD
ENDBRANCH  40  52
BRANCH  42  54
ATOM     54  O   LIG d   1       4.033   0.516  -4.876  0.00  0.00    -0.384 OA
ATOM     55  H   LIG d   1       3.218   0.995  -5.080  0.00  0.00     0.210 HD
ENDBRANCH  42  54
ENDBRANCH  33  34
ENDBRANCH  30  33
ENDBRANCH   1  30
BRANCH   5  56
ATOM     56  C   LIG d   1       3.782  -1.974  -9.972  0.00  0.00    -0.059 C 
ATOM     57  H   LIG d   1       3.291  -2.494  -9.149  0.00  0.00     0.024 H 
ATOM     58  H   LIG d   1       4.078  -2.696 -10.732  0.00  0.00     0.024 H 
ATOM     59  H   LIG d   1       4.665  -1.457  -9.597  0.00  0.00     0.024 H 
ENDBRANCH   5  56
BRANCH  12  60
ATOM     60  C   LIG d   1       1.762  -2.876 -11.799  0.00  0.00    -0.042 C 
ATOM     61  H   LIG d   1       2.365  -3.574 -12.379  0.00  0.00     0.027 H 
ATOM     62  H   LIG d   1       1.779  -3.167 -10.749  0.00  0.00     0.027 H 
BRANCH  60  63
ATOM     63  C   LIG d   1       0.321  -2.899 -12.312  0.00  0.00    -0.021 C 
ATOM     64  H   LIG d   1      -0.151  -1.936 -12.117  0.00  0.00     0.032 H 
ATOM     65  H   LIG d   1       0.319  -3.093 -13.384  0.00  0.00     0.032 H 
BRANCH  63  66
ATOM     66  C   LIG d   1      -0.447  -3.986 -11.604  0.00  0.00     0.036 A 
ATOM     67  C   LIG d   1      -1.832  -4.373 -11.888  0.00  0.00     0.335 A 
ATOM     68  O   LIG d   1      -2.201  -5.378 -11.072  0.00  0.00    -0.457 OA
ATOM     69  O   LIG d   1      -2.540  -3.864 -12.735  0.00  0.00    -0.245 OA
ATOM     70  C   LIG d   1      -1.092  -5.686 -10.221  0.00  0.00     0.112 A 
ATOM     71  C   LIG d   1       0.022  -4.745 -10.615  0.00  0.00    -0.037 A 
ATOM     72  H   LIG d   1      -0.779  -6.719 -10.373  0.00  0.00     0.074 H 
ATOM     73  H   LIG d   1      -1.365  -5.526  -9.178  0.00  0.00     0.074 H 
ATOM     74  H   LIG d   1       1.010  -4.697 -10.180  0.00  0.00     0.061 H 
ENDBRANCH  63  66
ENDBRANCH  60  63
ENDBRANCH  12  60
TORSDOF 13
ENDMDL
MODEL 10
REMARK VINA RESULT:      -5.9     11.672     14.738
REMARK  13 active torsions:
REMARK  status: ('A' for Active; 'I' for Inactive)
REMARK    1  A    between atoms: C_1  and  C_2 
REMARK    2  A    between atoms: C_2  and  C_24 
REMARK    3  A    between atoms: C_6  and  C_23 
REMARK    4  A    between atoms: C_13  and  C_15 
REMARK    5  A    between atoms: C_15  and  C_16 
REMARK    6  A    between atoms: C_16  and  C_17 
REMARK    7  A    between atoms: C_24  and  O_25 
REMARK    8  A    between atoms: O_25  and  C_26 
REMARK    9  A    between atoms: C_28  and  O_41 
REMARK   10  A    between atoms: C_30  and  O_40 
REMARK   11  A    between atoms: C_32  and  O_39 
REMARK   12  A    between atoms: C_34  and  C_37 
REMARK   13  A    between atoms: C_37  and  O_38 
ROOT
ATOM      1  C   LIG d   1      10.845   4.586  -4.610  0.00  0.00    -0.005 C 
ATOM      2  C   LIG d   1       9.338   4.804  -4.738  0.00  0.00    -0.045 C 
ATOM      3  C   LIG d   1       9.030   6.297  -4.591  0.00  0.00    -0.052 C 
ATOM      4  C   LIG d   1       9.494   6.772  -3.213  0.00  0.00    -0.047 C 
ATOM      5  C   LIG d   1      11.002   6.550  -3.069  0.00  0.00    -0.022 C 
ATOM      6  C   LIG d   1      11.325   5.065  -3.238  0.00  0.00    -0.027 C 
ATOM      7  H   LIG d   1      10.823   4.493  -2.457  0.00  0.00     0.031 H 
ATOM      8  C   LIG d   1      12.838   4.847  -3.141  0.00  0.00    -0.045 C 
ATOM      9  C   LIG d   1      13.326   5.240  -1.745  0.00  0.00    -0.031 C 
ATOM     10  C   LIG d   1      12.890   6.663  -1.471  0.00  0.00    -0.073 C 
ATOM     11  C   LIG d   1      13.751   7.566  -1.072  0.00  0.00    -0.099 C 
ATOM     12  C   LIG d   1      11.434   7.014  -1.672  0.00  0.00    -0.014 C 
ATOM     13  H   LIG d   1      10.829   6.511  -0.918  0.00  0.00     0.035 H 
ATOM     14  H   LIG d   1       9.001   4.458  -5.715  0.00  0.00     0.027 H 
ATOM     15  H   LIG d   1       8.822   4.247  -3.956  0.00  0.00     0.027 H 
ATOM     16  H   LIG d   1       9.557   6.855  -5.365  0.00  0.00     0.027 H 
ATOM     17  H   LIG d   1       7.957   6.458  -4.689  0.00  0.00     0.027 H 
ATOM     18  H   LIG d   1       9.271   7.833  -3.102  0.00  0.00     0.027 H 
ATOM     19  H   LIG d   1       8.970   6.209  -2.440  0.00  0.00     0.027 H 
ATOM     20  H   LIG d   1      13.065   3.797  -3.323  0.00  0.00     0.027 H 
ATOM     21  H   LIG d   1      13.341   5.461  -3.888  0.00  0.00     0.027 H 
ATOM     22  H   LIG d   1      12.889   4.573  -1.002  0.00  0.00     0.031 H 
ATOM     23  H   LIG d   1      14.413   5.174  -1.703  0.00  0.00     0.031 H 
ATOM     24  H   LIG d   1      14.796   7.310  -0.973  0.00  0.00     0.053 H 
ATOM     25  H   LIG d   1      13.417   8.567  -0.841  0.00  0.00     0.053 H 
ENDROOT
BRANCH   1  26
ATOM     26  C   LIG d   1      11.158   3.096  -4.767  0.00  0.00    -0.057 C 
ATOM     27  H   LIG d   1      10.980   2.586  -3.821  0.00  0.00     0.024 H 
ATOM     28  H   LIG d   1      10.517   2.669  -5.537  0.00  0.00     0.024 H 
ATOM     29  H   LIG d   1      12.203   2.972  -5.055  0.00  0.00     0.024 H 
ENDBRANCH   1  26
BRANCH   1  30
ATOM     30  C   LIG d   1      11.567   5.374  -5.706  0.00  0.00     0.056 C 
ATOM     31  H   LIG d   1      11.182   6.393  -5.733  0.00  0.00     0.057 H 
ATOM     32  H   LIG d   1      12.636   5.394  -5.495  0.00  0.00     0.057 H 
BRANCH  30  33
ATOM     33  O   LIG d   1      11.343   4.748  -6.971  0.00  0.00    -0.348 OA
BRANCH  33  34
ATOM     34  C   LIG d   1      11.121   5.666  -8.043  0.00  0.00     0.188 C 
ATOM     35  H   LIG d   1      11.954   5.616  -8.743  0.00  0.00     0.094 H 
ATOM     36  O   LIG d   1      11.016   6.992  -7.520  0.00  0.00    -0.341 OA
ATOM     37  C   LIG d   1      10.817   7.997  -8.515  0.00  0.00     0.113 C 
ATOM     38  C   LIG d   1       9.507   7.726  -9.258  0.00  0.00     0.112 C 
ATOM     39  H   LIG d   1      11.647   7.978  -9.222  0.00  0.00     0.065 H 
ATOM     40  C   LIG d   1       9.559   6.325  -9.875  0.00  0.00     0.114 C 
ATOM     41  H   LIG d   1       8.673   7.785  -8.560  0.00  0.00     0.065 H 
ATOM     42  C   LIG d   1       9.823   5.301  -8.767  0.00  0.00     0.134 C 
ATOM     43  H   LIG d   1      10.363   6.280 -10.610  0.00  0.00     0.065 H 
ATOM     44  H   LIG d   1       8.994   5.312  -8.057  0.00  0.00     0.067 H 
BRANCH  37  45
ATOM     45  C   LIG d   1      10.750   9.372  -7.846  0.00  0.00     0.073 C 
ATOM     46  H   LIG d   1      11.113   9.294  -6.821  0.00  0.00     0.058 H 
ATOM     47  H   LIG d   1      11.373  10.076  -8.399  0.00  0.00     0.058 H 
BRANCH  45  48
ATOM     48  O   LIG d   1       9.399   9.834  -7.840  0.00  0.00    -0.392 OA
ATOM     49  H   LIG d   1       9.186  10.438  -8.564  0.00  0.00     0.209 HD
ENDBRANCH  45  48
ENDBRANCH  37  45
BRANCH  38  50
ATOM     50  O   LIG d   1       9.333   8.697 -10.293  0.00  0.00    -0.387 OA
ATOM     51  H   LIG d   1       9.114   8.318 -11.155  0.00  0.00     0.210 HD
ENDBRANCH  38  50
BRANCH  40  52
ATOM     52  O   LIG d   1       8.313   6.034 -10.509  0.00  0.00    -0.386 OA
ATOM     53  H   LIG d   1       7.574   5.925  -9.894  0.00  0.00     0.210 HD
ENDBRANCH  40  52
BRANCH  42  54
ATOM     54  O   LIG d   1       9.944   3.997  -9.338  0.00  0.00    -0.384 OA
ATOM     55  H   LIG d   1      10.767   3.543  -9.111  0.00  0.00     0.210 HD
ENDBRANCH  42  54
ENDBRANCH  33  34
ENDBRANCH  30  33
ENDBRANCH   1  30
BRANCH   5  56
ATOM     56  C   LIG d   1      11.742   7.366  -4.131  0.00  0.00    -0.059 C 
ATOM     57  H   LIG d   1      12.389   8.096  -3.643  0.00  0.00     0.024 H 
ATOM     58  H   LIG d   1      12.346   6.699  -4.746  0.00  0.00     0.024 H 
ATOM     59  H   LIG d   1      11.020   7.886  -4.759  0.00  0.00     0.024 H 
ENDBRANCH   5  56
BRANCH  12  60
ATOM     60  C   LIG d   1      11.249   8.528  -1.554  0.00  0.00    -0.042 C 
ATOM     61  H   LIG d   1      12.215   8.998  -1.368  0.00  0.00     0.027 H 
ATOM     62  H   LIG d   1      10.829   8.917  -2.481  0.00  0.00     0.027 H 
BRANCH  60  63
ATOM     63  C   LIG d   1      10.301   8.837  -0.394  0.00  0.00    -0.021 C 
ATOM     64  H   LIG d   1       9.633   9.651  -0.678  0.00  0.00     0.032 H 
ATOM     65  H   LIG d   1       9.711   7.951  -0.160  0.00  0.00     0.032 H 
BRANCH  63  66
ATOM     66  C   LIG d   1      11.102   9.243   0.816  0.00  0.00     0.036 A 
ATOM     67  C   LIG d   1      11.559   8.340   1.876  0.00  0.00     0.335 A 
ATOM     68  O   LIG d   1      12.248   9.034   2.800  0.00  0.00    -0.457 OA
ATOM     69  O   LIG d   1      11.349   7.143   1.913  0.00  0.00    -0.245 OA
ATOM     70  C   LIG d   1      12.268  10.407   2.398  0.00  0.00     0.112 A 
ATOM     71  C   LIG d   1      11.503  10.481   1.097  0.00  0.00    -0.037 A 
ATOM     72  H   LIG d   1      13.295  10.739   2.247  0.00  0.00     0.074 H 
ATOM     73  H   LIG d   1      11.781  11.025   3.153  0.00  0.00     0.074 H 
ATOM     74  H   LIG d   1      11.319  11.367   0.508  0.00  0.00     0.061 H 
ENDBRANCH  63  66
ENDBRANCH  60  63
ENDBRANCH  12  60
TORSDOF 13
ENDMDL
