MODEL 1
REMARK VINA RESULT:      -7.8      0.000      0.000
REMARK  11 active torsions:
REMARK  status: ('A' for Active; 'I' for Inactive)
REMARK    1  A    between atoms: C_3  and  O_37 
REMARK    2  A    between atoms: C_4  and  O_36 
REMARK    3  A    between atoms: C_6  and  C_7 
REMARK    4  A    between atoms: C_12  and  O_35 
REMARK    5  A    between atoms: C_14  and  O_18 
REMARK    6  A    between atoms: O_18  and  C_19 
REMARK    7  A    between atoms: C_21  and  O_34 
REMARK    8  A    between atoms: C_23  and  O_33 
REMARK    9  A    between atoms: C_25  and  O_32 
REMARK   10  A    between atoms: C_27  and  C_30 
REMARK   11  A    between atoms: C_30  and  O_31 
ROOT
ATOM      1  C   LIG d   1       7.777   1.478  -4.134  0.00  0.00     0.139 A 
ATOM      2  C   LIG d   1       8.105   1.380  -5.451  0.00  0.00     0.029 A 
ATOM      3  C   LIG d   1       9.082   2.250  -5.992  0.00  0.00     0.197 A 
ATOM      4  O   LIG d   1       9.401   2.191  -7.168  0.00  0.00    -0.287 OA
ATOM      5  C   LIG d   1       9.697   3.230  -5.081  0.00  0.00     0.105 A 
ATOM      6  C   LIG d   1      10.670   4.130  -5.530  0.00  0.00     0.135 A 
ATOM      7  C   LIG d   1      11.223   5.035  -4.642  0.00  0.00     0.023 A 
ATOM      8  C   LIG d   1      10.814   5.049  -3.314  0.00  0.00     0.131 A 
ATOM      9  C   LIG d   1       9.850   4.161  -2.861  0.00  0.00     0.024 A 
ATOM     10  C   LIG d   1       9.285   3.247  -3.737  0.00  0.00     0.146 A 
ATOM     11  O   LIG d   1       8.341   2.379  -3.315  0.00  0.00    -0.454 OA
ATOM     12  H   LIG d   1       7.626   0.644  -6.078  0.00  0.00     0.069 H 
ATOM     13  H   LIG d   1      11.975   5.732  -4.982  0.00  0.00     0.069 H 
ATOM     14  H   LIG d   1       9.541   4.181  -1.827  0.00  0.00     0.069 H 
ENDROOT
BRANCH   8  15
ATOM     15  O   LIG d   1      11.364   5.941  -2.451  0.00  0.00    -0.461 OA
BRANCH  15  16
ATOM     16  C   LIG d   1      10.961   5.852  -1.082  0.00  0.00     0.231 C 
ATOM     17  H   LIG d   1      10.622   4.838  -0.869  0.00  0.00     0.108 H 
ATOM     18  O   LIG d   1       9.894   6.773  -0.840  0.00  0.00    -0.331 OA
ATOM     19  C   LIG d   1      10.226   8.135  -1.115  0.00  0.00     0.114 C 
ATOM     20  C   LIG d   1      11.382   8.571  -0.212  0.00  0.00     0.112 C 
ATOM     21  H   LIG d   1      10.524   8.232  -2.160  0.00  0.00     0.065 H 
ATOM     22  C   LIG d   1      12.578   7.642  -0.442  0.00  0.00     0.115 C 
ATOM     23  H   LIG d   1      11.664   9.596  -0.451  0.00  0.00     0.065 H 
ATOM     24  C   LIG d   1      12.146   6.197  -0.177  0.00  0.00     0.145 C 
ATOM     25  H   LIG d   1      12.920   7.739  -1.472  0.00  0.00     0.065 H 
ATOM     26  H   LIG d   1      12.976   5.524  -0.393  0.00  0.00     0.068 H 
BRANCH  19  27
ATOM     27  C   LIG d   1       9.007   9.020  -0.848  0.00  0.00     0.073 C 
ATOM     28  H   LIG d   1       9.094   9.470   0.141  0.00  0.00     0.058 H 
ATOM     29  H   LIG d   1       8.957   9.806  -1.602  0.00  0.00     0.058 H 
BRANCH  27  30
ATOM     30  O   LIG d   1       7.820   8.227  -0.907  0.00  0.00    -0.392 OA
ATOM     31  H   LIG d   1       7.957   7.340  -1.266  0.00  0.00     0.209 HD
ENDBRANCH  27  30
ENDBRANCH  19  27
BRANCH  20  32
ATOM     32  O   LIG d   1      10.975   8.496   1.156  0.00  0.00    -0.387 OA
ATOM     33  H   LIG d   1      10.409   7.739   1.357  0.00  0.00     0.210 HD
ENDBRANCH  20  32
BRANCH  22  34
ATOM     34  O   LIG d   1      13.638   7.996   0.449  0.00  0.00    -0.386 OA
ATOM     35  H   LIG d   1      13.344   8.195   1.349  0.00  0.00     0.210 HD
ENDBRANCH  22  34
BRANCH  24  36
ATOM     36  O   LIG d   1      11.760   6.056   1.191  0.00  0.00    -0.383 OA
ATOM     37  H   LIG d   1      11.895   6.854   1.721  0.00  0.00     0.210 HD
ENDBRANCH  24  36
ENDBRANCH  15  16
ENDBRANCH   8  15
BRANCH   6  38
ATOM     38  O   LIG d   1      11.070   4.114  -6.826  0.00  0.00    -0.506 OA
ATOM     39  H   LIG d   1      10.752   4.867  -7.345  0.00  0.00     0.292 HD
ENDBRANCH   6  38
BRANCH   1  40
ATOM     40  C   LIG d   1       6.757   0.562  -3.589  0.00  0.00     0.021 A 
ATOM     41  C   LIG d   1       6.942  -0.820  -3.669  0.00  0.00    -0.047 A 
ATOM     42  C   LIG d   1       5.988  -1.673  -3.158  0.00  0.00    -0.016 A 
ATOM     43  H   LIG d   1       7.834  -1.220  -4.127  0.00  0.00     0.063 H 
ATOM     44  C   LIG d   1       4.843  -1.163  -2.563  0.00  0.00     0.158 A 
ATOM     45  H   LIG d   1       6.132  -2.742  -3.221  0.00  0.00     0.066 H 
ATOM     46  C   LIG d   1       4.651   0.215  -2.480  0.00  0.00     0.159 A 
ATOM     47  C   LIG d   1       5.603   1.076  -2.990  0.00  0.00    -0.006 A 
ATOM     48  H   LIG d   1       5.456   2.145  -2.927  0.00  0.00     0.066 H 
BRANCH  44  49
ATOM     49  O   LIG d   1       3.904  -2.009  -2.062  0.00  0.00    -0.503 OA
ATOM     50  H   LIG d   1       3.575  -1.758  -1.188  0.00  0.00     0.292 HD
ENDBRANCH  44  49
BRANCH  46  51
ATOM     51  O   LIG d   1       3.527   0.712  -1.897  0.00  0.00    -0.503 OA
ATOM     52  H   LIG d   1       2.963   0.038  -1.494  0.00  0.00     0.292 HD
ENDBRANCH  46  51
ENDBRANCH   1  40
TORSDOF 11
ENDMDL
MODEL 2
REMARK VINA RESULT:      -7.7      1.706      8.666
REMARK  11 active torsions:
REMARK  status: ('A' for Active; 'I' for Inactive)
REMARK    1  A    between atoms: C_3  and  O_37 
REMARK    2  A    between atoms: C_4  and  O_36 
REMARK    3  A    between atoms: C_6  and  C_7 
REMARK    4  A    between atoms: C_12  and  O_35 
REMARK    5  A    between atoms: C_14  and  O_18 
REMARK    6  A    between atoms: O_18  and  C_19 
REMARK    7  A    between atoms: C_21  and  O_34 
REMARK    8  A    between atoms: C_23  and  O_33 
REMARK    9  A    between atoms: C_25  and  O_32 
REMARK   10  A    between atoms: C_27  and  C_30 
REMARK   11  A    between atoms: C_30  and  O_31 
ROOT
ATOM      1  C   LIG d   1       9.947   4.513  -3.244  0.00  0.00     0.139 A 
ATOM      2  C   LIG d   1      10.315   4.983  -4.466  0.00  0.00     0.029 A 
ATOM      3  C   LIG d   1       9.924   4.280  -5.630  0.00  0.00     0.197 A 
ATOM      4  O   LIG d   1      10.236   4.672  -6.743  0.00  0.00    -0.287 OA
ATOM      5  C   LIG d   1       9.127   3.055  -5.447  0.00  0.00     0.105 A 
ATOM      6  C   LIG d   1       8.698   2.295  -6.542  0.00  0.00     0.135 A 
ATOM      7  C   LIG d   1       7.951   1.151  -6.327  0.00  0.00     0.023 A 
ATOM      8  C   LIG d   1       7.631   0.760  -5.033  0.00  0.00     0.131 A 
ATOM      9  C   LIG d   1       8.052   1.507  -3.943  0.00  0.00     0.024 A 
ATOM     10  C   LIG d   1       8.801   2.656  -4.139  0.00  0.00     0.146 A 
ATOM     11  O   LIG d   1       9.225   3.392  -3.089  0.00  0.00    -0.454 OA
ATOM     12  H   LIG d   1      10.900   5.887  -4.548  0.00  0.00     0.069 H 
ATOM     13  H   LIG d   1       7.617   0.560  -7.167  0.00  0.00     0.069 H 
ATOM     14  H   LIG d   1       7.796   1.193  -2.942  0.00  0.00     0.069 H 
ENDROOT
BRANCH   8  15
ATOM     15  O   LIG d   1       6.897  -0.364  -4.833  0.00  0.00    -0.461 OA
BRANCH  15  16
ATOM     16  C   LIG d   1       5.607  -0.415  -5.446  0.00  0.00     0.231 C 
ATOM     17  H   LIG d   1       5.676  -0.045  -6.468  0.00  0.00     0.108 H 
ATOM     18  O   LIG d   1       4.696   0.399  -4.704  0.00  0.00    -0.331 OA
ATOM     19  C   LIG d   1       4.550   0.013  -3.336  0.00  0.00     0.114 C 
ATOM     20  C   LIG d   1       4.004  -1.415  -3.264  0.00  0.00     0.112 C 
ATOM     21  H   LIG d   1       5.520   0.058  -2.841  0.00  0.00     0.065 H 
ATOM     22  C   LIG d   1       4.952  -2.354  -4.017  0.00  0.00     0.115 C 
ATOM     23  H   LIG d   1       3.933  -1.726  -2.222  0.00  0.00     0.065 H 
ATOM     24  C   LIG d   1       5.104  -1.861  -5.459  0.00  0.00     0.145 C 
ATOM     25  H   LIG d   1       5.926  -2.356  -3.527  0.00  0.00     0.065 H 
ATOM     26  H   LIG d   1       5.820  -2.491  -5.985  0.00  0.00     0.068 H 
BRANCH  19  27
ATOM     27  C   LIG d   1       3.577   0.967  -2.638  0.00  0.00     0.073 C 
ATOM     28  H   LIG d   1       2.578   0.533  -2.641  0.00  0.00     0.058 H 
ATOM     29  H   LIG d   1       3.901   1.127  -1.610  0.00  0.00     0.058 H 
BRANCH  27  30
ATOM     30  O   LIG d   1       3.555   2.216  -3.332  0.00  0.00    -0.392 OA
ATOM     31  H   LIG d   1       2.769   2.750  -3.154  0.00  0.00     0.209 HD
ENDBRANCH  27  30
ENDBRANCH  19  27
BRANCH  20  32
ATOM     32  O   LIG d   1       2.708  -1.463  -3.865  0.00  0.00    -0.387 OA
ATOM     33  H   LIG d   1       2.436  -2.348  -4.143  0.00  0.00     0.210 HD
ENDBRANCH  20  32
BRANCH  22  34
ATOM     34  O   LIG d   1       4.415  -3.678  -4.017  0.00  0.00    -0.386 OA
ATOM     35  H   LIG d   1       3.818  -3.859  -4.756  0.00  0.00     0.210 HD
ENDBRANCH  22  34
BRANCH  24  36
ATOM     36  O   LIG d   1       3.838  -1.920  -6.119  0.00  0.00    -0.383 OA
ATOM     37  H   LIG d   1       3.720  -1.248  -6.805  0.00  0.00     0.210 HD
ENDBRANCH  24  36
ENDBRANCH  15  16
ENDBRANCH   8  15
BRANCH   6  38
ATOM     38  O   LIG d   1       9.011   2.679  -7.805  0.00  0.00    -0.506 OA
ATOM     39  H   LIG d   1       9.115   3.635  -7.911  0.00  0.00     0.292 HD
ENDBRANCH   6  38
BRANCH   1  40
ATOM     40  C   LIG d   1      10.364   5.260  -2.042  0.00  0.00     0.021 A 
ATOM     41  C   LIG d   1      11.371   4.754  -1.217  0.00  0.00    -0.047 A 
ATOM     42  C   LIG d   1      11.760   5.454  -0.096  0.00  0.00    -0.016 A 
ATOM     43  H   LIG d   1      11.848   3.817  -1.460  0.00  0.00     0.063 H 
ATOM     44  C   LIG d   1      11.153   6.663   0.217  0.00  0.00     0.158 A 
ATOM     45  H   LIG d   1      12.539   5.062   0.542  0.00  0.00     0.066 H 
ATOM     46  C   LIG d   1      10.147   7.174  -0.602  0.00  0.00     0.159 A 
ATOM     47  C   LIG d   1       9.752   6.477  -1.727  0.00  0.00    -0.006 A 
ATOM     48  H   LIG d   1       8.972   6.871  -2.362  0.00  0.00     0.066 H 
BRANCH  44  49
ATOM     49  O   LIG d   1      11.539   7.349   1.325  0.00  0.00    -0.503 OA
ATOM     50  H   LIG d   1      11.097   8.202   1.432  0.00  0.00     0.292 HD
ENDBRANCH  44  49
BRANCH  46  51
ATOM     51  O   LIG d   1       9.554   8.357  -0.292  0.00  0.00    -0.503 OA
ATOM     52  H   LIG d   1       9.006   8.720  -1.001  0.00  0.00     0.292 HD
ENDBRANCH  46  51
ENDBRANCH   1  40
TORSDOF 11
ENDMDL
MODEL 3
REMARK VINA RESULT:      -7.1      1.954      8.945
REMARK  11 active torsions:
REMARK  status: ('A' for Active; 'I' for Inactive)
REMARK    1  A    between atoms: C_3  and  O_37 
REMARK    2  A    between atoms: C_4  and  O_36 
REMARK    3  A    between atoms: C_6  and  C_7 
REMARK    4  A    between atoms: C_12  and  O_35 
REMARK    5  A    between atoms: C_14  and  O_18 
REMARK    6  A    between atoms: O_18  and  C_19 
REMARK    7  A    between atoms: C_21  and  O_34 
REMARK    8  A    between atoms: C_23  and  O_33 
REMARK    9  A    between atoms: C_25  and  O_32 
REMARK   10  A    between atoms: C_27  and  C_30 
REMARK   11  A    between atoms: C_30  and  O_31 
ROOT
ATOM      1  C   LIG d   1      10.702   4.328  -2.599  0.00  0.00     0.139 A 
ATOM      2  C   LIG d   1      11.877   3.904  -3.136  0.00  0.00     0.029 A 
ATOM      3  C   LIG d   1      11.899   2.731  -3.928  0.00  0.00     0.197 A 
ATOM      4  O   LIG d   1      12.935   2.321  -4.425  0.00  0.00    -0.287 OA
ATOM      5  C   LIG d   1      10.623   2.024  -4.128  0.00  0.00     0.105 A 
ATOM      6  C   LIG d   1      10.550   0.856  -4.895  0.00  0.00     0.135 A 
ATOM      7  C   LIG d   1       9.332   0.221  -5.059  0.00  0.00     0.023 A 
ATOM      8  C   LIG d   1       8.189   0.742  -4.464  0.00  0.00     0.131 A 
ATOM      9  C   LIG d   1       8.252   1.899  -3.702  0.00  0.00     0.024 A 
ATOM     10  C   LIG d   1       9.465   2.548  -3.527  0.00  0.00     0.146 A 
ATOM     11  O   LIG d   1       9.546   3.672  -2.784  0.00  0.00    -0.454 OA
ATOM     12  H   LIG d   1      12.787   4.458  -2.960  0.00  0.00     0.069 H 
ATOM     13  H   LIG d   1       9.270  -0.681  -5.649  0.00  0.00     0.069 H 
ATOM     14  H   LIG d   1       7.357   2.294  -3.245  0.00  0.00     0.069 H 
ENDROOT
BRANCH   8  15
ATOM     15  O   LIG d   1       6.998   0.112  -4.631  0.00  0.00    -0.461 OA
BRANCH  15  16
ATOM     16  C   LIG d   1       6.417  -0.495  -3.475  0.00  0.00     0.231 C 
ATOM     17  H   LIG d   1       7.099  -0.395  -2.631  0.00  0.00     0.108 H 
ATOM     18  O   LIG d   1       6.180  -1.881  -3.735  0.00  0.00    -0.331 OA
ATOM     19  C   LIG d   1       5.315  -2.126  -4.845  0.00  0.00     0.114 C 
ATOM     20  C   LIG d   1       3.945  -1.501  -4.571  0.00  0.00     0.112 C 
ATOM     21  H   LIG d   1       5.744  -1.684  -5.745  0.00  0.00     0.065 H 
ATOM     22  C   LIG d   1       4.119  -0.002  -4.313  0.00  0.00     0.115 C 
ATOM     23  H   LIG d   1       3.297  -1.650  -5.435  0.00  0.00     0.065 H 
ATOM     24  C   LIG d   1       5.092   0.195  -3.147  0.00  0.00     0.145 C 
ATOM     25  H   LIG d   1       4.519   0.477  -5.207  0.00  0.00     0.065 H 
ATOM     26  H   LIG d   1       5.264   1.260  -2.993  0.00  0.00     0.068 H 
BRANCH  19  27
ATOM     27  C   LIG d   1       5.157  -3.635  -5.045  0.00  0.00     0.073 C 
ATOM     28  H   LIG d   1       5.996  -4.014  -5.630  0.00  0.00     0.058 H 
ATOM     29  H   LIG d   1       5.140  -4.130  -4.073  0.00  0.00     0.058 H 
BRANCH  27  30
ATOM     30  O   LIG d   1       3.936  -3.900  -5.737  0.00  0.00    -0.392 OA
ATOM     31  H   LIG d   1       3.595  -4.796  -5.603  0.00  0.00     0.209 HD
ENDBRANCH  27  30
ENDBRANCH  19  27
BRANCH  20  32
ATOM     32  O   LIG d   1       3.358  -2.118  -3.424  0.00  0.00    -0.387 OA
ATOM     33  H   LIG d   1       2.534  -1.705  -3.133  0.00  0.00     0.210 HD
ENDBRANCH  20  32
BRANCH  22  34
ATOM     34  O   LIG d   1       2.854   0.578  -3.986  0.00  0.00    -0.386 OA
ATOM     35  H   LIG d   1       2.118  -0.049  -4.008  0.00  0.00     0.210 HD
ENDBRANCH  22  34
BRANCH  24  36
ATOM     36  O   LIG d   1       4.536  -0.376  -1.961  0.00  0.00    -0.383 OA
ATOM     37  H   LIG d   1       5.167  -0.895  -1.442  0.00  0.00     0.210 HD
ENDBRANCH  24  36
ENDBRANCH  15  16
ENDBRANCH   8  15
BRANCH   6  38
ATOM     38  O   LIG d   1      11.667   0.349  -5.477  0.00  0.00    -0.506 OA
ATOM     39  H   LIG d   1      12.035  -0.419  -5.018  0.00  0.00     0.292 HD
ENDBRANCH   6  38
BRANCH   1  40
ATOM     40  C   LIG d   1      10.700   5.552  -1.776  0.00  0.00     0.021 A 
ATOM     41  C   LIG d   1      11.819   5.882  -1.008  0.00  0.00    -0.047 A 
ATOM     42  C   LIG d   1      11.815   7.026  -0.240  0.00  0.00    -0.016 A 
ATOM     43  H   LIG d   1      12.688   5.241  -1.017  0.00  0.00     0.063 H 
ATOM     44  C   LIG d   1      10.702   7.855  -0.229  0.00  0.00     0.158 A 
ATOM     45  H   LIG d   1      12.681   7.280   0.354  0.00  0.00     0.066 H 
ATOM     46  C   LIG d   1       9.581   7.533  -0.994  0.00  0.00     0.159 A 
ATOM     47  C   LIG d   1       9.578   6.387  -1.765  0.00  0.00    -0.006 A 
ATOM     48  H   LIG d   1       8.710   6.135  -2.357  0.00  0.00     0.066 H 
BRANCH  44  49
ATOM     49  O   LIG d   1      10.702   8.982   0.530  0.00  0.00    -0.503 OA
ATOM     50  H   LIG d   1       9.819   9.307   0.751  0.00  0.00     0.292 HD
ENDBRANCH  44  49
BRANCH  46  51
ATOM     51  O   LIG d   1       8.492   8.346  -0.980  0.00  0.00    -0.503 OA
ATOM     52  H   LIG d   1       8.271   8.722  -1.843  0.00  0.00     0.292 HD
ENDBRANCH  46  51
ENDBRANCH   1  40
TORSDOF 11
ENDMDL
MODEL 4
REMARK VINA RESULT:      -6.9      1.907      2.446
REMARK  11 active torsions:
REMARK  status: ('A' for Active; 'I' for Inactive)
REMARK    1  A    between atoms: C_3  and  O_37 
REMARK    2  A    between atoms: C_4  and  O_36 
REMARK    3  A    between atoms: C_6  and  C_7 
REMARK    4  A    between atoms: C_12  and  O_35 
REMARK    5  A    between atoms: C_14  and  O_18 
REMARK    6  A    between atoms: O_18  and  C_19 
REMARK    7  A    between atoms: C_21  and  O_34 
REMARK    8  A    between atoms: C_23  and  O_33 
REMARK    9  A    between atoms: C_25  and  O_32 
REMARK   10  A    between atoms: C_27  and  C_30 
REMARK   11  A    between atoms: C_30  and  O_31 
ROOT
ATOM      1  C   LIG d   1       7.439   0.901  -3.923  0.00  0.00     0.139 A 
ATOM      2  C   LIG d   1       8.273   0.105  -4.646  0.00  0.00     0.029 A 
ATOM      3  C   LIG d   1       9.574   0.564  -4.963  0.00  0.00     0.197 A 
ATOM      4  O   LIG d   1      10.349  -0.123  -5.609  0.00  0.00    -0.287 OA
ATOM      5  C   LIG d   1       9.956   1.903  -4.484  0.00  0.00     0.105 A 
ATOM      6  C   LIG d   1      11.221   2.438  -4.752  0.00  0.00     0.135 A 
ATOM      7  C   LIG d   1      11.540   3.700  -4.284  0.00  0.00     0.023 A 
ATOM      8  C   LIG d   1      10.610   4.430  -3.554  0.00  0.00     0.131 A 
ATOM      9  C   LIG d   1       9.354   3.907  -3.284  0.00  0.00     0.024 A 
ATOM     10  C   LIG d   1       9.017   2.644  -3.745  0.00  0.00     0.146 A 
ATOM     11  O   LIG d   1       7.797   2.122  -3.497  0.00  0.00    -0.454 OA
ATOM     12  H   LIG d   1       7.946  -0.871  -4.974  0.00  0.00     0.069 H 
ATOM     13  H   LIG d   1      12.515   4.119  -4.488  0.00  0.00     0.069 H 
ATOM     14  H   LIG d   1       8.640   4.483  -2.715  0.00  0.00     0.069 H 
ENDROOT
BRANCH   8  15
ATOM     15  O   LIG d   1      10.934   5.667  -3.099  0.00  0.00    -0.461 OA
BRANCH  15  16
ATOM     16  C   LIG d   1       9.859   6.586  -2.895  0.00  0.00     0.231 C 
ATOM     17  H   LIG d   1       8.931   6.147  -3.263  0.00  0.00     0.108 H 
ATOM     18  O   LIG d   1      10.127   7.797  -3.605  0.00  0.00    -0.331 OA
ATOM     19  C   LIG d   1      11.340   8.444  -3.216  0.00  0.00     0.114 C 
ATOM     20  C   LIG d   1      11.264   8.824  -1.735  0.00  0.00     0.112 C 
ATOM     21  H   LIG d   1      12.180   7.768  -3.375  0.00  0.00     0.065 H 
ATOM     22  C   LIG d   1      11.007   7.562  -0.905  0.00  0.00     0.115 C 
ATOM     23  H   LIG d   1      12.205   9.278  -1.426  0.00  0.00     0.065 H 
ATOM     24  C   LIG d   1       9.723   6.891  -1.401  0.00  0.00     0.145 C 
ATOM     25  H   LIG d   1      11.846   6.875  -1.019  0.00  0.00     0.065 H 
ATOM     26  H   LIG d   1       9.563   5.962  -0.853  0.00  0.00     0.068 H 
BRANCH  19  27
ATOM     27  C   LIG d   1      11.537   9.707  -4.057  0.00  0.00     0.073 C 
ATOM     28  H   LIG d   1      12.096  10.445  -3.481  0.00  0.00     0.058 H 
ATOM     29  H   LIG d   1      12.090   9.458  -4.962  0.00  0.00     0.058 H 
BRANCH  27  30
ATOM     30  O   LIG d   1      10.262  10.247  -4.412  0.00  0.00    -0.392 OA
ATOM     31  H   LIG d   1       9.512   9.724  -4.097  0.00  0.00     0.209 HD
ENDBRANCH  27  30
ENDBRANCH  19  27
BRANCH  20  32
ATOM     32  O   LIG d   1      10.197   9.753  -1.533  0.00  0.00    -0.387 OA
ATOM     33  H   LIG d   1       9.328   9.415  -1.785  0.00  0.00     0.210 HD
ENDBRANCH  20  32
BRANCH  22  34
ATOM     34  O   LIG d   1      10.862   7.915   0.471  0.00  0.00    -0.386 OA
ATOM     35  H   LIG d   1      11.699   8.111   0.916  0.00  0.00     0.210 HD
ENDBRANCH  22  34
BRANCH  24  36
ATOM     36  O   LIG d   1       8.614   7.767  -1.191  0.00  0.00    -0.383 OA
ATOM     37  H   LIG d   1       8.737   8.389  -0.460  0.00  0.00     0.210 HD
ENDBRANCH  24  36
ENDBRANCH  15  16
ENDBRANCH   8  15
BRANCH   6  38
ATOM     38  O   LIG d   1      12.129   1.724  -5.464  0.00  0.00    -0.506 OA
ATOM     39  H   LIG d   1      12.093   1.883  -6.418  0.00  0.00     0.292 HD
ENDBRANCH   6  38
BRANCH   1  40
ATOM     40  C   LIG d   1       6.088   0.404  -3.603  0.00  0.00     0.021 A 
ATOM     41  C   LIG d   1       5.298   1.076  -2.666  0.00  0.00    -0.047 A 
ATOM     42  C   LIG d   1       4.036   0.610  -2.369  0.00  0.00    -0.016 A 
ATOM     43  H   LIG d   1       5.676   1.961  -2.178  0.00  0.00     0.063 H 
ATOM     44  C   LIG d   1       3.545  -0.525  -2.999  0.00  0.00     0.158 A 
ATOM     45  H   LIG d   1       3.426   1.130  -1.645  0.00  0.00     0.066 H 
ATOM     46  C   LIG d   1       4.327  -1.201  -3.935  0.00  0.00     0.159 A 
ATOM     47  C   LIG d   1       5.593  -0.740  -4.237  0.00  0.00    -0.006 A 
ATOM     48  H   LIG d   1       6.201  -1.263  -4.961  0.00  0.00     0.066 H 
BRANCH  44  49
ATOM     49  O   LIG d   1       2.299  -0.981  -2.701  0.00  0.00    -0.503 OA
ATOM     50  H   LIG d   1       2.212  -1.943  -2.745  0.00  0.00     0.292 HD
ENDBRANCH  44  49
BRANCH  46  51
ATOM     51  O   LIG d   1       3.843  -2.313  -4.549  0.00  0.00    -0.503 OA
ATOM     52  H   LIG d   1       2.927  -2.521  -4.319  0.00  0.00     0.292 HD
ENDBRANCH  46  51
ENDBRANCH   1  40
TORSDOF 11
ENDMDL
MODEL 5
REMARK VINA RESULT:      -6.7      1.911      2.416
REMARK  11 active torsions:
REMARK  status: ('A' for Active; 'I' for Inactive)
REMARK    1  A    between atoms: C_3  and  O_37 
REMARK    2  A    between atoms: C_4  and  O_36 
REMARK    3  A    between atoms: C_6  and  C_7 
REMARK    4  A    between atoms: C_12  and  O_35 
REMARK    5  A    between atoms: C_14  and  O_18 
REMARK    6  A    between atoms: O_18  and  C_19 
REMARK    7  A    between atoms: C_21  and  O_34 
REMARK    8  A    between atoms: C_23  and  O_33 
REMARK    9  A    between atoms: C_25  and  O_32 
REMARK   10  A    between atoms: C_27  and  C_30 
REMARK   11  A    between atoms: C_30  and  O_31 
ROOT
ATOM      1  C   LIG d   1       7.510   0.853  -3.936  0.00  0.00     0.139 A 
ATOM      2  C   LIG d   1       8.257   0.065  -4.757  0.00  0.00     0.029 A 
ATOM      3  C   LIG d   1       9.582   0.447  -5.074  0.00  0.00     0.197 A 
ATOM      4  O   LIG d   1      10.280  -0.234  -5.807  0.00  0.00    -0.287 OA
ATOM      5  C   LIG d   1      10.085   1.701  -4.487  0.00  0.00     0.105 A 
ATOM      6  C   LIG d   1      11.383   2.157  -4.747  0.00  0.00     0.135 A 
ATOM      7  C   LIG d   1      11.817   3.339  -4.176  0.00  0.00     0.023 A 
ATOM      8  C   LIG d   1      10.969   4.068  -3.350  0.00  0.00     0.131 A 
ATOM      9  C   LIG d   1       9.682   3.623  -3.088  0.00  0.00     0.024 A 
ATOM     10  C   LIG d   1       9.230   2.441  -3.651  0.00  0.00     0.146 A 
ATOM     11  O   LIG d   1       7.978   1.996  -3.412  0.00  0.00    -0.454 OA
ATOM     12  H   LIG d   1       7.842  -0.846  -5.163  0.00  0.00     0.069 H 
ATOM     13  H   LIG d   1      12.817   3.697  -4.372  0.00  0.00     0.069 H 
ATOM     14  H   LIG d   1       9.033   4.198  -2.444  0.00  0.00     0.069 H 
ENDROOT
BRANCH   8  15
ATOM     15  O   LIG d   1      11.405   5.227  -2.794  0.00  0.00    -0.461 OA
BRANCH  15  16
ATOM     16  C   LIG d   1      12.563   5.151  -1.959  0.00  0.00     0.231 C 
ATOM     17  H   LIG d   1      13.064   4.197  -2.120  0.00  0.00     0.108 H 
ATOM     18  O   LIG d   1      12.169   5.259  -0.589  0.00  0.00    -0.331 OA
ATOM     19  C   LIG d   1      11.477   6.469  -0.275  0.00  0.00     0.114 C 
ATOM     20  C   LIG d   1      12.389   7.666  -0.554  0.00  0.00     0.112 C 
ATOM     21  H   LIG d   1      10.579   6.543  -0.889  0.00  0.00     0.065 H 
ATOM     22  C   LIG d   1      12.827   7.632  -2.021  0.00  0.00     0.115 C 
ATOM     23  H   LIG d   1      11.847   8.590  -0.356  0.00  0.00     0.065 H 
ATOM     24  C   LIG d   1      13.519   6.296  -2.306  0.00  0.00     0.145 C 
ATOM     25  H   LIG d   1      11.954   7.736  -2.664  0.00  0.00     0.065 H 
ATOM     26  H   LIG d   1      13.784   6.241  -3.361  0.00  0.00     0.068 H 
BRANCH  19  27
ATOM     27  C   LIG d   1      11.082   6.460   1.204  0.00  0.00     0.073 C 
ATOM     28  H   LIG d   1      11.954   6.698   1.814  0.00  0.00     0.058 H 
ATOM     29  H   LIG d   1      10.304   7.204   1.376  0.00  0.00     0.058 H 
BRANCH  27  30
ATOM     30  O   LIG d   1      10.592   5.166   1.559  0.00  0.00    -0.392 OA
ATOM     31  H   LIG d   1      10.562   4.541   0.822  0.00  0.00     0.209 HD
ENDBRANCH  27  30
ENDBRANCH  19  27
BRANCH  20  32
ATOM     32  O   LIG d   1      13.540   7.597   0.291  0.00  0.00    -0.387 OA
ATOM     33  H   LIG d   1      14.071   6.800   0.167  0.00  0.00     0.210 HD
ENDBRANCH  20  32
BRANCH  22  34
ATOM     34  O   LIG d   1      13.737   8.705  -2.273  0.00  0.00    -0.386 OA
ATOM     35  H   LIG d   1      13.310   9.569  -2.357  0.00  0.00     0.210 HD
ENDBRANCH  22  34
BRANCH  24  36
ATOM     36  O   LIG d   1      14.700   6.189  -1.509  0.00  0.00    -0.383 OA
ATOM     37  H   LIG d   1      14.643   6.647  -0.659  0.00  0.00     0.210 HD
ENDBRANCH  24  36
ENDBRANCH  15  16
ENDBRANCH   8  15
BRANCH   6  38
ATOM     38  O   LIG d   1      12.210   1.443  -5.552  0.00  0.00    -0.506 OA
ATOM     39  H   LIG d   1      11.827   1.224  -6.413  0.00  0.00     0.292 HD
ENDBRANCH   6  38
BRANCH   1  40
ATOM     40  C   LIG d   1       6.131   0.437  -3.618  0.00  0.00     0.021 A 
ATOM     41  C   LIG d   1       5.360   1.190  -2.730  0.00  0.00    -0.047 A 
ATOM     42  C   LIG d   1       4.071   0.800  -2.434  0.00  0.00    -0.016 A 
ATOM     43  H   LIG d   1       5.771   2.080  -2.278  0.00  0.00     0.063 H 
ATOM     44  C   LIG d   1       3.537  -0.340  -3.017  0.00  0.00     0.158 A 
ATOM     45  H   LIG d   1       3.476   1.384  -1.747  0.00  0.00     0.066 H 
ATOM     46  C   LIG d   1       4.300  -1.097  -3.904  0.00  0.00     0.159 A 
ATOM     47  C   LIG d   1       5.593  -0.712  -4.205  0.00  0.00    -0.006 A 
ATOM     48  H   LIG d   1       6.186  -1.298  -4.891  0.00  0.00     0.066 H 
BRANCH  44  49
ATOM     49  O   LIG d   1       2.266  -0.721  -2.721  0.00  0.00    -0.503 OA
ATOM     50  H   LIG d   1       2.134  -1.679  -2.720  0.00  0.00     0.292 HD
ENDBRANCH  44  49
BRANCH  46  51
ATOM     51  O   LIG d   1       3.774  -2.214  -4.473  0.00  0.00    -0.503 OA
ATOM     52  H   LIG d   1       2.845  -2.368  -4.251  0.00  0.00     0.292 HD
ENDBRANCH  46  51
ENDBRANCH   1  40
TORSDOF 11
ENDMDL
MODEL 6
REMARK VINA RESULT:      -6.7      3.625      9.370
REMARK  11 active torsions:
REMARK  status: ('A' for Active; 'I' for Inactive)
REMARK    1  A    between atoms: C_3  and  O_37 
REMARK    2  A    between atoms: C_4  and  O_36 
REMARK    3  A    between atoms: C_6  and  C_7 
REMARK    4  A    between atoms: C_12  and  O_35 
REMARK    5  A    between atoms: C_14  and  O_18 
REMARK    6  A    between atoms: O_18  and  C_19 
REMARK    7  A    between atoms: C_21  and  O_34 
REMARK    8  A    between atoms: C_23  and  O_33 
REMARK    9  A    between atoms: C_25  and  O_32 
REMARK   10  A    between atoms: C_27  and  C_30 
REMARK   11  A    between atoms: C_30  and  O_31 
ROOT
ATOM      1  C   LIG d   1       9.814   4.174  -7.630  0.00  0.00     0.139 A 
ATOM      2  C   LIG d   1      10.273   4.850  -6.542  0.00  0.00     0.029 A 
ATOM      3  C   LIG d   1       9.999   4.353  -5.246  0.00  0.00     0.197 A 
ATOM      4  O   LIG d   1      10.395   4.934  -4.248  0.00  0.00    -0.287 OA
ATOM      5  C   LIG d   1       9.216   3.110  -5.147  0.00  0.00     0.105 A 
ATOM      6  C   LIG d   1       8.897   2.548  -3.906  0.00  0.00     0.135 A 
ATOM      7  C   LIG d   1       8.160   1.378  -3.857  0.00  0.00     0.023 A 
ATOM      8  C   LIG d   1       7.739   0.768  -5.032  0.00  0.00     0.131 A 
ATOM      9  C   LIG d   1       8.051   1.320  -6.266  0.00  0.00     0.024 A 
ATOM     10  C   LIG d   1       8.790   2.491  -6.335  0.00  0.00     0.146 A 
ATOM     11  O   LIG d   1       9.097   3.045  -7.527  0.00  0.00    -0.454 OA
ATOM     12  H   LIG d   1      10.844   5.759  -6.667  0.00  0.00     0.069 H 
ATOM     13  H   LIG d   1       7.910   0.939  -2.902  0.00  0.00     0.069 H 
ATOM     14  H   LIG d   1       7.720   0.836  -7.173  0.00  0.00     0.069 H 
ENDROOT
BRANCH   8  15
ATOM     15  O   LIG d   1       7.017  -0.379  -4.973  0.00  0.00    -0.461 OA
BRANCH  15  16
ATOM     16  C   LIG d   1       5.678  -0.330  -5.471  0.00  0.00     0.231 C 
ATOM     17  H   LIG d   1       5.664   0.204  -6.421  0.00  0.00     0.108 H 
ATOM     18  O   LIG d   1       4.846   0.351  -4.529  0.00  0.00    -0.331 OA
ATOM     19  C   LIG d   1       4.814  -0.254  -3.235  0.00  0.00     0.114 C 
ATOM     20  C   LIG d   1       4.257  -1.676  -3.350  0.00  0.00     0.112 C 
ATOM     21  H   LIG d   1       5.824  -0.291  -2.826  0.00  0.00     0.065 H 
ATOM     22  C   LIG d   1       5.123  -2.477  -4.326  0.00  0.00     0.115 C 
ATOM     23  H   LIG d   1       4.273  -2.153  -2.371  0.00  0.00     0.065 H 
ATOM     24  C   LIG d   1       5.156  -1.754  -5.676  0.00  0.00     0.145 C 
ATOM     25  H   LIG d   1       6.136  -2.559  -3.930  0.00  0.00     0.065 H 
ATOM     26  H   LIG d   1       5.816  -2.289  -6.359  0.00  0.00     0.068 H 
BRANCH  19  27
ATOM     27  C   LIG d   1       3.919   0.572  -2.308  0.00  0.00     0.073 C 
ATOM     28  H   LIG d   1       3.390   1.326  -2.891  0.00  0.00     0.058 H 
ATOM     29  H   LIG d   1       3.196  -0.084  -1.823  0.00  0.00     0.058 H 
BRANCH  27  30
ATOM     30  O   LIG d   1       4.722   1.213  -1.316  0.00  0.00    -0.392 OA
ATOM     31  H   LIG d   1       5.616   0.851  -1.239  0.00  0.00     0.209 HD
ENDBRANCH  27  30
ENDBRANCH  19  27
BRANCH  20  32
ATOM     32  O   LIG d   1       2.913  -1.625  -3.834  0.00  0.00    -0.387 OA
ATOM     33  H   LIG d   1       2.329  -2.287  -3.441  0.00  0.00     0.210 HD
ENDBRANCH  20  32
BRANCH  22  34
ATOM     34  O   LIG d   1       4.570  -3.783  -4.495  0.00  0.00    -0.386 OA
ATOM     35  H   LIG d   1       4.615  -4.334  -3.702  0.00  0.00     0.210 HD
ENDBRANCH  22  34
BRANCH  24  36
ATOM     36  O   LIG d   1       3.838  -1.705  -6.223  0.00  0.00    -0.383 OA
ATOM     37  H   LIG d   1       3.185  -1.291  -5.641  0.00  0.00     0.210 HD
ENDBRANCH  24  36
ENDBRANCH  15  16
ENDBRANCH   8  15
BRANCH   6  38
ATOM     38  O   LIG d   1       9.310   3.144  -2.759  0.00  0.00    -0.506 OA
ATOM     39  H   LIG d   1       9.784   3.976  -2.896  0.00  0.00     0.292 HD
ENDBRANCH   6  38
BRANCH   1  40
ATOM     40  C   LIG d   1      10.110   4.708  -8.973  0.00  0.00     0.021 A 
ATOM     41  C   LIG d   1      11.405   4.621  -9.491  0.00  0.00    -0.047 A 
ATOM     42  C   LIG d   1      11.679   5.120 -10.746  0.00  0.00    -0.016 A 
ATOM     43  H   LIG d   1      12.189   4.160  -8.910  0.00  0.00     0.063 H 
ATOM     44  C   LIG d   1      10.672   5.708 -11.498  0.00  0.00     0.158 A 
ATOM     45  H   LIG d   1      12.680   5.053 -11.146  0.00  0.00     0.066 H 
ATOM     46  C   LIG d   1       9.378   5.798 -10.988  0.00  0.00     0.159 A 
ATOM     47  C   LIG d   1       9.096   5.301  -9.730  0.00  0.00    -0.006 A 
ATOM     48  H   LIG d   1       8.094   5.370  -9.333  0.00  0.00     0.066 H 
BRANCH  44  49
ATOM     49  O   LIG d   1      10.948   6.200 -12.735  0.00  0.00    -0.503 OA
ATOM     50  H   LIG d   1      11.262   7.114 -12.733  0.00  0.00     0.292 HD
ENDBRANCH  44  49
BRANCH  46  51
ATOM     51  O   LIG d   1       8.394   6.376 -11.727  0.00  0.00    -0.503 OA
ATOM     52  H   LIG d   1       8.718   6.893 -12.477  0.00  0.00     0.292 HD
ENDBRANCH  46  51
ENDBRANCH   1  40
TORSDOF 11
ENDMDL
MODEL 7
REMARK VINA RESULT:      -6.6      3.597      8.897
REMARK  11 active torsions:
REMARK  status: ('A' for Active; 'I' for Inactive)
REMARK    1  A    between atoms: C_3  and  O_37 
REMARK    2  A    between atoms: C_4  and  O_36 
REMARK    3  A    between atoms: C_6  and  C_7 
REMARK    4  A    between atoms: C_12  and  O_35 
REMARK    5  A    between atoms: C_14  and  O_18 
REMARK    6  A    between atoms: O_18  and  C_19 
REMARK    7  A    between atoms: C_21  and  O_34 
REMARK    8  A    between atoms: C_23  and  O_33 
REMARK    9  A    between atoms: C_25  and  O_32 
REMARK   10  A    between atoms: C_27  and  C_30 
REMARK   11  A    between atoms: C_30  and  O_31 
ROOT
ATOM      1  C   LIG d   1      10.014   4.345  -6.260  0.00  0.00     0.139 A 
ATOM      2  C   LIG d   1      11.229   3.806  -6.554  0.00  0.00     0.029 A 
ATOM      3  C   LIG d   1      11.442   2.420  -6.361  0.00  0.00     0.197 A 
ATOM      4  O   LIG d   1      12.518   1.903  -6.613  0.00  0.00    -0.287 OA
ATOM      5  C   LIG d   1      10.316   1.627  -5.841  0.00  0.00     0.105 A 
ATOM      6  C   LIG d   1      10.437   0.250  -5.618  0.00  0.00     0.135 A 
ATOM      7  C   LIG d   1       9.355  -0.459  -5.128  0.00  0.00     0.023 A 
ATOM      8  C   LIG d   1       8.157   0.192  -4.861  0.00  0.00     0.131 A 
ATOM      9  C   LIG d   1       8.029   1.556  -5.079  0.00  0.00     0.024 A 
ATOM     10  C   LIG d   1       9.102   2.283  -5.569  0.00  0.00     0.146 A 
ATOM     11  O   LIG d   1       8.997   3.612  -5.782  0.00  0.00    -0.454 OA
ATOM     12  H   LIG d   1      12.024   4.431  -6.934  0.00  0.00     0.069 H 
ATOM     13  H   LIG d   1       9.443  -1.521  -4.954  0.00  0.00     0.069 H 
ATOM     14  H   LIG d   1       7.093   2.051  -4.868  0.00  0.00     0.069 H 
ENDROOT
BRANCH   8  15
ATOM     15  O   LIG d   1       7.101  -0.513  -4.382  0.00  0.00    -0.461 OA
BRANCH  15  16
ATOM     16  C   LIG d   1       5.869  -0.404  -5.097  0.00  0.00     0.231 C 
ATOM     17  H   LIG d   1       6.068  -0.057  -6.111  0.00  0.00     0.108 H 
ATOM     18  O   LIG d   1       5.014   0.529  -4.433  0.00  0.00    -0.331 OA
ATOM     19  C   LIG d   1       4.710   0.180  -3.081  0.00  0.00     0.114 C 
ATOM     20  C   LIG d   1       3.980  -1.165  -3.053  0.00  0.00     0.112 C 
ATOM     21  H   LIG d   1       5.634   0.105  -2.508  0.00  0.00     0.065 H 
ATOM     22  C   LIG d   1       4.856  -2.226  -3.725  0.00  0.00     0.115 C 
ATOM     23  H   LIG d   1       3.786  -1.453  -2.020  0.00  0.00     0.065 H 
ATOM     24  C   LIG d   1       5.186  -1.773  -5.151  0.00  0.00     0.145 C 
ATOM     25  H   LIG d   1       5.779  -2.348  -3.158  0.00  0.00     0.065 H 
ATOM     26  H   LIG d   1       5.855  -2.496  -5.617  0.00  0.00     0.068 H 
BRANCH  19  27
ATOM     27  C   LIG d   1       3.816   1.259  -2.465  0.00  0.00     0.073 C 
ATOM     28  H   LIG d   1       2.947   0.791  -2.003  0.00  0.00     0.058 H 
ATOM     29  H   LIG d   1       4.378   1.808  -1.709  0.00  0.00     0.058 H 
BRANCH  27  30
ATOM     30  O   LIG d   1       3.384   2.160  -3.486  0.00  0.00    -0.392 OA
ATOM     31  H   LIG d   1       3.763   1.979  -4.357  0.00  0.00     0.209 HD
ENDBRANCH  27  30
ENDBRANCH  19  27
BRANCH  20  32
ATOM     32  O   LIG d   1       2.741  -1.052  -3.757  0.00  0.00    -0.387 OA
ATOM     33  H   LIG d   1       2.215  -0.281  -3.506  0.00  0.00     0.210 HD
ENDBRANCH  20  32
BRANCH  22  34
ATOM     34  O   LIG d   1       4.154  -3.470  -3.768  0.00  0.00    -0.386 OA
ATOM     35  H   LIG d   1       4.548  -4.122  -4.364  0.00  0.00     0.210 HD
ENDBRANCH  22  34
BRANCH  24  36
ATOM     36  O   LIG d   1       3.981  -1.676  -5.912  0.00  0.00    -0.383 OA
ATOM     37  H   LIG d   1       3.321  -2.349  -5.692  0.00  0.00     0.210 HD
ENDBRANCH  24  36
ENDBRANCH  15  16
ENDBRANCH   8  15
BRANCH   6  38
ATOM     38  O   LIG d   1      11.607  -0.384  -5.880  0.00  0.00    -0.506 OA
ATOM     39  H   LIG d   1      11.522  -1.344  -5.970  0.00  0.00     0.292 HD
ENDBRANCH   6  38
BRANCH   1  40
ATOM     40  C   LIG d   1       9.811   5.791  -6.469  0.00  0.00     0.021 A 
ATOM     41  C   LIG d   1       9.812   6.319  -7.762  0.00  0.00    -0.047 A 
ATOM     42  C   LIG d   1       9.622   7.670  -7.955  0.00  0.00    -0.016 A 
ATOM     43  H   LIG d   1       9.958   5.668  -8.611  0.00  0.00     0.063 H 
ATOM     44  C   LIG d   1       9.429   8.509  -6.867  0.00  0.00     0.158 A 
ATOM     45  H   LIG d   1       9.623   8.077  -8.955  0.00  0.00     0.066 H 
ATOM     46  C   LIG d   1       9.427   7.989  -5.573  0.00  0.00     0.159 A 
ATOM     47  C   LIG d   1       9.617   6.636  -5.373  0.00  0.00    -0.006 A 
ATOM     48  H   LIG d   1       9.617   6.232  -4.371  0.00  0.00     0.066 H 
BRANCH  44  49
ATOM     49  O   LIG d   1       9.243   9.841  -7.062  0.00  0.00    -0.503 OA
ATOM     50  H   LIG d   1       9.994  10.387  -6.789  0.00  0.00     0.292 HD
ENDBRANCH  44  49
BRANCH  46  51
ATOM     51  O   LIG d   1       9.238   8.814  -4.509  0.00  0.00    -0.503 OA
ATOM     52  H   LIG d   1       8.327   9.121  -4.406  0.00  0.00     0.292 HD
ENDBRANCH  46  51
ENDBRANCH   1  40
TORSDOF 11
ENDMDL
MODEL 8
REMARK VINA RESULT:      -6.6      3.140      8.937
REMARK  11 active torsions:
REMARK  status: ('A' for Active; 'I' for Inactive)
REMARK    1  A    between atoms: C_3  and  O_37 
REMARK    2  A    between atoms: C_4  and  O_36 
REMARK    3  A    between atoms: C_6  and  C_7 
REMARK    4  A    between atoms: C_12  and  O_35 
REMARK    5  A    between atoms: C_14  and  O_18 
REMARK    6  A    between atoms: O_18  and  C_19 
REMARK    7  A    between atoms: C_21  and  O_34 
REMARK    8  A    between atoms: C_23  and  O_33 
REMARK    9  A    between atoms: C_25  and  O_32 
REMARK   10  A    between atoms: C_27  and  C_30 
REMARK   11  A    between atoms: C_30  and  O_31 
ROOT
ATOM      1  C   LIG d   1       9.988   5.913  -6.702  0.00  0.00     0.139 A 
ATOM      2  C   LIG d   1      10.539   6.522  -5.617  0.00  0.00     0.029 A 
ATOM      3  C   LIG d   1      10.592   5.831  -4.382  0.00  0.00     0.197 A 
ATOM      4  O   LIG d   1      11.078   6.346  -3.388  0.00  0.00    -0.287 OA
ATOM      5  C   LIG d   1      10.036   4.468  -4.343  0.00  0.00     0.105 A 
ATOM      6  C   LIG d   1      10.045   3.712  -3.165  0.00  0.00     0.135 A 
ATOM      7  C   LIG d   1       9.513   2.436  -3.170  0.00  0.00     0.023 A 
ATOM      8  C   LIG d   1       8.973   1.909  -4.337  0.00  0.00     0.131 A 
ATOM      9  C   LIG d   1       8.961   2.652  -5.509  0.00  0.00     0.024 A 
ATOM     10  C   LIG d   1       9.490   3.933  -5.522  0.00  0.00     0.146 A 
ATOM     11  O   LIG d   1       9.480   4.672  -6.652  0.00  0.00    -0.454 OA
ATOM     12  H   LIG d   1      10.934   7.524  -5.697  0.00  0.00     0.069 H 
ATOM     13  H   LIG d   1       9.516   1.848  -2.264  0.00  0.00     0.069 H 
ATOM     14  H   LIG d   1       8.540   2.231  -6.410  0.00  0.00     0.069 H 
ENDROOT
BRANCH   8  15
ATOM     15  O   LIG d   1       8.455   0.655  -4.332  0.00  0.00    -0.461 OA
BRANCH  15  16
ATOM     16  C   LIG d   1       7.235   0.454  -5.049  0.00  0.00     0.231 C 
ATOM     17  H   LIG d   1       7.291   0.965  -6.010  0.00  0.00     0.108 H 
ATOM     18  O   LIG d   1       6.145   0.981  -4.290  0.00  0.00    -0.331 OA
ATOM     19  C   LIG d   1       5.997   0.395  -2.996  0.00  0.00     0.114 C 
ATOM     20  C   LIG d   1       5.731  -1.105  -3.143  0.00  0.00     0.112 C 
ATOM     21  H   LIG d   1       6.911   0.548  -2.422  0.00  0.00     0.065 H 
ATOM     22  C   LIG d   1       6.881  -1.746  -3.924  0.00  0.00     0.115 C 
ATOM     23  H   LIG d   1       5.661  -1.561  -2.156  0.00  0.00     0.065 H 
ATOM     24  C   LIG d   1       7.018  -1.044  -5.279  0.00  0.00     0.145 C 
ATOM     25  H   LIG d   1       7.808  -1.637  -3.361  0.00  0.00     0.065 H 
ATOM     26  H   LIG d   1       7.870  -1.457  -5.818  0.00  0.00     0.068 H 
BRANCH  19  27
ATOM     27  C   LIG d   1       4.823   1.054  -2.268  0.00  0.00     0.073 C 
ATOM     28  H   LIG d   1       4.274   0.298  -1.705  0.00  0.00     0.058 H 
ATOM     29  H   LIG d   1       5.200   1.814  -1.584  0.00  0.00     0.058 H 
BRANCH  27  30
ATOM     30  O   LIG d   1       3.951   1.662  -3.223  0.00  0.00    -0.392 OA
ATOM     31  H   LIG d   1       4.304   2.471  -3.618  0.00  0.00     0.209 HD
ENDBRANCH  27  30
ENDBRANCH  19  27
BRANCH  20  32
ATOM     32  O   LIG d   1       4.504  -1.306  -3.848  0.00  0.00    -0.387 OA
ATOM     33  H   LIG d   1       4.445  -0.820  -4.681  0.00  0.00     0.210 HD
ENDBRANCH  20  32
BRANCH  22  34
ATOM     34  O   LIG d   1       6.607  -3.133  -4.129  0.00  0.00    -0.386 OA
ATOM     35  H   LIG d   1       6.530  -3.643  -3.311  0.00  0.00     0.210 HD
ENDBRANCH  22  34
BRANCH  24  36
ATOM     36  O   LIG d   1       5.827  -1.243  -6.042  0.00  0.00    -0.383 OA
ATOM     37  H   LIG d   1       5.180  -1.824  -5.618  0.00  0.00     0.210 HD
ENDBRANCH  24  36
ENDBRANCH  15  16
ENDBRANCH   8  15
BRANCH   6  38
ATOM     38  O   LIG d   1      10.573   4.227  -2.026  0.00  0.00    -0.506 OA
ATOM     39  H   LIG d   1       9.912   4.529  -1.387  0.00  0.00     0.292 HD
ENDBRANCH   6  38
BRANCH   1  40
ATOM     40  C   LIG d   1       9.942   6.649  -7.979  0.00  0.00     0.021 A 
ATOM     41  C   LIG d   1      10.588   7.882  -8.101  0.00  0.00    -0.047 A 
ATOM     42  C   LIG d   1      10.544   8.567  -9.296  0.00  0.00    -0.016 A 
ATOM     43  H   LIG d   1      11.124   8.296  -7.261  0.00  0.00     0.063 H 
ATOM     44  C   LIG d   1       9.860   8.035 -10.380  0.00  0.00     0.158 A 
ATOM     45  H   LIG d   1      11.043   9.520  -9.389  0.00  0.00     0.066 H 
ATOM     46  C   LIG d   1       9.214   6.805 -10.267  0.00  0.00     0.159 A 
ATOM     47  C   LIG d   1       9.253   6.113  -9.072  0.00  0.00    -0.006 A 
ATOM     48  H   LIG d   1       8.752   5.160  -8.981  0.00  0.00     0.066 H 
BRANCH  44  49
ATOM     49  O   LIG d   1       9.819   8.716 -11.556  0.00  0.00    -0.503 OA
ATOM     50  H   LIG d   1       9.623   8.161 -12.324  0.00  0.00     0.292 HD
ENDBRANCH  44  49
BRANCH  46  51
ATOM     51  O   LIG d   1       8.544   6.288 -11.330  0.00  0.00    -0.503 OA
ATOM     52  H   LIG d   1       8.327   6.938 -12.012  0.00  0.00     0.292 HD
ENDBRANCH  46  51
ENDBRANCH   1  40
TORSDOF 11
ENDMDL
MODEL 9
REMARK VINA RESULT:      -6.5      3.197      9.237
REMARK  11 active torsions:
REMARK  status: ('A' for Active; 'I' for Inactive)
REMARK    1  A    between atoms: C_3  and  O_37 
REMARK    2  A    between atoms: C_4  and  O_36 
REMARK    3  A    between atoms: C_6  and  C_7 
REMARK    4  A    between atoms: C_12  and  O_35 
REMARK    5  A    between atoms: C_14  and  O_18 
REMARK    6  A    between atoms: O_18  and  C_19 
REMARK    7  A    between atoms: C_21  and  O_34 
REMARK    8  A    between atoms: C_23  and  O_33 
REMARK    9  A    between atoms: C_25  and  O_32 
REMARK   10  A    between atoms: C_27  and  C_30 
REMARK   11  A    between atoms: C_30  and  O_31 
ROOT
ATOM      1  C   LIG d   1      10.002   5.242  -6.566  0.00  0.00     0.139 A 
ATOM      2  C   LIG d   1      10.825   5.508  -5.516  0.00  0.00     0.029 A 
ATOM      3  C   LIG d   1      10.847   4.629  -4.407  0.00  0.00     0.197 A 
ATOM      4  O   LIG d   1      11.573   4.837  -3.448  0.00  0.00    -0.287 OA
ATOM      5  C   LIG d   1       9.960   3.455  -4.455  0.00  0.00     0.105 A 
ATOM      6  C   LIG d   1       9.915   2.533  -3.402  0.00  0.00     0.135 A 
ATOM      7  C   LIG d   1       9.068   1.443  -3.486  0.00  0.00     0.023 A 
ATOM      8  C   LIG d   1       8.267   1.266  -4.608  0.00  0.00     0.131 A 
ATOM      9  C   LIG d   1       8.305   2.175  -5.655  0.00  0.00     0.024 A 
ATOM     10  C   LIG d   1       9.148   3.273  -5.588  0.00  0.00     0.146 A 
ATOM     11  O   LIG d   1       9.194   4.171  -6.596  0.00  0.00    -0.454 OA
ATOM     12  H   LIG d   1      11.458   6.383  -5.529  0.00  0.00     0.069 H 
ATOM     13  H   LIG d   1       9.029   0.729  -2.677  0.00  0.00     0.069 H 
ATOM     14  H   LIG d   1       7.679   2.027  -6.521  0.00  0.00     0.069 H 
ENDROOT
BRANCH   8  15
ATOM     15  O   LIG d   1       7.439   0.193  -4.680  0.00  0.00    -0.461 OA
BRANCH  15  16
ATOM     16  C   LIG d   1       6.833  -0.243  -3.462  0.00  0.00     0.231 C 
ATOM     17  H   LIG d   1       7.532  -0.101  -2.637  0.00  0.00     0.108 H 
ATOM     18  O   LIG d   1       6.495  -1.628  -3.567  0.00  0.00    -0.331 OA
ATOM     19  C   LIG d   1       5.599  -1.929  -4.639  0.00  0.00     0.114 C 
ATOM     20  C   LIG d   1       4.280  -1.181  -4.427  0.00  0.00     0.112 C 
ATOM     21  H   LIG d   1       6.046  -1.619  -5.584  0.00  0.00     0.065 H 
ATOM     22  C   LIG d   1       4.564   0.321  -4.334  0.00  0.00     0.115 C 
ATOM     23  H   LIG d   1       3.612  -1.376  -5.265  0.00  0.00     0.065 H 
ATOM     24  C   LIG d   1       5.564   0.573  -3.202  0.00  0.00     0.145 C 
ATOM     25  H   LIG d   1       4.984   0.670  -5.278  0.00  0.00     0.065 H 
ATOM     26  H   LIG d   1       5.813   1.633  -3.166  0.00  0.00     0.068 H 
BRANCH  19  27
ATOM     27  C   LIG d   1       5.333  -3.436  -4.672  0.00  0.00     0.073 C 
ATOM     28  H   LIG d   1       6.120  -3.931  -5.241  0.00  0.00     0.058 H 
ATOM     29  H   LIG d   1       5.322  -3.824  -3.654  0.00  0.00     0.058 H 
BRANCH  27  30
ATOM     30  O   LIG d   1       4.069  -3.684  -5.291  0.00  0.00    -0.392 OA
ATOM     31  H   LIG d   1       3.419  -2.982  -5.151  0.00  0.00     0.209 HD
ENDBRANCH  27  30
ENDBRANCH  19  27
BRANCH  20  32
ATOM     32  O   LIG d   1       3.667  -1.627  -3.215  0.00  0.00    -0.387 OA
ATOM     33  H   LIG d   1       4.042  -1.233  -2.416  0.00  0.00     0.210 HD
ENDBRANCH  20  32
BRANCH  22  34
ATOM     34  O   LIG d   1       3.348   1.022  -4.064  0.00  0.00    -0.386 OA
ATOM     35  H   LIG d   1       3.328   1.922  -4.417  0.00  0.00     0.210 HD
ENDBRANCH  22  34
BRANCH  24  36
ATOM     36  O   LIG d   1       4.986   0.174  -1.958  0.00  0.00    -0.383 OA
ATOM     37  H   LIG d   1       4.369   0.820  -1.586  0.00  0.00     0.210 HD
ENDBRANCH  24  36
ENDBRANCH  15  16
ENDBRANCH   8  15
BRANCH   6  38
ATOM     38  O   LIG d   1      10.699   2.707  -2.308  0.00  0.00    -0.506 OA
ATOM     39  H   LIG d   1      10.529   2.072  -1.598  0.00  0.00     0.292 HD
ENDBRANCH   6  38
BRANCH   1  40
ATOM     40  C   LIG d   1       9.993   6.170  -7.713  0.00  0.00     0.021 A 
ATOM     41  C   LIG d   1      10.706   5.857  -8.873  0.00  0.00    -0.047 A 
ATOM     42  C   LIG d   1      10.696   6.725  -9.943  0.00  0.00    -0.016 A 
ATOM     43  H   LIG d   1      11.261   4.933  -8.933  0.00  0.00     0.063 H 
ATOM     44  C   LIG d   1       9.978   7.911  -9.872  0.00  0.00     0.158 A 
ATOM     45  H   LIG d   1      11.247   6.482 -10.840  0.00  0.00     0.066 H 
ATOM     46  C   LIG d   1       9.265   8.231  -8.717  0.00  0.00     0.159 A 
ATOM     47  C   LIG d   1       9.272   7.365  -7.641  0.00  0.00    -0.006 A 
ATOM     48  H   LIG d   1       8.720   7.611  -6.745  0.00  0.00     0.066 H 
BRANCH  44  49
ATOM     49  O   LIG d   1       9.973   8.765 -10.929  0.00  0.00    -0.503 OA
ATOM     50  H   LIG d   1      10.690   8.614 -11.560  0.00  0.00     0.292 HD
ENDBRANCH  44  49
BRANCH  46  51
ATOM     51  O   LIG d   1       8.565   9.394  -8.651  0.00  0.00    -0.503 OA
ATOM     52  H   LIG d   1       8.638   9.943  -9.443  0.00  0.00     0.292 HD
ENDBRANCH  46  51
ENDBRANCH   1  40
TORSDOF 11
ENDMDL
MODEL 10
REMARK VINA RESULT:      -6.5      1.742      8.680
REMARK  11 active torsions:
REMARK  status: ('A' for Active; 'I' for Inactive)
REMARK    1  A    between atoms: C_3  and  O_37 
REMARK    2  A    between atoms: C_4  and  O_36 
REMARK    3  A    between atoms: C_6  and  C_7 
REMARK    4  A    between atoms: C_12  and  O_35 
REMARK    5  A    between atoms: C_14  and  O_18 
REMARK    6  A    between atoms: O_18  and  C_19 
REMARK    7  A    between atoms: C_21  and  O_34 
REMARK    8  A    between atoms: C_23  and  O_33 
REMARK    9  A    between atoms: C_25  and  O_32 
REMARK   10  A    between atoms: C_27  and  C_30 
REMARK   11  A    between atoms: C_30  and  O_31 
ROOT
ATOM      1  C   LIG d   1      10.589   5.278  -2.780  0.00  0.00     0.139 A 
ATOM      2  C   LIG d   1      11.308   5.624  -3.881  0.00  0.00     0.029 A 
ATOM      3  C   LIG d   1      11.073   4.956  -5.106  0.00  0.00     0.197 A 
ATOM      4  O   LIG d   1      11.700   5.240  -6.114  0.00  0.00    -0.287 OA
ATOM      5  C   LIG d   1      10.045   3.902  -5.117  0.00  0.00     0.105 A 
ATOM      6  C   LIG d   1       9.747   3.188  -6.284  0.00  0.00     0.135 A 
ATOM      7  C   LIG d   1       8.773   2.206  -6.252  0.00  0.00     0.023 A 
ATOM      8  C   LIG d   1       8.097   1.931  -5.069  0.00  0.00     0.131 A 
ATOM      9  C   LIG d   1       8.387   2.634  -3.909  0.00  0.00     0.024 A 
ATOM     10  C   LIG d   1       9.359   3.622  -3.922  0.00  0.00     0.146 A 
ATOM     11  O   LIG d   1       9.658   4.312  -2.801  0.00  0.00    -0.454 OA
ATOM     12  H   LIG d   1      12.052   6.405  -3.822  0.00  0.00     0.069 H 
ATOM     13  H   LIG d   1       8.539   1.651  -7.148  0.00  0.00     0.069 H 
ATOM     14  H   LIG d   1       7.854   2.412  -2.996  0.00  0.00     0.069 H 
ENDROOT
BRANCH   8  15
ATOM     15  O   LIG d   1       7.143   0.966  -5.049  0.00  0.00    -0.461 OA
BRANCH  15  16
ATOM     16  C   LIG d   1       6.720   0.498  -3.766  0.00  0.00     0.231 C 
ATOM     17  H   LIG d   1       7.060   1.192  -2.997  0.00  0.00     0.108 H 
ATOM     18  O   LIG d   1       7.278  -0.795  -3.524  0.00  0.00    -0.331 OA
ATOM     19  C   LIG d   1       6.914  -1.779  -4.494  0.00  0.00     0.114 C 
ATOM     20  C   LIG d   1       5.394  -1.960  -4.491  0.00  0.00     0.112 C 
ATOM     21  H   LIG d   1       7.240  -1.452  -5.482  0.00  0.00     0.065 H 
ATOM     22  C   LIG d   1       4.726  -0.612  -4.777  0.00  0.00     0.115 C 
ATOM     23  H   LIG d   1       5.112  -2.678  -5.261  0.00  0.00     0.065 H 
ATOM     24  C   LIG d   1       5.192   0.408  -3.734  0.00  0.00     0.145 C 
ATOM     25  H   LIG d   1       5.008  -0.271  -5.773  0.00  0.00     0.065 H 
ATOM     26  H   LIG d   1       4.765   1.384  -3.964  0.00  0.00     0.068 H 
BRANCH  19  27
ATOM     27  C   LIG d   1       7.589  -3.108  -4.150  0.00  0.00     0.073 C 
ATOM     28  H   LIG d   1       6.831  -3.833  -3.851  0.00  0.00     0.058 H 
ATOM     29  H   LIG d   1       8.124  -3.481  -5.023  0.00  0.00     0.058 H 
BRANCH  27  30
ATOM     30  O   LIG d   1       8.509  -2.912  -3.075  0.00  0.00    -0.392 OA
ATOM     31  H   LIG d   1       8.087  -2.772  -2.216  0.00  0.00     0.209 HD
ENDBRANCH  27  30
ENDBRANCH  19  27
BRANCH  20  32
ATOM     32  O   LIG d   1       4.973  -2.441  -3.213  0.00  0.00    -0.387 OA
ATOM     33  H   LIG d   1       5.313  -1.928  -2.468  0.00  0.00     0.210 HD
ENDBRANCH  20  32
BRANCH  22  34
ATOM     34  O   LIG d   1       3.307  -0.756  -4.705  0.00  0.00    -0.386 OA
ATOM     35  H   LIG d   1       2.969  -1.542  -5.157  0.00  0.00     0.210 HD
ENDBRANCH  22  34
BRANCH  24  36
ATOM     36  O   LIG d   1       4.766  -0.008  -2.436  0.00  0.00    -0.383 OA
ATOM     37  H   LIG d   1       4.431  -0.915  -2.403  0.00  0.00     0.210 HD
ENDBRANCH  24  36
ENDBRANCH  15  16
ENDBRANCH   8  15
BRANCH   6  38
ATOM     38  O   LIG d   1      10.407   3.458  -7.438  0.00  0.00    -0.506 OA
ATOM     39  H   LIG d   1      11.316   3.763  -7.309  0.00  0.00     0.292 HD
ENDBRANCH   6  38
BRANCH   1  40
ATOM     40  C   LIG d   1      10.849   5.986  -1.512  0.00  0.00     0.021 A 
ATOM     41  C   LIG d   1      11.197   7.339  -1.525  0.00  0.00    -0.047 A 
ATOM     42  C   LIG d   1      11.439   7.999  -0.339  0.00  0.00    -0.016 A 
ATOM     43  H   LIG d   1      11.274   7.868  -2.462  0.00  0.00     0.063 H 
ATOM     44  C   LIG d   1      11.336   7.323   0.869  0.00  0.00     0.158 A 
ATOM     45  H   LIG d   1      11.709   9.045  -0.350  0.00  0.00     0.066 H 
ATOM     46  C   LIG d   1      10.989   5.973   0.889  0.00  0.00     0.159 A 
ATOM     47  C   LIG d   1      10.746   5.305  -0.295  0.00  0.00    -0.006 A 
ATOM     48  H   LIG d   1      10.478   4.259  -0.281  0.00  0.00     0.066 H 
BRANCH  44  49
ATOM     49  O   LIG d   1      11.577   7.979   2.035  0.00  0.00    -0.503 OA
ATOM     50  H   LIG d   1      12.153   8.749   1.941  0.00  0.00     0.292 HD
ENDBRANCH  44  49
BRANCH  46  51
ATOM     51  O   LIG d   1      10.890   5.314   2.074  0.00  0.00    -0.503 OA
ATOM     52  H   LIG d   1      10.725   4.366   1.984  0.00  0.00     0.292 HD
ENDBRANCH  46  51
ENDBRANCH   1  40
TORSDOF 11
ENDMDL
