MODEL 1
REMARK VINA RESULT:      -6.6      0.000      0.000
REMARK  10 active torsions:
REMARK  status: ('A' for Active; 'I' for Inactive)
REMARK    1  A    between atoms: C_1  and  O_2 
REMARK    2  A    between atoms: O_2  and  C_3 
REMARK    3  A    between atoms: C_3  and  C_4 
REMARK       I    between atoms: N_9  and  C_10 
REMARK    4  A    between atoms: C_10  and  C_12 
REMARK    5  A    between atoms: C_12  and  C_13 
REMARK    6  A    between atoms: C_15  and  O_33 
REMARK    7  A    between atoms: C_17  and  O_32 
REMARK    8  A    between atoms: C_19  and  C_22 
REMARK    9  A    between atoms: C_22  and  N_23 
REMARK       I    between atoms: N_23  and  C_24 
REMARK   10  A    between atoms: C_24  and  C_26 
ROOT
ATOM      1  C   LIG d   1       5.880   0.585  -8.741  0.00  0.00     0.096 C 
ATOM      2  H   LIG d   1       6.237   1.598  -8.927  0.00  0.00     0.063 H 
ATOM      3  C   LIG d   1       5.250   0.008 -10.023  0.00  0.00     0.110 C 
ATOM      4  H   LIG d   1       5.735  -0.929 -10.298  0.00  0.00     0.065 H 
ATOM      5  C   LIG d   1       3.770  -0.238  -9.642  0.00  0.00     0.111 C 
ATOM      6  H   LIG d   1       3.608  -1.278  -9.358  0.00  0.00     0.065 H 
ATOM      7  C   LIG d   1       3.589   0.701  -8.422  0.00  0.00     0.103 C 
ATOM      8  H   LIG d   1       3.405   1.725  -8.746  0.00  0.00     0.064 H 
ATOM      9  O   LIG d   1       4.855   0.607  -7.734  0.00  0.00    -0.366 OA
ENDROOT
BRANCH   1  10
ATOM     10  C   LIG d   1       7.039  -0.303  -8.285  0.00  0.00     0.053 C 
ATOM     11  H   LIG d   1       6.673  -1.313  -8.099  0.00  0.00     0.038 H 
ATOM     12  H   LIG d   1       7.803  -0.331  -9.063  0.00  0.00     0.038 H 
BRANCH  10  13
ATOM     13  C   LIG d   1       7.633   0.258  -7.018  0.00  0.00     0.218 C 
ATOM     14  N   LIG d   1       7.413  -0.360  -5.841  0.00  0.00    -0.296 N 
ATOM     15  C   LIG d   1       7.935   0.073  -4.536  0.00  0.00     0.049 C 
ATOM     16  C   LIG d   1       6.615  -1.584  -5.648  0.00  0.00     0.015 C 
ATOM     17  H   LIG d   1       9.024   0.090  -4.560  0.00  0.00     0.052 H 
ATOM     18  C   LIG d   1       7.446  -0.947  -3.486  0.00  0.00    -0.031 C 
ATOM     19  C   LIG d   1       7.158  -2.210  -4.340  0.00  0.00    -0.035 C 
ATOM     20  H   LIG d   1       6.536  -0.597  -2.996  0.00  0.00     0.028 H 
ATOM     21  H   LIG d   1       8.227  -1.147  -2.753  0.00  0.00     0.028 H 
ATOM     22  H   LIG d   1       6.404  -2.839  -3.866  0.00  0.00     0.028 H 
ATOM     23  H   LIG d   1       8.072  -2.773  -4.526  0.00  0.00     0.028 H 
ATOM     24  H   LIG d   1       5.558  -1.335  -5.540  0.00  0.00     0.046 H 
ATOM     25  H   LIG d   1       6.758  -2.266  -6.486  0.00  0.00     0.046 H 
ATOM     26  O   LIG d   1       8.310   1.263  -7.059  0.00  0.00    -0.276 OA
BRANCH  15  27
ATOM     27  C   LIG d   1       7.396   1.464  -4.196  0.00  0.00     0.066 C 
ATOM     28  H   LIG d   1       7.232   2.025  -5.115  0.00  0.00     0.058 H 
ATOM     29  H   LIG d   1       6.454   1.367  -3.657  0.00  0.00     0.058 H 
BRANCH  27  30
ATOM     30  O   LIG d   1       8.342   2.155  -3.378  0.00  0.00    -0.381 OA
BRANCH  30  31
ATOM     31  C   LIG d   1       9.683   2.104  -3.868  0.00  0.00     0.036 C 
ATOM     32  H   LIG d   1      10.011   1.066  -3.920  0.00  0.00     0.052 H 
ATOM     33  H   LIG d   1       9.723   2.549  -4.863  0.00  0.00     0.052 H 
ATOM     34  H   LIG d   1      10.338   2.659  -3.196  0.00  0.00     0.052 H 
ENDBRANCH  30  31
ENDBRANCH  27  30
ENDBRANCH  15  27
ENDBRANCH  10  13
ENDBRANCH   1  10
BRANCH   3  35
ATOM     35  O   LIG d   1       5.341   0.950 -11.093  0.00  0.00    -0.387 OA
ATOM     36  H   LIG d   1       6.179   0.920 -11.574  0.00  0.00     0.210 HD
ENDBRANCH   3  35
BRANCH   7  37
ATOM     37  C   LIG d   1       2.451   0.208  -7.527  0.00  0.00     0.041 C 
ATOM     38  H   LIG d   1       1.911  -0.592  -8.033  0.00  0.00     0.049 H 
ATOM     39  H   LIG d   1       1.768   1.032  -7.319  0.00  0.00     0.049 H 
BRANCH  37  40
ATOM     40  N   LIG d   1       3.004  -0.297  -6.267  0.00  0.00    -0.309 N 
ATOM     41  C   LIG d   1       2.896   0.435  -5.141  0.00  0.00     0.244 C 
ATOM     42  O   LIG d   1       2.336   1.514  -5.170  0.00  0.00    -0.270 OA
ATOM     43  H   LIG d   1       3.451  -1.158  -6.245  0.00  0.00     0.149 HD
BRANCH  41  44
ATOM     44  C   LIG d   1       3.459  -0.072  -3.872  0.00  0.00     0.037 A 
ATOM     45  C   LIG d   1       3.991   0.816  -2.936  0.00  0.00    -0.050 A 
ATOM     46  C   LIG d   1       4.514   0.337  -1.754  0.00  0.00    -0.061 A 
ATOM     47  H   LIG d   1       3.993   1.877  -3.138  0.00  0.00     0.062 H 
ATOM     48  C   LIG d   1       4.514  -1.023  -1.494  0.00  0.00    -0.062 A 
ATOM     49  H   LIG d   1       4.925   1.023  -1.029  0.00  0.00     0.062 H 
ATOM     50  C   LIG d   1       3.988  -1.909  -2.418  0.00  0.00    -0.061 A 
ATOM     51  H   LIG d   1       4.925  -1.394  -0.567  0.00  0.00     0.062 H 
ATOM     52  C   LIG d   1       3.456  -1.442  -3.602  0.00  0.00    -0.050 A 
ATOM     53  H   LIG d   1       3.990  -2.969  -2.209  0.00  0.00     0.062 H 
ATOM     54  H   LIG d   1       3.043  -2.134  -4.320  0.00  0.00     0.062 H 
ENDBRANCH  41  44
ENDBRANCH  37  40
ENDBRANCH   7  37
BRANCH   5  55
ATOM     55  O   LIG d   1       2.898   0.140 -10.709  0.00  0.00    -0.387 OA
ATOM     56  H   LIG d   1       3.094   1.008 -11.087  0.00  0.00     0.210 HD
ENDBRANCH   5  55
TORSDOF 10
ENDMDL
MODEL 2
REMARK VINA RESULT:      -6.2      3.303      5.689
REMARK  10 active torsions:
REMARK  status: ('A' for Active; 'I' for Inactive)
REMARK    1  A    between atoms: C_1  and  O_2 
REMARK    2  A    between atoms: O_2  and  C_3 
REMARK    3  A    between atoms: C_3  and  C_4 
REMARK       I    between atoms: N_9  and  C_10 
REMARK    4  A    between atoms: C_10  and  C_12 
REMARK    5  A    between atoms: C_12  and  C_13 
REMARK    6  A    between atoms: C_15  and  O_33 
REMARK    7  A    between atoms: C_17  and  O_32 
REMARK    8  A    between atoms: C_19  and  C_22 
REMARK    9  A    between atoms: C_22  and  N_23 
REMARK       I    between atoms: N_23  and  C_24 
REMARK   10  A    between atoms: C_24  and  C_26 
ROOT
ATOM      1  C   LIG d   1       5.203  -4.094  -5.378  0.00  0.00     0.096 C 
ATOM      2  H   LIG d   1       6.289  -4.180  -5.351  0.00  0.00     0.063 H 
ATOM      3  C   LIG d   1       4.567  -5.496  -5.439  0.00  0.00     0.110 C 
ATOM      4  H   LIG d   1       3.869  -5.634  -4.613  0.00  0.00     0.065 H 
ATOM      5  C   LIG d   1       3.817  -5.514  -6.794  0.00  0.00     0.111 C 
ATOM      6  H   LIG d   1       2.761  -5.282  -6.657  0.00  0.00     0.065 H 
ATOM      7  C   LIG d   1       4.534  -4.383  -7.576  0.00  0.00     0.103 C 
ATOM      8  H   LIG d   1       5.465  -4.744  -8.011  0.00  0.00     0.064 H 
ATOM      9  O   LIG d   1       4.799  -3.388  -6.563  0.00  0.00    -0.366 OA
ENDROOT
BRANCH   1  10
ATOM     10  C   LIG d   1       4.708  -3.351  -4.135  0.00  0.00     0.053 C 
ATOM     11  H   LIG d   1       3.737  -2.900  -4.344  0.00  0.00     0.038 H 
ATOM     12  H   LIG d   1       4.610  -4.053  -3.307  0.00  0.00     0.038 H 
BRANCH  10  13
ATOM     13  C   LIG d   1       5.695  -2.273  -3.767  0.00  0.00     0.218 C 
ATOM     14  N   LIG d   1       5.254  -1.052  -3.404  0.00  0.00    -0.296 N 
ATOM     15  C   LIG d   1       6.103   0.084  -3.016  0.00  0.00     0.049 C 
ATOM     16  C   LIG d   1       3.842  -0.637  -3.324  0.00  0.00     0.015 C 
ATOM     17  H   LIG d   1       6.707  -0.184  -2.150  0.00  0.00     0.052 H 
ATOM     18  C   LIG d   1       5.164   1.257  -2.662  0.00  0.00    -0.031 C 
ATOM     19  C   LIG d   1       3.831   0.541  -2.317  0.00  0.00    -0.035 C 
ATOM     20  H   LIG d   1       5.034   1.923  -3.515  0.00  0.00     0.028 H 
ATOM     21  H   LIG d   1       5.543   1.804  -1.798  0.00  0.00     0.028 H 
ATOM     22  H   LIG d   1       2.978   1.196  -2.493  0.00  0.00     0.028 H 
ATOM     23  H   LIG d   1       3.837   0.176  -1.290  0.00  0.00     0.028 H 
ATOM     24  H   LIG d   1       3.488  -0.305  -4.300  0.00  0.00     0.046 H 
ATOM     25  H   LIG d   1       3.225  -1.457  -2.957  0.00  0.00     0.046 H 
ATOM     26  O   LIG d   1       6.884  -2.504  -3.797  0.00  0.00    -0.276 OA
BRANCH  15  27
ATOM     27  C   LIG d   1       7.007   0.480  -4.184  0.00  0.00     0.066 C 
ATOM     28  H   LIG d   1       7.517   1.414  -3.948  0.00  0.00     0.058 H 
ATOM     29  H   LIG d   1       7.745  -0.303  -4.354  0.00  0.00     0.058 H 
BRANCH  27  30
ATOM     30  O   LIG d   1       6.217   0.654  -5.362  0.00  0.00    -0.381 OA
BRANCH  30  31
ATOM     31  C   LIG d   1       6.776   0.052  -6.531  0.00  0.00     0.036 C 
ATOM     32  H   LIG d   1       6.958  -1.005  -6.344  0.00  0.00     0.052 H 
ATOM     33  H   LIG d   1       6.080   0.160  -7.363  0.00  0.00     0.052 H 
ATOM     34  H   LIG d   1       7.716   0.544  -6.780  0.00  0.00     0.052 H 
ENDBRANCH  30  31
ENDBRANCH  27  30
ENDBRANCH  15  27
ENDBRANCH  10  13
ENDBRANCH   1  10
BRANCH   3  35
ATOM     35  O   LIG d   1       5.577  -6.505  -5.414  0.00  0.00    -0.387 OA
ATOM     36  H   LIG d   1       5.612  -7.047  -6.215  0.00  0.00     0.210 HD
ENDBRANCH   3  35
BRANCH   7  37
ATOM     37  C   LIG d   1       3.618  -3.815  -8.662  0.00  0.00     0.041 C 
ATOM     38  H   LIG d   1       2.578  -4.004  -8.395  0.00  0.00     0.049 H 
ATOM     39  H   LIG d   1       3.841  -4.295  -9.614  0.00  0.00     0.049 H 
BRANCH  37  40
ATOM     40  N   LIG d   1       3.837  -2.371  -8.780  0.00  0.00    -0.309 N 
ATOM     41  C   LIG d   1       2.865  -1.579  -9.274  0.00  0.00     0.244 C 
ATOM     42  O   LIG d   1       1.803  -2.063  -9.616  0.00  0.00    -0.270 OA
ATOM     43  H   LIG d   1       4.684  -1.985  -8.506  0.00  0.00     0.149 HD
BRANCH  41  44
ATOM     44  C   LIG d   1       3.088  -0.124  -9.398  0.00  0.00     0.037 A 
ATOM     45  C   LIG d   1       3.669   0.400 -10.554  0.00  0.00    -0.050 A 
ATOM     46  C   LIG d   1       3.874   1.759 -10.664  0.00  0.00    -0.061 A 
ATOM     47  H   LIG d   1       3.959  -0.258 -11.360  0.00  0.00     0.062 H 
ATOM     48  C   LIG d   1       3.505   2.604  -9.632  0.00  0.00    -0.062 A 
ATOM     49  H   LIG d   1       4.324   2.166 -11.558  0.00  0.00     0.062 H 
ATOM     50  C   LIG d   1       2.928   2.091  -8.484  0.00  0.00    -0.061 A 
ATOM     51  H   LIG d   1       3.668   3.668  -9.722  0.00  0.00     0.062 H 
ATOM     52  C   LIG d   1       2.712   0.734  -8.362  0.00  0.00    -0.050 A 
ATOM     53  H   LIG d   1       2.642   2.756  -7.681  0.00  0.00     0.062 H 
ATOM     54  H   LIG d   1       2.259   0.336  -7.468  0.00  0.00     0.062 H 
ENDBRANCH  41  44
ENDBRANCH  37  40
ENDBRANCH   7  37
BRANCH   5  55
ATOM     55  O   LIG d   1       3.982  -6.771  -7.452  0.00  0.00    -0.387 OA
ATOM     56  H   LIG d   1       4.214  -7.498  -6.858  0.00  0.00     0.210 HD
ENDBRANCH   5  55
TORSDOF 10
ENDMDL
MODEL 3
REMARK VINA RESULT:      -6.1      5.087      7.917
REMARK  10 active torsions:
REMARK  status: ('A' for Active; 'I' for Inactive)
REMARK    1  A    between atoms: C_1  and  O_2 
REMARK    2  A    between atoms: O_2  and  C_3 
REMARK    3  A    between atoms: C_3  and  C_4 
REMARK       I    between atoms: N_9  and  C_10 
REMARK    4  A    between atoms: C_10  and  C_12 
REMARK    5  A    between atoms: C_12  and  C_13 
REMARK    6  A    between atoms: C_15  and  O_33 
REMARK    7  A    between atoms: C_17  and  O_32 
REMARK    8  A    between atoms: C_19  and  C_22 
REMARK    9  A    between atoms: C_22  and  N_23 
REMARK       I    between atoms: N_23  and  C_24 
REMARK   10  A    between atoms: C_24  and  C_26 
ROOT
ATOM      1  C   LIG d   1      10.020   5.341  -4.322  0.00  0.00     0.096 C 
ATOM      2  H   LIG d   1      11.025   5.617  -4.641  0.00  0.00     0.063 H 
ATOM      3  C   LIG d   1      10.091   4.501  -3.033  0.00  0.00     0.110 C 
ATOM      4  H   LIG d   1       9.495   4.960  -2.244  0.00  0.00     0.065 H 
ATOM      5  C   LIG d   1       9.493   3.131  -3.438  0.00  0.00     0.111 C 
ATOM      6  H   LIG d   1       8.441   3.067  -3.159  0.00  0.00     0.065 H 
ATOM      7  C   LIG d   1       9.655   3.151  -4.980  0.00  0.00     0.103 C 
ATOM      8  H   LIG d   1      10.668   2.869  -5.266  0.00  0.00     0.064 H 
ATOM      9  O   LIG d   1       9.394   4.528  -5.328  0.00  0.00    -0.366 OA
ENDROOT
BRANCH   1  10
ATOM     10  C   LIG d   1       9.186   6.600  -4.077  0.00  0.00     0.053 C 
ATOM     11  H   LIG d   1       8.597   6.825  -4.968  0.00  0.00     0.038 H 
ATOM     12  H   LIG d   1       8.517   6.434  -3.233  0.00  0.00     0.038 H 
BRANCH  10  13
ATOM     13  C   LIG d   1      10.101   7.758  -3.774  0.00  0.00     0.218 C 
ATOM     14  N   LIG d   1      10.220   8.209  -2.509  0.00  0.00    -0.296 N 
ATOM     15  C   LIG d   1      11.077   9.322  -2.074  0.00  0.00     0.049 C 
ATOM     16  C   LIG d   1       9.516   7.666  -1.333  0.00  0.00     0.015 C 
ATOM     17  H   LIG d   1      12.117   9.104  -2.314  0.00  0.00     0.052 H 
ATOM     18  C   LIG d   1      10.906   9.461  -0.547  0.00  0.00    -0.031 C 
ATOM     19  C   LIG d   1      10.405   8.054  -0.125  0.00  0.00    -0.035 C 
ATOM     20  H   LIG d   1      10.164  10.222  -0.304  0.00  0.00     0.028 H 
ATOM     21  H   LIG d   1      11.862   9.688  -0.073  0.00  0.00     0.028 H 
ATOM     22  H   LIG d   1       9.817   8.106   0.791  0.00  0.00     0.028 H 
ATOM     23  H   LIG d   1      11.238   7.359  -0.014  0.00  0.00     0.028 H 
ATOM     24  H   LIG d   1       8.529   8.118  -1.239  0.00  0.00     0.046 H 
ATOM     25  H   LIG d   1       9.430   6.582  -1.410  0.00  0.00     0.046 H 
ATOM     26  O   LIG d   1      10.730   8.284  -4.667  0.00  0.00    -0.276 OA
BRANCH  15  27
ATOM     27  C   LIG d   1      10.640  10.616  -2.763  0.00  0.00     0.066 C 
ATOM     28  H   LIG d   1      11.307  11.426  -2.470  0.00  0.00     0.058 H 
ATOM     29  H   LIG d   1      10.681  10.484  -3.843  0.00  0.00     0.058 H 
BRANCH  27  30
ATOM     30  O   LIG d   1       9.302  10.936  -2.373  0.00  0.00    -0.381 OA
BRANCH  30  31
ATOM     31  C   LIG d   1       8.563  11.650  -3.365  0.00  0.00     0.036 C 
ATOM     32  H   LIG d   1       7.624  11.133  -3.560  0.00  0.00     0.052 H 
ATOM     33  H   LIG d   1       8.355  12.658  -3.007  0.00  0.00     0.052 H 
ATOM     34  H   LIG d   1       9.145  11.704  -4.285  0.00  0.00     0.052 H 
ENDBRANCH  30  31
ENDBRANCH  27  30
ENDBRANCH  15  27
ENDBRANCH  10  13
ENDBRANCH   1  10
BRANCH   3  35
ATOM     35  O   LIG d   1      11.447   4.348  -2.609  0.00  0.00    -0.387 OA
ATOM     36  H   LIG d   1      11.557   4.311  -1.649  0.00  0.00     0.210 HD
ENDBRANCH   3  35
BRANCH   7  37
ATOM     37  C   LIG d   1       8.632   2.225  -5.641  0.00  0.00     0.041 C 
ATOM     38  H   LIG d   1       9.136   1.333  -6.014  0.00  0.00     0.049 H 
ATOM     39  H   LIG d   1       8.153   2.745  -6.471  0.00  0.00     0.049 H 
BRANCH  37  40
ATOM     40  N   LIG d   1       7.617   1.837  -4.657  0.00  0.00    -0.309 N 
ATOM     41  C   LIG d   1       7.232   0.550  -4.557  0.00  0.00     0.244 C 
ATOM     42  O   LIG d   1       7.730  -0.291  -5.281  0.00  0.00    -0.270 OA
ATOM     43  H   LIG d   1       7.220   2.508  -4.080  0.00  0.00     0.149 HD
BRANCH  41  44
ATOM     44  C   LIG d   1       6.205   0.159  -3.569  0.00  0.00     0.037 A 
ATOM     45  C   LIG d   1       5.556   1.134  -2.809  0.00  0.00    -0.050 A 
ATOM     46  C   LIG d   1       4.598   0.763  -1.889  0.00  0.00    -0.061 A 
ATOM     47  H   LIG d   1       5.805   2.177  -2.941  0.00  0.00     0.062 H 
ATOM     48  C   LIG d   1       4.279  -0.573  -1.718  0.00  0.00    -0.062 A 
ATOM     49  H   LIG d   1       4.096   1.516  -1.300  0.00  0.00     0.062 H 
ATOM     50  C   LIG d   1       4.918  -1.544  -2.469  0.00  0.00    -0.061 A 
ATOM     51  H   LIG d   1       3.529  -0.859  -0.996  0.00  0.00     0.062 H 
ATOM     52  C   LIG d   1       5.875  -1.186  -3.397  0.00  0.00    -0.050 A 
ATOM     53  H   LIG d   1       4.664  -2.585  -2.331  0.00  0.00     0.062 H 
ATOM     54  H   LIG d   1       6.369  -1.944  -3.984  0.00  0.00     0.062 H 
ENDBRANCH  41  44
ENDBRANCH  37  40
ENDBRANCH   7  37
BRANCH   5  55
ATOM     55  O   LIG d   1      10.239   2.058  -2.862  0.00  0.00    -0.387 OA
ATOM     56  H   LIG d   1      10.804   1.589  -3.491  0.00  0.00     0.210 HD
ENDBRANCH   5  55
TORSDOF 10
ENDMDL
MODEL 4
REMARK VINA RESULT:      -6.1      2.063      6.024
REMARK  10 active torsions:
REMARK  status: ('A' for Active; 'I' for Inactive)
REMARK    1  A    between atoms: C_1  and  O_2 
REMARK    2  A    between atoms: O_2  and  C_3 
REMARK    3  A    between atoms: C_3  and  C_4 
REMARK       I    between atoms: N_9  and  C_10 
REMARK    4  A    between atoms: C_10  and  C_12 
REMARK    5  A    between atoms: C_12  and  C_13 
REMARK    6  A    between atoms: C_15  and  O_33 
REMARK    7  A    between atoms: C_17  and  O_32 
REMARK    8  A    between atoms: C_19  and  C_22 
REMARK    9  A    between atoms: C_22  and  N_23 
REMARK       I    between atoms: N_23  and  C_24 
REMARK   10  A    between atoms: C_24  and  C_26 
ROOT
ATOM      1  C   LIG d   1       8.175   1.379  -4.478  0.00  0.00     0.096 C 
ATOM      2  H   LIG d   1       7.987   2.294  -3.916  0.00  0.00     0.063 H 
ATOM      3  C   LIG d   1       9.690   1.109  -4.549  0.00  0.00     0.110 C 
ATOM      4  H   LIG d   1       9.920   0.120  -4.152  0.00  0.00     0.065 H 
ATOM      5  C   LIG d   1      10.018   1.178  -6.061  0.00  0.00     0.111 C 
ATOM      6  H   LIG d   1      10.043   0.180  -6.499  0.00  0.00     0.065 H 
ATOM      7  C   LIG d   1       8.822   1.995  -6.615  0.00  0.00     0.103 C 
ATOM      8  H   LIG d   1       8.980   3.062  -6.464  0.00  0.00     0.064 H 
ATOM      9  O   LIG d   1       7.704   1.531  -5.827  0.00  0.00    -0.366 OA
ENDROOT
BRANCH   1  10
ATOM     10  C   LIG d   1       7.466   0.200  -3.809  0.00  0.00     0.053 C 
ATOM     11  H   LIG d   1       7.330  -0.602  -4.536  0.00  0.00     0.038 H 
ATOM     12  H   LIG d   1       8.070  -0.163  -2.978  0.00  0.00     0.038 H 
BRANCH  10  13
ATOM     13  C   LIG d   1       6.121   0.647  -3.296  0.00  0.00     0.218 C 
ATOM     14  N   LIG d   1       5.123  -0.248  -3.156  0.00  0.00    -0.296 N 
ATOM     15  C   LIG d   1       3.770   0.050  -2.663  0.00  0.00     0.049 C 
ATOM     16  C   LIG d   1       5.208  -1.686  -3.466  0.00  0.00     0.015 C 
ATOM     17  H   LIG d   1       3.825   0.458  -1.654  0.00  0.00     0.052 H 
ATOM     18  C   LIG d   1       2.984  -1.278  -2.653  0.00  0.00    -0.031 C 
ATOM     19  C   LIG d   1       4.109  -2.345  -2.595  0.00  0.00    -0.035 C 
ATOM     20  H   LIG d   1       2.394  -1.390  -3.563  0.00  0.00     0.028 H 
ATOM     21  H   LIG d   1       2.348  -1.341  -1.770  0.00  0.00     0.028 H 
ATOM     22  H   LIG d   1       3.778  -3.288  -3.031  0.00  0.00     0.028 H 
ATOM     23  H   LIG d   1       4.457  -2.491  -1.572  0.00  0.00     0.028 H 
ATOM     24  H   LIG d   1       5.007  -1.858  -4.524  0.00  0.00     0.046 H 
ATOM     25  H   LIG d   1       6.190  -2.075  -3.199  0.00  0.00     0.046 H 
ATOM     26  O   LIG d   1       5.938   1.810  -3.008  0.00  0.00    -0.276 OA
BRANCH  15  27
ATOM     27  C   LIG d   1       3.084   1.049  -3.596  0.00  0.00     0.066 C 
ATOM     28  H   LIG d   1       2.437   1.705  -3.014  0.00  0.00     0.058 H 
ATOM     29  H   LIG d   1       3.839   1.645  -4.109  0.00  0.00     0.058 H 
BRANCH  27  30
ATOM     30  O   LIG d   1       2.300   0.342  -4.560  0.00  0.00    -0.381 OA
BRANCH  30  31
ATOM     31  C   LIG d   1       2.871   0.319  -5.870  0.00  0.00     0.036 C 
ATOM     32  H   LIG d   1       3.650  -0.441  -5.913  0.00  0.00     0.052 H 
ATOM     33  H   LIG d   1       2.095   0.087  -6.599  0.00  0.00     0.052 H 
ATOM     34  H   LIG d   1       3.301   1.295  -6.096  0.00  0.00     0.052 H 
ENDBRANCH  30  31
ENDBRANCH  27  30
ENDBRANCH  15  27
ENDBRANCH  10  13
ENDBRANCH   1  10
BRANCH   3  35
ATOM     35  O   LIG d   1      10.411   2.114  -3.835  0.00  0.00    -0.387 OA
ATOM     36  H   LIG d   1      10.338   2.999  -4.219  0.00  0.00     0.210 HD
ENDBRANCH   3  35
BRANCH   7  37
ATOM     37  C   LIG d   1       8.601   1.688  -8.097  0.00  0.00     0.041 C 
ATOM     38  H   LIG d   1       9.315   0.931  -8.422  0.00  0.00     0.049 H 
ATOM     39  H   LIG d   1       8.745   2.597  -8.682  0.00  0.00     0.049 H 
BRANCH  37  40
ATOM     40  N   LIG d   1       7.238   1.190  -8.295  0.00  0.00    -0.309 N 
ATOM     41  C   LIG d   1       6.317   1.967  -8.898  0.00  0.00     0.244 C 
ATOM     42  O   LIG d   1       6.619   3.081  -9.282  0.00  0.00    -0.270 OA
ATOM     43  H   LIG d   1       6.997   0.302  -7.989  0.00  0.00     0.149 HD
BRANCH  41  44
ATOM     44  C   LIG d   1       4.940   1.467  -9.093  0.00  0.00     0.037 A 
ATOM     45  C   LIG d   1       3.859   2.349  -9.039  0.00  0.00    -0.050 A 
ATOM     46  C   LIG d   1       2.577   1.876  -9.222  0.00  0.00    -0.061 A 
ATOM     47  H   LIG d   1       4.027   3.400  -8.854  0.00  0.00     0.062 H 
ATOM     48  C   LIG d   1       2.359   0.530  -9.458  0.00  0.00    -0.062 A 
ATOM     49  H   LIG d   1       1.740   2.557  -9.181  0.00  0.00     0.062 H 
ATOM     50  C   LIG d   1       3.426  -0.350  -9.513  0.00  0.00    -0.061 A 
ATOM     51  H   LIG d   1       1.354   0.164  -9.600  0.00  0.00     0.062 H 
ATOM     52  C   LIG d   1       4.715   0.111  -9.337  0.00  0.00    -0.050 A 
ATOM     53  H   LIG d   1       3.250  -1.399  -9.698  0.00  0.00     0.062 H 
ATOM     54  H   LIG d   1       5.546  -0.575  -9.384  0.00  0.00     0.062 H 
ENDBRANCH  41  44
ENDBRANCH  37  40
ENDBRANCH   7  37
BRANCH   5  55
ATOM     55  O   LIG d   1      11.251   1.864  -6.284  0.00  0.00    -0.387 OA
ATOM     56  H   LIG d   1      12.036   1.338  -6.081  0.00  0.00     0.210 HD
ENDBRANCH   5  55
TORSDOF 10
ENDMDL
MODEL 5
REMARK VINA RESULT:      -6.1      3.424      5.418
REMARK  10 active torsions:
REMARK  status: ('A' for Active; 'I' for Inactive)
REMARK    1  A    between atoms: C_1  and  O_2 
REMARK    2  A    between atoms: O_2  and  C_3 
REMARK    3  A    between atoms: C_3  and  C_4 
REMARK       I    between atoms: N_9  and  C_10 
REMARK    4  A    between atoms: C_10  and  C_12 
REMARK    5  A    between atoms: C_12  and  C_13 
REMARK    6  A    between atoms: C_15  and  O_33 
REMARK    7  A    between atoms: C_17  and  O_32 
REMARK    8  A    between atoms: C_19  and  C_22 
REMARK    9  A    between atoms: C_22  and  N_23 
REMARK       I    between atoms: N_23  and  C_24 
REMARK   10  A    between atoms: C_24  and  C_26 
ROOT
ATOM      1  C   LIG d   1       3.435  -4.042  -8.650  0.00  0.00     0.096 C 
ATOM      2  H   LIG d   1       2.358  -3.883  -8.685  0.00  0.00     0.063 H 
ATOM      3  C   LIG d   1       3.758  -5.519  -8.945  0.00  0.00     0.110 C 
ATOM      4  H   LIG d   1       4.446  -5.598  -9.787  0.00  0.00     0.065 H 
ATOM      5  C   LIG d   1       4.428  -6.028  -7.645  0.00  0.00     0.111 C 
ATOM      6  H   LIG d   1       5.515  -6.003  -7.731  0.00  0.00     0.065 H 
ATOM      7  C   LIG d   1       3.933  -4.995  -6.599  0.00  0.00     0.103 C 
ATOM      8  H   LIG d   1       2.929  -5.243  -6.257  0.00  0.00     0.064 H 
ATOM      9  O   LIG d   1       3.928  -3.751  -7.332  0.00  0.00    -0.366 OA
ENDROOT
BRANCH   1  10
ATOM     10  C   LIG d   1       4.130  -3.142  -9.675  0.00  0.00     0.053 C 
ATOM     11  H   LIG d   1       5.186  -3.048  -9.420  0.00  0.00     0.038 H 
ATOM     12  H   LIG d   1       4.034  -3.582 -10.668  0.00  0.00     0.038 H 
BRANCH  10  13
ATOM     13  C   LIG d   1       3.486  -1.779  -9.665  0.00  0.00     0.218 C 
ATOM     14  N   LIG d   1       4.245  -0.678  -9.499  0.00  0.00    -0.296 N 
ATOM     15  C   LIG d   1       3.751   0.707  -9.476  0.00  0.00     0.049 C 
ATOM     16  C   LIG d   1       5.708  -0.661  -9.316  0.00  0.00     0.015 C 
ATOM     17  H   LIG d   1       3.254   0.938 -10.417  0.00  0.00     0.052 H 
ATOM     18  C   LIG d   1       4.975   1.627  -9.286  0.00  0.00    -0.031 C 
ATOM     19  C   LIG d   1       6.150   0.746  -9.788  0.00  0.00    -0.035 C 
ATOM     20  H   LIG d   1       5.110   1.885  -8.235  0.00  0.00     0.028 H 
ATOM     21  H   LIG d   1       4.879   2.525  -9.896  0.00  0.00     0.028 H 
ATOM     22  H   LIG d   1       7.088   1.039  -9.315  0.00  0.00     0.028 H 
ATOM     23  H   LIG d   1       6.232   0.787 -10.874  0.00  0.00     0.028 H 
ATOM     24  H   LIG d   1       5.960  -0.807  -8.266  0.00  0.00     0.046 H 
ATOM     25  H   LIG d   1       6.175  -1.433  -9.928  0.00  0.00     0.046 H 
ATOM     26  O   LIG d   1       2.287  -1.674  -9.808  0.00  0.00    -0.276 OA
BRANCH  15  27
ATOM     27  C   LIG d   1       2.778   0.893  -8.310  0.00  0.00     0.066 C 
ATOM     28  H   LIG d   1       2.189   1.796  -8.469  0.00  0.00     0.058 H 
ATOM     29  H   LIG d   1       2.114   0.031  -8.251  0.00  0.00     0.058 H 
BRANCH  27  30
ATOM     30  O   LIG d   1       3.513   1.012  -7.090  0.00  0.00    -0.381 OA
BRANCH  30  31
ATOM     31  C   LIG d   1       3.233  -0.017  -6.139  0.00  0.00     0.036 C 
ATOM     32  H   LIG d   1       4.165  -0.483  -5.822  0.00  0.00     0.052 H 
ATOM     33  H   LIG d   1       2.729   0.415  -5.274  0.00  0.00     0.052 H 
ATOM     34  H   LIG d   1       2.588  -0.769  -6.596  0.00  0.00     0.052 H 
ENDBRANCH  30  31
ENDBRANCH  27  30
ENDBRANCH  15  27
ENDBRANCH  10  13
ENDBRANCH   1  10
BRANCH   3  35
ATOM     35  O   LIG d   1       2.560  -6.250  -9.208  0.00  0.00    -0.387 OA
ATOM     36  H   LIG d   1       1.919  -5.773  -9.754  0.00  0.00     0.210 HD
ENDBRANCH   3  35
BRANCH   7  37
ATOM     37  C   LIG d   1       4.900  -4.921  -5.417  0.00  0.00     0.041 C 
ATOM     38  H   LIG d   1       5.926  -4.907  -5.786  0.00  0.00     0.049 H 
ATOM     39  H   LIG d   1       4.758  -5.790  -4.774  0.00  0.00     0.049 H 
BRANCH  37  40
ATOM     40  N   LIG d   1       4.642  -3.699  -4.650  0.00  0.00    -0.309 N 
ATOM     41  C   LIG d   1       5.666  -2.907  -4.276  0.00  0.00     0.244 C 
ATOM     42  O   LIG d   1       6.805  -3.205  -4.580  0.00  0.00    -0.270 OA
ATOM     43  H   LIG d   1       3.732  -3.462  -4.408  0.00  0.00     0.149 HD
BRANCH  41  44
ATOM     44  C   LIG d   1       5.405  -1.678  -3.498  0.00  0.00     0.037 A 
ATOM     45  C   LIG d   1       6.109  -0.506  -3.781  0.00  0.00    -0.050 A 
ATOM     46  C   LIG d   1       5.860   0.637  -3.052  0.00  0.00    -0.061 A 
ATOM     47  H   LIG d   1       6.846  -0.496  -4.570  0.00  0.00     0.062 H 
ATOM     48  C   LIG d   1       4.917   0.624  -2.039  0.00  0.00    -0.062 A 
ATOM     49  H   LIG d   1       6.403   1.544  -3.270  0.00  0.00     0.062 H 
ATOM     50  C   LIG d   1       4.216  -0.534  -1.753  0.00  0.00    -0.061 A 
ATOM     51  H   LIG d   1       4.726   1.522  -1.470  0.00  0.00     0.062 H 
ATOM     52  C   LIG d   1       4.451  -1.684  -2.479  0.00  0.00    -0.050 A 
ATOM     53  H   LIG d   1       3.481  -0.537  -0.962  0.00  0.00     0.062 H 
ATOM     54  H   LIG d   1       3.901  -2.585  -2.258  0.00  0.00     0.062 H 
ENDBRANCH  41  44
ENDBRANCH  37  40
ENDBRANCH   7  37
BRANCH   5  55
ATOM     55  O   LIG d   1       3.973  -7.342  -7.317  0.00  0.00    -0.387 OA
ATOM     56  H   LIG d   1       3.013  -7.418  -7.241  0.00  0.00     0.210 HD
ENDBRANCH   5  55
TORSDOF 10
ENDMDL
MODEL 6
REMARK VINA RESULT:      -6.0      5.101      8.334
REMARK  10 active torsions:
REMARK  status: ('A' for Active; 'I' for Inactive)
REMARK    1  A    between atoms: C_1  and  O_2 
REMARK    2  A    between atoms: O_2  and  C_3 
REMARK    3  A    between atoms: C_3  and  C_4 
REMARK       I    between atoms: N_9  and  C_10 
REMARK    4  A    between atoms: C_10  and  C_12 
REMARK    5  A    between atoms: C_12  and  C_13 
REMARK    6  A    between atoms: C_15  and  O_33 
REMARK    7  A    between atoms: C_17  and  O_32 
REMARK    8  A    between atoms: C_19  and  C_22 
REMARK    9  A    between atoms: C_22  and  N_23 
REMARK       I    between atoms: N_23  and  C_24 
REMARK   10  A    between atoms: C_24  and  C_26 
ROOT
ATOM      1  C   LIG d   1      10.112   5.390  -3.380  0.00  0.00     0.096 C 
ATOM      2  H   LIG d   1      11.050   5.822  -3.726  0.00  0.00     0.063 H 
ATOM      3  C   LIG d   1      10.395   4.240  -2.394  0.00  0.00     0.110 C 
ATOM      4  H   LIG d   1       9.892   4.420  -1.444  0.00  0.00     0.065 H 
ATOM      5  C   LIG d   1       9.810   2.988  -3.093  0.00  0.00     0.111 C 
ATOM      6  H   LIG d   1       8.809   2.767  -2.720  0.00  0.00     0.065 H 
ATOM      7  C   LIG d   1       9.759   3.438  -4.576  0.00  0.00     0.103 C 
ATOM      8  H   LIG d   1      10.735   3.326  -5.047  0.00  0.00     0.064 H 
ATOM      9  O   LIG d   1       9.392   4.833  -4.492  0.00  0.00    -0.366 OA
ENDROOT
BRANCH   1  10
ATOM     10  C   LIG d   1       9.263   6.464  -2.697  0.00  0.00     0.053 C 
ATOM     11  H   LIG d   1       8.963   7.212  -3.432  0.00  0.00     0.038 H 
ATOM     12  H   LIG d   1       8.374   6.004  -2.264  0.00  0.00     0.038 H 
BRANCH  10  13
ATOM     13  C   LIG d   1      10.069   7.125  -1.608  0.00  0.00     0.218 C 
ATOM     14  N   LIG d   1      10.828   8.202  -1.891  0.00  0.00    -0.296 N 
ATOM     15  C   LIG d   1      11.655   8.943  -0.928  0.00  0.00     0.049 C 
ATOM     16  C   LIG d   1      10.963   8.834  -3.216  0.00  0.00     0.015 C 
ATOM     17  H   LIG d   1      11.029   9.336  -0.128  0.00  0.00     0.052 H 
ATOM     18  C   LIG d   1      12.321  10.104  -1.695  0.00  0.00    -0.031 C 
ATOM     19  C   LIG d   1      11.384  10.295  -2.916  0.00  0.00    -0.035 C 
ATOM     20  H   LIG d   1      13.326   9.832  -2.020  0.00  0.00     0.028 H 
ATOM     21  H   LIG d   1      12.345  11.006  -1.082  0.00  0.00     0.028 H 
ATOM     22  H   LIG d   1      11.923  10.726  -3.760  0.00  0.00     0.028 H 
ATOM     23  H   LIG d   1      10.519  10.904  -2.654  0.00  0.00     0.028 H 
ATOM     24  H   LIG d   1      11.732   8.329  -3.801  0.00  0.00     0.046 H 
ATOM     25  H   LIG d   1      10.010   8.813  -3.745  0.00  0.00     0.046 H 
ATOM     26  O   LIG d   1      10.033   6.688  -0.478  0.00  0.00    -0.276 OA
BRANCH  15  27
ATOM     27  C   LIG d   1      12.730   8.023  -0.348  0.00  0.00     0.066 C 
ATOM     28  H   LIG d   1      12.551   7.000  -0.679  0.00  0.00     0.058 H 
ATOM     29  H   LIG d   1      13.711   8.349  -0.691  0.00  0.00     0.058 H 
BRANCH  27  30
ATOM     30  O   LIG d   1      12.684   8.075   1.080  0.00  0.00    -0.381 OA
BRANCH  30  31
ATOM     31  C   LIG d   1      11.667   8.935   1.598  0.00  0.00     0.036 C 
ATOM     32  H   LIG d   1      10.725   8.391   1.654  0.00  0.00     0.052 H 
ATOM     33  H   LIG d   1      11.952   9.274   2.595  0.00  0.00     0.052 H 
ATOM     34  H   LIG d   1      11.551   9.797   0.942  0.00  0.00     0.052 H 
ENDBRANCH  30  31
ENDBRANCH  27  30
ENDBRANCH  15  27
ENDBRANCH  10  13
ENDBRANCH   1  10
BRANCH   3  35
ATOM     35  O   LIG d   1      11.801   4.089  -2.194  0.00  0.00    -0.387 OA
ATOM     36  H   LIG d   1      12.168   4.675  -1.518  0.00  0.00     0.210 HD
ENDBRANCH   3  35
BRANCH   7  37
ATOM     37  C   LIG d   1       8.698   2.647  -5.342  0.00  0.00     0.041 C 
ATOM     38  H   LIG d   1       9.169   1.806  -5.852  0.00  0.00     0.049 H 
ATOM     39  H   LIG d   1       8.221   3.295  -6.077  0.00  0.00     0.049 H 
BRANCH  37  40
ATOM     40  N   LIG d   1       7.689   2.146  -4.405  0.00  0.00    -0.309 N 
ATOM     41  C   LIG d   1       7.292   0.860  -4.465  0.00  0.00     0.244 C 
ATOM     42  O   LIG d   1       7.775   0.114  -5.294  0.00  0.00    -0.270 OA
ATOM     43  H   LIG d   1       7.305   2.742  -3.743  0.00  0.00     0.149 HD
BRANCH  41  44
ATOM     44  C   LIG d   1       6.270   0.357  -3.523  0.00  0.00     0.037 A 
ATOM     45  C   LIG d   1       6.047  -1.015  -3.398  0.00  0.00    -0.050 A 
ATOM     46  C   LIG d   1       5.093  -1.478  -2.517  0.00  0.00    -0.061 A 
ATOM     47  H   LIG d   1       6.620  -1.713  -3.990  0.00  0.00     0.062 H 
ATOM     48  C   LIG d   1       4.355  -0.586  -1.758  0.00  0.00    -0.062 A 
ATOM     49  H   LIG d   1       4.919  -2.540  -2.419  0.00  0.00     0.062 H 
ATOM     50  C   LIG d   1       4.572   0.775  -1.877  0.00  0.00    -0.061 A 
ATOM     51  H   LIG d   1       3.609  -0.953  -1.070  0.00  0.00     0.062 H 
ATOM     52  C   LIG d   1       5.528   1.252  -2.751  0.00  0.00    -0.050 A 
ATOM     53  H   LIG d   1       3.994   1.467  -1.282  0.00  0.00     0.062 H 
ATOM     54  H   LIG d   1       5.698   2.314  -2.840  0.00  0.00     0.062 H 
ENDBRANCH  41  44
ENDBRANCH  37  40
ENDBRANCH   7  37
BRANCH   5  55
ATOM     55  O   LIG d   1      10.675   1.863  -2.931  0.00  0.00    -0.387 OA
ATOM     56  H   LIG d   1      10.306   1.033  -3.263  0.00  0.00     0.210 HD
ENDBRANCH   5  55
TORSDOF 10
ENDMDL
MODEL 7
REMARK VINA RESULT:      -5.8      5.420      8.264
REMARK  10 active torsions:
REMARK  status: ('A' for Active; 'I' for Inactive)
REMARK    1  A    between atoms: C_1  and  O_2 
REMARK    2  A    between atoms: O_2  and  C_3 
REMARK    3  A    between atoms: C_3  and  C_4 
REMARK       I    between atoms: N_9  and  C_10 
REMARK    4  A    between atoms: C_10  and  C_12 
REMARK    5  A    between atoms: C_12  and  C_13 
REMARK    6  A    between atoms: C_15  and  O_33 
REMARK    7  A    between atoms: C_17  and  O_32 
REMARK    8  A    between atoms: C_19  and  C_22 
REMARK    9  A    between atoms: C_22  and  N_23 
REMARK       I    between atoms: N_23  and  C_24 
REMARK   10  A    between atoms: C_24  and  C_26 
ROOT
ATOM      1  C   LIG d   1       9.828   5.625  -3.063  0.00  0.00     0.096 C 
ATOM      2  H   LIG d   1       8.915   6.173  -2.830  0.00  0.00     0.063 H 
ATOM      3  C   LIG d   1      10.215   5.856  -4.536  0.00  0.00     0.110 C 
ATOM      4  H   LIG d   1      11.228   6.252  -4.607  0.00  0.00     0.065 H 
ATOM      5  C   LIG d   1      10.136   4.448  -5.176  0.00  0.00     0.111 C 
ATOM      6  H   LIG d   1      11.122   3.984  -5.219  0.00  0.00     0.065 H 
ATOM      7  C   LIG d   1       9.214   3.693  -4.183  0.00  0.00     0.103 C 
ATOM      8  H   LIG d   1       8.166   3.916  -4.384  0.00  0.00     0.064 H 
ATOM      9  O   LIG d   1       9.607   4.215  -2.895  0.00  0.00    -0.366 OA
ENDROOT
BRANCH   1  10
ATOM     10  C   LIG d   1      10.963   6.086  -2.148  0.00  0.00     0.053 C 
ATOM     11  H   LIG d   1      11.359   5.230  -1.599  0.00  0.00     0.038 H 
ATOM     12  H   LIG d   1      11.757   6.530  -2.749  0.00  0.00     0.038 H 
BRANCH  10  13
ATOM     13  C   LIG d   1      10.439   7.109  -1.173  0.00  0.00     0.218 C 
ATOM     14  N   LIG d   1      10.439   8.416  -1.503  0.00  0.00    -0.296 N 
ATOM     15  C   LIG d   1       9.954   9.513  -0.653  0.00  0.00     0.049 C 
ATOM     16  C   LIG d   1      10.921   8.981  -2.776  0.00  0.00     0.015 C 
ATOM     17  H   LIG d   1       8.901   9.360  -0.416  0.00  0.00     0.052 H 
ATOM     18  C   LIG d   1      10.130  10.822  -1.451  0.00  0.00    -0.031 C 
ATOM     19  C   LIG d   1      10.170  10.328  -2.921  0.00  0.00    -0.035 C 
ATOM     20  H   LIG d   1      11.064  11.319  -1.186  0.00  0.00     0.028 H 
ATOM     21  H   LIG d   1       9.280  11.487  -1.291  0.00  0.00     0.028 H 
ATOM     22  H   LIG d   1      10.729  11.020  -3.552  0.00  0.00     0.028 H 
ATOM     23  H   LIG d   1       9.164  10.174  -3.310  0.00  0.00     0.028 H 
ATOM     24  H   LIG d   1      11.998   9.149  -2.733  0.00  0.00     0.046 H 
ATOM     25  H   LIG d   1      10.675   8.316  -3.603  0.00  0.00     0.046 H 
ATOM     26  O   LIG d   1      10.016   6.756  -0.093  0.00  0.00    -0.276 OA
BRANCH  15  27
ATOM     27  C   LIG d   1      10.777   9.578   0.635  0.00  0.00     0.066 C 
ATOM     28  H   LIG d   1      10.194  10.068   1.414  0.00  0.00     0.058 H 
ATOM     29  H   LIG d   1      11.033   8.568   0.953  0.00  0.00     0.058 H 
BRANCH  27  30
ATOM     30  O   LIG d   1      11.975  10.321   0.398  0.00  0.00    -0.381 OA
BRANCH  30  31
ATOM     31  C   LIG d   1      13.172   9.551   0.526  0.00  0.00     0.036 C 
ATOM     32  H   LIG d   1      13.378   9.373   1.581  0.00  0.00     0.052 H 
ATOM     33  H   LIG d   1      13.046   8.598   0.013  0.00  0.00     0.052 H 
ATOM     34  H   LIG d   1      14.004  10.096   0.081  0.00  0.00     0.052 H 
ENDBRANCH  30  31
ENDBRANCH  27  30
ENDBRANCH  15  27
ENDBRANCH  10  13
ENDBRANCH   1  10
BRANCH   3  35
ATOM     35  O   LIG d   1       9.288   6.742  -5.165  0.00  0.00    -0.387 OA
ATOM     36  H   LIG d   1       9.199   7.598  -4.722  0.00  0.00     0.210 HD
ENDBRANCH   3  35
BRANCH   7  37
ATOM     37  C   LIG d   1       9.466   2.186  -4.254  0.00  0.00     0.041 C 
ATOM     38  H   LIG d   1      10.444   1.961  -3.828  0.00  0.00     0.049 H 
ATOM     39  H   LIG d   1       9.440   1.861  -5.294  0.00  0.00     0.049 H 
BRANCH  37  40
ATOM     40  N   LIG d   1       8.429   1.481  -3.496  0.00  0.00    -0.309 N 
ATOM     41  C   LIG d   1       7.316   1.046  -4.119  0.00  0.00     0.244 C 
ATOM     42  O   LIG d   1       7.176   1.235  -5.312  0.00  0.00    -0.270 OA
ATOM     43  H   LIG d   1       8.542   1.330  -2.544  0.00  0.00     0.149 HD
BRANCH  41  44
ATOM     44  C   LIG d   1       6.268   0.340  -3.353  0.00  0.00     0.037 A 
ATOM     45  C   LIG d   1       5.366   1.061  -2.570  0.00  0.00    -0.050 A 
ATOM     46  C   LIG d   1       4.389   0.396  -1.859  0.00  0.00    -0.061 A 
ATOM     47  H   LIG d   1       5.433   2.138  -2.521  0.00  0.00     0.062 H 
ATOM     48  C   LIG d   1       4.303  -0.984  -1.919  0.00  0.00    -0.062 A 
ATOM     49  H   LIG d   1       3.690   0.953  -1.252  0.00  0.00     0.062 H 
ATOM     50  C   LIG d   1       5.194  -1.705  -2.694  0.00  0.00    -0.061 A 
ATOM     51  H   LIG d   1       3.537  -1.500  -1.360  0.00  0.00     0.062 H 
ATOM     52  C   LIG d   1       6.172  -1.051  -3.415  0.00  0.00    -0.050 A 
ATOM     53  H   LIG d   1       5.121  -2.782  -2.737  0.00  0.00     0.062 H 
ATOM     54  H   LIG d   1       6.864  -1.615  -4.022  0.00  0.00     0.062 H 
ENDBRANCH  41  44
ENDBRANCH  37  40
ENDBRANCH   7  37
BRANCH   5  55
ATOM     55  O   LIG d   1       9.544   4.509  -6.474  0.00  0.00    -0.387 OA
ATOM     56  H   LIG d   1       9.756   3.754  -7.039  0.00  0.00     0.210 HD
ENDBRANCH   5  55
TORSDOF 10
ENDMDL
MODEL 8
REMARK VINA RESULT:      -5.6      4.907      7.819
REMARK  10 active torsions:
REMARK  status: ('A' for Active; 'I' for Inactive)
REMARK    1  A    between atoms: C_1  and  O_2 
REMARK    2  A    between atoms: O_2  and  C_3 
REMARK    3  A    between atoms: C_3  and  C_4 
REMARK       I    between atoms: N_9  and  C_10 
REMARK    4  A    between atoms: C_10  and  C_12 
REMARK    5  A    between atoms: C_12  and  C_13 
REMARK    6  A    between atoms: C_15  and  O_33 
REMARK    7  A    between atoms: C_17  and  O_32 
REMARK    8  A    between atoms: C_19  and  C_22 
REMARK    9  A    between atoms: C_22  and  N_23 
REMARK       I    between atoms: N_23  and  C_24 
REMARK   10  A    between atoms: C_24  and  C_26 
ROOT
ATOM      1  C   LIG d   1       9.917   5.116  -3.180  0.00  0.00     0.096 C 
ATOM      2  H   LIG d   1       9.010   5.707  -3.055  0.00  0.00     0.063 H 
ATOM      3  C   LIG d   1      10.494   5.336  -4.591  0.00  0.00     0.110 C 
ATOM      4  H   LIG d   1      11.526   5.682  -4.532  0.00  0.00     0.065 H 
ATOM      5  C   LIG d   1      10.428   3.936  -5.251  0.00  0.00     0.111 C 
ATOM      6  H   LIG d   1      11.388   3.425  -5.177  0.00  0.00     0.065 H 
ATOM      7  C   LIG d   1       9.355   3.222  -4.387  0.00  0.00     0.103 C 
ATOM      8  H   LIG d   1       8.352   3.497  -4.713  0.00  0.00     0.064 H 
ATOM      9  O   LIG d   1       9.610   3.718  -3.055  0.00  0.00    -0.366 OA
ENDROOT
BRANCH   1  10
ATOM     10  C   LIG d   1      10.952   5.518  -2.127  0.00  0.00     0.053 C 
ATOM     11  H   LIG d   1      10.517   5.413  -1.132  0.00  0.00     0.038 H 
ATOM     12  H   LIG d   1      11.825   4.871  -2.210  0.00  0.00     0.038 H 
BRANCH  10  13
ATOM     13  C   LIG d   1      11.364   6.951  -2.347  0.00  0.00     0.218 C 
ATOM     14  N   LIG d   1      10.527   7.952  -2.009  0.00  0.00    -0.296 N 
ATOM     15  C   LIG d   1      10.804   9.387  -2.163  0.00  0.00     0.049 C 
ATOM     16  C   LIG d   1       9.187   7.789  -1.418  0.00  0.00     0.015 C 
ATOM     17  H   LIG d   1      11.691   9.657  -1.591  0.00  0.00     0.052 H 
ATOM     18  C   LIG d   1       9.576  10.151  -1.624  0.00  0.00    -0.031 C 
ATOM     19  C   LIG d   1       8.919   9.118  -0.670  0.00  0.00    -0.035 C 
ATOM     20  H   LIG d   1       8.894  10.415  -2.433  0.00  0.00     0.028 H 
ATOM     21  H   LIG d   1       9.887  11.040  -1.075  0.00  0.00     0.028 H 
ATOM     22  H   LIG d   1       7.849   9.302  -0.571  0.00  0.00     0.028 H 
ATOM     23  H   LIG d   1       9.406   9.122   0.305  0.00  0.00     0.028 H 
ATOM     24  H   LIG d   1       8.443   7.637  -2.202  0.00  0.00     0.046 H 
ATOM     25  H   LIG d   1       9.178   6.950  -0.722  0.00  0.00     0.046 H 
ATOM     26  O   LIG d   1      12.448   7.202  -2.827  0.00  0.00    -0.276 OA
BRANCH  15  27
ATOM     27  C   LIG d   1      11.012   9.722  -3.641  0.00  0.00     0.066 C 
ATOM     28  H   LIG d   1      11.094  10.802  -3.762  0.00  0.00     0.058 H 
ATOM     29  H   LIG d   1      11.926   9.246  -3.996  0.00  0.00     0.058 H 
BRANCH  27  30
ATOM     30  O   LIG d   1       9.901   9.241  -4.400  0.00  0.00    -0.381 OA
BRANCH  30  31
ATOM     31  C   LIG d   1       9.531  10.088  -5.490  0.00  0.00     0.036 C 
ATOM     32  H   LIG d   1       9.282   9.476  -6.357  0.00  0.00     0.052 H 
ATOM     33  H   LIG d   1       8.665  10.687  -5.206  0.00  0.00     0.052 H 
ATOM     34  H   LIG d   1      10.362  10.748  -5.737  0.00  0.00     0.052 H 
ENDBRANCH  30  31
ENDBRANCH  27  30
ENDBRANCH  15  27
ENDBRANCH  10  13
ENDBRANCH   1  10
BRANCH   3  35
ATOM     35  O   LIG d   1       9.695   6.269  -5.320  0.00  0.00    -0.387 OA
ATOM     36  H   LIG d   1       9.090   6.783  -4.768  0.00  0.00     0.210 HD
ENDBRANCH   3  35
BRANCH   7  37
ATOM     37  C   LIG d   1       9.542   1.705  -4.443  0.00  0.00     0.041 C 
ATOM     38  H   LIG d   1      10.520   1.444  -4.037  0.00  0.00     0.049 H 
ATOM     39  H   LIG d   1       9.476   1.367  -5.477  0.00  0.00     0.049 H 
BRANCH  37  40
ATOM     40  N   LIG d   1       8.495   1.055  -3.649  0.00  0.00    -0.309 N 
ATOM     41  C   LIG d   1       7.284   0.824  -4.191  0.00  0.00     0.244 C 
ATOM     42  O   LIG d   1       7.060   1.151  -5.341  0.00  0.00    -0.270 OA
ATOM     43  H   LIG d   1       8.674   0.793  -2.732  0.00  0.00     0.149 HD
BRANCH  41  44
ATOM     44  C   LIG d   1       6.226   0.173  -3.390  0.00  0.00     0.037 A 
ATOM     45  C   LIG d   1       6.042  -1.208  -3.460  0.00  0.00    -0.050 A 
ATOM     46  C   LIG d   1       5.054  -1.809  -2.709  0.00  0.00    -0.061 A 
ATOM     47  H   LIG d   1       6.672  -1.806  -4.103  0.00  0.00     0.062 H 
ATOM     48  C   LIG d   1       4.244  -1.045  -1.887  0.00  0.00    -0.062 A 
ATOM     49  H   LIG d   1       4.911  -2.878  -2.763  0.00  0.00     0.062 H 
ATOM     50  C   LIG d   1       4.421   0.325  -1.812  0.00  0.00    -0.061 A 
ATOM     51  H   LIG d   1       3.472  -1.520  -1.301  0.00  0.00     0.062 H 
ATOM     52  C   LIG d   1       5.410   0.938  -2.554  0.00  0.00    -0.050 A 
ATOM     53  H   LIG d   1       3.786   0.916  -1.168  0.00  0.00     0.062 H 
ATOM     54  H   LIG d   1       5.550   2.007  -2.492  0.00  0.00     0.062 H 
ENDBRANCH  41  44
ENDBRANCH  37  40
ENDBRANCH   7  37
BRANCH   5  55
ATOM     55  O   LIG d   1      10.004   4.032  -6.612  0.00  0.00    -0.387 OA
ATOM     56  H   LIG d   1      10.359   3.339  -7.184  0.00  0.00     0.210 HD
ENDBRANCH   5  55
TORSDOF 10
ENDMDL
MODEL 9
REMARK VINA RESULT:      -5.5      1.999      5.582
REMARK  10 active torsions:
REMARK  status: ('A' for Active; 'I' for Inactive)
REMARK    1  A    between atoms: C_1  and  O_2 
REMARK    2  A    between atoms: O_2  and  C_3 
REMARK    3  A    between atoms: C_3  and  C_4 
REMARK       I    between atoms: N_9  and  C_10 
REMARK    4  A    between atoms: C_10  and  C_12 
REMARK    5  A    between atoms: C_12  and  C_13 
REMARK    6  A    between atoms: C_15  and  O_33 
REMARK    7  A    between atoms: C_17  and  O_32 
REMARK    8  A    between atoms: C_19  and  C_22 
REMARK    9  A    between atoms: C_22  and  N_23 
REMARK       I    between atoms: N_23  and  C_24 
REMARK   10  A    between atoms: C_24  and  C_26 
ROOT
ATOM      1  C   LIG d   1       5.458  -1.369  -3.668  0.00  0.00     0.096 C 
ATOM      2  H   LIG d   1       5.574  -2.434  -3.870  0.00  0.00     0.063 H 
ATOM      3  C   LIG d   1       4.364  -1.153  -2.606  0.00  0.00     0.110 C 
ATOM      4  H   LIG d   1       4.759  -0.591  -1.760  0.00  0.00     0.065 H 
ATOM      5  C   LIG d   1       3.276  -0.334  -3.343  0.00  0.00     0.111 C 
ATOM      6  H   LIG d   1       3.381   0.731  -3.133  0.00  0.00     0.065 H 
ATOM      7  C   LIG d   1       3.594  -0.637  -4.830  0.00  0.00     0.103 C 
ATOM      8  H   LIG d   1       3.169  -1.595  -5.129  0.00  0.00     0.064 H 
ATOM      9  O   LIG d   1       5.037  -0.689  -4.862  0.00  0.00    -0.366 OA
ENDROOT
BRANCH   1  10
ATOM     10  C   LIG d   1       6.784  -0.784  -3.177  0.00  0.00     0.053 C 
ATOM     11  H   LIG d   1       6.756  -0.682  -2.091  0.00  0.00     0.038 H 
ATOM     12  H   LIG d   1       7.601  -1.449  -3.458  0.00  0.00     0.038 H 
BRANCH  10  13
ATOM     13  C   LIG d   1       6.999   0.570  -3.803  0.00  0.00     0.218 C 
ATOM     14  N   LIG d   1       7.848   0.704  -4.842  0.00  0.00    -0.296 N 
ATOM     15  C   LIG d   1       8.145   1.959  -5.548  0.00  0.00     0.049 C 
ATOM     16  C   LIG d   1       8.627  -0.383  -5.461  0.00  0.00     0.015 C 
ATOM     17  H   LIG d   1       7.231   2.370  -5.974  0.00  0.00     0.052 H 
ATOM     18  C   LIG d   1       9.148   1.625  -6.672  0.00  0.00    -0.031 C 
ATOM     19  C   LIG d   1       8.918   0.108  -6.901  0.00  0.00    -0.035 C 
ATOM     20  H   LIG d   1      10.172   1.815  -6.351  0.00  0.00     0.028 H 
ATOM     21  H   LIG d   1       8.915   2.191  -7.575  0.00  0.00     0.028 H 
ATOM     22  H   LIG d   1       9.813  -0.368  -7.302  0.00  0.00     0.028 H 
ATOM     23  H   LIG d   1       8.061  -0.064  -7.552  0.00  0.00     0.028 H 
ATOM     24  H   LIG d   1       9.559  -0.539  -4.917  0.00  0.00     0.046 H 
ATOM     25  H   LIG d   1       8.043  -1.304  -5.482  0.00  0.00     0.046 H 
ATOM     26  O   LIG d   1       6.409   1.537  -3.374  0.00  0.00    -0.276 OA
BRANCH  15  27
ATOM     27  C   LIG d   1       8.770   2.965  -4.580  0.00  0.00     0.066 C 
ATOM     28  H   LIG d   1       8.752   3.959  -5.027  0.00  0.00     0.058 H 
ATOM     29  H   LIG d   1       8.203   2.975  -3.650  0.00  0.00     0.058 H 
BRANCH  27  30
ATOM     30  O   LIG d   1      10.123   2.590  -4.309  0.00  0.00    -0.381 OA
BRANCH  30  31
ATOM     31  C   LIG d   1      10.520   2.786  -2.951  0.00  0.00     0.036 C 
ATOM     32  H   LIG d   1      10.980   3.768  -2.845  0.00  0.00     0.052 H 
ATOM     33  H   LIG d   1       9.645   2.723  -2.304  0.00  0.00     0.052 H 
ATOM     34  H   LIG d   1      11.237   2.016  -2.667  0.00  0.00     0.052 H 
ENDBRANCH  30  31
ENDBRANCH  27  30
ENDBRANCH  15  27
ENDBRANCH  10  13
ENDBRANCH   1  10
BRANCH   3  35
ATOM     35  O   LIG d   1       3.835  -2.406  -2.170  0.00  0.00    -0.387 OA
ATOM     36  H   LIG d   1       2.869  -2.448  -2.173  0.00  0.00     0.210 HD
ENDBRANCH   3  35
BRANCH   7  37
ATOM     37  C   LIG d   1       3.075   0.485  -5.731  0.00  0.00     0.041 C 
ATOM     38  H   LIG d   1       3.846   1.250  -5.840  0.00  0.00     0.049 H 
ATOM     39  H   LIG d   1       2.185   0.928  -5.285  0.00  0.00     0.049 H 
BRANCH  37  40
ATOM     40  N   LIG d   1       2.740  -0.061  -7.049  0.00  0.00    -0.309 N 
ATOM     41  C   LIG d   1       3.178   0.554  -8.165  0.00  0.00     0.244 C 
ATOM     42  O   LIG d   1       3.855   1.560  -8.078  0.00  0.00    -0.270 OA
ATOM     43  H   LIG d   1       2.201  -0.864  -7.117  0.00  0.00     0.149 HD
BRANCH  41  44
ATOM     44  C   LIG d   1       2.835   0.006  -9.494  0.00  0.00     0.037 A 
ATOM     45  C   LIG d   1       3.721   0.151 -10.563  0.00  0.00    -0.050 A 
ATOM     46  C   LIG d   1       3.396  -0.364 -11.800  0.00  0.00    -0.061 A 
ATOM     47  H   LIG d   1       4.660   0.665 -10.420  0.00  0.00     0.062 H 
ATOM     48  C   LIG d   1       2.192  -1.021 -11.985  0.00  0.00    -0.062 A 
ATOM     49  H   LIG d   1       4.081  -0.252 -12.627  0.00  0.00     0.062 H 
ATOM     50  C   LIG d   1       1.309  -1.169 -10.930  0.00  0.00    -0.061 A 
ATOM     51  H   LIG d   1       1.941  -1.422 -12.955  0.00  0.00     0.062 H 
ATOM     52  C   LIG d   1       1.625  -0.664  -9.685  0.00  0.00    -0.050 A 
ATOM     53  H   LIG d   1       0.371  -1.683 -11.080  0.00  0.00     0.062 H 
ATOM     54  H   LIG d   1       0.937  -0.783  -8.862  0.00  0.00     0.062 H 
ENDBRANCH  41  44
ENDBRANCH  37  40
ENDBRANCH   7  37
BRANCH   5  55
ATOM     55  O   LIG d   1       1.968  -0.795  -2.998  0.00  0.00    -0.387 OA
ATOM     56  H   LIG d   1       1.797  -0.815  -2.047  0.00  0.00     0.210 HD
ENDBRANCH   5  55
TORSDOF 10
ENDMDL
