MODEL 1
REMARK VINA RESULT:      -6.7      0.000      0.000
REMARK  6 active torsions:
REMARK  status: ('A' for Active; 'I' for Inactive)
REMARK    1  A    between atoms: C_1  and  C_2 
REMARK    2  A    between atoms: C_2  and  O_3 
REMARK    3  A    between atoms: O_3  and  C_4 
REMARK    4  A    between atoms: C_4  and  C_6 
REMARK    5  A    between atoms: C_22  and  C_26 
REMARK    6  A    between atoms: C_22  and  C_27 
ROOT
ATOM      1  C   LIG d   1       5.780  -1.466  -6.152  0.00  0.00     0.130 A 
ATOM      2  C   LIG d   1       5.784  -2.054  -7.499  0.00  0.00     0.207 A 
ATOM      3  O   LIG d   1       6.710  -2.745  -7.889  0.00  0.00    -0.286 OA
ATOM      4  C   LIG d   1       4.618  -1.775  -8.354  0.00  0.00     0.084 A 
ATOM      5  C   LIG d   1       3.591  -0.997  -7.871  0.00  0.00     0.034 A 
ATOM      6  N   LIG d   1       3.636  -0.479  -6.620  0.00  0.00    -0.342 N 
ATOM      7  C   LIG d   1       4.685  -0.689  -5.777  0.00  0.00     0.067 A 
ATOM      8  C   LIG d   1       4.661  -0.078  -4.433  0.00  0.00     0.003 A 
ATOM      9  C   LIG d   1       5.833   0.133  -3.710  0.00  0.00    -0.052 A 
ATOM     10  C   LIG d   1       5.762   0.699  -2.452  0.00  0.00    -0.061 A 
ATOM     11  C   LIG d   1       4.537   1.052  -1.914  0.00  0.00    -0.061 A 
ATOM     12  C   LIG d   1       3.369   0.846  -2.631  0.00  0.00    -0.058 A 
ATOM     13  C   LIG d   1       3.426   0.289  -3.887  0.00  0.00    -0.037 A 
ATOM     14  C   LIG d   1       2.181   0.077  -4.709  0.00  0.00    -0.009 C 
ATOM     15  C   LIG d   1       2.496   0.338  -6.181  0.00  0.00     0.028 C 
ATOM     16  C   LIG d   1       2.376  -0.696  -8.714  0.00  0.00    -0.006 C 
ATOM     17  C   LIG d   1       2.687  -0.831 -10.201  0.00  0.00    -0.022 C 
ATOM     18  C   LIG d   1       3.266  -2.227 -10.472  0.00  0.00     0.016 C 
ATOM     19  C   LIG d   1       4.572  -2.325  -9.714  0.00  0.00     0.169 C 
ATOM     20  O   LIG d   1       5.550  -2.840 -10.215  0.00  0.00    -0.292 OA
ATOM     21  H   LIG d   1       6.789  -0.144  -4.130  0.00  0.00     0.062 H 
ATOM     22  H   LIG d   1       6.667   0.867  -1.886  0.00  0.00     0.062 H 
ATOM     23  H   LIG d   1       4.490   1.490  -0.928  0.00  0.00     0.062 H 
ATOM     24  H   LIG d   1       2.416   1.123  -2.204  0.00  0.00     0.062 H 
ATOM     25  H   LIG d   1       1.836  -0.950  -4.587  0.00  0.00     0.033 H 
ATOM     26  H   LIG d   1       1.404   0.764  -4.374  0.00  0.00     0.033 H 
ATOM     27  H   LIG d   1       1.623   0.090  -6.785  0.00  0.00     0.050 H 
ATOM     28  H   LIG d   1       2.738   1.392  -6.315  0.00  0.00     0.050 H 
ATOM     29  H   LIG d   1       1.579  -1.391  -8.451  0.00  0.00     0.033 H 
ATOM     30  H   LIG d   1       2.043   0.322  -8.508  0.00  0.00     0.033 H 
ATOM     31  H   LIG d   1       2.618  -2.922 -10.159  0.00  0.00     0.035 H 
ATOM     32  H   LIG d   1       3.445  -2.353 -11.540  0.00  0.00     0.035 H 
ENDROOT
BRANCH   1  33
ATOM     33  C   LIG d   1       6.900  -1.687  -5.229  0.00  0.00     0.345 C 
ATOM     34  O   LIG d   1       7.889  -0.984  -5.295  0.00  0.00    -0.245 OA
BRANCH  33  35
ATOM     35  O   LIG d   1       6.830  -2.668  -4.308  0.00  0.00    -0.461 OA
BRANCH  35  36
ATOM     36  C   LIG d   1       7.932  -3.614  -4.267  0.00  0.00     0.090 C 
ATOM     37  H   LIG d   1       8.838  -3.132  -4.631  0.00  0.00     0.070 H 
ATOM     38  H   LIG d   1       8.085  -3.950  -3.242  0.00  0.00     0.070 H 
BRANCH  36  39
ATOM     39  C   LIG d   1       7.604  -4.817  -5.154  0.00  0.00    -0.031 C 
ATOM     40  H   LIG d   1       8.342  -5.602  -4.990  0.00  0.00     0.026 H 
ATOM     41  H   LIG d   1       6.611  -5.194  -4.903  0.00  0.00     0.026 H 
ATOM     42  H   LIG d   1       7.623  -4.513  -6.200  0.00  0.00     0.026 H 
ENDBRANCH  36  39
ENDBRANCH  35  36
ENDBRANCH  33  35
ENDBRANCH   1  33
BRANCH  17  43
ATOM     43  C   LIG d   1       1.402  -0.644 -11.010  0.00  0.00    -0.059 C 
ATOM     44  H   LIG d   1       1.645  -0.606 -12.073  0.00  0.00     0.024 H 
ATOM     45  H   LIG d   1       0.729  -1.480 -10.822  0.00  0.00     0.024 H 
ATOM     46  H   LIG d   1       0.918   0.286 -10.714  0.00  0.00     0.024 H 
ENDBRANCH  17  43
BRANCH  17  47
ATOM     47  C   LIG d   1       3.708   0.234 -10.609  0.00  0.00    -0.059 C 
ATOM     48  H   LIG d   1       3.229   1.213 -10.612  0.00  0.00     0.024 H 
ATOM     49  H   LIG d   1       4.534   0.236  -9.898  0.00  0.00     0.024 H 
ATOM     50  H   LIG d   1       4.087   0.011 -11.606  0.00  0.00     0.024 H 
ENDBRANCH  17  47
TORSDOF 6
ENDMDL
MODEL 2
REMARK VINA RESULT:      -6.6      1.631      5.765
REMARK  6 active torsions:
REMARK  status: ('A' for Active; 'I' for Inactive)
REMARK    1  A    between atoms: C_1  and  C_2 
REMARK    2  A    between atoms: C_2  and  O_3 
REMARK    3  A    between atoms: O_3  and  C_4 
REMARK    4  A    between atoms: C_4  and  C_6 
REMARK    5  A    between atoms: C_22  and  C_26 
REMARK    6  A    between atoms: C_22  and  C_27 
ROOT
ATOM      1  C   LIG d   1       5.052  -2.655  -7.312  0.00  0.00     0.130 A 
ATOM      2  C   LIG d   1       5.898  -2.738  -6.114  0.00  0.00     0.207 A 
ATOM      3  O   LIG d   1       6.780  -3.575  -6.014  0.00  0.00    -0.286 OA
ATOM      4  C   LIG d   1       5.637  -1.765  -5.040  0.00  0.00     0.084 A 
ATOM      5  C   LIG d   1       4.636  -0.832  -5.198  0.00  0.00     0.034 A 
ATOM      6  N   LIG d   1       3.884  -0.797  -6.324  0.00  0.00    -0.342 N 
ATOM      7  C   LIG d   1       4.065  -1.671  -7.353  0.00  0.00     0.067 A 
ATOM      8  C   LIG d   1       3.195  -1.573  -8.542  0.00  0.00     0.003 A 
ATOM      9  C   LIG d   1       3.010  -2.655  -9.399  0.00  0.00    -0.052 A 
ATOM     10  C   LIG d   1       2.193  -2.515 -10.504  0.00  0.00    -0.061 A 
ATOM     11  C   LIG d   1       1.565  -1.308 -10.758  0.00  0.00    -0.061 A 
ATOM     12  C   LIG d   1       1.744  -0.229  -9.907  0.00  0.00    -0.058 A 
ATOM     13  C   LIG d   1       2.550  -0.358  -8.800  0.00  0.00    -0.037 A 
ATOM     14  C   LIG d   1       2.745   0.784  -7.835  0.00  0.00    -0.009 C 
ATOM     15  C   LIG d   1       2.840   0.232  -6.413  0.00  0.00     0.028 C 
ATOM     16  C   LIG d   1       4.343   0.188  -4.125  0.00  0.00    -0.006 C 
ATOM     17  C   LIG d   1       4.824  -0.292  -2.759  0.00  0.00    -0.022 C 
ATOM     18  C   LIG d   1       6.314  -0.652  -2.845  0.00  0.00     0.016 C 
ATOM     19  C   LIG d   1       6.441  -1.807  -3.814  0.00  0.00     0.169 C 
ATOM     20  O   LIG d   1       7.183  -2.740  -3.584  0.00  0.00    -0.292 OA
ATOM     21  H   LIG d   1       3.501  -3.597  -9.201  0.00  0.00     0.062 H 
ATOM     22  H   LIG d   1       2.045  -3.350 -11.173  0.00  0.00     0.062 H 
ATOM     23  H   LIG d   1       0.932  -1.205 -11.627  0.00  0.00     0.062 H 
ATOM     24  H   LIG d   1       1.252   0.709 -10.113  0.00  0.00     0.062 H 
ATOM     25  H   LIG d   1       3.664   1.315  -8.082  0.00  0.00     0.033 H 
ATOM     26  H   LIG d   1       1.900   1.467  -7.906  0.00  0.00     0.033 H 
ATOM     27  H   LIG d   1       3.078   1.046  -5.728  0.00  0.00     0.050 H 
ATOM     28  H   LIG d   1       1.881  -0.204  -6.132  0.00  0.00     0.050 H 
ATOM     29  H   LIG d   1       4.848   1.122  -4.373  0.00  0.00     0.033 H 
ATOM     30  H   LIG d   1       3.268   0.364  -4.085  0.00  0.00     0.033 H 
ATOM     31  H   LIG d   1       6.830   0.142  -3.167  0.00  0.00     0.035 H 
ATOM     32  H   LIG d   1       6.681  -0.949  -1.862  0.00  0.00     0.035 H 
ENDROOT
BRANCH   1  33
ATOM     33  C   LIG d   1       5.237  -3.585  -8.433  0.00  0.00     0.345 C 
ATOM     34  O   LIG d   1       6.010  -3.310  -9.329  0.00  0.00    -0.245 OA
BRANCH  33  35
ATOM     35  O   LIG d   1       4.549  -4.744  -8.467  0.00  0.00    -0.461 OA
BRANCH  35  36
ATOM     36  C   LIG d   1       5.248  -5.938  -8.026  0.00  0.00     0.090 C 
ATOM     37  H   LIG d   1       5.128  -6.725  -8.770  0.00  0.00     0.070 H 
ATOM     38  H   LIG d   1       6.308  -5.714  -7.903  0.00  0.00     0.070 H 
BRANCH  36  39
ATOM     39  C   LIG d   1       4.668  -6.406  -6.690  0.00  0.00    -0.031 C 
ATOM     40  H   LIG d   1       4.324  -7.436  -6.784  0.00  0.00     0.026 H 
ATOM     41  H   LIG d   1       5.438  -6.349  -5.920  0.00  0.00     0.026 H 
ATOM     42  H   LIG d   1       3.830  -5.766  -6.414  0.00  0.00     0.026 H 
ENDBRANCH  36  39
ENDBRANCH  35  36
ENDBRANCH  33  35
ENDBRANCH   1  33
BRANCH  17  43
ATOM     43  C   LIG d   1       4.625   0.820  -1.728  0.00  0.00    -0.059 C 
ATOM     44  H   LIG d   1       5.453   1.527  -1.792  0.00  0.00     0.024 H 
ATOM     45  H   LIG d   1       3.688   1.340  -1.929  0.00  0.00     0.024 H 
ATOM     46  H   LIG d   1       4.593   0.387  -0.729  0.00  0.00     0.024 H 
ENDBRANCH  17  43
BRANCH  17  47
ATOM     47  C   LIG d   1       4.023  -1.528  -2.340  0.00  0.00    -0.059 C 
ATOM     48  H   LIG d   1       4.620  -2.134  -1.660  0.00  0.00     0.024 H 
ATOM     49  H   LIG d   1       3.107  -1.214  -1.840  0.00  0.00     0.024 H 
ATOM     50  H   LIG d   1       3.771  -2.114  -3.224  0.00  0.00     0.024 H 
ENDBRANCH  17  47
TORSDOF 6
ENDMDL
MODEL 3
REMARK VINA RESULT:      -6.3      2.466      6.781
REMARK  6 active torsions:
REMARK  status: ('A' for Active; 'I' for Inactive)
REMARK    1  A    between atoms: C_1  and  C_2 
REMARK    2  A    between atoms: C_2  and  O_3 
REMARK    3  A    between atoms: O_3  and  C_4 
REMARK    4  A    between atoms: C_4  and  C_6 
REMARK    5  A    between atoms: C_22  and  C_26 
REMARK    6  A    between atoms: C_22  and  C_27 
ROOT
ATOM      1  C   LIG d   1       3.718  -0.881  -7.923  0.00  0.00     0.130 A 
ATOM      2  C   LIG d   1       3.299   0.056  -6.872  0.00  0.00     0.207 A 
ATOM      3  O   LIG d   1       2.767   1.120  -7.143  0.00  0.00    -0.286 OA
ATOM      4  C   LIG d   1       3.546  -0.347  -5.478  0.00  0.00     0.084 A 
ATOM      5  C   LIG d   1       4.143  -1.559  -5.216  0.00  0.00     0.034 A 
ATOM      6  N   LIG d   1       4.509  -2.389  -6.223  0.00  0.00    -0.342 N 
ATOM      7  C   LIG d   1       4.319  -2.078  -7.535  0.00  0.00     0.067 A 
ATOM      8  C   LIG d   1       4.758  -3.033  -8.572  0.00  0.00     0.003 A 
ATOM      9  C   LIG d   1       5.011  -2.622  -9.879  0.00  0.00    -0.052 A 
ATOM     10  C   LIG d   1       5.412  -3.552 -10.818  0.00  0.00    -0.061 A 
ATOM     11  C   LIG d   1       5.559  -4.882 -10.464  0.00  0.00    -0.061 A 
ATOM     12  C   LIG d   1       5.312  -5.295  -9.164  0.00  0.00    -0.058 A 
ATOM     13  C   LIG d   1       4.918  -4.377  -8.218  0.00  0.00    -0.037 A 
ATOM     14  C   LIG d   1       4.668  -4.784  -6.789  0.00  0.00    -0.009 C 
ATOM     15  C   LIG d   1       5.137  -3.667  -5.857  0.00  0.00     0.028 C 
ATOM     16  C   LIG d   1       4.405  -2.012  -3.801  0.00  0.00    -0.006 C 
ATOM     17  C   LIG d   1       4.484  -0.825  -2.846  0.00  0.00    -0.022 C 
ATOM     18  C   LIG d   1       3.203   0.012  -2.973  0.00  0.00     0.016 C 
ATOM     19  C   LIG d   1       3.161   0.555  -4.386  0.00  0.00     0.169 C 
ATOM     20  O   LIG d   1       2.822   1.698  -4.608  0.00  0.00    -0.292 OA
ATOM     21  H   LIG d   1       4.894  -1.584 -10.155  0.00  0.00     0.062 H 
ATOM     22  H   LIG d   1       5.610  -3.240 -11.833  0.00  0.00     0.062 H 
ATOM     23  H   LIG d   1       5.869  -5.603 -11.206  0.00  0.00     0.062 H 
ATOM     24  H   LIG d   1       5.428  -6.334  -8.896  0.00  0.00     0.062 H 
ATOM     25  H   LIG d   1       3.603  -4.958  -6.641  0.00  0.00     0.033 H 
ATOM     26  H   LIG d   1       5.220  -5.697  -6.569  0.00  0.00     0.033 H 
ATOM     27  H   LIG d   1       4.867  -3.918  -4.831  0.00  0.00     0.050 H 
ATOM     28  H   LIG d   1       6.220  -3.569  -5.930  0.00  0.00     0.050 H 
ATOM     29  H   LIG d   1       3.599  -2.674  -3.483  0.00  0.00     0.033 H 
ATOM     30  H   LIG d   1       5.347  -2.559  -3.771  0.00  0.00     0.033 H 
ATOM     31  H   LIG d   1       2.408  -0.566  -2.790  0.00  0.00     0.035 H 
ATOM     32  H   LIG d   1       3.226   0.835  -2.260  0.00  0.00     0.035 H 
ENDROOT
BRANCH   1  33
ATOM     33  C   LIG d   1       3.515  -0.565  -9.342  0.00  0.00     0.345 C 
ATOM     34  O   LIG d   1       2.518  -0.958  -9.915  0.00  0.00    -0.245 OA
BRANCH  33  35
ATOM     35  O   LIG d   1       4.434   0.162 -10.009  0.00  0.00    -0.461 OA
BRANCH  35  36
ATOM     36  C   LIG d   1       3.941   1.251 -10.833  0.00  0.00     0.090 C 
ATOM     37  H   LIG d   1       4.689   1.507 -11.582  0.00  0.00     0.070 H 
ATOM     38  H   LIG d   1       3.021   0.944 -11.329  0.00  0.00     0.070 H 
BRANCH  36  39
ATOM     39  C   LIG d   1       3.663   2.472  -9.953  0.00  0.00    -0.031 C 
ATOM     40  H   LIG d   1       2.684   2.366  -9.485  0.00  0.00     0.026 H 
ATOM     41  H   LIG d   1       4.430   2.546  -9.181  0.00  0.00     0.026 H 
ATOM     42  H   LIG d   1       3.677   3.372 -10.567  0.00  0.00     0.026 H 
ENDBRANCH  36  39
ENDBRANCH  35  36
ENDBRANCH  33  35
ENDBRANCH   1  33
BRANCH  17  43
ATOM     43  C   LIG d   1       4.622  -1.334  -1.410  0.00  0.00    -0.059 C 
ATOM     44  H   LIG d   1       4.072  -2.270  -1.301  0.00  0.00     0.024 H 
ATOM     45  H   LIG d   1       5.674  -1.503  -1.184  0.00  0.00     0.024 H 
ATOM     46  H   LIG d   1       4.217  -0.592  -0.722  0.00  0.00     0.024 H 
ENDBRANCH  17  43
BRANCH  17  47
ATOM     47  C   LIG d   1       5.697   0.038  -3.202  0.00  0.00    -0.059 C 
ATOM     48  H   LIG d   1       5.448   1.089  -3.062  0.00  0.00     0.024 H 
ATOM     49  H   LIG d   1       6.533  -0.228  -2.556  0.00  0.00     0.024 H 
ATOM     50  H   LIG d   1       5.973  -0.136  -4.242  0.00  0.00     0.024 H 
ENDBRANCH  17  47
TORSDOF 6
ENDMDL
MODEL 4
REMARK VINA RESULT:      -6.3      2.336      4.882
REMARK  6 active torsions:
REMARK  status: ('A' for Active; 'I' for Inactive)
REMARK    1  A    between atoms: C_1  and  C_2 
REMARK    2  A    between atoms: C_2  and  O_3 
REMARK    3  A    between atoms: O_3  and  C_4 
REMARK    4  A    between atoms: C_4  and  C_6 
REMARK    5  A    between atoms: C_22  and  C_26 
REMARK    6  A    between atoms: C_22  and  C_27 
ROOT
ATOM      1  C   LIG d   1       4.234  -1.304  -6.889  0.00  0.00     0.130 A 
ATOM      2  C   LIG d   1       4.572  -2.333  -7.883  0.00  0.00     0.207 A 
ATOM      3  O   LIG d   1       4.277  -2.204  -9.059  0.00  0.00    -0.286 OA
ATOM      4  C   LIG d   1       5.285  -3.525  -7.395  0.00  0.00     0.084 A 
ATOM      5  C   LIG d   1       5.606  -3.628  -6.061  0.00  0.00     0.034 A 
ATOM      6  N   LIG d   1       5.273  -2.648  -5.185  0.00  0.00    -0.342 N 
ATOM      7  C   LIG d   1       4.606  -1.523  -5.564  0.00  0.00     0.067 A 
ATOM      8  C   LIG d   1       4.270  -0.508  -4.544  0.00  0.00     0.003 A 
ATOM      9  C   LIG d   1       3.242   0.410  -4.744  0.00  0.00    -0.052 A 
ATOM     10  C   LIG d   1       2.969   1.346  -3.766  0.00  0.00    -0.061 A 
ATOM     11  C   LIG d   1       3.712   1.374  -2.599  0.00  0.00    -0.061 A 
ATOM     12  C   LIG d   1       4.734   0.460  -2.395  0.00  0.00    -0.058 A 
ATOM     13  C   LIG d   1       5.012  -0.481  -3.359  0.00  0.00    -0.037 A 
ATOM     14  C   LIG d   1       6.097  -1.509  -3.160  0.00  0.00    -0.009 C 
ATOM     15  C   LIG d   1       5.656  -2.834  -3.779  0.00  0.00     0.028 C 
ATOM     16  C   LIG d   1       6.344  -4.829  -5.524  0.00  0.00    -0.006 C 
ATOM     17  C   LIG d   1       6.155  -6.043  -6.428  0.00  0.00    -0.022 C 
ATOM     18  C   LIG d   1       6.575  -5.679  -7.859  0.00  0.00     0.016 C 
ATOM     19  C   LIG d   1       5.636  -4.593  -8.338  0.00  0.00     0.169 C 
ATOM     20  O   LIG d   1       5.188  -4.605  -9.466  0.00  0.00    -0.292 OA
ATOM     21  H   LIG d   1       2.662   0.388  -5.655  0.00  0.00     0.062 H 
ATOM     22  H   LIG d   1       2.172   2.061  -3.914  0.00  0.00     0.062 H 
ATOM     23  H   LIG d   1       3.495   2.112  -1.842  0.00  0.00     0.062 H 
ATOM     24  H   LIG d   1       5.310   0.489  -1.483  0.00  0.00     0.062 H 
ATOM     25  H   LIG d   1       7.012  -1.168  -3.643  0.00  0.00     0.033 H 
ATOM     26  H   LIG d   1       6.277  -1.645  -2.094  0.00  0.00     0.033 H 
ATOM     27  H   LIG d   1       6.478  -3.549  -3.722  0.00  0.00     0.050 H 
ATOM     28  H   LIG d   1       4.803  -3.224  -3.223  0.00  0.00     0.050 H 
ATOM     29  H   LIG d   1       7.406  -4.595  -5.458  0.00  0.00     0.033 H 
ATOM     30  H   LIG d   1       5.968  -5.063  -4.528  0.00  0.00     0.033 H 
ATOM     31  H   LIG d   1       7.522  -5.357  -7.855  0.00  0.00     0.035 H 
ATOM     32  H   LIG d   1       6.492  -6.554  -8.504  0.00  0.00     0.035 H 
ENDROOT
BRANCH   1  33
ATOM     33  C   LIG d   1       3.522  -0.082  -7.281  0.00  0.00     0.345 C 
ATOM     34  O   LIG d   1       2.312  -0.096  -7.402  0.00  0.00    -0.245 OA
BRANCH  33  35
ATOM     35  O   LIG d   1       4.209   1.056  -7.506  0.00  0.00    -0.461 OA
BRANCH  35  36
ATOM     36  C   LIG d   1       4.572   1.345  -8.882  0.00  0.00     0.090 C 
ATOM     37  H   LIG d   1       5.655   1.432  -8.962  0.00  0.00     0.070 H 
ATOM     38  H   LIG d   1       4.225   0.538  -9.527  0.00  0.00     0.070 H 
BRANCH  36  39
ATOM     39  C   LIG d   1       3.921   2.660  -9.317  0.00  0.00    -0.031 C 
ATOM     40  H   LIG d   1       4.298   3.474  -8.698  0.00  0.00     0.026 H 
ATOM     41  H   LIG d   1       4.161   2.856 -10.362  0.00  0.00     0.026 H 
ATOM     42  H   LIG d   1       2.840   2.585  -9.201  0.00  0.00     0.026 H 
ENDBRANCH  36  39
ENDBRANCH  35  36
ENDBRANCH  33  35
ENDBRANCH   1  33
BRANCH  17  43
ATOM     43  C   LIG d   1       7.019  -7.198  -5.919  0.00  0.00    -0.059 C 
ATOM     44  H   LIG d   1       6.417  -7.853  -5.288  0.00  0.00     0.024 H 
ATOM     45  H   LIG d   1       7.404  -7.766  -6.766  0.00  0.00     0.024 H 
ATOM     46  H   LIG d   1       7.852  -6.801  -5.340  0.00  0.00     0.024 H 
ENDBRANCH  17  43
BRANCH  17  47
ATOM     47  C   LIG d   1       4.683  -6.464  -6.418  0.00  0.00    -0.059 C 
ATOM     48  H   LIG d   1       4.388  -6.777  -7.420  0.00  0.00     0.024 H 
ATOM     49  H   LIG d   1       4.547  -7.292  -5.723  0.00  0.00     0.024 H 
ATOM     50  H   LIG d   1       4.067  -5.621  -6.104  0.00  0.00     0.024 H 
ENDBRANCH  17  47
TORSDOF 6
ENDMDL
MODEL 5
REMARK VINA RESULT:      -6.2      3.301      5.395
REMARK  6 active torsions:
REMARK  status: ('A' for Active; 'I' for Inactive)
REMARK    1  A    between atoms: C_1  and  C_2 
REMARK    2  A    between atoms: C_2  and  O_3 
REMARK    3  A    between atoms: O_3  and  C_4 
REMARK    4  A    between atoms: C_4  and  C_6 
REMARK    5  A    between atoms: C_22  and  C_26 
REMARK    6  A    between atoms: C_22  and  C_27 
ROOT
ATOM      1  C   LIG d   1       6.324  -0.775  -6.567  0.00  0.00     0.130 A 
ATOM      2  C   LIG d   1       7.170  -0.132  -7.582  0.00  0.00     0.207 A 
ATOM      3  O   LIG d   1       7.186  -0.521  -8.737  0.00  0.00    -0.286 OA
ATOM      4  C   LIG d   1       7.993   1.008  -7.143  0.00  0.00     0.084 A 
ATOM      5  C   LIG d   1       7.939   1.420  -5.831  0.00  0.00     0.034 A 
ATOM      6  N   LIG d   1       7.141   0.793  -4.934  0.00  0.00    -0.342 N 
ATOM      7  C   LIG d   1       6.359  -0.271  -5.267  0.00  0.00     0.067 A 
ATOM      8  C   LIG d   1       5.526  -0.907  -4.226  0.00  0.00     0.003 A 
ATOM      9  C   LIG d   1       5.070  -2.216  -4.359  0.00  0.00    -0.052 A 
ATOM     10  C   LIG d   1       4.286  -2.766  -3.364  0.00  0.00    -0.061 A 
ATOM     11  C   LIG d   1       3.956  -2.022  -2.244  0.00  0.00    -0.061 A 
ATOM     12  C   LIG d   1       4.410  -0.720  -2.107  0.00  0.00    -0.058 A 
ATOM     13  C   LIG d   1       5.196  -0.162  -3.088  0.00  0.00    -0.037 A 
ATOM     14  C   LIG d   1       5.732   1.240  -2.960  0.00  0.00    -0.009 C 
ATOM     15  C   LIG d   1       7.139   1.299  -3.554  0.00  0.00     0.028 C 
ATOM     16  C   LIG d   1       8.761   2.588  -5.345  0.00  0.00    -0.006 C 
ATOM     17  C   LIG d   1       9.975   2.821  -6.239  0.00  0.00    -0.022 C 
ATOM     18  C   LIG d   1       9.508   2.988  -7.692  0.00  0.00     0.016 C 
ATOM     19  C   LIG d   1       8.868   1.682  -8.110  0.00  0.00     0.169 C 
ATOM     20  O   LIG d   1       9.071   1.207  -9.207  0.00  0.00    -0.292 OA
ATOM     21  H   LIG d   1       5.327  -2.796  -5.233  0.00  0.00     0.062 H 
ATOM     22  H   LIG d   1       3.929  -3.782  -3.460  0.00  0.00     0.062 H 
ATOM     23  H   LIG d   1       3.339  -2.459  -1.473  0.00  0.00     0.062 H 
ATOM     24  H   LIG d   1       4.147  -0.145  -1.231  0.00  0.00     0.062 H 
ATOM     25  H   LIG d   1       5.081   1.929  -3.497  0.00  0.00     0.033 H 
ATOM     26  H   LIG d   1       5.769   1.520  -1.908  0.00  0.00     0.033 H 
ATOM     27  H   LIG d   1       7.488   2.332  -3.550  0.00  0.00     0.050 H 
ATOM     28  H   LIG d   1       7.811   0.691  -2.948  0.00  0.00     0.050 H 
ATOM     29  H   LIG d   1       8.140   3.485  -5.344  0.00  0.00     0.033 H 
ATOM     30  H   LIG d   1       9.098   2.388  -4.328  0.00  0.00     0.033 H 
ATOM     31  H   LIG d   1       8.852   3.741  -7.746  0.00  0.00     0.035 H 
ATOM     32  H   LIG d   1      10.362   3.205  -8.333  0.00  0.00     0.035 H 
ENDROOT
BRANCH   1  33
ATOM     33  C   LIG d   1       5.471  -1.919  -6.910  0.00  0.00     0.345 C 
ATOM     34  O   LIG d   1       5.952  -3.032  -6.992  0.00  0.00    -0.245 OA
BRANCH  33  35
ATOM     35  O   LIG d   1       4.155  -1.734  -7.134  0.00  0.00    -0.461 OA
BRANCH  35  36
ATOM     36  C   LIG d   1       3.747  -0.430  -7.625  0.00  0.00     0.090 C 
ATOM     37  H   LIG d   1       4.629   0.177  -7.822  0.00  0.00     0.070 H 
ATOM     38  H   LIG d   1       3.176  -0.550  -8.545  0.00  0.00     0.070 H 
BRANCH  36  39
ATOM     39  C   LIG d   1       2.877   0.262  -6.573  0.00  0.00    -0.031 C 
ATOM     40  H   LIG d   1       3.515   0.765  -5.847  0.00  0.00     0.026 H 
ATOM     41  H   LIG d   1       2.232   0.995  -7.060  0.00  0.00     0.026 H 
ATOM     42  H   LIG d   1       2.263  -0.481  -6.065  0.00  0.00     0.026 H 
ENDBRANCH  36  39
ENDBRANCH  35  36
ENDBRANCH  33  35
ENDBRANCH   1  33
BRANCH  17  43
ATOM     43  C   LIG d   1      10.706   4.087  -5.788  0.00  0.00    -0.059 C 
ATOM     44  H   LIG d   1      11.519   4.304  -6.482  0.00  0.00     0.024 H 
ATOM     45  H   LIG d   1      10.008   4.925  -5.774  0.00  0.00     0.024 H 
ATOM     46  H   LIG d   1      11.111   3.936  -4.788  0.00  0.00     0.024 H 
ENDBRANCH  17  43
BRANCH  17  47
ATOM     47  C   LIG d   1      10.920   1.622  -6.140  0.00  0.00    -0.059 C 
ATOM     48  H   LIG d   1      11.019   1.323  -5.096  0.00  0.00     0.024 H 
ATOM     49  H   LIG d   1      10.516   0.792  -6.719  0.00  0.00     0.024 H 
ATOM     50  H   LIG d   1      11.898   1.896  -6.534  0.00  0.00     0.024 H 
ENDBRANCH  17  47
TORSDOF 6
ENDMDL
MODEL 6
REMARK VINA RESULT:      -5.8      9.342     11.593
REMARK  6 active torsions:
REMARK  status: ('A' for Active; 'I' for Inactive)
REMARK    1  A    between atoms: C_1  and  C_2 
REMARK    2  A    between atoms: C_2  and  O_3 
REMARK    3  A    between atoms: O_3  and  C_4 
REMARK    4  A    between atoms: C_4  and  C_6 
REMARK    5  A    between atoms: C_22  and  C_26 
REMARK    6  A    between atoms: C_22  and  C_27 
ROOT
ATOM      1  C   LIG d   1      11.018   6.701  -1.236  0.00  0.00     0.130 A 
ATOM      2  C   LIG d   1      10.868   5.661  -2.263  0.00  0.00     0.207 A 
ATOM      3  O   LIG d   1      11.080   4.486  -2.015  0.00  0.00    -0.286 OA
ATOM      4  C   LIG d   1      10.446   6.100  -3.604  0.00  0.00     0.084 A 
ATOM      5  C   LIG d   1      10.209   7.436  -3.838  0.00  0.00     0.034 A 
ATOM      6  N   LIG d   1      10.361   8.355  -2.855  0.00  0.00    -0.342 N 
ATOM      7  C   LIG d   1      10.756   8.022  -1.595  0.00  0.00     0.067 A 
ATOM      8  C   LIG d   1      10.909   9.087  -0.584  0.00  0.00     0.003 A 
ATOM      9  C   LIG d   1      11.709   8.911   0.543  0.00  0.00    -0.052 A 
ATOM     10  C   LIG d   1      11.815   9.931   1.467  0.00  0.00    -0.061 A 
ATOM     11  C   LIG d   1      11.132  11.120   1.276  0.00  0.00    -0.061 A 
ATOM     12  C   LIG d   1      10.337  11.301   0.155  0.00  0.00    -0.058 A 
ATOM     13  C   LIG d   1      10.227  10.294  -0.776  0.00  0.00    -0.037 A 
ATOM     14  C   LIG d   1       9.396  10.466  -2.021  0.00  0.00    -0.009 C 
ATOM     15  C   LIG d   1      10.085   9.760  -3.188  0.00  0.00     0.028 C 
ATOM     16  C   LIG d   1       9.768   7.924  -5.196  0.00  0.00    -0.006 C 
ATOM     17  C   LIG d   1      10.174   6.948  -6.295  0.00  0.00    -0.022 C 
ATOM     18  C   LIG d   1       9.628   5.553  -5.960  0.00  0.00     0.016 C 
ATOM     19  C   LIG d   1      10.292   5.108  -4.674  0.00  0.00     0.169 C 
ATOM     20  O   LIG d   1      10.686   3.969  -4.533  0.00  0.00    -0.292 OA
ATOM     21  H   LIG d   1      12.241   7.983   0.692  0.00  0.00     0.062 H 
ATOM     22  H   LIG d   1      12.435   9.801   2.343  0.00  0.00     0.062 H 
ATOM     23  H   LIG d   1      11.217  11.911   2.006  0.00  0.00     0.062 H 
ATOM     24  H   LIG d   1       9.806  12.230   0.014  0.00  0.00     0.062 H 
ATOM     25  H   LIG d   1       8.410  10.030  -1.863  0.00  0.00     0.033 H 
ATOM     26  H   LIG d   1       9.293  11.527  -2.246  0.00  0.00     0.033 H 
ATOM     27  H   LIG d   1       9.437   9.800  -4.065  0.00  0.00     0.050 H 
ATOM     28  H   LIG d   1      11.023  10.267  -3.412  0.00  0.00     0.050 H 
ATOM     29  H   LIG d   1       8.683   8.035  -5.199  0.00  0.00     0.033 H 
ATOM     30  H   LIG d   1      10.225   8.894  -5.392  0.00  0.00     0.033 H 
ATOM     31  H   LIG d   1       8.635   5.602  -5.849  0.00  0.00     0.035 H 
ATOM     32  H   LIG d   1       9.869   4.857  -6.763  0.00  0.00     0.035 H 
ENDROOT
BRANCH   1  33
ATOM     33  C   LIG d   1      11.436   6.359   0.129  0.00  0.00     0.345 C 
ATOM     34  O   LIG d   1      12.615   6.201   0.381  0.00  0.00    -0.245 OA
BRANCH  33  35
ATOM     35  O   LIG d   1      10.514   6.220   1.102  0.00  0.00    -0.461 OA
BRANCH  35  36
ATOM     36  C   LIG d   1      10.904   5.461   2.277  0.00  0.00     0.090 C 
ATOM     37  H   LIG d   1      10.164   4.686   2.471  0.00  0.00     0.070 H 
ATOM     38  H   LIG d   1      11.877   5.001   2.106  0.00  0.00     0.070 H 
BRANCH  36  39
ATOM     39  C   LIG d   1      10.990   6.398   3.484  0.00  0.00    -0.031 C 
ATOM     40  H   LIG d   1      10.711   7.407   3.182  0.00  0.00     0.026 H 
ATOM     41  H   LIG d   1      10.311   6.050   4.263  0.00  0.00     0.026 H 
ATOM     42  H   LIG d   1      12.010   6.403   3.868  0.00  0.00     0.026 H 
ENDBRANCH  36  39
ENDBRANCH  35  36
ENDBRANCH  33  35
ENDBRANCH   1  33
BRANCH  17  43
ATOM     43  C   LIG d   1       9.598   7.415  -7.632  0.00  0.00    -0.059 C 
ATOM     44  H   LIG d   1       9.812   8.476  -7.770  0.00  0.00     0.024 H 
ATOM     45  H   LIG d   1      10.052   6.845  -8.443  0.00  0.00     0.024 H 
ATOM     46  H   LIG d   1       8.520   7.258  -7.638  0.00  0.00     0.024 H 
ENDBRANCH  17  43
BRANCH  17  47
ATOM     47  C   LIG d   1      11.701   6.890  -6.388  0.00  0.00    -0.059 C 
ATOM     48  H   LIG d   1      12.104   6.452  -5.475  0.00  0.00     0.024 H 
ATOM     49  H   LIG d   1      11.989   6.280  -7.243  0.00  0.00     0.024 H 
ATOM     50  H   LIG d   1      12.095   7.898  -6.513  0.00  0.00     0.024 H 
ENDBRANCH  17  47
TORSDOF 6
ENDMDL
MODEL 7
REMARK VINA RESULT:      -5.7      2.593      4.936
REMARK  6 active torsions:
REMARK  status: ('A' for Active; 'I' for Inactive)
REMARK    1  A    between atoms: C_1  and  C_2 
REMARK    2  A    between atoms: C_2  and  O_3 
REMARK    3  A    between atoms: O_3  and  C_4 
REMARK    4  A    between atoms: C_4  and  C_6 
REMARK    5  A    between atoms: C_22  and  C_26 
REMARK    6  A    between atoms: C_22  and  C_27 
ROOT
ATOM      1  C   LIG d   1       4.722  -2.646  -6.199  0.00  0.00     0.130 A 
ATOM      2  C   LIG d   1       4.511  -1.250  -6.608  0.00  0.00     0.207 A 
ATOM      3  O   LIG d   1       4.607  -0.332  -5.811  0.00  0.00    -0.286 OA
ATOM      4  C   LIG d   1       4.184  -1.010  -8.023  0.00  0.00     0.084 A 
ATOM      5  C   LIG d   1       4.094  -2.075  -8.891  0.00  0.00     0.034 A 
ATOM      6  N   LIG d   1       4.299  -3.344  -8.463  0.00  0.00    -0.342 N 
ATOM      7  C   LIG d   1       4.597  -3.641  -7.168  0.00  0.00     0.067 A 
ATOM      8  C   LIG d   1       4.795  -5.052  -6.781  0.00  0.00     0.003 A 
ATOM      9  C   LIG d   1       4.656  -5.470  -5.459  0.00  0.00    -0.052 A 
ATOM     10  C   LIG d   1       4.858  -6.799  -5.142  0.00  0.00    -0.061 A 
ATOM     11  C   LIG d   1       5.198  -7.707  -6.129  0.00  0.00    -0.061 A 
ATOM     12  C   LIG d   1       5.335  -7.297  -7.445  0.00  0.00    -0.058 A 
ATOM     13  C   LIG d   1       5.130  -5.978  -7.775  0.00  0.00    -0.037 A 
ATOM     14  C   LIG d   1       5.241  -5.500  -9.200  0.00  0.00    -0.009 C 
ATOM     15  C   LIG d   1       4.188  -4.422  -9.455  0.00  0.00     0.028 C 
ATOM     16  C   LIG d   1       3.769  -1.868 -10.350  0.00  0.00    -0.006 C 
ATOM     17  C   LIG d   1       3.031  -0.552 -10.571  0.00  0.00    -0.022 C 
ATOM     18  C   LIG d   1       3.858   0.598  -9.980  0.00  0.00     0.016 C 
ATOM     19  C   LIG d   1       3.949   0.362  -8.487  0.00  0.00     0.169 C 
ATOM     20  O   LIG d   1       3.831   1.278  -7.700  0.00  0.00    -0.292 OA
ATOM     21  H   LIG d   1       4.391  -4.760  -4.689  0.00  0.00     0.062 H 
ATOM     22  H   LIG d   1       4.752  -7.129  -4.119  0.00  0.00     0.062 H 
ATOM     23  H   LIG d   1       5.359  -8.744  -5.871  0.00  0.00     0.062 H 
ATOM     24  H   LIG d   1       5.601  -8.012  -8.209  0.00  0.00     0.062 H 
ATOM     25  H   LIG d   1       6.234  -5.085  -9.368  0.00  0.00     0.033 H 
ATOM     26  H   LIG d   1       5.077  -6.337  -9.878  0.00  0.00     0.033 H 
ATOM     27  H   LIG d   1       4.331  -4.008 -10.453  0.00  0.00     0.050 H 
ATOM     28  H   LIG d   1       3.195  -4.868  -9.391  0.00  0.00     0.050 H 
ATOM     29  H   LIG d   1       4.696  -1.859 -10.924  0.00  0.00     0.033 H 
ATOM     30  H   LIG d   1       3.144  -2.692 -10.695  0.00  0.00     0.033 H 
ATOM     31  H   LIG d   1       4.767   0.602 -10.396  0.00  0.00     0.035 H 
ATOM     32  H   LIG d   1       3.365   1.550 -10.176  0.00  0.00     0.035 H 
ENDROOT
BRANCH   1  33
ATOM     33  C   LIG d   1       5.051  -2.984  -4.809  0.00  0.00     0.345 C 
ATOM     34  O   LIG d   1       6.210  -3.139  -4.479  0.00  0.00    -0.245 OA
BRANCH  33  35
ATOM     35  O   LIG d   1       4.066  -3.122  -3.899  0.00  0.00    -0.461 OA
BRANCH  35  36
ATOM     36  C   LIG d   1       4.102  -2.235  -2.749  0.00  0.00     0.090 C 
ATOM     37  H   LIG d   1       3.934  -2.811  -1.840  0.00  0.00     0.070 H 
ATOM     38  H   LIG d   1       5.075  -1.748  -2.696  0.00  0.00     0.070 H 
BRANCH  36  39
ATOM     39  C   LIG d   1       3.008  -1.174  -2.889  0.00  0.00    -0.031 C 
ATOM     40  H   LIG d   1       2.599  -0.942  -1.907  0.00  0.00     0.026 H 
ATOM     41  H   LIG d   1       3.433  -0.271  -3.329  0.00  0.00     0.026 H 
ATOM     42  H   LIG d   1       2.215  -1.553  -3.533  0.00  0.00     0.026 H 
ENDBRANCH  36  39
ENDBRANCH  35  36
ENDBRANCH  33  35
ENDBRANCH   1  33
BRANCH  17  43
ATOM     43  C   LIG d   1       2.835  -0.322 -12.071  0.00  0.00    -0.059 C 
ATOM     44  H   LIG d   1       2.777  -1.285 -12.582  0.00  0.00     0.024 H 
ATOM     45  H   LIG d   1       1.912   0.232 -12.237  0.00  0.00     0.024 H 
ATOM     46  H   LIG d   1       3.677   0.248 -12.464  0.00  0.00     0.024 H 
ENDBRANCH  17  43
BRANCH  17  47
ATOM     47  C   LIG d   1       1.666  -0.609  -9.881  0.00  0.00    -0.059 C 
ATOM     48  H   LIG d   1       1.408   0.381  -9.504  0.00  0.00     0.024 H 
ATOM     49  H   LIG d   1       0.911  -0.934 -10.596  0.00  0.00     0.024 H 
ATOM     50  H   LIG d   1       1.708  -1.314  -9.051  0.00  0.00     0.024 H 
ENDBRANCH  17  47
TORSDOF 6
ENDMDL
MODEL 8
REMARK VINA RESULT:      -5.7      2.335      6.751
REMARK  6 active torsions:
REMARK  status: ('A' for Active; 'I' for Inactive)
REMARK    1  A    between atoms: C_1  and  C_2 
REMARK    2  A    between atoms: C_2  and  O_3 
REMARK    3  A    between atoms: O_3  and  C_4 
REMARK    4  A    between atoms: C_4  and  C_6 
REMARK    5  A    between atoms: C_22  and  C_26 
REMARK    6  A    between atoms: C_22  and  C_27 
ROOT
ATOM      1  C   LIG d   1       4.419  -0.933  -6.605  0.00  0.00     0.130 A 
ATOM      2  C   LIG d   1       5.261  -0.676  -5.427  0.00  0.00     0.207 A 
ATOM      3  O   LIG d   1       5.236   0.397  -4.849  0.00  0.00    -0.286 OA
ATOM      4  C   LIG d   1       6.131  -1.774  -4.975  0.00  0.00     0.084 A 
ATOM      5  C   LIG d   1       6.122  -2.973  -5.652  0.00  0.00     0.034 A 
ATOM      6  N   LIG d   1       5.325  -3.159  -6.732  0.00  0.00    -0.342 N 
ATOM      7  C   LIG d   1       4.502  -2.186  -7.211  0.00  0.00     0.067 A 
ATOM      8  C   LIG d   1       3.674  -2.465  -8.402  0.00  0.00     0.003 A 
ATOM      9  C   LIG d   1       3.172  -1.437  -9.196  0.00  0.00    -0.052 A 
ATOM     10  C   LIG d   1       2.395  -1.745 -10.295  0.00  0.00    -0.061 A 
ATOM     11  C   LIG d   1       2.116  -3.065 -10.604  0.00  0.00    -0.061 A 
ATOM     12  C   LIG d   1       2.615  -4.092  -9.818  0.00  0.00    -0.058 A 
ATOM     13  C   LIG d   1       3.395  -3.798  -8.724  0.00  0.00    -0.037 A 
ATOM     14  C   LIG d   1       3.980  -4.888  -7.863  0.00  0.00    -0.009 C 
ATOM     15  C   LIG d   1       5.373  -4.469  -7.395  0.00  0.00     0.028 C 
ATOM     16  C   LIG d   1       6.993  -4.124  -5.214  0.00  0.00    -0.006 C 
ATOM     17  C   LIG d   1       8.192  -3.636  -4.408  0.00  0.00    -0.022 C 
ATOM     18  C   LIG d   1       7.696  -2.786  -3.229  0.00  0.00     0.016 C 
ATOM     19  C   LIG d   1       7.004  -1.573  -3.812  0.00  0.00     0.169 C 
ATOM     20  O   LIG d   1       7.166  -0.469  -3.335  0.00  0.00    -0.292 OA
ATOM     21  H   LIG d   1       3.390  -0.406  -8.954  0.00  0.00     0.062 H 
ATOM     22  H   LIG d   1       2.003  -0.952 -10.916  0.00  0.00     0.062 H 
ATOM     23  H   LIG d   1       1.503  -3.297 -11.462  0.00  0.00     0.062 H 
ATOM     24  H   LIG d   1       2.392  -5.119 -10.064  0.00  0.00     0.062 H 
ATOM     25  H   LIG d   1       3.339  -5.050  -6.997  0.00  0.00     0.033 H 
ATOM     26  H   LIG d   1       4.051  -5.809  -8.441  0.00  0.00     0.033 H 
ATOM     27  H   LIG d   1       5.755  -5.212  -6.695  0.00  0.00     0.050 H 
ATOM     28  H   LIG d   1       6.039  -4.412  -8.256  0.00  0.00     0.050 H 
ATOM     29  H   LIG d   1       6.402  -4.805  -4.600  0.00  0.00     0.033 H 
ATOM     30  H   LIG d   1       7.348  -4.658  -6.096  0.00  0.00     0.033 H 
ATOM     31  H   LIG d   1       7.064  -3.325  -2.673  0.00  0.00     0.035 H 
ATOM     32  H   LIG d   1       8.542  -2.472  -2.616  0.00  0.00     0.035 H 
ENDROOT
BRANCH   1  33
ATOM     33  C   LIG d   1       3.521   0.102  -7.130  0.00  0.00     0.345 C 
ATOM     34  O   LIG d   1       2.335   0.067  -6.869  0.00  0.00    -0.245 OA
BRANCH  33  35
ATOM     35  O   LIG d   1       4.013   1.092  -7.903  0.00  0.00    -0.461 OA
BRANCH  35  36
ATOM     36  C   LIG d   1       3.051   2.002  -8.499  0.00  0.00     0.090 C 
ATOM     37  H   LIG d   1       2.080   1.513  -8.565  0.00  0.00     0.070 H 
ATOM     38  H   LIG d   1       2.967   2.897  -7.883  0.00  0.00     0.070 H 
BRANCH  36  39
ATOM     39  C   LIG d   1       3.521   2.393  -9.903  0.00  0.00    -0.031 C 
ATOM     40  H   LIG d   1       2.667   2.725 -10.492  0.00  0.00     0.026 H 
ATOM     41  H   LIG d   1       4.249   3.200  -9.830  0.00  0.00     0.026 H 
ATOM     42  H   LIG d   1       3.981   1.530 -10.384  0.00  0.00     0.026 H 
ENDBRANCH  36  39
ENDBRANCH  35  36
ENDBRANCH  33  35
ENDBRANCH   1  33
BRANCH  17  43
ATOM     43  C   LIG d   1       8.974  -4.838  -3.877  0.00  0.00    -0.059 C 
ATOM     44  H   LIG d   1       8.593  -5.752  -4.336  0.00  0.00     0.024 H 
ATOM     45  H   LIG d   1      10.030  -4.723  -4.123  0.00  0.00     0.024 H 
ATOM     46  H   LIG d   1       8.858  -4.899  -2.795  0.00  0.00     0.024 H 
ENDBRANCH  17  43
BRANCH  17  47
ATOM     47  C   LIG d   1       9.100  -2.790  -5.303  0.00  0.00    -0.059 C 
ATOM     48  H   LIG d   1       9.362  -3.359  -6.195  0.00  0.00     0.024 H 
ATOM     49  H   LIG d   1       8.576  -1.879  -5.593  0.00  0.00     0.024 H 
ATOM     50  H   LIG d   1      10.007  -2.529  -4.758  0.00  0.00     0.024 H 
ENDBRANCH  17  47
TORSDOF 6
ENDMDL
MODEL 9
REMARK VINA RESULT:      -5.7      8.507     10.324
REMARK  6 active torsions:
REMARK  status: ('A' for Active; 'I' for Inactive)
REMARK    1  A    between atoms: C_1  and  C_2 
REMARK    2  A    between atoms: C_2  and  O_3 
REMARK    3  A    between atoms: O_3  and  C_4 
REMARK    4  A    between atoms: C_4  and  C_6 
REMARK    5  A    between atoms: C_22  and  C_26 
REMARK    6  A    between atoms: C_22  and  C_27 
ROOT
ATOM      1  C   LIG d   1      10.280   5.627  -4.090  0.00  0.00     0.130 A 
ATOM      2  C   LIG d   1       9.989   5.847  -5.513  0.00  0.00     0.207 A 
ATOM      3  O   LIG d   1       9.853   4.915  -6.288  0.00  0.00    -0.286 OA
ATOM      4  C   LIG d   1       9.863   7.244  -5.962  0.00  0.00     0.084 A 
ATOM      5  C   LIG d   1      10.015   8.267  -5.054  0.00  0.00     0.034 A 
ATOM      6  N   LIG d   1      10.282   8.009  -3.750  0.00  0.00    -0.342 N 
ATOM      7  C   LIG d   1      10.419   6.744  -3.267  0.00  0.00     0.067 A 
ATOM      8  C   LIG d   1      10.723   6.549  -1.835  0.00  0.00     0.003 A 
ATOM      9  C   LIG d   1      11.305   5.374  -1.368  0.00  0.00    -0.052 A 
ATOM     10  C   LIG d   1      11.563   5.232  -0.018  0.00  0.00    -0.061 A 
ATOM     11  C   LIG d   1      11.243   6.251   0.863  0.00  0.00    -0.061 A 
ATOM     12  C   LIG d   1      10.666   7.424   0.402  0.00  0.00    -0.058 A 
ATOM     13  C   LIG d   1      10.410   7.579  -0.940  0.00  0.00    -0.037 A 
ATOM     14  C   LIG d   1       9.811   8.851  -1.481  0.00  0.00    -0.009 C 
ATOM     15  C   LIG d   1      10.426   9.158  -2.846  0.00  0.00     0.028 C 
ATOM     16  C   LIG d   1       9.885   9.710  -5.473  0.00  0.00    -0.006 C 
ATOM     17  C   LIG d   1      10.152   9.879  -6.965  0.00  0.00    -0.022 C 
ATOM     18  C   LIG d   1       9.222   8.947  -7.754  0.00  0.00     0.016 C 
ATOM     19  C   LIG d   1       9.585   7.527  -7.375  0.00  0.00     0.169 C 
ATOM     20  O   LIG d   1       9.647   6.651  -8.213  0.00  0.00    -0.292 OA
ATOM     21  H   LIG d   1      11.554   4.579  -2.056  0.00  0.00     0.062 H 
ATOM     22  H   LIG d   1      12.015   4.323   0.350  0.00  0.00     0.062 H 
ATOM     23  H   LIG d   1      11.444   6.130   1.917  0.00  0.00     0.062 H 
ATOM     24  H   LIG d   1      10.419   8.213   1.096  0.00  0.00     0.062 H 
ATOM     25  H   LIG d   1       8.733   8.729  -1.587  0.00  0.00     0.033 H 
ATOM     26  H   LIG d   1      10.017   9.671  -0.794  0.00  0.00     0.033 H 
ATOM     27  H   LIG d   1       9.923  10.023  -3.280  0.00  0.00     0.050 H 
ATOM     28  H   LIG d   1      11.485   9.385  -2.719  0.00  0.00     0.050 H 
ATOM     29  H   LIG d   1       8.876  10.057  -5.249  0.00  0.00     0.033 H 
ATOM     30  H   LIG d   1      10.601  10.310  -4.911  0.00  0.00     0.033 H 
ATOM     31  H   LIG d   1       8.271   9.147  -7.517  0.00  0.00     0.035 H 
ATOM     32  H   LIG d   1       9.368   9.095  -8.824  0.00  0.00     0.035 H 
ENDROOT
BRANCH   1  33
ATOM     33  C   LIG d   1      10.426   4.270  -3.551  0.00  0.00     0.345 C 
ATOM     34  O   LIG d   1      11.513   3.728  -3.555  0.00  0.00    -0.245 OA
BRANCH  33  35
ATOM     35  O   LIG d   1       9.353   3.625  -3.051  0.00  0.00    -0.461 OA
BRANCH  35  36
ATOM     36  C   LIG d   1       9.109   2.277  -3.534  0.00  0.00     0.090 C 
ATOM     37  H   LIG d   1      10.041   1.849  -3.901  0.00  0.00     0.070 H 
ATOM     38  H   LIG d   1       8.722   1.664  -2.721  0.00  0.00     0.070 H 
BRANCH  36  39
ATOM     39  C   LIG d   1       8.085   2.320  -4.671  0.00  0.00    -0.031 C 
ATOM     40  H   LIG d   1       8.473   1.772  -5.530  0.00  0.00     0.026 H 
ATOM     41  H   LIG d   1       7.153   1.862  -4.338  0.00  0.00     0.026 H 
ATOM     42  H   LIG d   1       7.900   3.356  -4.953  0.00  0.00     0.026 H 
ENDBRANCH  36  39
ENDBRANCH  35  36
ENDBRANCH  33  35
ENDBRANCH   1  33
BRANCH  17  43
ATOM     43  C   LIG d   1       9.885  11.330  -7.371  0.00  0.00    -0.059 C 
ATOM     44  H   LIG d   1      10.401  11.547  -8.307  0.00  0.00     0.024 H 
ATOM     45  H   LIG d   1       8.813  11.479  -7.506  0.00  0.00     0.024 H 
ATOM     46  H   LIG d   1      10.249  11.998  -6.591  0.00  0.00     0.024 H 
ENDBRANCH  17  43
BRANCH  17  47
ATOM     47  C   LIG d   1      11.610   9.524  -7.267  0.00  0.00    -0.059 C 
ATOM     48  H   LIG d   1      11.891   9.940  -8.235  0.00  0.00     0.024 H 
ATOM     49  H   LIG d   1      12.252   9.939  -6.491  0.00  0.00     0.024 H 
ATOM     50  H   LIG d   1      11.722   8.440  -7.290  0.00  0.00     0.024 H 
ENDBRANCH  17  47
TORSDOF 6
ENDMDL
MODEL 10
REMARK VINA RESULT:      -5.7      2.283      6.063
REMARK  6 active torsions:
REMARK  status: ('A' for Active; 'I' for Inactive)
REMARK    1  A    between atoms: C_1  and  C_2 
REMARK    2  A    between atoms: C_2  and  O_3 
REMARK    3  A    between atoms: O_3  and  C_4 
REMARK    4  A    between atoms: C_4  and  C_6 
REMARK    5  A    between atoms: C_22  and  C_26 
REMARK    6  A    between atoms: C_22  and  C_27 
ROOT
ATOM      1  C   LIG d   1       5.309  -1.663  -4.912  0.00  0.00     0.130 A 
ATOM      2  C   LIG d   1       6.376  -2.261  -4.097  0.00  0.00     0.207 A 
ATOM      3  O   LIG d   1       6.477  -2.021  -2.905  0.00  0.00    -0.286 OA
ATOM      4  C   LIG d   1       7.315  -3.165  -4.781  0.00  0.00     0.084 A 
ATOM      5  C   LIG d   1       7.160  -3.415  -6.126  0.00  0.00     0.034 A 
ATOM      6  N   LIG d   1       6.158  -2.838  -6.833  0.00  0.00    -0.342 N 
ATOM      7  C   LIG d   1       5.259  -1.986  -6.267  0.00  0.00     0.067 A 
ATOM      8  C   LIG d   1       4.203  -1.391  -7.111  0.00  0.00     0.003 A 
ATOM      9  C   LIG d   1       3.554  -0.214  -6.742  0.00  0.00    -0.052 A 
ATOM     10  C   LIG d   1       2.566   0.302  -7.557  0.00  0.00    -0.061 A 
ATOM     11  C   LIG d   1       2.223  -0.346  -8.731  0.00  0.00    -0.061 A 
ATOM     12  C   LIG d   1       2.867  -1.515  -9.104  0.00  0.00    -0.058 A 
ATOM     13  C   LIG d   1       3.857  -2.036  -8.303  0.00  0.00    -0.037 A 
ATOM     14  C   LIG d   1       4.600  -3.289  -8.690  0.00  0.00    -0.009 C 
ATOM     15  C   LIG d   1       6.061  -3.161  -8.263  0.00  0.00     0.028 C 
ATOM     16  C   LIG d   1       8.096  -4.342  -6.861  0.00  0.00    -0.006 C 
ATOM     17  C   LIG d   1       9.437  -4.457  -6.145  0.00  0.00    -0.022 C 
ATOM     18  C   LIG d   1       9.199  -4.886  -4.690  0.00  0.00     0.016 C 
ATOM     19  C   LIG d   1       8.408  -3.782  -4.022  0.00  0.00     0.169 C 
ATOM     20  O   LIG d   1       8.670  -3.417  -2.894  0.00  0.00    -0.292 OA
ATOM     21  H   LIG d   1       3.822   0.290  -5.824  0.00  0.00     0.062 H 
ATOM     22  H   LIG d   1       2.060   1.214  -7.277  0.00  0.00     0.062 H 
ATOM     23  H   LIG d   1       1.446   0.062  -9.361  0.00  0.00     0.062 H 
ATOM     24  H   LIG d   1       2.592  -2.015 -10.021  0.00  0.00     0.062 H 
ATOM     25  H   LIG d   1       4.149  -4.147  -8.192  0.00  0.00     0.033 H 
ATOM     26  H   LIG d   1       4.545  -3.425  -9.770  0.00  0.00     0.033 H 
ATOM     27  H   LIG d   1       6.575  -4.104  -8.454  0.00  0.00     0.050 H 
ATOM     28  H   LIG d   1       6.537  -2.370  -8.842  0.00  0.00     0.050 H 
ATOM     29  H   LIG d   1       7.640  -5.330  -6.927  0.00  0.00     0.033 H 
ATOM     30  H   LIG d   1       8.259  -3.958  -7.868  0.00  0.00     0.033 H 
ATOM     31  H   LIG d   1       8.691  -5.747  -4.677  0.00  0.00     0.035 H 
ATOM     32  H   LIG d   1      10.154  -5.020  -4.181  0.00  0.00     0.035 H 
ENDROOT
BRANCH   1  33
ATOM     33  C   LIG d   1       4.328  -0.747  -4.318  0.00  0.00     0.345 C 
ATOM     34  O   LIG d   1       3.229  -1.157  -4.001  0.00  0.00    -0.245 OA
BRANCH  33  35
ATOM     35  O   LIG d   1       4.647   0.548  -4.123  0.00  0.00    -0.461 OA
BRANCH  35  36
ATOM     36  C   LIG d   1       3.964   1.240  -3.045  0.00  0.00     0.090 C 
ATOM     37  H   LIG d   1       4.031   2.316  -3.203  0.00  0.00     0.070 H 
ATOM     38  H   LIG d   1       2.916   0.941  -3.027  0.00  0.00     0.070 H 
BRANCH  36  39
ATOM     39  C   LIG d   1       4.619   0.879  -1.710  0.00  0.00    -0.031 C 
ATOM     40  H   LIG d   1       5.480   1.525  -1.541  0.00  0.00     0.026 H 
ATOM     41  H   LIG d   1       3.898   1.016  -0.903  0.00  0.00     0.026 H 
ATOM     42  H   LIG d   1       4.943  -0.161  -1.735  0.00  0.00     0.026 H 
ENDBRANCH  36  39
ENDBRANCH  35  36
ENDBRANCH  33  35
ENDBRANCH   1  33
BRANCH  17  43
ATOM     43  C   LIG d   1      10.305  -5.500  -6.850  0.00  0.00    -0.059 C 
ATOM     44  H   LIG d   1      10.870  -6.065  -6.107  0.00  0.00     0.024 H 
ATOM     45  H   LIG d   1       9.669  -6.181  -7.415  0.00  0.00     0.024 H 
ATOM     46  H   LIG d   1      10.995  -5.000  -7.528  0.00  0.00     0.024 H 
ENDBRANCH  17  43
BRANCH  17  47
ATOM     47  C   LIG d   1      10.147  -3.101  -6.169  0.00  0.00    -0.059 C 
ATOM     48  H   LIG d   1      10.873  -3.085  -6.982  0.00  0.00     0.024 H 
ATOM     49  H   LIG d   1       9.413  -2.310  -6.320  0.00  0.00     0.024 H 
ATOM     50  H   LIG d   1      10.659  -2.942  -5.220  0.00  0.00     0.024 H 
ENDBRANCH  17  47
TORSDOF 6
ENDMDL
