MODEL 1
REMARK VINA RESULT:      -6.8      0.000      0.000
REMARK  9 active torsions:
REMARK  status: ('A' for Active; 'I' for Inactive)
REMARK    1  A    between atoms: C_4  and  C_7 
REMARK    2  A    between atoms: C_7  and  C_8 
REMARK    3  A    between atoms: C_8  and  C_10 
REMARK    4  A    between atoms: C_8  and  N_22 
REMARK       I    between atoms: C_10  and  N_12 
REMARK    5  A    between atoms: N_12  and  C_13 
REMARK    6  A    between atoms: C_16  and  N_19 
REMARK       I    between atoms: N_22  and  C_23 
REMARK    7  A    between atoms: C_23  and  C_25 
REMARK    8  A    between atoms: C_25  and  C_26 
REMARK    9  A    between atoms: C_26  and  C_27 
ROOT
ATOM      1  C   LIG d   1       4.916  -1.509  -6.082  0.00  0.00     0.104 C 
ATOM      2  H   LIG d   1       3.865  -1.262  -6.229  0.00  0.00     0.060 H 
ENDROOT
BRANCH   1   3
ATOM      3  C   LIG d   1       5.767  -0.737  -7.092  0.00  0.00    -0.001 C 
ATOM      4  H   LIG d   1       6.172  -1.430  -7.831  0.00  0.00     0.034 H 
ATOM      5  H   LIG d   1       6.587  -0.240  -6.573  0.00  0.00     0.034 H 
BRANCH   3   6
ATOM      6  C   LIG d   1       4.913   0.293  -7.784  0.00  0.00    -0.045 A 
ATOM      7  C   LIG d   1       5.496   1.225  -8.621  0.00  0.00    -0.059 A 
ATOM      8  C   LIG d   1       4.713   2.170  -9.257  0.00  0.00    -0.061 A 
ATOM      9  H   LIG d   1       6.565   1.215  -8.779  0.00  0.00     0.062 H 
ATOM     10  C   LIG d   1       3.346   2.183  -9.055  0.00  0.00    -0.062 A 
ATOM     11  H   LIG d   1       5.169   2.899  -9.911  0.00  0.00     0.062 H 
ATOM     12  C   LIG d   1       2.762   1.251  -8.218  0.00  0.00    -0.061 A 
ATOM     13  H   LIG d   1       2.733   2.921  -9.551  0.00  0.00     0.062 H 
ATOM     14  C   LIG d   1       3.544   0.302  -7.587  0.00  0.00    -0.059 A 
ATOM     15  H   LIG d   1       1.693   1.260  -8.060  0.00  0.00     0.062 H 
ATOM     16  H   LIG d   1       3.088  -0.429  -6.937  0.00  0.00     0.062 H 
ENDBRANCH   3   6
ENDBRANCH   1   3
BRANCH   1  17
ATOM     17  C   LIG d   1       5.118  -2.989  -6.281  0.00  0.00     0.238 C 
ATOM     18  O   LIG d   1       6.219  -3.422  -6.547  0.00  0.00    -0.273 OA
ATOM     19  N   LIG d   1       4.074  -3.833  -6.163  0.00  0.00    -0.284 N 
ATOM     20  H   LIG d   1       3.207  -3.496  -5.884  0.00  0.00     0.155 HD
BRANCH  19  21
ATOM     21  C   LIG d   1       4.239  -5.194  -6.442  0.00  0.00     0.034 A 
ATOM     22  C   LIG d   1       4.677  -6.060  -5.449  0.00  0.00    -0.034 A 
ATOM     23  C   LIG d   1       4.839  -7.403  -5.728  0.00  0.00     0.017 A 
ATOM     24  H   LIG d   1       4.890  -5.684  -4.459  0.00  0.00     0.064 H 
ATOM     25  C   LIG d   1       4.566  -7.886  -6.995  0.00  0.00     0.273 A 
ATOM     26  H   LIG d   1       5.178  -8.077  -4.955  0.00  0.00     0.069 H 
ATOM     27  C   LIG d   1       4.131  -7.025  -7.987  0.00  0.00     0.017 A 
ATOM     28  C   LIG d   1       3.960  -5.682  -7.712  0.00  0.00    -0.034 A 
ATOM     29  H   LIG d   1       3.920  -7.406  -8.975  0.00  0.00     0.069 H 
ATOM     30  H   LIG d   1       3.616  -5.012  -8.486  0.00  0.00     0.064 H 
BRANCH  25  31
ATOM     31  N   LIG d   1       4.742  -9.325  -7.290  0.00  0.00     0.080 N 
ATOM     32  O   LIG d   1       4.235 -10.162  -6.565  0.00  0.00     0.041 OA
ATOM     33  O   LIG d   1       5.393  -9.673  -8.259  0.00  0.00    -0.576 OA
ENDBRANCH  25  31
ENDBRANCH  19  21
ENDBRANCH   1  17
BRANCH   1  34
ATOM     34  N   LIG d   1       5.320  -1.140  -4.722  0.00  0.00    -0.304 N 
ATOM     35  C   LIG d   1       4.475  -1.342  -3.691  0.00  0.00     0.214 C 
ATOM     36  O   LIG d   1       3.383  -1.828  -3.889  0.00  0.00    -0.276 OA
ATOM     37  H   LIG d   1       6.194  -0.751  -4.564  0.00  0.00     0.149 HD
BRANCH  35  38
ATOM     38  C   LIG d   1       4.890  -0.963  -2.293  0.00  0.00     0.029 C 
ATOM     39  H   LIG d   1       4.616  -1.761  -1.603  0.00  0.00     0.036 H 
ATOM     40  H   LIG d   1       5.970  -0.813  -2.263  0.00  0.00     0.036 H 
BRANCH  38  41
ATOM     41  C   LIG d   1       4.184   0.331  -1.883  0.00  0.00    -0.005 C 
ATOM     42  H   LIG d   1       3.106   0.200  -1.975  0.00  0.00     0.033 H 
ATOM     43  H   LIG d   1       4.435   0.569  -0.849  0.00  0.00     0.033 H 
BRANCH  41  44
ATOM     44  C   LIG d   1       4.632   1.454  -2.782  0.00  0.00     0.042 C 
ATOM     45  O   LIG d   1       5.810   1.637  -2.978  0.00  0.00    -0.550 OA
ATOM     46  O   LIG d   1       3.722   2.253  -3.363  0.00  0.00    -0.550 OA
ENDBRANCH  41  44
ENDBRANCH  38  41
ENDBRANCH  35  38
ENDBRANCH   1  34
TORSDOF 9
ENDMDL
MODEL 2
REMARK VINA RESULT:      -6.7      4.247      6.245
REMARK  9 active torsions:
REMARK  status: ('A' for Active; 'I' for Inactive)
REMARK    1  A    between atoms: C_4  and  C_7 
REMARK    2  A    between atoms: C_7  and  C_8 
REMARK    3  A    between atoms: C_8  and  C_10 
REMARK    4  A    between atoms: C_8  and  N_22 
REMARK       I    between atoms: C_10  and  N_12 
REMARK    5  A    between atoms: N_12  and  C_13 
REMARK    6  A    between atoms: C_16  and  N_19 
REMARK       I    between atoms: N_22  and  C_23 
REMARK    7  A    between atoms: C_23  and  C_25 
REMARK    8  A    between atoms: C_25  and  C_26 
REMARK    9  A    between atoms: C_26  and  C_27 
ROOT
ATOM      1  C   LIG d   1       3.795  -0.488  -6.481  0.00  0.00     0.104 C 
ATOM      2  H   LIG d   1       4.053  -1.489  -6.136  0.00  0.00     0.060 H 
ENDROOT
BRANCH   1   3
ATOM      3  C   LIG d   1       2.826   0.159  -5.490  0.00  0.00    -0.001 C 
ATOM      4  H   LIG d   1       1.855  -0.332  -5.559  0.00  0.00     0.034 H 
ATOM      5  H   LIG d   1       2.715   1.217  -5.729  0.00  0.00     0.034 H 
BRANCH   3   6
ATOM      6  C   LIG d   1       3.366   0.013  -4.092  0.00  0.00    -0.045 A 
ATOM      7  C   LIG d   1       3.633   1.137  -3.333  0.00  0.00    -0.059 A 
ATOM      8  C   LIG d   1       4.128   1.003  -2.049  0.00  0.00    -0.061 A 
ATOM      9  H   LIG d   1       3.454   2.120  -3.743  0.00  0.00     0.062 H 
ATOM     10  C   LIG d   1       4.357  -0.255  -1.525  0.00  0.00    -0.062 A 
ATOM     11  H   LIG d   1       4.337   1.881  -1.457  0.00  0.00     0.062 H 
ATOM     12  C   LIG d   1       4.090  -1.380  -2.283  0.00  0.00    -0.061 A 
ATOM     13  H   LIG d   1       4.744  -0.361  -0.522  0.00  0.00     0.062 H 
ATOM     14  C   LIG d   1       3.589  -1.246  -3.565  0.00  0.00    -0.059 A 
ATOM     15  H   LIG d   1       4.267  -2.363  -1.874  0.00  0.00     0.062 H 
ATOM     16  H   LIG d   1       3.376  -2.124  -4.155  0.00  0.00     0.062 H 
ENDBRANCH   3   6
ENDBRANCH   1   3
BRANCH   1  17
ATOM     17  C   LIG d   1       3.143  -0.576  -7.837  0.00  0.00     0.238 C 
ATOM     18  O   LIG d   1       2.314   0.246  -8.168  0.00  0.00    -0.273 OA
ATOM     19  N   LIG d   1       3.480  -1.570  -8.684  0.00  0.00    -0.284 N 
ATOM     20  H   LIG d   1       4.191  -2.187  -8.448  0.00  0.00     0.155 HD
BRANCH  19  21
ATOM     21  C   LIG d   1       2.807  -1.710  -9.903  0.00  0.00     0.034 A 
ATOM     22  C   LIG d   1       3.221  -0.985 -11.013  0.00  0.00    -0.034 A 
ATOM     23  C   LIG d   1       2.554  -1.126 -12.215  0.00  0.00     0.017 A 
ATOM     24  H   LIG d   1       4.063  -0.313 -10.938  0.00  0.00     0.064 H 
ATOM     25  C   LIG d   1       1.476  -1.986 -12.312  0.00  0.00     0.273 A 
ATOM     26  H   LIG d   1       2.877  -0.563 -13.078  0.00  0.00     0.069 H 
ATOM     27  C   LIG d   1       1.062  -2.708 -11.207  0.00  0.00     0.017 A 
ATOM     28  C   LIG d   1       1.728  -2.577 -10.005  0.00  0.00    -0.034 A 
ATOM     29  H   LIG d   1       0.219  -3.379 -11.288  0.00  0.00     0.069 H 
ATOM     30  H   LIG d   1       1.406  -3.145  -9.144  0.00  0.00     0.064 H 
BRANCH  25  31
ATOM     31  N   LIG d   1       0.764  -2.134 -13.601  0.00  0.00     0.080 N 
ATOM     32  O   LIG d   1       1.395  -2.277 -14.633  0.00  0.00     0.041 OA
ATOM     33  O   LIG d   1      -0.454  -2.112 -13.630  0.00  0.00    -0.576 OA
ENDBRANCH  25  31
ENDBRANCH  19  21
ENDBRANCH   1  17
BRANCH   1  34
ATOM     34  N   LIG d   1       5.010   0.325  -6.577  0.00  0.00    -0.304 N 
ATOM     35  C   LIG d   1       6.205  -0.269  -6.766  0.00  0.00     0.214 C 
ATOM     36  O   LIG d   1       6.273  -1.476  -6.858  0.00  0.00    -0.276 OA
ATOM     37  H   LIG d   1       4.955   1.291  -6.503  0.00  0.00     0.149 HD
BRANCH  35  38
ATOM     38  C   LIG d   1       7.455   0.566  -6.865  0.00  0.00     0.029 C 
ATOM     39  H   LIG d   1       8.038   0.250  -7.730  0.00  0.00     0.036 H 
ATOM     40  H   LIG d   1       7.182   1.617  -6.976  0.00  0.00     0.036 H 
BRANCH  38  41
ATOM     41  C   LIG d   1       8.290   0.389  -5.595  0.00  0.00    -0.005 C 
ATOM     42  H   LIG d   1       8.621  -0.647  -5.521  0.00  0.00     0.033 H 
ATOM     43  H   LIG d   1       9.159   1.047  -5.638  0.00  0.00     0.033 H 
BRANCH  41  44
ATOM     44  C   LIG d   1       7.454   0.736  -4.391  0.00  0.00     0.042 C 
ATOM     45  O   LIG d   1       6.987   1.846  -4.280  0.00  0.00    -0.550 OA
ATOM     46  O   LIG d   1       7.228  -0.185  -3.442  0.00  0.00    -0.550 OA
ENDBRANCH  41  44
ENDBRANCH  38  41
ENDBRANCH  35  38
ENDBRANCH   1  34
TORSDOF 9
ENDMDL
MODEL 3
REMARK VINA RESULT:      -6.7      1.936      4.251
REMARK  9 active torsions:
REMARK  status: ('A' for Active; 'I' for Inactive)
REMARK    1  A    between atoms: C_4  and  C_7 
REMARK    2  A    between atoms: C_7  and  C_8 
REMARK    3  A    between atoms: C_8  and  C_10 
REMARK    4  A    between atoms: C_8  and  N_22 
REMARK       I    between atoms: C_10  and  N_12 
REMARK    5  A    between atoms: N_12  and  C_13 
REMARK    6  A    between atoms: C_16  and  N_19 
REMARK       I    between atoms: N_22  and  C_23 
REMARK    7  A    between atoms: C_23  and  C_25 
REMARK    8  A    between atoms: C_25  and  C_26 
REMARK    9  A    between atoms: C_26  and  C_27 
ROOT
ATOM      1  C   LIG d   1       5.011  -2.527  -5.244  0.00  0.00     0.104 C 
ATOM      2  H   LIG d   1       5.924  -1.946  -5.372  0.00  0.00     0.060 H 
ENDROOT
BRANCH   1   3
ATOM      3  C   LIG d   1       4.648  -2.585  -3.759  0.00  0.00    -0.001 C 
ATOM      4  H   LIG d   1       5.405  -3.157  -3.222  0.00  0.00     0.034 H 
ATOM      5  H   LIG d   1       3.677  -3.067  -3.641  0.00  0.00     0.034 H 
BRANCH   3   6
ATOM      6  C   LIG d   1       4.585  -1.186  -3.202  0.00  0.00    -0.045 A 
ATOM      7  C   LIG d   1       3.379  -0.665  -2.777  0.00  0.00    -0.059 A 
ATOM      8  C   LIG d   1       3.321   0.618  -2.265  0.00  0.00    -0.061 A 
ATOM      9  H   LIG d   1       2.480  -1.260  -2.844  0.00  0.00     0.062 H 
ATOM     10  C   LIG d   1       4.471   1.380  -2.180  0.00  0.00    -0.062 A 
ATOM     11  H   LIG d   1       2.378   1.025  -1.933  0.00  0.00     0.062 H 
ATOM     12  C   LIG d   1       5.679   0.859  -2.605  0.00  0.00    -0.061 A 
ATOM     13  H   LIG d   1       4.427   2.382  -1.781  0.00  0.00     0.062 H 
ATOM     14  C   LIG d   1       5.738  -0.426  -3.112  0.00  0.00    -0.059 A 
ATOM     15  H   LIG d   1       6.578   1.453  -2.538  0.00  0.00     0.062 H 
ATOM     16  H   LIG d   1       6.681  -0.835  -3.439  0.00  0.00     0.062 H 
ENDBRANCH   3   6
ENDBRANCH   1   3
BRANCH   1  17
ATOM     17  C   LIG d   1       5.228  -3.925  -5.764  0.00  0.00     0.238 C 
ATOM     18  O   LIG d   1       6.264  -4.210  -6.325  0.00  0.00    -0.273 OA
ATOM     19  N   LIG d   1       4.269  -4.859  -5.606  0.00  0.00    -0.284 N 
ATOM     20  H   LIG d   1       3.468  -4.650  -5.098  0.00  0.00     0.155 HD
BRANCH  19  21
ATOM     21  C   LIG d   1       4.427  -6.128  -6.172  0.00  0.00     0.034 A 
ATOM     22  C   LIG d   1       4.118  -6.337  -7.509  0.00  0.00    -0.034 A 
ATOM     23  C   LIG d   1       4.276  -7.592  -8.065  0.00  0.00     0.017 A 
ATOM     24  H   LIG d   1       3.755  -5.520  -8.115  0.00  0.00     0.064 H 
ATOM     25  C   LIG d   1       4.741  -8.639  -7.291  0.00  0.00     0.273 A 
ATOM     26  H   LIG d   1       4.036  -7.754  -9.106  0.00  0.00     0.069 H 
ATOM     27  C   LIG d   1       5.049  -8.434  -5.958  0.00  0.00     0.017 A 
ATOM     28  C   LIG d   1       4.899  -7.180  -5.399  0.00  0.00    -0.034 A 
ATOM     29  H   LIG d   1       5.411  -9.254  -5.357  0.00  0.00     0.069 H 
ATOM     30  H   LIG d   1       5.145  -7.020  -4.359  0.00  0.00     0.064 H 
BRANCH  25  31
ATOM     31  N   LIG d   1       4.908  -9.982  -7.890  0.00  0.00     0.080 N 
ATOM     32  O   LIG d   1       4.725 -10.978  -7.213  0.00  0.00     0.041 OA
ATOM     33  O   LIG d   1       5.228 -10.091  -9.060  0.00  0.00    -0.576 OA
ENDBRANCH  25  31
ENDBRANCH  19  21
ENDBRANCH   1  17
BRANCH   1  34
ATOM     34  N   LIG d   1       3.919  -1.893  -5.989  0.00  0.00    -0.304 N 
ATOM     35  C   LIG d   1       4.118  -0.706  -6.595  0.00  0.00     0.214 C 
ATOM     36  O   LIG d   1       5.200  -0.163  -6.524  0.00  0.00    -0.276 OA
ATOM     37  H   LIG d   1       3.054  -2.328  -6.046  0.00  0.00     0.149 HD
BRANCH  35  38
ATOM     38  C   LIG d   1       2.996  -0.055  -7.362  0.00  0.00     0.029 C 
ATOM     39  H   LIG d   1       2.194  -0.776  -7.518  0.00  0.00     0.036 H 
ATOM     40  H   LIG d   1       2.615   0.796  -6.795  0.00  0.00     0.036 H 
BRANCH  38  41
ATOM     41  C   LIG d   1       3.518   0.429  -8.717  0.00  0.00    -0.005 C 
ATOM     42  H   LIG d   1       4.591   0.248  -8.778  0.00  0.00     0.033 H 
ATOM     43  H   LIG d   1       3.011  -0.114  -9.515  0.00  0.00     0.033 H 
BRANCH  41  44
ATOM     44  C   LIG d   1       3.248   1.904  -8.862  0.00  0.00     0.042 C 
ATOM     45  O   LIG d   1       2.795   2.530  -7.932  0.00  0.00    -0.550 OA
ATOM     46  O   LIG d   1       3.511   2.524 -10.023  0.00  0.00    -0.550 OA
ENDBRANCH  41  44
ENDBRANCH  38  41
ENDBRANCH  35  38
ENDBRANCH   1  34
TORSDOF 9
ENDMDL
MODEL 4
REMARK VINA RESULT:      -6.6      3.333      5.866
REMARK  9 active torsions:
REMARK  status: ('A' for Active; 'I' for Inactive)
REMARK    1  A    between atoms: C_4  and  C_7 
REMARK    2  A    between atoms: C_7  and  C_8 
REMARK    3  A    between atoms: C_8  and  C_10 
REMARK    4  A    between atoms: C_8  and  N_22 
REMARK       I    between atoms: C_10  and  N_12 
REMARK    5  A    between atoms: N_12  and  C_13 
REMARK    6  A    between atoms: C_16  and  N_19 
REMARK       I    between atoms: N_22  and  C_23 
REMARK    7  A    between atoms: C_23  and  C_25 
REMARK    8  A    between atoms: C_25  and  C_26 
REMARK    9  A    between atoms: C_26  and  C_27 
ROOT
ATOM      1  C   LIG d   1       3.136   0.180  -6.252  0.00  0.00     0.104 C 
ATOM      2  H   LIG d   1       3.403   1.230  -6.363  0.00  0.00     0.060 H 
ENDROOT
BRANCH   1   3
ATOM      3  C   LIG d   1       2.243   0.008  -5.022  0.00  0.00    -0.001 C 
ATOM      4  H   LIG d   1       1.767  -0.972  -5.052  0.00  0.00     0.034 H 
ATOM      5  H   LIG d   1       1.477   0.784  -5.018  0.00  0.00     0.034 H 
BRANCH   3   6
ATOM      6  C   LIG d   1       3.080   0.122  -3.775  0.00  0.00    -0.045 A 
ATOM      7  C   LIG d   1       3.515   1.362  -3.344  0.00  0.00    -0.059 A 
ATOM      8  C   LIG d   1       4.282   1.467  -2.199  0.00  0.00    -0.061 A 
ATOM      9  H   LIG d   1       3.254   2.249  -3.903  0.00  0.00     0.062 H 
ATOM     10  C   LIG d   1       4.615   0.331  -1.485  0.00  0.00    -0.062 A 
ATOM     11  H   LIG d   1       4.622   2.435  -1.864  0.00  0.00     0.062 H 
ATOM     12  C   LIG d   1       4.181  -0.909  -1.914  0.00  0.00    -0.061 A 
ATOM     13  H   LIG d   1       5.215   0.413  -0.590  0.00  0.00     0.062 H 
ATOM     14  C   LIG d   1       3.409  -1.013  -3.056  0.00  0.00    -0.059 A 
ATOM     15  H   LIG d   1       4.440  -1.796  -1.356  0.00  0.00     0.062 H 
ATOM     16  H   LIG d   1       3.065  -1.981  -3.389  0.00  0.00     0.062 H 
ENDBRANCH   3   6
ENDBRANCH   1   3
BRANCH   1  17
ATOM     17  C   LIG d   1       4.388  -0.643  -6.085  0.00  0.00     0.238 C 
ATOM     18  O   LIG d   1       5.447  -0.097  -5.859  0.00  0.00    -0.273 OA
ATOM     19  N   LIG d   1       4.330  -1.985  -6.186  0.00  0.00    -0.284 N 
ATOM     20  H   LIG d   1       3.473  -2.427  -6.300  0.00  0.00     0.155 HD
BRANCH  19  21
ATOM     21  C   LIG d   1       5.505  -2.743  -6.128  0.00  0.00     0.034 A 
ATOM     22  C   LIG d   1       5.972  -3.210  -4.906  0.00  0.00    -0.034 A 
ATOM     23  C   LIG d   1       7.132  -3.957  -4.851  0.00  0.00     0.017 A 
ATOM     24  H   LIG d   1       5.428  -2.989  -3.999  0.00  0.00     0.064 H 
ATOM     25  C   LIG d   1       7.830  -4.239  -6.012  0.00  0.00     0.273 A 
ATOM     26  H   LIG d   1       7.495  -4.321  -3.901  0.00  0.00     0.069 H 
ATOM     27  C   LIG d   1       7.367  -3.775  -7.230  0.00  0.00     0.017 A 
ATOM     28  C   LIG d   1       6.204  -3.033  -7.292  0.00  0.00    -0.034 A 
ATOM     29  H   LIG d   1       7.915  -3.997  -8.134  0.00  0.00     0.069 H 
ATOM     30  H   LIG d   1       5.842  -2.674  -8.244  0.00  0.00     0.064 H 
BRANCH  25  31
ATOM     31  N   LIG d   1       9.073  -5.039  -5.950  0.00  0.00     0.080 N 
ATOM     32  O   LIG d   1       9.924  -4.912  -6.811  0.00  0.00     0.041 OA
ATOM     33  O   LIG d   1       9.245  -5.826  -5.035  0.00  0.00    -0.576 OA
ENDBRANCH  25  31
ENDBRANCH  19  21
ENDBRANCH   1  17
BRANCH   1  34
ATOM     34  N   LIG d   1       2.413  -0.269  -7.446  0.00  0.00    -0.304 N 
ATOM     35  C   LIG d   1       2.584   0.373  -8.618  0.00  0.00     0.214 C 
ATOM     36  O   LIG d   1       3.335   1.322  -8.685  0.00  0.00    -0.276 OA
ATOM     37  H   LIG d   1       1.812  -1.029  -7.392  0.00  0.00     0.149 HD
BRANCH  35  38
ATOM     38  C   LIG d   1       1.842  -0.089  -9.845  0.00  0.00     0.029 C 
ATOM     39  H   LIG d   1       0.855  -0.451  -9.560  0.00  0.00     0.036 H 
ATOM     40  H   LIG d   1       1.736   0.744 -10.541  0.00  0.00     0.036 H 
BRANCH  38  41
ATOM     41  C   LIG d   1       2.624  -1.218 -10.519  0.00  0.00    -0.005 C 
ATOM     42  H   LIG d   1       2.358  -1.265 -11.575  0.00  0.00     0.033 H 
ATOM     43  H   LIG d   1       3.694  -1.027 -10.423  0.00  0.00     0.033 H 
BRANCH  41  44
ATOM     44  C   LIG d   1       2.286  -2.529  -9.858  0.00  0.00     0.042 C 
ATOM     45  O   LIG d   1       1.310  -3.149 -10.210  0.00  0.00    -0.550 OA
ATOM     46  O   LIG d   1       3.069  -3.008  -8.878  0.00  0.00    -0.550 OA
ENDBRANCH  41  44
ENDBRANCH  38  41
ENDBRANCH  35  38
ENDBRANCH   1  34
TORSDOF 9
ENDMDL
MODEL 5
REMARK VINA RESULT:      -6.6      5.322      7.626
REMARK  9 active torsions:
REMARK  status: ('A' for Active; 'I' for Inactive)
REMARK    1  A    between atoms: C_4  and  C_7 
REMARK    2  A    between atoms: C_7  and  C_8 
REMARK    3  A    between atoms: C_8  and  C_10 
REMARK    4  A    between atoms: C_8  and  N_22 
REMARK       I    between atoms: C_10  and  N_12 
REMARK    5  A    between atoms: N_12  and  C_13 
REMARK    6  A    between atoms: C_16  and  N_19 
REMARK       I    between atoms: N_22  and  C_23 
REMARK    7  A    between atoms: C_23  and  C_25 
REMARK    8  A    between atoms: C_25  and  C_26 
REMARK    9  A    between atoms: C_26  and  C_27 
ROOT
ATOM      1  C   LIG d   1       9.207   3.507  -4.926  0.00  0.00     0.104 C 
ATOM      2  H   LIG d   1       8.622   4.421  -5.026  0.00  0.00     0.060 H 
ENDROOT
BRANCH   1   3
ATOM      3  C   LIG d   1      10.118   3.350  -6.144  0.00  0.00    -0.001 C 
ATOM      4  H   LIG d   1       9.969   2.364  -6.585  0.00  0.00     0.034 H 
ATOM      5  H   LIG d   1      11.159   3.455  -5.836  0.00  0.00     0.034 H 
BRANCH   3   6
ATOM      6  C   LIG d   1       9.786   4.411  -7.161  0.00  0.00    -0.045 A 
ATOM      7  C   LIG d   1       9.251   4.054  -8.384  0.00  0.00    -0.059 A 
ATOM      8  C   LIG d   1       8.946   5.027  -9.316  0.00  0.00    -0.061 A 
ATOM      9  H   LIG d   1       9.071   3.013  -8.611  0.00  0.00     0.062 H 
ATOM     10  C   LIG d   1       9.176   6.358  -9.025  0.00  0.00    -0.062 A 
ATOM     11  H   LIG d   1       8.528   4.748 -10.272  0.00  0.00     0.062 H 
ATOM     12  C   LIG d   1       9.711   6.717  -7.802  0.00  0.00    -0.061 A 
ATOM     13  H   LIG d   1       8.938   7.120  -9.753  0.00  0.00     0.062 H 
ATOM     14  C   LIG d   1      10.011   5.744  -6.867  0.00  0.00    -0.059 A 
ATOM     15  H   LIG d   1       9.890   7.757  -7.574  0.00  0.00     0.062 H 
ATOM     16  H   LIG d   1      10.424   6.023  -5.910  0.00  0.00     0.062 H 
ENDBRANCH   3   6
ENDBRANCH   1   3
BRANCH   1  17
ATOM     17  C   LIG d   1       8.279   2.324  -4.836  0.00  0.00     0.238 C 
ATOM     18  O   LIG d   1       7.701   1.928  -5.826  0.00  0.00    -0.273 OA
ATOM     19  N   LIG d   1       8.089   1.704  -3.654  0.00  0.00    -0.284 N 
ATOM     20  H   LIG d   1       8.602   1.977  -2.876  0.00  0.00     0.155 HD
BRANCH  19  21
ATOM     21  C   LIG d   1       7.155   0.668  -3.548  0.00  0.00     0.034 A 
ATOM     22  C   LIG d   1       7.502  -0.623  -3.924  0.00  0.00    -0.034 A 
ATOM     23  C   LIG d   1       6.577  -1.643  -3.819  0.00  0.00     0.017 A 
ATOM     24  H   LIG d   1       8.494  -0.829  -4.299  0.00  0.00     0.064 H 
ATOM     25  C   LIG d   1       5.307  -1.381  -3.340  0.00  0.00     0.273 A 
ATOM     26  H   LIG d   1       6.848  -2.647  -4.111  0.00  0.00     0.069 H 
ATOM     27  C   LIG d   1       4.958  -0.095  -2.965  0.00  0.00     0.017 A 
ATOM     28  C   LIG d   1       5.881   0.928  -3.062  0.00  0.00    -0.034 A 
ATOM     29  H   LIG d   1       3.965   0.106  -2.592  0.00  0.00     0.069 H 
ATOM     30  H   LIG d   1       5.608   1.930  -2.765  0.00  0.00     0.064 H 
BRANCH  25  31
ATOM     31  N   LIG d   1       4.319  -2.476  -3.229  0.00  0.00     0.080 N 
ATOM     32  O   LIG d   1       4.320  -3.383  -4.042  0.00  0.00     0.041 OA
ATOM     33  O   LIG d   1       3.503  -2.472  -2.323  0.00  0.00    -0.576 OA
ENDBRANCH  25  31
ENDBRANCH  19  21
ENDBRANCH   1  17
BRANCH   1  34
ATOM     34  N   LIG d   1      10.025   3.580  -3.712  0.00  0.00    -0.304 N 
ATOM     35  C   LIG d   1      10.118   4.739  -3.031  0.00  0.00     0.214 C 
ATOM     36  O   LIG d   1       9.526   5.721  -3.423  0.00  0.00    -0.276 OA
ATOM     37  H   LIG d   1      10.498   2.793  -3.398  0.00  0.00     0.149 HD
BRANCH  35  38
ATOM     38  C   LIG d   1      10.957   4.813  -1.782  0.00  0.00     0.029 C 
ATOM     39  H   LIG d   1      10.890   3.869  -1.240  0.00  0.00     0.036 H 
ATOM     40  H   LIG d   1      11.996   5.003  -2.053  0.00  0.00     0.036 H 
BRANCH  38  41
ATOM     41  C   LIG d   1      10.448   5.948  -0.891  0.00  0.00    -0.005 C 
ATOM     42  H   LIG d   1      10.563   6.898  -1.412  0.00  0.00     0.033 H 
ATOM     43  H   LIG d   1       9.394   5.785  -0.662  0.00  0.00     0.033 H 
BRANCH  41  44
ATOM     44  C   LIG d   1      11.241   5.978   0.389  0.00  0.00     0.042 C 
ATOM     45  O   LIG d   1      10.683   5.823   1.450  0.00  0.00    -0.550 OA
ATOM     46  O   LIG d   1      12.568   6.178   0.352  0.00  0.00    -0.550 OA
ENDBRANCH  41  44
ENDBRANCH  38  41
ENDBRANCH  35  38
ENDBRANCH   1  34
TORSDOF 9
ENDMDL
MODEL 6
REMARK VINA RESULT:      -6.6      2.226      4.558
REMARK  9 active torsions:
REMARK  status: ('A' for Active; 'I' for Inactive)
REMARK    1  A    between atoms: C_4  and  C_7 
REMARK    2  A    between atoms: C_7  and  C_8 
REMARK    3  A    between atoms: C_8  and  C_10 
REMARK    4  A    between atoms: C_8  and  N_22 
REMARK       I    between atoms: C_10  and  N_12 
REMARK    5  A    between atoms: N_12  and  C_13 
REMARK    6  A    between atoms: C_16  and  N_19 
REMARK       I    between atoms: N_22  and  C_23 
REMARK    7  A    between atoms: C_23  and  C_25 
REMARK    8  A    between atoms: C_25  and  C_26 
REMARK    9  A    between atoms: C_26  and  C_27 
ROOT
ATOM      1  C   LIG d   1       5.142  -0.938  -6.362  0.00  0.00     0.104 C 
ATOM      2  H   LIG d   1       5.979  -0.589  -5.758  0.00  0.00     0.060 H 
ENDROOT
BRANCH   1   3
ATOM      3  C   LIG d   1       3.829  -0.620  -5.645  0.00  0.00    -0.001 C 
ATOM      4  H   LIG d   1       3.241  -1.532  -5.541  0.00  0.00     0.034 H 
ATOM      5  H   LIG d   1       3.265   0.111  -6.227  0.00  0.00     0.034 H 
BRANCH   3   6
ATOM      6  C   LIG d   1       4.126  -0.054  -4.281  0.00  0.00    -0.045 A 
ATOM      7  C   LIG d   1       5.431   0.018  -3.831  0.00  0.00    -0.059 A 
ATOM      8  C   LIG d   1       5.703   0.538  -2.579  0.00  0.00    -0.061 A 
ATOM      9  H   LIG d   1       6.238  -0.330  -4.458  0.00  0.00     0.062 H 
ATOM     10  C   LIG d   1       4.670   0.984  -1.777  0.00  0.00    -0.062 A 
ATOM     11  H   LIG d   1       6.722   0.594  -2.228  0.00  0.00     0.062 H 
ATOM     12  C   LIG d   1       3.364   0.912  -2.226  0.00  0.00    -0.061 A 
ATOM     13  H   LIG d   1       4.882   1.390  -0.799  0.00  0.00     0.062 H 
ATOM     14  C   LIG d   1       3.093   0.398  -3.480  0.00  0.00    -0.059 A 
ATOM     15  H   LIG d   1       2.557   1.262  -1.600  0.00  0.00     0.062 H 
ATOM     16  H   LIG d   1       2.074   0.346  -3.833  0.00  0.00     0.062 H 
ENDBRANCH   3   6
ENDBRANCH   1   3
BRANCH   1  17
ATOM     17  C   LIG d   1       5.256  -2.427  -6.565  0.00  0.00     0.238 C 
ATOM     18  O   LIG d   1       6.263  -2.898  -7.051  0.00  0.00    -0.273 OA
ATOM     19  N   LIG d   1       4.238  -3.236  -6.208  0.00  0.00    -0.284 N 
ATOM     20  H   LIG d   1       3.461  -2.867  -5.759  0.00  0.00     0.155 HD
BRANCH  19  21
ATOM     21  C   LIG d   1       4.303  -4.606  -6.485  0.00  0.00     0.034 A 
ATOM     22  C   LIG d   1       3.940  -5.080  -7.739  0.00  0.00    -0.034 A 
ATOM     23  C   LIG d   1       4.004  -6.434  -8.008  0.00  0.00     0.017 A 
ATOM     24  H   LIG d   1       3.608  -4.393  -8.502  0.00  0.00     0.064 H 
ATOM     25  C   LIG d   1       4.429  -7.315  -7.031  0.00  0.00     0.273 A 
ATOM     26  H   LIG d   1       3.723  -6.802  -8.983  0.00  0.00     0.069 H 
ATOM     27  C   LIG d   1       4.790  -6.845  -5.781  0.00  0.00     0.017 A 
ATOM     28  C   LIG d   1       4.734  -5.493  -5.508  0.00  0.00    -0.034 A 
ATOM     29  H   LIG d   1       5.121  -7.537  -5.021  0.00  0.00     0.069 H 
ATOM     30  H   LIG d   1       5.020  -5.127  -4.533  0.00  0.00     0.064 H 
BRANCH  25  31
ATOM     31  N   LIG d   1       4.496  -8.764  -7.323  0.00  0.00     0.080 N 
ATOM     32  O   LIG d   1       4.708  -9.148  -8.460  0.00  0.00     0.041 OA
ATOM     33  O   LIG d   1       4.340  -9.574  -6.427  0.00  0.00    -0.576 OA
ENDBRANCH  25  31
ENDBRANCH  19  21
ENDBRANCH   1  17
BRANCH   1  34
ATOM     34  N   LIG d   1       5.163  -0.265  -7.664  0.00  0.00    -0.304 N 
ATOM     35  C   LIG d   1       6.011   0.761  -7.877  0.00  0.00     0.214 C 
ATOM     36  O   LIG d   1       6.755   1.127  -6.994  0.00  0.00    -0.276 OA
ATOM     37  H   LIG d   1       4.567  -0.558  -8.371  0.00  0.00     0.149 HD
BRANCH  35  38
ATOM     38  C   LIG d   1       6.033   1.452  -9.216  0.00  0.00     0.029 C 
ATOM     39  H   LIG d   1       6.913   2.092  -9.281  0.00  0.00     0.036 H 
ATOM     40  H   LIG d   1       6.068   0.706 -10.010  0.00  0.00     0.036 H 
BRANCH  38  41
ATOM     41  C   LIG d   1       4.771   2.304  -9.372  0.00  0.00    -0.005 C 
ATOM     42  H   LIG d   1       4.417   2.612  -8.389  0.00  0.00     0.033 H 
ATOM     43  H   LIG d   1       5.001   3.187  -9.969  0.00  0.00     0.033 H 
BRANCH  41  44
ATOM     44  C   LIG d   1       3.701   1.496 -10.060  0.00  0.00     0.042 C 
ATOM     45  O   LIG d   1       3.782   1.272 -11.245  0.00  0.00    -0.550 OA
ATOM     46  O   LIG d   1       2.659   1.025  -9.357  0.00  0.00    -0.550 OA
ENDBRANCH  41  44
ENDBRANCH  38  41
ENDBRANCH  35  38
ENDBRANCH   1  34
TORSDOF 9
ENDMDL
MODEL 7
REMARK VINA RESULT:      -6.5      4.385      6.576
REMARK  9 active torsions:
REMARK  status: ('A' for Active; 'I' for Inactive)
REMARK    1  A    between atoms: C_4  and  C_7 
REMARK    2  A    between atoms: C_7  and  C_8 
REMARK    3  A    between atoms: C_8  and  C_10 
REMARK    4  A    between atoms: C_8  and  N_22 
REMARK       I    between atoms: C_10  and  N_12 
REMARK    5  A    between atoms: N_12  and  C_13 
REMARK    6  A    between atoms: C_16  and  N_19 
REMARK       I    between atoms: N_22  and  C_23 
REMARK    7  A    between atoms: C_23  and  C_25 
REMARK    8  A    between atoms: C_25  and  C_26 
REMARK    9  A    between atoms: C_26  and  C_27 
ROOT
ATOM      1  C   LIG d   1       3.807  -0.471  -6.549  0.00  0.00     0.104 C 
ATOM      2  H   LIG d   1       4.101  -1.459  -6.195  0.00  0.00     0.060 H 
ENDROOT
BRANCH   1   3
ATOM      3  C   LIG d   1       2.856   0.171  -5.539  0.00  0.00    -0.001 C 
ATOM      4  H   LIG d   1       1.873  -0.295  -5.618  0.00  0.00     0.034 H 
ATOM      5  H   LIG d   1       2.770   1.237  -5.748  0.00  0.00     0.034 H 
BRANCH   3   6
ATOM      6  C   LIG d   1       3.395  -0.026  -4.146  0.00  0.00    -0.045 A 
ATOM      7  C   LIG d   1       3.655  -1.301  -3.678  0.00  0.00    -0.059 A 
ATOM      8  C   LIG d   1       4.151  -1.481  -2.401  0.00  0.00    -0.061 A 
ATOM      9  H   LIG d   1       3.471  -2.156  -4.312  0.00  0.00     0.062 H 
ATOM     10  C   LIG d   1       4.386  -0.387  -1.590  0.00  0.00    -0.062 A 
ATOM     11  H   LIG d   1       4.353  -2.477  -2.036  0.00  0.00     0.062 H 
ATOM     12  C   LIG d   1       4.126   0.888  -2.057  0.00  0.00    -0.061 A 
ATOM     13  H   LIG d   1       4.773  -0.527  -0.592  0.00  0.00     0.062 H 
ATOM     14  C   LIG d   1       3.636   1.069  -3.337  0.00  0.00    -0.059 A 
ATOM     15  H   LIG d   1       4.311   1.744  -1.424  0.00  0.00     0.062 H 
ATOM     16  H   LIG d   1       3.438   2.065  -3.703  0.00  0.00     0.062 H 
ENDBRANCH   3   6
ENDBRANCH   1   3
BRANCH   1  17
ATOM     17  C   LIG d   1       3.113  -0.602  -7.881  0.00  0.00     0.238 C 
ATOM     18  O   LIG d   1       2.178   0.122  -8.152  0.00  0.00    -0.273 OA
ATOM     19  N   LIG d   1       3.530  -1.524  -8.771  0.00  0.00    -0.284 N 
ATOM     20  H   LIG d   1       4.319  -2.058  -8.583  0.00  0.00     0.155 HD
BRANCH  19  21
ATOM     21  C   LIG d   1       2.827  -1.712  -9.966  0.00  0.00     0.034 A 
ATOM     22  C   LIG d   1       1.768  -2.609 -10.017  0.00  0.00    -0.034 A 
ATOM     23  C   LIG d   1       1.077  -2.793 -11.198  0.00  0.00     0.017 A 
ATOM     24  H   LIG d   1       1.485  -3.163  -9.134  0.00  0.00     0.064 H 
ATOM     25  C   LIG d   1       1.439  -2.085 -12.330  0.00  0.00     0.273 A 
ATOM     26  H   LIG d   1       0.253  -3.489 -11.238  0.00  0.00     0.069 H 
ATOM     27  C   LIG d   1       2.493  -1.191 -12.282  0.00  0.00     0.017 A 
ATOM     28  C   LIG d   1       3.184  -0.999 -11.102  0.00  0.00    -0.034 A 
ATOM     29  H   LIG d   1       2.773  -0.641 -13.168  0.00  0.00     0.069 H 
ATOM     30  H   LIG d   1       4.005  -0.298 -11.065  0.00  0.00     0.064 H 
BRANCH  25  31
ATOM     31  N   LIG d   1       0.696  -2.284 -13.594  0.00  0.00     0.080 N 
ATOM     32  O   LIG d   1      -0.490  -2.013 -13.654  0.00  0.00     0.041 OA
ATOM     33  O   LIG d   1       1.271  -2.720 -14.576  0.00  0.00    -0.576 OA
ENDBRANCH  25  31
ENDBRANCH  19  21
ENDBRANCH   1  17
BRANCH   1  34
ATOM     34  N   LIG d   1       4.998   0.369  -6.701  0.00  0.00    -0.304 N 
ATOM     35  C   LIG d   1       6.210  -0.202  -6.853  0.00  0.00     0.214 C 
ATOM     36  O   LIG d   1       6.314  -1.409  -6.865  0.00  0.00    -0.276 OA
ATOM     37  H   LIG d   1       4.914   1.335  -6.692  0.00  0.00     0.149 HD
BRANCH  35  38
ATOM     38  C   LIG d   1       7.434   0.662  -7.010  0.00  0.00     0.029 C 
ATOM     39  H   LIG d   1       7.253   1.638  -6.560  0.00  0.00     0.036 H 
ATOM     40  H   LIG d   1       8.281   0.186  -6.514  0.00  0.00     0.036 H 
BRANCH  38  41
ATOM     41  C   LIG d   1       7.749   0.837  -8.497  0.00  0.00    -0.005 C 
ATOM     42  H   LIG d   1       8.828   0.816  -8.645  0.00  0.00     0.033 H 
ATOM     43  H   LIG d   1       7.288   0.026  -9.063  0.00  0.00     0.033 H 
BRANCH  41  44
ATOM     44  C   LIG d   1       7.202   2.158  -8.975  0.00  0.00     0.042 C 
ATOM     45  O   LIG d   1       6.010   2.305  -9.107  0.00  0.00    -0.550 OA
ATOM     46  O   LIG d   1       8.039   3.169  -9.253  0.00  0.00    -0.550 OA
ENDBRANCH  41  44
ENDBRANCH  38  41
ENDBRANCH  35  38
ENDBRANCH   1  34
TORSDOF 9
ENDMDL
MODEL 8
REMARK VINA RESULT:      -6.3      4.036      7.204
REMARK  9 active torsions:
REMARK  status: ('A' for Active; 'I' for Inactive)
REMARK    1  A    between atoms: C_4  and  C_7 
REMARK    2  A    between atoms: C_7  and  C_8 
REMARK    3  A    between atoms: C_8  and  C_10 
REMARK    4  A    between atoms: C_8  and  N_22 
REMARK       I    between atoms: C_10  and  N_12 
REMARK    5  A    between atoms: N_12  and  C_13 
REMARK    6  A    between atoms: C_16  and  N_19 
REMARK       I    between atoms: N_22  and  C_23 
REMARK    7  A    between atoms: C_23  and  C_25 
REMARK    8  A    between atoms: C_25  and  C_26 
REMARK    9  A    between atoms: C_26  and  C_27 
ROOT
ATOM      1  C   LIG d   1       5.478  -1.116  -6.311  0.00  0.00     0.104 C 
ATOM      2  H   LIG d   1       5.607  -2.129  -5.929  0.00  0.00     0.060 H 
ENDROOT
BRANCH   1   3
ATOM      3  C   LIG d   1       5.160  -1.173  -7.806  0.00  0.00    -0.001 C 
ATOM      4  H   LIG d   1       4.400  -1.933  -7.988  0.00  0.00     0.034 H 
ATOM      5  H   LIG d   1       6.065  -1.424  -8.361  0.00  0.00     0.034 H 
BRANCH   3   6
ATOM      6  C   LIG d   1       4.649   0.169  -8.262  0.00  0.00    -0.045 A 
ATOM      7  C   LIG d   1       3.304   0.469  -8.157  0.00  0.00    -0.059 A 
ATOM      8  C   LIG d   1       2.835   1.700  -8.574  0.00  0.00    -0.061 A 
ATOM      9  H   LIG d   1       2.620  -0.259  -7.746  0.00  0.00     0.062 H 
ATOM     10  C   LIG d   1       3.712   2.631  -9.099  0.00  0.00    -0.062 A 
ATOM     11  H   LIG d   1       1.784   1.935  -8.492  0.00  0.00     0.062 H 
ATOM     12  C   LIG d   1       5.057   2.332  -9.205  0.00  0.00    -0.061 A 
ATOM     13  H   LIG d   1       3.346   3.594  -9.426  0.00  0.00     0.062 H 
ATOM     14  C   LIG d   1       5.527   1.103  -8.782  0.00  0.00    -0.059 A 
ATOM     15  H   LIG d   1       5.742   3.060  -9.614  0.00  0.00     0.062 H 
ATOM     16  H   LIG d   1       6.578   0.871  -8.860  0.00  0.00     0.062 H 
ENDBRANCH   3   6
ENDBRANCH   1   3
BRANCH   1  17
ATOM     17  C   LIG d   1       6.747  -0.332  -6.095  0.00  0.00     0.238 C 
ATOM     18  O   LIG d   1       7.806  -0.771  -6.489  0.00  0.00    -0.273 OA
ATOM     19  N   LIG d   1       6.704   0.858  -5.464  0.00  0.00    -0.284 N 
ATOM     20  H   LIG d   1       5.849   1.241  -5.209  0.00  0.00     0.155 HD
BRANCH  19  21
ATOM     21  C   LIG d   1       7.891   1.541  -5.177  0.00  0.00     0.034 A 
ATOM     22  C   LIG d   1       8.385   1.562  -3.880  0.00  0.00    -0.034 A 
ATOM     23  C   LIG d   1       9.558   2.237  -3.600  0.00  0.00     0.017 A 
ATOM     24  H   LIG d   1       7.856   1.050  -3.090  0.00  0.00     0.064 H 
ATOM     25  C   LIG d   1      10.237   2.894  -4.610  0.00  0.00     0.273 A 
ATOM     26  H   LIG d   1       9.943   2.252  -2.591  0.00  0.00     0.069 H 
ATOM     27  C   LIG d   1       9.746   2.875  -5.903  0.00  0.00     0.017 A 
ATOM     28  C   LIG d   1       8.578   2.196  -6.190  0.00  0.00    -0.034 A 
ATOM     29  H   LIG d   1      10.279   3.390  -6.688  0.00  0.00     0.069 H 
ATOM     30  H   LIG d   1       8.198   2.179  -7.201  0.00  0.00     0.064 H 
BRANCH  25  31
ATOM     31  N   LIG d   1      11.492   3.617  -4.306  0.00  0.00     0.080 N 
ATOM     32  O   LIG d   1      11.939   4.423  -5.102  0.00  0.00     0.041 OA
ATOM     33  O   LIG d   1      12.078   3.406  -3.259  0.00  0.00    -0.576 OA
ENDBRANCH  25  31
ENDBRANCH  19  21
ENDBRANCH   1  17
BRANCH   1  34
ATOM     34  N   LIG d   1       4.374  -0.463  -5.602  0.00  0.00    -0.304 N 
ATOM     35  C   LIG d   1       3.864  -1.023  -4.488  0.00  0.00     0.214 C 
ATOM     36  O   LIG d   1       4.319  -2.067  -4.071  0.00  0.00    -0.276 OA
ATOM     37  H   LIG d   1       4.011   0.373  -5.936  0.00  0.00     0.149 HD
BRANCH  35  38
ATOM     38  C   LIG d   1       2.730  -0.351  -3.758  0.00  0.00     0.029 C 
ATOM     39  H   LIG d   1       2.355   0.481  -4.354  0.00  0.00     0.036 H 
ATOM     40  H   LIG d   1       1.927  -1.070  -3.593  0.00  0.00     0.036 H 
BRANCH  38  41
ATOM     41  C   LIG d   1       3.229   0.172  -2.410  0.00  0.00    -0.005 C 
ATOM     42  H   LIG d   1       2.381   0.510  -1.814  0.00  0.00     0.033 H 
ATOM     43  H   LIG d   1       3.750  -0.627  -1.880  0.00  0.00     0.033 H 
BRANCH  41  44
ATOM     44  C   LIG d   1       4.175   1.324  -2.635  0.00  0.00     0.042 C 
ATOM     45  O   LIG d   1       5.269   1.316  -2.123  0.00  0.00    -0.550 OA
ATOM     46  O   LIG d   1       3.801   2.358  -3.405  0.00  0.00    -0.550 OA
ENDBRANCH  41  44
ENDBRANCH  38  41
ENDBRANCH  35  38
ENDBRANCH   1  34
TORSDOF 9
ENDMDL
MODEL 9
REMARK VINA RESULT:      -6.3      4.713      6.218
REMARK  9 active torsions:
REMARK  status: ('A' for Active; 'I' for Inactive)
REMARK    1  A    between atoms: C_4  and  C_7 
REMARK    2  A    between atoms: C_7  and  C_8 
REMARK    3  A    between atoms: C_8  and  C_10 
REMARK    4  A    between atoms: C_8  and  N_22 
REMARK       I    between atoms: C_10  and  N_12 
REMARK    5  A    between atoms: N_12  and  C_13 
REMARK    6  A    between atoms: C_16  and  N_19 
REMARK       I    between atoms: N_22  and  C_23 
REMARK    7  A    between atoms: C_23  and  C_25 
REMARK    8  A    between atoms: C_25  and  C_26 
REMARK    9  A    between atoms: C_26  and  C_27 
ROOT
ATOM      1  C   LIG d   1       7.004  -1.823  -4.251  0.00  0.00     0.104 C 
ATOM      2  H   LIG d   1       7.391  -0.819  -4.080  0.00  0.00     0.060 H 
ENDROOT
BRANCH   1   3
ATOM      3  C   LIG d   1       6.034  -2.194  -3.129  0.00  0.00    -0.001 C 
ATOM      4  H   LIG d   1       6.595  -2.403  -2.218  0.00  0.00     0.034 H 
ATOM      5  H   LIG d   1       5.467  -3.080  -3.417  0.00  0.00     0.034 H 
BRANCH   3   6
ATOM      6  C   LIG d   1       5.087  -1.049  -2.884  0.00  0.00    -0.045 A 
ATOM      7  C   LIG d   1       5.581   0.200  -2.557  0.00  0.00    -0.059 A 
ATOM      8  C   LIG d   1       4.712   1.251  -2.333  0.00  0.00    -0.061 A 
ATOM      9  H   LIG d   1       6.647   0.354  -2.476  0.00  0.00     0.062 H 
ATOM     10  C   LIG d   1       3.348   1.053  -2.436  0.00  0.00    -0.062 A 
ATOM     11  H   LIG d   1       5.098   2.226  -2.077  0.00  0.00     0.062 H 
ATOM     12  C   LIG d   1       2.852  -0.195  -2.764  0.00  0.00    -0.061 A 
ATOM     13  H   LIG d   1       2.668   1.874  -2.262  0.00  0.00     0.062 H 
ATOM     14  C   LIG d   1       3.722  -1.245  -2.994  0.00  0.00    -0.059 A 
ATOM     15  H   LIG d   1       1.787  -0.350  -2.846  0.00  0.00     0.062 H 
ATOM     16  H   LIG d   1       3.336  -2.219  -3.255  0.00  0.00     0.062 H 
ENDBRANCH   3   6
ENDBRANCH   1   3
BRANCH   1  17
ATOM     17  C   LIG d   1       8.148  -2.805  -4.273  0.00  0.00     0.238 C 
ATOM     18  O   LIG d   1       8.414  -3.404  -5.293  0.00  0.00    -0.273 OA
ATOM     19  N   LIG d   1       8.875  -3.017  -3.158  0.00  0.00    -0.284 N 
ATOM     20  H   LIG d   1       8.706  -2.489  -2.361  0.00  0.00     0.155 HD
BRANCH  19  21
ATOM     21  C   LIG d   1       9.873  -3.997  -3.149  0.00  0.00     0.034 A 
ATOM     22  C   LIG d   1       9.580  -5.285  -2.720  0.00  0.00    -0.034 A 
ATOM     23  C   LIG d   1      10.569  -6.250  -2.713  0.00  0.00     0.017 A 
ATOM     24  H   LIG d   1       8.581  -5.532  -2.393  0.00  0.00     0.064 H 
ATOM     25  C   LIG d   1      11.848  -5.935  -3.131  0.00  0.00     0.273 A 
ATOM     26  H   LIG d   1      10.341  -7.252  -2.380  0.00  0.00     0.069 H 
ATOM     27  C   LIG d   1      12.143  -4.653  -3.559  0.00  0.00     0.017 A 
ATOM     28  C   LIG d   1      11.157  -3.685  -3.575  0.00  0.00    -0.034 A 
ATOM     29  H   LIG d   1      13.143  -4.410  -3.884  0.00  0.00     0.069 H 
ATOM     30  H   LIG d   1      11.388  -2.685  -3.913  0.00  0.00     0.064 H 
BRANCH  25  31
ATOM     31  N   LIG d   1      12.904  -6.971  -3.121  0.00  0.00     0.080 N 
ATOM     32  O   LIG d   1      12.674  -8.073  -2.654  0.00  0.00     0.041 OA
ATOM     33  O   LIG d   1      14.005  -6.723  -3.581  0.00  0.00    -0.576 OA
ENDBRANCH  25  31
ENDBRANCH  19  21
ENDBRANCH   1  17
BRANCH   1  34
ATOM     34  N   LIG d   1       6.302  -1.864  -5.537  0.00  0.00    -0.304 N 
ATOM     35  C   LIG d   1       6.154  -0.736  -6.259  0.00  0.00     0.214 C 
ATOM     36  O   LIG d   1       6.601   0.312  -5.846  0.00  0.00    -0.276 OA
ATOM     37  H   LIG d   1       5.944  -2.703  -5.868  0.00  0.00     0.149 HD
BRANCH  35  38
ATOM     38  C   LIG d   1       5.432  -0.778  -7.582  0.00  0.00     0.029 C 
ATOM     39  H   LIG d   1       5.649   0.130  -8.145  0.00  0.00     0.036 H 
ATOM     40  H   LIG d   1       5.767  -1.646  -8.151  0.00  0.00     0.036 H 
BRANCH  38  41
ATOM     41  C   LIG d   1       3.925  -0.880  -7.338  0.00  0.00    -0.005 C 
ATOM     42  H   LIG d   1       3.444  -1.315  -8.214  0.00  0.00     0.033 H 
ATOM     43  H   LIG d   1       3.740  -1.512  -6.469  0.00  0.00     0.033 H 
BRANCH  41  44
ATOM     44  C   LIG d   1       3.362   0.495  -7.088  0.00  0.00     0.042 C 
ATOM     45  O   LIG d   1       2.871   0.761  -6.017  0.00  0.00    -0.550 OA
ATOM     46  O   LIG d   1       3.405   1.425  -8.056  0.00  0.00    -0.550 OA
ENDBRANCH  41  44
ENDBRANCH  38  41
ENDBRANCH  35  38
ENDBRANCH   1  34
TORSDOF 9
ENDMDL
MODEL 10
REMARK VINA RESULT:      -6.2      5.035      9.480
REMARK  9 active torsions:
REMARK  status: ('A' for Active; 'I' for Inactive)
REMARK    1  A    between atoms: C_4  and  C_7 
REMARK    2  A    between atoms: C_7  and  C_8 
REMARK    3  A    between atoms: C_8  and  C_10 
REMARK    4  A    between atoms: C_8  and  N_22 
REMARK       I    between atoms: C_10  and  N_12 
REMARK    5  A    between atoms: N_12  and  C_13 
REMARK    6  A    between atoms: C_16  and  N_19 
REMARK       I    between atoms: N_22  and  C_23 
REMARK    7  A    between atoms: C_23  and  C_25 
REMARK    8  A    between atoms: C_25  and  C_26 
REMARK    9  A    between atoms: C_26  and  C_27 
ROOT
ATOM      1  C   LIG d   1       7.319  -0.704  -4.080  0.00  0.00     0.104 C 
ATOM      2  H   LIG d   1       7.504  -1.174  -3.114  0.00  0.00     0.060 H 
ENDROOT
BRANCH   1   3
ATOM      3  C   LIG d   1       8.162  -1.396  -5.152  0.00  0.00    -0.001 C 
ATOM      4  H   LIG d   1       8.769  -0.654  -5.672  0.00  0.00     0.034 H 
ATOM      5  H   LIG d   1       7.504  -1.891  -5.868  0.00  0.00     0.034 H 
BRANCH   3   6
ATOM      6  C   LIG d   1       9.060  -2.417  -4.505  0.00  0.00    -0.045 A 
ATOM      7  C   LIG d   1       8.537  -3.327  -3.606  0.00  0.00    -0.059 A 
ATOM      8  C   LIG d   1       9.362  -4.265  -3.013  0.00  0.00    -0.061 A 
ATOM      9  H   LIG d   1       7.484  -3.307  -3.369  0.00  0.00     0.062 H 
ATOM     10  C   LIG d   1      10.709  -4.291  -3.317  0.00  0.00    -0.062 A 
ATOM     11  H   LIG d   1       8.953  -4.976  -2.310  0.00  0.00     0.062 H 
ATOM     12  C   LIG d   1      11.233  -3.381  -4.216  0.00  0.00    -0.061 A 
ATOM     13  H   LIG d   1      11.354  -5.023  -2.854  0.00  0.00     0.062 H 
ATOM     14  C   LIG d   1      10.408  -2.447  -4.814  0.00  0.00    -0.059 A 
ATOM     15  H   LIG d   1      12.286  -3.401  -4.455  0.00  0.00     0.062 H 
ATOM     16  H   LIG d   1      10.816  -1.739  -5.520  0.00  0.00     0.062 H 
ENDBRANCH   3   6
ENDBRANCH   1   3
BRANCH   1  17
ATOM     17  C   LIG d   1       7.693   0.754  -4.009  0.00  0.00     0.238 C 
ATOM     18  O   LIG d   1       6.833   1.595  -3.852  0.00  0.00    -0.273 OA
ATOM     19  N   LIG d   1       8.984   1.125  -4.120  0.00  0.00    -0.284 N 
ATOM     20  H   LIG d   1       9.679   0.450  -4.178  0.00  0.00     0.155 HD
BRANCH  19  21
ATOM     21  C   LIG d   1       9.322   2.483  -4.152  0.00  0.00     0.034 A 
ATOM     22  C   LIG d   1       9.218   3.198  -5.337  0.00  0.00    -0.034 A 
ATOM     23  C   LIG d   1       9.553   4.538  -5.364  0.00  0.00     0.017 A 
ATOM     24  H   LIG d   1       8.875   2.709  -6.236  0.00  0.00     0.064 H 
ATOM     25  C   LIG d   1       9.992   5.166  -4.213  0.00  0.00     0.273 A 
ATOM     26  H   LIG d   1       9.471   5.095  -6.286  0.00  0.00     0.069 H 
ATOM     27  C   LIG d   1      10.098   4.455  -3.031  0.00  0.00     0.017 A 
ATOM     28  C   LIG d   1       9.758   3.117  -2.996  0.00  0.00    -0.034 A 
ATOM     29  H   LIG d   1      10.442   4.949  -2.135  0.00  0.00     0.069 H 
ATOM     30  H   LIG d   1       9.837   2.564  -2.072  0.00  0.00     0.064 H 
BRANCH  25  31
ATOM     31  N   LIG d   1      10.351   6.601  -4.247  0.00  0.00     0.080 N 
ATOM     32  O   LIG d   1       9.560   7.418  -4.685  0.00  0.00     0.041 OA
ATOM     33  O   LIG d   1      11.438   6.967  -3.835  0.00  0.00    -0.576 OA
ENDBRANCH  25  31
ENDBRANCH  19  21
ENDBRANCH   1  17
BRANCH   1  34
ATOM     34  N   LIG d   1       5.899  -0.828  -4.420  0.00  0.00    -0.304 N 
ATOM     35  C   LIG d   1       5.052  -1.436  -3.566  0.00  0.00     0.214 C 
ATOM     36  O   LIG d   1       5.465  -1.880  -2.517  0.00  0.00    -0.276 OA
ATOM     37  H   LIG d   1       5.569  -0.472  -5.260  0.00  0.00     0.149 HD
BRANCH  35  38
ATOM     38  C   LIG d   1       3.592  -1.562  -3.915  0.00  0.00     0.029 C 
ATOM     39  H   LIG d   1       3.434  -1.238  -4.944  0.00  0.00     0.036 H 
ATOM     40  H   LIG d   1       3.282  -2.603  -3.811  0.00  0.00     0.036 H 
BRANCH  38  41
ATOM     41  C   LIG d   1       2.764  -0.687  -2.972  0.00  0.00    -0.005 C 
ATOM     42  H   LIG d   1       1.714  -0.735  -3.260  0.00  0.00     0.033 H 
ATOM     43  H   LIG d   1       2.877  -1.049  -1.949  0.00  0.00     0.033 H 
BRANCH  41  44
ATOM     44  C   LIG d   1       3.244   0.739  -3.057  0.00  0.00     0.042 C 
ATOM     45  O   LIG d   1       3.336   1.281  -4.133  0.00  0.00    -0.550 OA
ATOM     46  O   LIG d   1       3.569   1.406  -1.939  0.00  0.00    -0.550 OA
ENDBRANCH  41  44
ENDBRANCH  38  41
ENDBRANCH  35  38
ENDBRANCH   1  34
TORSDOF 9
ENDMDL
