MODEL 1
REMARK VINA RESULT:      -7.6      0.000      0.000
REMARK  6 active torsions:
REMARK  status: ('A' for Active; 'I' for Inactive)
REMARK    1  A    between atoms: C_1  and  O_2 
REMARK    2  A    between atoms: O_2  and  C_3 
REMARK    3  A    between atoms: C_6  and  N_9 
REMARK       I    between atoms: N_9  and  C_10 
REMARK       I    between atoms: C_10  and  N_12 
REMARK    4  A    between atoms: C_21  and  C_23 
REMARK    5  A    between atoms: C_25  and  C_28 
REMARK    6  A    between atoms: C_32  and  N_34 
ROOT
ATOM      1  N   LIG d   1      10.853   5.551  -2.477  0.00  0.00    -0.269 N 
ATOM      2  C   LIG d   1      10.373   5.096  -3.651  0.00  0.00     0.307 C 
ATOM      3  O   LIG d   1       9.810   5.857  -4.414  0.00  0.00    -0.252 OA
ATOM      4  N   LIG d   1      10.516   3.796  -3.978  0.00  0.00    -0.265 N 
ATOM      5  C   LIG d   1      11.089   2.835  -3.019  0.00  0.00     0.082 C 
ATOM      6  C   LIG d   1      12.074   1.976  -3.778  0.00  0.00     0.162 A 
ATOM      7  C   LIG d   1      12.176   1.966  -5.125  0.00  0.00     0.148 A 
ATOM      8  N   LIG d   1      13.159   1.076  -5.442  0.00  0.00    -0.247 N 
ATOM      9  H   LIG d   1      13.463   0.847  -6.333  0.00  0.00     0.310 HD
ATOM     10  C   LIG d   1      13.628   0.574  -4.276  0.00  0.00     0.243 A 
ATOM     11  N   LIG d   1      12.972   1.120  -3.287  0.00  0.00    -0.246 N 
ATOM     12  C   LIG d   1      11.341   2.803  -6.058  0.00  0.00     0.041 C 
ATOM     13  C   LIG d   1      10.099   3.302  -5.300  0.00  0.00     0.114 C 
ATOM     14  H   LIG d   1       9.628   4.111  -5.858  0.00  0.00     0.060 H 
ATOM     15  H   LIG d   1      11.420   4.983  -1.932  0.00  0.00     0.156 HD
ATOM     16  H   LIG d   1      11.601   3.368  -2.220  0.00  0.00     0.055 H 
ATOM     17  H   LIG d   1      10.298   2.210  -2.602  0.00  0.00     0.055 H 
ATOM     18  H   LIG d   1      14.416  -0.159  -4.180  0.00  0.00     0.158 H 
ATOM     19  H   LIG d   1      11.928   3.655  -6.405  0.00  0.00     0.037 H 
ATOM     20  H   LIG d   1      11.030   2.200  -6.911  0.00  0.00     0.037 H 
ATOM     21  H   LIG d   1      13.114   0.933  -2.345  0.00  0.00     0.310 HD
ENDROOT
BRANCH  13  22
ATOM     22  C   LIG d   1       9.121   2.169  -5.128  0.00  0.00     0.249 A 
ATOM     23  O   LIG d   1       9.108   1.031  -5.836  0.00  0.00    -0.336 OA
ATOM     24  N   LIG d   1       8.025   0.261  -5.337  0.00  0.00    -0.056 NA
ATOM     25  C   LIG d   1       7.467   0.974  -4.390  0.00  0.00     0.202 A 
ATOM     26  N   LIG d   1       8.141   2.133  -4.271  0.00  0.00    -0.190 NA
BRANCH  25  27
ATOM     27  C   LIG d   1       6.289   0.572  -3.583  0.00  0.00     0.029 A 
ATOM     28  C   LIG d   1       5.780  -0.721  -3.686  0.00  0.00     0.026 A 
ATOM     29  C   LIG d   1       4.687  -1.092  -2.928  0.00  0.00     0.274 A 
ATOM     30  H   LIG d   1       6.242  -1.433  -4.353  0.00  0.00     0.069 H 
ATOM     31  C   LIG d   1       4.090  -0.180  -2.078  0.00  0.00     0.016 A 
ATOM     32  C   LIG d   1       4.588   1.107  -1.976  0.00  0.00    -0.055 A 
ATOM     33  H   LIG d   1       3.232  -0.472  -1.490  0.00  0.00     0.069 H 
ATOM     34  C   LIG d   1       5.683   1.487  -2.724  0.00  0.00    -0.051 A 
ATOM     35  H   LIG d   1       4.118   1.816  -1.311  0.00  0.00     0.062 H 
ATOM     36  H   LIG d   1       6.072   2.492  -2.644  0.00  0.00     0.062 H 
BRANCH  29  37
ATOM     37  N   LIG d   1       4.149  -2.468  -3.031  0.00  0.00     0.080 N 
ATOM     38  O   LIG d   1       3.453  -2.912  -2.149  0.00  0.00     0.041 OA
ATOM     39  O   LIG d   1       4.407  -3.146  -3.998  0.00  0.00    -0.576 OA
ENDBRANCH  29  37
ENDBRANCH  25  27
ENDBRANCH  13  22
BRANCH   1  40
ATOM     40  C   LIG d   1      10.535   6.846  -2.045  0.00  0.00     0.035 A 
ATOM     41  C   LIG d   1      11.450   7.877  -2.212  0.00  0.00    -0.037 A 
ATOM     42  C   LIG d   1      11.136   9.153  -1.786  0.00  0.00    -0.018 A 
ATOM     43  H   LIG d   1      12.406   7.681  -2.673  0.00  0.00     0.064 H 
ATOM     44  C   LIG d   1       9.907   9.404  -1.194  0.00  0.00     0.120 A 
ATOM     45  H   LIG d   1      11.848   9.955  -1.915  0.00  0.00     0.066 H 
ATOM     46  C   LIG d   1       8.995   8.374  -1.023  0.00  0.00    -0.018 A 
ATOM     47  C   LIG d   1       9.305   7.099  -1.452  0.00  0.00    -0.037 A 
ATOM     48  H   LIG d   1       8.040   8.568  -0.557  0.00  0.00     0.066 H 
ATOM     49  H   LIG d   1       8.594   6.297  -1.323  0.00  0.00     0.064 H 
BRANCH  44  50
ATOM     50  O   LIG d   1       9.599  10.661  -0.775  0.00  0.00    -0.495 OA
BRANCH  50  51
ATOM     51  C   LIG d   1      10.319  11.165   0.351  0.00  0.00     0.079 C 
ATOM     52  H   LIG d   1      11.386  10.998   0.203  0.00  0.00     0.066 H 
ATOM     53  H   LIG d   1      10.129  12.233   0.456  0.00  0.00     0.066 H 
ATOM     54  H   LIG d   1       9.993  10.647   1.253  0.00  0.00     0.066 H 
ENDBRANCH  50  51
ENDBRANCH  44  50
ENDBRANCH   1  40
TORSDOF 6
ENDMDL
MODEL 2
REMARK VINA RESULT:      -7.3      4.797      9.906
REMARK  6 active torsions:
REMARK  status: ('A' for Active; 'I' for Inactive)
REMARK    1  A    between atoms: C_1  and  O_2 
REMARK    2  A    between atoms: O_2  and  C_3 
REMARK    3  A    between atoms: C_6  and  N_9 
REMARK       I    between atoms: N_9  and  C_10 
REMARK       I    between atoms: C_10  and  N_12 
REMARK    4  A    between atoms: C_21  and  C_23 
REMARK    5  A    between atoms: C_25  and  C_28 
REMARK    6  A    between atoms: C_32  and  N_34 
ROOT
ATOM      1  N   LIG d   1       9.558   6.109  -3.544  0.00  0.00    -0.269 N 
ATOM      2  C   LIG d   1      10.620   6.165  -2.716  0.00  0.00     0.307 C 
ATOM      3  O   LIG d   1      11.611   5.500  -2.952  0.00  0.00    -0.252 OA
ATOM      4  N   LIG d   1      10.584   6.958  -1.626  0.00  0.00    -0.265 N 
ATOM      5  C   LIG d   1       9.352   7.678  -1.258  0.00  0.00     0.082 C 
ATOM      6  C   LIG d   1       9.751   9.088  -0.888  0.00  0.00     0.162 A 
ATOM      7  C   LIG d   1      11.030   9.479  -0.699  0.00  0.00     0.148 A 
ATOM      8  N   LIG d   1      10.997  10.803  -0.377  0.00  0.00    -0.247 N 
ATOM      9  H   LIG d   1      11.760  11.368  -0.181  0.00  0.00     0.310 HD
ATOM     10  C   LIG d   1       9.697  11.180  -0.384  0.00  0.00     0.243 A 
ATOM     11  N   LIG d   1       8.960  10.144  -0.692  0.00  0.00    -0.246 N 
ATOM     12  C   LIG d   1      12.234   8.584  -0.836  0.00  0.00     0.041 C 
ATOM     13  C   LIG d   1      11.771   7.118  -0.772  0.00  0.00     0.114 C 
ATOM     14  H   LIG d   1      12.567   6.466  -1.129  0.00  0.00     0.060 H 
ATOM     15  H   LIG d   1       8.826   6.737  -3.436  0.00  0.00     0.156 HD
ATOM     16  H   LIG d   1       8.666   7.697  -2.104  0.00  0.00     0.055 H 
ATOM     17  H   LIG d   1       8.878   7.192  -0.405  0.00  0.00     0.055 H 
ATOM     18  H   LIG d   1       9.329  12.172  -0.170  0.00  0.00     0.158 H 
ATOM     19  H   LIG d   1      12.722   8.775  -1.792  0.00  0.00     0.037 H 
ATOM     20  H   LIG d   1      12.930   8.782  -0.021  0.00  0.00     0.037 H 
ATOM     21  H   LIG d   1       7.992  10.144  -0.765  0.00  0.00     0.310 HD
ENDROOT
BRANCH  13  22
ATOM     22  C   LIG d   1      11.421   6.758   0.649  0.00  0.00     0.249 A 
ATOM     23  O   LIG d   1      10.743   5.669   1.036  0.00  0.00    -0.336 OA
ATOM     24  N   LIG d   1      10.649   5.739   2.451  0.00  0.00    -0.056 NA
ATOM     25  C   LIG d   1      11.255   6.843   2.811  0.00  0.00     0.202 A 
ATOM     26  N   LIG d   1      11.721   7.456   1.707  0.00  0.00    -0.190 NA
BRANCH  25  27
ATOM     27  C   LIG d   1      11.404   7.336   4.202  0.00  0.00     0.029 A 
ATOM     28  C   LIG d   1      11.031   6.527   5.274  0.00  0.00     0.026 A 
ATOM     29  C   LIG d   1      11.177   6.988   6.567  0.00  0.00     0.274 A 
ATOM     30  H   LIG d   1      10.634   5.539   5.094  0.00  0.00     0.069 H 
ATOM     31  C   LIG d   1      11.679   8.255   6.799  0.00  0.00     0.016 A 
ATOM     32  C   LIG d   1      12.046   9.065   5.738  0.00  0.00    -0.055 A 
ATOM     33  H   LIG d   1      11.788   8.614   7.812  0.00  0.00     0.069 H 
ATOM     34  C   LIG d   1      11.909   8.612   4.443  0.00  0.00    -0.051 A 
ATOM     35  H   LIG d   1      12.437  10.053   5.926  0.00  0.00     0.062 H 
ATOM     36  H   LIG d   1      12.196   9.244   3.615  0.00  0.00     0.062 H 
BRANCH  29  37
ATOM     37  N   LIG d   1      10.788   6.127   7.706  0.00  0.00     0.080 N 
ATOM     38  O   LIG d   1      11.060   4.949   7.694  0.00  0.00     0.041 OA
ATOM     39  O   LIG d   1      10.200   6.601   8.649  0.00  0.00    -0.576 OA
ENDBRANCH  29  37
ENDBRANCH  25  27
ENDBRANCH  13  22
BRANCH   1  40
ATOM     40  C   LIG d   1       9.513   5.145  -4.560  0.00  0.00     0.035 A 
ATOM     41  C   LIG d   1       9.093   3.853  -4.273  0.00  0.00    -0.037 A 
ATOM     42  C   LIG d   1       9.048   2.903  -5.275  0.00  0.00    -0.018 A 
ATOM     43  H   LIG d   1       8.802   3.591  -3.266  0.00  0.00     0.064 H 
ATOM     44  C   LIG d   1       9.422   3.241  -6.567  0.00  0.00     0.120 A 
ATOM     45  H   LIG d   1       8.722   1.898  -5.052  0.00  0.00     0.066 H 
ATOM     46  C   LIG d   1       9.845   4.530  -6.854  0.00  0.00    -0.018 A 
ATOM     47  C   LIG d   1       9.886   5.481  -5.854  0.00  0.00    -0.037 A 
ATOM     48  H   LIG d   1      10.140   4.791  -7.860  0.00  0.00     0.066 H 
ATOM     49  H   LIG d   1      10.212   6.486  -6.078  0.00  0.00     0.064 H 
BRANCH  44  50
ATOM     50  O   LIG d   1       9.377   2.306  -7.553  0.00  0.00    -0.495 OA
BRANCH  50  51
ATOM     51  C   LIG d   1       8.318   2.417  -8.506  0.00  0.00     0.079 C 
ATOM     52  H   LIG d   1       8.298   1.525  -9.132  0.00  0.00     0.066 H 
ATOM     53  H   LIG d   1       7.367   2.517  -7.984  0.00  0.00     0.066 H 
ATOM     54  H   LIG d   1       8.483   3.294  -9.132  0.00  0.00     0.066 H 
ENDBRANCH  50  51
ENDBRANCH  44  50
ENDBRANCH   1  40
TORSDOF 6
ENDMDL
MODEL 3
REMARK VINA RESULT:      -6.9      3.390      5.748
REMARK  6 active torsions:
REMARK  status: ('A' for Active; 'I' for Inactive)
REMARK    1  A    between atoms: C_1  and  O_2 
REMARK    2  A    between atoms: O_2  and  C_3 
REMARK    3  A    between atoms: C_6  and  N_9 
REMARK       I    between atoms: N_9  and  C_10 
REMARK       I    between atoms: C_10  and  N_12 
REMARK    4  A    between atoms: C_21  and  C_23 
REMARK    5  A    between atoms: C_25  and  C_28 
REMARK    6  A    between atoms: C_32  and  N_34 
ROOT
ATOM      1  N   LIG d   1       9.836   5.180  -7.272  0.00  0.00    -0.269 N 
ATOM      2  C   LIG d   1       9.806   3.901  -6.849  0.00  0.00     0.307 C 
ATOM      3  O   LIG d   1      10.010   2.996  -7.635  0.00  0.00    -0.252 OA
ATOM      4  N   LIG d   1       9.548   3.626  -5.555  0.00  0.00    -0.265 N 
ATOM      5  C   LIG d   1       9.181   4.699  -4.614  0.00  0.00     0.082 C 
ATOM      6  C   LIG d   1       9.966   4.469  -3.343  0.00  0.00     0.162 A 
ATOM      7  C   LIG d   1      10.656   3.337  -3.084  0.00  0.00     0.148 A 
ATOM      8  N   LIG d   1      11.225   3.492  -1.855  0.00  0.00    -0.247 N 
ATOM      9  H   LIG d   1      11.781   2.846  -1.392  0.00  0.00     0.310 HD
ATOM     10  C   LIG d   1      10.867   4.716  -1.404  0.00  0.00     0.243 A 
ATOM     11  N   LIG d   1      10.114   5.293  -2.304  0.00  0.00    -0.246 N 
ATOM     12  C   LIG d   1      10.753   2.155  -4.013  0.00  0.00     0.041 C 
ATOM     13  C   LIG d   1       9.620   2.246  -5.049  0.00  0.00     0.114 C 
ATOM     14  H   LIG d   1       9.823   1.566  -5.877  0.00  0.00     0.060 H 
ATOM     15  H   LIG d   1       9.811   5.905  -6.628  0.00  0.00     0.156 HD
ATOM     16  H   LIG d   1       9.439   5.668  -5.037  0.00  0.00     0.055 H 
ATOM     17  H   LIG d   1       8.112   4.658  -4.401  0.00  0.00     0.055 H 
ATOM     18  H   LIG d   1      11.156   5.146  -0.457  0.00  0.00     0.158 H 
ATOM     19  H   LIG d   1      11.718   2.169  -4.520  0.00  0.00     0.037 H 
ATOM     20  H   LIG d   1      10.651   1.232  -3.442  0.00  0.00     0.037 H 
ATOM     21  H   LIG d   1       9.723   6.178  -2.228  0.00  0.00     0.310 HD
ENDROOT
BRANCH  13  22
ATOM     22  C   LIG d   1       8.309   1.878  -4.403  0.00  0.00     0.249 A 
ATOM     23  O   LIG d   1       7.484   2.723  -3.771  0.00  0.00    -0.336 OA
ATOM     24  N   LIG d   1       6.381   1.947  -3.326  0.00  0.00    -0.056 NA
ATOM     25  C   LIG d   1       6.616   0.715  -3.704  0.00  0.00     0.202 A 
ATOM     26  N   LIG d   1       7.792   0.684  -4.358  0.00  0.00    -0.190 NA
BRANCH  25  27
ATOM     27  C   LIG d   1       5.734  -0.451  -3.454  0.00  0.00     0.029 A 
ATOM     28  C   LIG d   1       5.596  -1.444  -4.422  0.00  0.00     0.026 A 
ATOM     29  C   LIG d   1       4.778  -2.530  -4.181  0.00  0.00     0.274 A 
ATOM     30  H   LIG d   1       6.132  -1.367  -5.356  0.00  0.00     0.069 H 
ATOM     31  C   LIG d   1       4.086  -2.627  -2.989  0.00  0.00     0.016 A 
ATOM     32  C   LIG d   1       4.216  -1.642  -2.026  0.00  0.00    -0.055 A 
ATOM     33  H   LIG d   1       3.444  -3.476  -2.806  0.00  0.00     0.069 H 
ATOM     34  C   LIG d   1       5.034  -0.555  -2.253  0.00  0.00    -0.051 A 
ATOM     35  H   LIG d   1       3.673  -1.723  -1.096  0.00  0.00     0.062 H 
ATOM     36  H   LIG d   1       5.135   0.213  -1.501  0.00  0.00     0.062 H 
BRANCH  29  37
ATOM     37  N   LIG d   1       4.636  -3.589  -5.207  0.00  0.00     0.080 N 
ATOM     38  O   LIG d   1       4.746  -3.314  -6.379  0.00  0.00     0.041 OA
ATOM     39  O   LIG d   1       4.411  -4.728  -4.871  0.00  0.00    -0.576 OA
ENDBRANCH  29  37
ENDBRANCH  25  27
ENDBRANCH  13  22
BRANCH   1  40
ATOM     40  C   LIG d   1       9.905   5.462  -8.644  0.00  0.00     0.035 A 
ATOM     41  C   LIG d   1       8.738   5.581  -9.387  0.00  0.00    -0.037 A 
ATOM     42  C   LIG d   1       8.807   5.859 -10.739  0.00  0.00    -0.018 A 
ATOM     43  H   LIG d   1       7.778   5.456  -8.909  0.00  0.00     0.064 H 
ATOM     44  C   LIG d   1      10.040   6.021 -11.351  0.00  0.00     0.120 A 
ATOM     45  H   LIG d   1       7.899   5.952 -11.317  0.00  0.00     0.066 H 
ATOM     46  C   LIG d   1      11.206   5.898 -10.610  0.00  0.00    -0.018 A 
ATOM     47  C   LIG d   1      11.139   5.624  -9.259  0.00  0.00    -0.037 A 
ATOM     48  H   LIG d   1      12.166   6.018 -11.089  0.00  0.00     0.066 H 
ATOM     49  H   LIG d   1      12.046   5.532  -8.681  0.00  0.00     0.064 H 
BRANCH  44  50
ATOM     50  O   LIG d   1      10.107   6.295 -12.682  0.00  0.00    -0.495 OA
BRANCH  50  51
ATOM     51  C   LIG d   1       8.905   6.137 -13.438  0.00  0.00     0.079 C 
ATOM     52  H   LIG d   1       8.958   5.212 -14.014  0.00  0.00     0.066 H 
ATOM     53  H   LIG d   1       8.052   6.095 -12.761  0.00  0.00     0.066 H 
ATOM     54  H   LIG d   1       8.788   6.981 -14.117  0.00  0.00     0.066 H 
ENDBRANCH  50  51
ENDBRANCH  44  50
ENDBRANCH   1  40
TORSDOF 6
ENDMDL
MODEL 4
REMARK VINA RESULT:      -6.9      3.155      3.688
REMARK  6 active torsions:
REMARK  status: ('A' for Active; 'I' for Inactive)
REMARK    1  A    between atoms: C_1  and  O_2 
REMARK    2  A    between atoms: O_2  and  C_3 
REMARK    3  A    between atoms: C_6  and  N_9 
REMARK       I    between atoms: N_9  and  C_10 
REMARK       I    between atoms: C_10  and  N_12 
REMARK    4  A    between atoms: C_21  and  C_23 
REMARK    5  A    between atoms: C_25  and  C_28 
REMARK    6  A    between atoms: C_32  and  N_34 
ROOT
ATOM      1  N   LIG d   1      10.691   5.644  -5.925  0.00  0.00    -0.269 N 
ATOM      2  C   LIG d   1       9.954   4.601  -6.356  0.00  0.00     0.307 C 
ATOM      3  O   LIG d   1       9.321   4.690  -7.391  0.00  0.00    -0.252 OA
ATOM      4  N   LIG d   1       9.917   3.460  -5.639  0.00  0.00    -0.265 N 
ATOM      5  C   LIG d   1      10.580   3.373  -4.325  0.00  0.00     0.082 C 
ATOM      6  C   LIG d   1      11.320   2.057  -4.283  0.00  0.00     0.162 A 
ATOM      7  C   LIG d   1      11.156   1.076  -5.197  0.00  0.00     0.148 A 
ATOM      8  N   LIG d   1      11.978   0.051  -4.831  0.00  0.00    -0.247 N 
ATOM      9  H   LIG d   1      12.081  -0.796  -5.291  0.00  0.00     0.310 HD
ATOM     10  C   LIG d   1      12.620   0.441  -3.706  0.00  0.00     0.243 A 
ATOM     11  N   LIG d   1      12.219   1.644  -3.387  0.00  0.00    -0.246 N 
ATOM     12  C   LIG d   1      10.232   1.150  -6.384  0.00  0.00     0.041 C 
ATOM     13  C   LIG d   1       9.210   2.274  -6.146  0.00  0.00     0.114 C 
ATOM     14  H   LIG d   1       8.711   2.522  -7.083  0.00  0.00     0.060 H 
ATOM     15  H   LIG d   1      11.302   5.530  -5.180  0.00  0.00     0.156 HD
ATOM     16  H   LIG d   1      11.283   4.197  -4.208  0.00  0.00     0.055 H 
ATOM     17  H   LIG d   1       9.834   3.404  -3.530  0.00  0.00     0.055 H 
ATOM     18  H   LIG d   1      13.345  -0.145  -3.161  0.00  0.00     0.158 H 
ATOM     19  H   LIG d   1      10.811   1.363  -7.283  0.00  0.00     0.037 H 
ATOM     20  H   LIG d   1       9.710   0.200  -6.500  0.00  0.00     0.037 H 
ATOM     21  H   LIG d   1      12.525   2.154  -2.621  0.00  0.00     0.310 HD
ENDROOT
BRANCH  13  22
ATOM     22  C   LIG d   1       8.189   1.826  -5.132  0.00  0.00     0.249 A 
ATOM     23  O   LIG d   1       7.744   2.550  -4.096  0.00  0.00    -0.336 OA
ATOM     24  N   LIG d   1       6.798   1.737  -3.417  0.00  0.00    -0.056 NA
ATOM     25  C   LIG d   1       6.745   0.603  -4.071  0.00  0.00     0.202 A 
ATOM     26  N   LIG d   1       7.595   0.667  -5.112  0.00  0.00    -0.190 NA
BRANCH  25  27
ATOM     27  C   LIG d   1       5.890  -0.559  -3.722  0.00  0.00     0.029 A 
ATOM     28  C   LIG d   1       5.920  -1.709  -4.507  0.00  0.00     0.026 A 
ATOM     29  C   LIG d   1       5.127  -2.789  -4.175  0.00  0.00     0.274 A 
ATOM     30  H   LIG d   1       6.566  -1.759  -5.371  0.00  0.00     0.069 H 
ATOM     31  C   LIG d   1       4.294  -2.726  -3.073  0.00  0.00     0.016 A 
ATOM     32  C   LIG d   1       4.257  -1.584  -2.292  0.00  0.00    -0.055 A 
ATOM     33  H   LIG d   1       3.672  -3.572  -2.818  0.00  0.00     0.069 H 
ATOM     34  C   LIG d   1       5.050  -0.501  -2.612  0.00  0.00    -0.051 A 
ATOM     35  H   LIG d   1       3.605  -1.540  -1.433  0.00  0.00     0.062 H 
ATOM     36  H   LIG d   1       5.020   0.390  -2.002  0.00  0.00     0.062 H 
BRANCH  29  37
ATOM     37  N   LIG d   1       5.163  -4.015  -5.004  0.00  0.00     0.080 N 
ATOM     38  O   LIG d   1       4.229  -4.783  -4.989  0.00  0.00     0.041 OA
ATOM     39  O   LIG d   1       6.125  -4.248  -5.696  0.00  0.00    -0.576 OA
ENDBRANCH  29  37
ENDBRANCH  25  27
ENDBRANCH  13  22
BRANCH   1  40
ATOM     40  C   LIG d   1      10.577   6.890  -6.556  0.00  0.00     0.035 A 
ATOM     41  C   LIG d   1       9.583   7.777  -6.164  0.00  0.00    -0.037 A 
ATOM     42  C   LIG d   1       9.470   9.006  -6.786  0.00  0.00    -0.018 A 
ATOM     43  H   LIG d   1       8.898   7.506  -5.374  0.00  0.00     0.064 H 
ATOM     44  C   LIG d   1      10.350   9.353  -7.800  0.00  0.00     0.120 A 
ATOM     45  H   LIG d   1       8.696   9.695  -6.481  0.00  0.00     0.066 H 
ATOM     46  C   LIG d   1      11.341   8.466  -8.194  0.00  0.00    -0.018 A 
ATOM     47  C   LIG d   1      11.457   7.240  -7.571  0.00  0.00    -0.037 A 
ATOM     48  H   LIG d   1      12.023   8.735  -8.987  0.00  0.00     0.066 H 
ATOM     49  H   LIG d   1      12.230   6.550  -7.875  0.00  0.00     0.064 H 
BRANCH  44  50
ATOM     50  O   LIG d   1      10.239  10.563  -8.411  0.00  0.00    -0.495 OA
BRANCH  50  51
ATOM     51  C   LIG d   1      11.148  11.584  -7.998  0.00  0.00     0.079 C 
ATOM     52  H   LIG d   1      10.889  11.915  -6.992  0.00  0.00     0.066 H 
ATOM     53  H   LIG d   1      12.164  11.189  -8.000  0.00  0.00     0.066 H 
ATOM     54  H   LIG d   1      11.084  12.427  -8.685  0.00  0.00     0.066 H 
ENDBRANCH  50  51
ENDBRANCH  44  50
ENDBRANCH   1  40
TORSDOF 6
ENDMDL
MODEL 5
REMARK VINA RESULT:      -6.7      2.978      3.701
REMARK  6 active torsions:
REMARK  status: ('A' for Active; 'I' for Inactive)
REMARK    1  A    between atoms: C_1  and  O_2 
REMARK    2  A    between atoms: O_2  and  C_3 
REMARK    3  A    between atoms: C_6  and  N_9 
REMARK       I    between atoms: N_9  and  C_10 
REMARK       I    between atoms: C_10  and  N_12 
REMARK    4  A    between atoms: C_21  and  C_23 
REMARK    5  A    between atoms: C_25  and  C_28 
REMARK    6  A    between atoms: C_32  and  N_34 
ROOT
ATOM      1  N   LIG d   1      10.839   3.699  -5.313  0.00  0.00    -0.269 N 
ATOM      2  C   LIG d   1      10.410   2.666  -6.065  0.00  0.00     0.307 C 
ATOM      3  O   LIG d   1       9.812   2.876  -7.102  0.00  0.00    -0.252 OA
ATOM      4  N   LIG d   1      10.642   1.399  -5.665  0.00  0.00    -0.265 N 
ATOM      5  C   LIG d   1      11.259   1.123  -4.356  0.00  0.00     0.082 C 
ATOM      6  C   LIG d   1      12.310   0.059  -4.571  0.00  0.00     0.162 A 
ATOM      7  C   LIG d   1      12.436  -0.650  -5.714  0.00  0.00     0.148 A 
ATOM      8  N   LIG d   1      13.479  -1.508  -5.536  0.00  0.00    -0.247 N 
ATOM      9  H   LIG d   1      13.813  -2.151  -6.181  0.00  0.00     0.310 HD
ATOM     10  C   LIG d   1      13.961  -1.294  -4.290  0.00  0.00     0.243 A 
ATOM     11  N   LIG d   1      13.253  -0.353  -3.721  0.00  0.00    -0.246 N 
ATOM     12  C   LIG d   1      11.565  -0.481  -6.931  0.00  0.00     0.041 C 
ATOM     13  C   LIG d   1      10.281   0.260  -6.523  0.00  0.00     0.114 C 
ATOM     14  H   LIG d   1       9.768   0.624  -7.413  0.00  0.00     0.060 H 
ATOM     15  H   LIG d   1      11.433   3.538  -4.563  0.00  0.00     0.156 HD
ATOM     16  H   LIG d   1      11.722   2.027  -3.965  0.00  0.00     0.055 H 
ATOM     17  H   LIG d   1      10.503   0.760  -3.658  0.00  0.00     0.055 H 
ATOM     18  H   LIG d   1      14.792  -1.815  -3.839  0.00  0.00     0.158 H 
ATOM     19  H   LIG d   1      12.101   0.097  -7.685  0.00  0.00     0.037 H 
ATOM     20  H   LIG d   1      11.308  -1.461  -7.335  0.00  0.00     0.037 H 
ATOM     21  H   LIG d   1      13.392  -0.009  -2.824  0.00  0.00     0.310 HD
ENDROOT
BRANCH  13  22
ATOM     22  C   LIG d   1       9.374  -0.674  -5.764  0.00  0.00     0.249 A 
ATOM     23  O   LIG d   1       9.615  -1.969  -5.517  0.00  0.00    -0.336 OA
ATOM     24  N   LIG d   1       8.502  -2.448  -4.776  0.00  0.00    -0.056 NA
ATOM     25  C   LIG d   1       7.683  -1.435  -4.638  0.00  0.00     0.202 A 
ATOM     26  N   LIG d   1       8.223  -0.361  -5.242  0.00  0.00    -0.190 NA
BRANCH  25  27
ATOM     27  C   LIG d   1       6.378  -1.467  -3.933  0.00  0.00     0.029 A 
ATOM     28  C   LIG d   1       5.929  -0.342  -3.244  0.00  0.00     0.026 A 
ATOM     29  C   LIG d   1       4.712  -0.375  -2.594  0.00  0.00     0.274 A 
ATOM     30  H   LIG d   1       6.529   0.556  -3.223  0.00  0.00     0.069 H 
ATOM     31  C   LIG d   1       3.945  -1.525  -2.614  0.00  0.00     0.016 A 
ATOM     32  C   LIG d   1       4.389  -2.647  -3.292  0.00  0.00    -0.055 A 
ATOM     33  H   LIG d   1       2.994  -1.548  -2.101  0.00  0.00     0.069 H 
ATOM     34  C   LIG d   1       5.601  -2.623  -3.950  0.00  0.00    -0.051 A 
ATOM     35  H   LIG d   1       3.785  -3.542  -3.305  0.00  0.00     0.062 H 
ATOM     36  H   LIG d   1       5.946  -3.499  -4.479  0.00  0.00     0.062 H 
BRANCH  29  37
ATOM     37  N   LIG d   1       4.230   0.822  -1.868  0.00  0.00     0.080 N 
ATOM     38  O   LIG d   1       4.946   1.369  -1.062  0.00  0.00     0.041 OA
ATOM     39  O   LIG d   1       3.121   1.252  -2.080  0.00  0.00    -0.576 OA
ENDBRANCH  29  37
ENDBRANCH  25  27
ENDBRANCH  13  22
BRANCH   1  40
ATOM     40  C   LIG d   1      10.431   5.004  -5.619  0.00  0.00     0.035 A 
ATOM     41  C   LIG d   1       9.497   5.644  -4.815  0.00  0.00    -0.037 A 
ATOM     42  C   LIG d   1       9.094   6.931  -5.116  0.00  0.00    -0.018 A 
ATOM     43  H   LIG d   1       9.085   5.136  -3.955  0.00  0.00     0.064 H 
ATOM     44  C   LIG d   1       9.623   7.583  -6.220  0.00  0.00     0.120 A 
ATOM     45  H   LIG d   1       8.367   7.429  -4.491  0.00  0.00     0.066 H 
ATOM     46  C   LIG d   1      10.553   6.942  -7.025  0.00  0.00    -0.018 A 
ATOM     47  C   LIG d   1      10.960   5.658  -6.723  0.00  0.00    -0.037 A 
ATOM     48  H   LIG d   1      10.961   7.449  -7.887  0.00  0.00     0.066 H 
ATOM     49  H   LIG d   1      11.686   5.160  -7.348  0.00  0.00     0.064 H 
BRANCH  44  50
ATOM     50  O   LIG d   1       9.227   8.850  -6.515  0.00  0.00    -0.495 OA
BRANCH  50  51
ATOM     51  C   LIG d   1       9.471   9.853  -5.527  0.00  0.00     0.079 C 
ATOM     52  H   LIG d   1       9.751  10.784  -6.019  0.00  0.00     0.066 H 
ATOM     53  H   LIG d   1       8.568  10.010  -4.938  0.00  0.00     0.066 H 
ATOM     54  H   LIG d   1      10.280   9.530  -4.873  0.00  0.00     0.066 H 
ENDBRANCH  50  51
ENDBRANCH  44  50
ENDBRANCH   1  40
TORSDOF 6
ENDMDL
MODEL 6
REMARK VINA RESULT:      -6.7      1.718      2.242
REMARK  6 active torsions:
REMARK  status: ('A' for Active; 'I' for Inactive)
REMARK    1  A    between atoms: C_1  and  O_2 
REMARK    2  A    between atoms: O_2  and  C_3 
REMARK    3  A    between atoms: C_6  and  N_9 
REMARK       I    between atoms: N_9  and  C_10 
REMARK       I    between atoms: C_10  and  N_12 
REMARK    4  A    between atoms: C_21  and  C_23 
REMARK    5  A    between atoms: C_25  and  C_28 
REMARK    6  A    between atoms: C_32  and  N_34 
ROOT
ATOM      1  N   LIG d   1      11.308   4.523  -3.158  0.00  0.00    -0.269 N 
ATOM      2  C   LIG d   1      10.866   3.928  -4.283  0.00  0.00     0.307 C 
ATOM      3  O   LIG d   1      10.234   4.568  -5.101  0.00  0.00    -0.252 OA
ATOM      4  N   LIG d   1      11.125   2.623  -4.502  0.00  0.00    -0.265 N 
ATOM      5  C   LIG d   1      11.785   1.802  -3.472  0.00  0.00     0.082 C 
ATOM      6  C   LIG d   1      12.840   0.974  -4.166  0.00  0.00     0.162 A 
ATOM      7  C   LIG d   1      12.938   0.858  -5.508  0.00  0.00     0.148 A 
ATOM      8  N   LIG d   1      13.995   0.036  -5.760  0.00  0.00    -0.247 N 
ATOM      9  H   LIG d   1      14.316  -0.240  -6.633  0.00  0.00     0.310 HD
ATOM     10  C   LIG d   1      14.513  -0.322  -4.562  0.00  0.00     0.243 A 
ATOM     11  N   LIG d   1      13.813   0.246  -3.615  0.00  0.00    -0.246 N 
ATOM     12  C   LIG d   1      12.028   1.535  -6.500  0.00  0.00     0.041 C 
ATOM     13  C   LIG d   1      10.749   1.983  -5.772  0.00  0.00     0.114 C 
ATOM     14  H   LIG d   1      10.205   2.696  -6.392  0.00  0.00     0.060 H 
ATOM     15  H   LIG d   1      11.926   4.056  -2.573  0.00  0.00     0.156 HD
ATOM     16  H   LIG d   1      12.250   2.445  -2.726  0.00  0.00     0.055 H 
ATOM     17  H   LIG d   1      11.055   1.147  -2.995  0.00  0.00     0.055 H 
ATOM     18  H   LIG d   1      15.364  -0.970  -4.413  0.00  0.00     0.158 H 
ATOM     19  H   LIG d   1      12.534   2.403  -6.924  0.00  0.00     0.037 H 
ATOM     20  H   LIG d   1      11.769   0.836  -7.295  0.00  0.00     0.037 H 
ATOM     21  H   LIG d   1      13.976   0.153  -2.663  0.00  0.00     0.310 HD
ENDROOT
BRANCH  13  22
ATOM     22  C   LIG d   1       9.877   0.786  -5.494  0.00  0.00     0.249 A 
ATOM     23  O   LIG d   1      10.121  -0.470  -5.894  0.00  0.00    -0.336 OA
ATOM     24  N   LIG d   1       9.044  -1.259  -5.410  0.00  0.00    -0.056 NA
ATOM     25  C   LIG d   1       8.241  -0.443  -4.773  0.00  0.00     0.202 A 
ATOM     26  N   LIG d   1       8.756   0.798  -4.831  0.00  0.00    -0.190 NA
BRANCH  25  27
ATOM     27  C   LIG d   1       6.975  -0.824  -4.101  0.00  0.00     0.029 A 
ATOM     28  C   LIG d   1       6.269   0.117  -3.355  0.00  0.00     0.026 A 
ATOM     29  C   LIG d   1       5.088  -0.241  -2.736  0.00  0.00     0.274 A 
ATOM     30  H   LIG d   1       6.641   1.127  -3.265  0.00  0.00     0.069 H 
ATOM     31  C   LIG d   1       4.612  -1.535  -2.844  0.00  0.00     0.016 A 
ATOM     32  C   LIG d   1       5.312  -2.475  -3.580  0.00  0.00    -0.055 A 
ATOM     33  H   LIG d   1       3.690  -1.812  -2.355  0.00  0.00     0.069 H 
ATOM     34  C   LIG d   1       6.490  -2.127  -4.207  0.00  0.00    -0.051 A 
ATOM     35  H   LIG d   1       4.936  -3.484  -3.661  0.00  0.00     0.062 H 
ATOM     36  H   LIG d   1       7.035  -2.861  -4.781  0.00  0.00     0.062 H 
BRANCH  29  37
ATOM     37  N   LIG d   1       4.333   0.760  -1.948  0.00  0.00     0.080 N 
ATOM     38  O   LIG d   1       4.893   1.398  -1.087  0.00  0.00     0.041 OA
ATOM     39  O   LIG d   1       3.159   0.940  -2.167  0.00  0.00    -0.576 OA
ENDBRANCH  29  37
ENDBRANCH  25  27
ENDBRANCH  13  22
BRANCH   1  40
ATOM     40  C   LIG d   1      10.876   5.816  -2.833  0.00  0.00     0.035 A 
ATOM     41  C   LIG d   1       9.778   5.992  -2.001  0.00  0.00    -0.037 A 
ATOM     42  C   LIG d   1       9.352   7.267  -1.681  0.00  0.00    -0.018 A 
ATOM     43  H   LIG d   1       9.258   5.133  -1.604  0.00  0.00     0.064 H 
ATOM     44  C   LIG d   1      10.021   8.369  -2.191  0.00  0.00     0.120 A 
ATOM     45  H   LIG d   1       8.499   7.404  -1.033  0.00  0.00     0.066 H 
ATOM     46  C   LIG d   1      11.115   8.194  -3.025  0.00  0.00    -0.018 A 
ATOM     47  C   LIG d   1      11.544   6.921  -3.342  0.00  0.00    -0.037 A 
ATOM     48  H   LIG d   1      11.633   9.053  -3.426  0.00  0.00     0.066 H 
ATOM     49  H   LIG d   1      12.398   6.784  -3.990  0.00  0.00     0.064 H 
BRANCH  44  50
ATOM     50  O   LIG d   1       9.602   9.624  -1.875  0.00  0.00    -0.495 OA
BRANCH  50  51
ATOM     51  C   LIG d   1       9.723  10.024  -0.509  0.00  0.00     0.079 C 
ATOM     52  H   LIG d   1      10.437  10.845  -0.434  0.00  0.00     0.066 H 
ATOM     53  H   LIG d   1       8.753  10.352  -0.138  0.00  0.00     0.066 H 
ATOM     54  H   LIG d   1      10.074   9.182   0.087  0.00  0.00     0.066 H 
ENDBRANCH  50  51
ENDBRANCH  44  50
ENDBRANCH   1  40
TORSDOF 6
ENDMDL
MODEL 7
REMARK VINA RESULT:      -6.6      2.764      9.870
REMARK  6 active torsions:
REMARK  status: ('A' for Active; 'I' for Inactive)
REMARK    1  A    between atoms: C_1  and  O_2 
REMARK    2  A    between atoms: O_2  and  C_3 
REMARK    3  A    between atoms: C_6  and  N_9 
REMARK       I    between atoms: N_9  and  C_10 
REMARK       I    between atoms: C_10  and  N_12 
REMARK    4  A    between atoms: C_21  and  C_23 
REMARK    5  A    between atoms: C_25  and  C_28 
REMARK    6  A    between atoms: C_32  and  N_34 
ROOT
ATOM      1  N   LIG d   1       8.608   2.947  -4.517  0.00  0.00    -0.269 N 
ATOM      2  C   LIG d   1       9.523   3.384  -3.629  0.00  0.00     0.307 C 
ATOM      3  O   LIG d   1      10.017   2.609  -2.834  0.00  0.00    -0.252 OA
ATOM      4  N   LIG d   1       9.889   4.682  -3.623  0.00  0.00    -0.265 N 
ATOM      5  C   LIG d   1       9.218   5.660  -4.497  0.00  0.00     0.082 C 
ATOM      6  C   LIG d   1      10.293   6.519  -5.118  0.00  0.00     0.162 A 
ATOM      7  C   LIG d   1      11.582   6.516  -4.713  0.00  0.00     0.148 A 
ATOM      8  N   LIG d   1      12.247   7.412  -5.496  0.00  0.00    -0.247 N 
ATOM      9  H   LIG d   1      13.189   7.634  -5.444  0.00  0.00     0.310 HD
ATOM     10  C   LIG d   1      11.343   7.932  -6.357  0.00  0.00     0.243 A 
ATOM     11  N   LIG d   1      10.176   7.390  -6.122  0.00  0.00    -0.246 N 
ATOM     12  C   LIG d   1      12.133   5.659  -3.604  0.00  0.00     0.041 C 
ATOM     13  C   LIG d   1      10.965   5.156  -2.738  0.00  0.00     0.114 C 
ATOM     14  H   LIG d   1      11.303   4.337  -2.105  0.00  0.00     0.060 H 
ATOM     15  H   LIG d   1       8.317   3.527  -5.238  0.00  0.00     0.156 HD
ATOM     16  H   LIG d   1       8.662   5.141  -5.276  0.00  0.00     0.055 H 
ATOM     17  H   LIG d   1       8.541   6.281  -3.908  0.00  0.00     0.055 H 
ATOM     18  H   LIG d   1      11.550   8.674  -7.114  0.00  0.00     0.158 H 
ATOM     19  H   LIG d   1      12.668   4.810  -4.031  0.00  0.00     0.037 H 
ATOM     20  H   LIG d   1      12.814   6.250  -2.990  0.00  0.00     0.037 H 
ATOM     21  H   LIG d   1       9.356   7.590  -6.601  0.00  0.00     0.310 HD
ENDROOT
BRANCH  13  22
ATOM     22  C   LIG d   1      10.450   6.281  -1.878  0.00  0.00     0.249 A 
ATOM     23  O   LIG d   1       9.161   6.547  -1.627  0.00  0.00    -0.336 OA
ATOM     24  N   LIG d   1       9.146   7.684  -0.776  0.00  0.00    -0.056 NA
ATOM     25  C   LIG d   1      10.397   8.021  -0.583  0.00  0.00     0.202 A 
ATOM     26  N   LIG d   1      11.182   7.162  -1.258  0.00  0.00    -0.190 NA
BRANCH  25  27
ATOM     27  C   LIG d   1      10.869   9.160   0.242  0.00  0.00     0.029 A 
ATOM     28  C   LIG d   1      10.419  10.451  -0.026  0.00  0.00     0.026 A 
ATOM     29  C   LIG d   1      10.858  11.507   0.748  0.00  0.00     0.274 A 
ATOM     30  H   LIG d   1       9.724  10.626  -0.834  0.00  0.00     0.069 H 
ATOM     31  C   LIG d   1      11.752  11.287   1.779  0.00  0.00     0.016 A 
ATOM     32  C   LIG d   1      12.207  10.007   2.046  0.00  0.00    -0.055 A 
ATOM     33  H   LIG d   1      12.096  12.116   2.380  0.00  0.00     0.069 H 
ATOM     34  C   LIG d   1      11.771   8.944   1.283  0.00  0.00    -0.051 A 
ATOM     35  H   LIG d   1      12.905   9.841   2.853  0.00  0.00     0.062 H 
ATOM     36  H   LIG d   1      12.125   7.946   1.492  0.00  0.00     0.062 H 
BRANCH  29  37
ATOM     37  N   LIG d   1      10.375  12.878   0.470  0.00  0.00     0.080 N 
ATOM     38  O   LIG d   1      10.360  13.295  -0.665  0.00  0.00     0.041 OA
ATOM     39  O   LIG d   1       9.994  13.581   1.376  0.00  0.00    -0.576 OA
ENDBRANCH  29  37
ENDBRANCH  25  27
ENDBRANCH  13  22
BRANCH   1  40
ATOM     40  C   LIG d   1       8.081   1.654  -4.399  0.00  0.00     0.035 A 
ATOM     41  C   LIG d   1       8.674   0.598  -5.078  0.00  0.00    -0.037 A 
ATOM     42  C   LIG d   1       8.154  -0.676  -4.963  0.00  0.00    -0.018 A 
ATOM     43  H   LIG d   1       9.542   0.774  -5.697  0.00  0.00     0.064 H 
ATOM     44  C   LIG d   1       7.040  -0.900  -4.168  0.00  0.00     0.120 A 
ATOM     45  H   LIG d   1       8.616  -1.497  -5.491  0.00  0.00     0.066 H 
ATOM     46  C   LIG d   1       6.444   0.154  -3.493  0.00  0.00    -0.018 A 
ATOM     47  C   LIG d   1       6.965   1.428  -3.604  0.00  0.00    -0.037 A 
ATOM     48  H   LIG d   1       5.573  -0.020  -2.878  0.00  0.00     0.066 H 
ATOM     49  H   LIG d   1       6.503   2.249  -3.076  0.00  0.00     0.064 H 
BRANCH  44  50
ATOM     50  O   LIG d   1       6.529  -2.155  -4.054  0.00  0.00    -0.495 OA
BRANCH  50  51
ATOM     51  C   LIG d   1       5.183  -2.268  -3.587  0.00  0.00     0.079 C 
ATOM     52  H   LIG d   1       4.534  -2.547  -4.417  0.00  0.00     0.066 H 
ATOM     53  H   LIG d   1       5.130  -3.032  -2.812  0.00  0.00     0.066 H 
ATOM     54  H   LIG d   1       4.859  -1.312  -3.178  0.00  0.00     0.066 H 
ENDBRANCH  50  51
ENDBRANCH  44  50
ENDBRANCH   1  40
TORSDOF 6
ENDMDL
MODEL 8
REMARK VINA RESULT:      -6.6      2.042      2.506
REMARK  6 active torsions:
REMARK  status: ('A' for Active; 'I' for Inactive)
REMARK    1  A    between atoms: C_1  and  O_2 
REMARK    2  A    between atoms: O_2  and  C_3 
REMARK    3  A    between atoms: C_6  and  N_9 
REMARK       I    between atoms: N_9  and  C_10 
REMARK       I    between atoms: C_10  and  N_12 
REMARK    4  A    between atoms: C_21  and  C_23 
REMARK    5  A    between atoms: C_25  and  C_28 
REMARK    6  A    between atoms: C_32  and  N_34 
ROOT
ATOM      1  N   LIG d   1      10.574   5.359  -2.771  0.00  0.00    -0.269 N 
ATOM      2  C   LIG d   1       9.763   4.885  -3.737  0.00  0.00     0.307 C 
ATOM      3  O   LIG d   1       9.066   5.651  -4.376  0.00  0.00    -0.252 OA
ATOM      4  N   LIG d   1       9.723   3.562  -3.995  0.00  0.00    -0.265 N 
ATOM      5  C   LIG d   1      10.468   2.608  -3.155  0.00  0.00     0.082 C 
ATOM      6  C   LIG d   1      11.148   1.630  -4.084  0.00  0.00     0.162 A 
ATOM      7  C   LIG d   1      10.879   1.540  -5.405  0.00  0.00     0.148 A 
ATOM      8  N   LIG d   1      11.676   0.554  -5.906  0.00  0.00    -0.247 N 
ATOM      9  H   LIG d   1      11.710   0.253  -6.827  0.00  0.00     0.310 HD
ATOM     10  C   LIG d   1      12.410   0.075  -4.875  0.00  0.00     0.243 A 
ATOM     11  N   LIG d   1      12.086   0.727  -3.789  0.00  0.00    -0.246 N 
ATOM     12  C   LIG d   1       9.881   2.395  -6.140  0.00  0.00     0.041 C 
ATOM     13  C   LIG d   1       8.929   3.037  -5.117  0.00  0.00     0.114 C 
ATOM     14  H   LIG d   1       8.380   3.852  -5.587  0.00  0.00     0.060 H 
ATOM     15  H   LIG d   1      11.228   4.774  -2.358  0.00  0.00     0.156 HD
ATOM     16  H   LIG d   1      11.213   3.137  -2.564  0.00  0.00     0.055 H 
ATOM     17  H   LIG d   1       9.779   2.076  -2.497  0.00  0.00     0.055 H 
ATOM     18  H   LIG d   1      13.142  -0.715  -4.939  0.00  0.00     0.158 H 
ATOM     19  H   LIG d   1      10.407   3.174  -6.693  0.00  0.00     0.037 H 
ATOM     20  H   LIG d   1       9.309   1.776  -6.832  0.00  0.00     0.037 H 
ATOM     21  H   LIG d   1      12.466   0.578  -2.909  0.00  0.00     0.310 HD
ENDROOT
BRANCH  13  22
ATOM     22  C   LIG d   1       7.959   2.002  -4.606  0.00  0.00     0.249 A 
ATOM     23  O   LIG d   1       7.402   1.986  -3.388  0.00  0.00    -0.336 OA
ATOM     24  N   LIG d   1       6.562   0.841  -3.349  0.00  0.00    -0.056 NA
ATOM     25  C   LIG d   1       6.675   0.256  -4.515  0.00  0.00     0.202 A 
ATOM     26  N   LIG d   1       7.528   0.970  -5.273  0.00  0.00    -0.190 NA
BRANCH  25  27
ATOM     27  C   LIG d   1       5.980  -0.986  -4.932  0.00  0.00     0.029 A 
ATOM     28  C   LIG d   1       5.318  -1.039  -6.157  0.00  0.00     0.026 A 
ATOM     29  C   LIG d   1       4.677  -2.200  -6.542  0.00  0.00     0.274 A 
ATOM     30  H   LIG d   1       5.312  -0.177  -6.807  0.00  0.00     0.069 H 
ATOM     31  C   LIG d   1       4.679  -3.303  -5.710  0.00  0.00     0.016 A 
ATOM     32  C   LIG d   1       5.330  -3.254  -4.489  0.00  0.00    -0.055 A 
ATOM     33  H   LIG d   1       4.173  -4.208  -6.013  0.00  0.00     0.069 H 
ATOM     34  C   LIG d   1       5.979  -2.102  -4.097  0.00  0.00    -0.051 A 
ATOM     35  H   LIG d   1       5.329  -4.119  -3.843  0.00  0.00     0.062 H 
ATOM     36  H   LIG d   1       6.487  -2.065  -3.145  0.00  0.00     0.062 H 
BRANCH  29  37
ATOM     37  N   LIG d   1       3.980  -2.260  -7.847  0.00  0.00     0.080 N 
ATOM     38  O   LIG d   1       3.608  -3.324  -8.285  0.00  0.00     0.041 OA
ATOM     39  O   LIG d   1       3.783  -1.246  -8.474  0.00  0.00    -0.576 OA
ENDBRANCH  29  37
ENDBRANCH  25  27
ENDBRANCH  13  22
BRANCH   1  40
ATOM     40  C   LIG d   1      10.474   6.697  -2.367  0.00  0.00     0.035 A 
ATOM     41  C   LIG d   1      11.357   7.642  -2.871  0.00  0.00    -0.037 A 
ATOM     42  C   LIG d   1      11.259   8.961  -2.473  0.00  0.00    -0.018 A 
ATOM     43  H   LIG d   1      12.122   7.346  -3.574  0.00  0.00     0.064 H 
ATOM     44  C   LIG d   1      10.277   9.341  -1.570  0.00  0.00     0.120 A 
ATOM     45  H   LIG d   1      11.946   9.696  -2.865  0.00  0.00     0.066 H 
ATOM     46  C   LIG d   1       9.396   8.397  -1.063  0.00  0.00    -0.018 A 
ATOM     47  C   LIG d   1       9.491   7.079  -1.464  0.00  0.00    -0.037 A 
ATOM     48  H   LIG d   1       8.635   8.692  -0.356  0.00  0.00     0.066 H 
ATOM     49  H   LIG d   1       8.804   6.344  -1.071  0.00  0.00     0.064 H 
BRANCH  44  50
ATOM     50  O   LIG d   1      10.180  10.640  -1.178  0.00  0.00    -0.495 OA
BRANCH  50  51
ATOM     51  C   LIG d   1      10.045  10.887   0.223  0.00  0.00     0.079 C 
ATOM     52  H   LIG d   1      10.960  10.586   0.733  0.00  0.00     0.066 H 
ATOM     53  H   LIG d   1       9.869  11.949   0.389  0.00  0.00     0.066 H 
ATOM     54  H   LIG d   1       9.206  10.313   0.614  0.00  0.00     0.066 H 
ENDBRANCH  50  51
ENDBRANCH  44  50
ENDBRANCH   1  40
TORSDOF 6
ENDMDL
MODEL 9
REMARK VINA RESULT:      -6.6      1.463      2.173
REMARK  6 active torsions:
REMARK  status: ('A' for Active; 'I' for Inactive)
REMARK    1  A    between atoms: C_1  and  O_2 
REMARK    2  A    between atoms: O_2  and  C_3 
REMARK    3  A    between atoms: C_6  and  N_9 
REMARK       I    between atoms: N_9  and  C_10 
REMARK       I    between atoms: C_10  and  N_12 
REMARK    4  A    between atoms: C_21  and  C_23 
REMARK    5  A    between atoms: C_25  and  C_28 
REMARK    6  A    between atoms: C_32  and  N_34 
ROOT
ATOM      1  N   LIG d   1      10.627   5.965  -2.418  0.00  0.00    -0.269 N 
ATOM      2  C   LIG d   1       9.979   5.431  -3.472  0.00  0.00     0.307 C 
ATOM      3  O   LIG d   1       9.307   6.141  -4.196  0.00  0.00    -0.252 OA
ATOM      4  N   LIG d   1      10.073   4.110  -3.722  0.00  0.00    -0.265 N 
ATOM      5  C   LIG d   1      10.783   3.215  -2.791  0.00  0.00     0.082 C 
ATOM      6  C   LIG d   1      11.646   2.295  -3.623  0.00  0.00     0.162 A 
ATOM      7  C   LIG d   1      11.547   2.187  -4.966  0.00  0.00     0.148 A 
ATOM      8  N   LIG d   1      12.473   1.268  -5.359  0.00  0.00    -0.247 N 
ATOM      9  H   LIG d   1      12.642   0.972  -6.267  0.00  0.00     0.310 HD
ATOM     10  C   LIG d   1      13.111   0.846  -4.243  0.00  0.00     0.243 A 
ATOM     11  N   LIG d   1      12.608   1.468  -3.209  0.00  0.00    -0.246 N 
ATOM     12  C   LIG d   1      10.582   2.963  -5.824  0.00  0.00     0.041 C 
ATOM     13  C   LIG d   1       9.466   3.526  -4.928  0.00  0.00     0.114 C 
ATOM     14  H   LIG d   1       8.916   4.297  -5.468  0.00  0.00     0.060 H 
ATOM     15  H   LIG d   1      11.269   5.432  -1.924  0.00  0.00     0.156 HD
ATOM     16  H   LIG d   1      11.407   3.799  -2.117  0.00  0.00     0.055 H 
ATOM     17  H   LIG d   1      10.063   2.629  -2.218  0.00  0.00     0.055 H 
ATOM     18  H   LIG d   1      13.906   0.115  -4.212  0.00  0.00     0.158 H 
ATOM     19  H   LIG d   1      11.109   3.782  -6.315  0.00  0.00     0.037 H 
ATOM     20  H   LIG d   1      10.149   2.302  -6.575  0.00  0.00     0.037 H 
ATOM     21  H   LIG d   1      12.889   1.347  -2.288  0.00  0.00     0.310 HD
ENDROOT
BRANCH  13  22
ATOM     22  C   LIG d   1       8.525   2.417  -4.531  0.00  0.00     0.249 A 
ATOM     23  O   LIG d   1       7.435   2.553  -3.764  0.00  0.00    -0.336 OA
ATOM     24  N   LIG d   1       6.859   1.260  -3.656  0.00  0.00    -0.056 NA
ATOM     25  C   LIG d   1       7.627   0.452  -4.344  0.00  0.00     0.202 A 
ATOM     26  N   LIG d   1       8.637   1.166  -4.872  0.00  0.00    -0.190 NA
BRANCH  25  27
ATOM     27  C   LIG d   1       7.417  -1.007  -4.513  0.00  0.00     0.029 A 
ATOM     28  C   LIG d   1       6.163  -1.566  -4.272  0.00  0.00     0.026 A 
ATOM     29  C   LIG d   1       5.973  -2.923  -4.436  0.00  0.00     0.274 A 
ATOM     30  H   LIG d   1       5.341  -0.938  -3.962  0.00  0.00     0.069 H 
ATOM     31  C   LIG d   1       7.025  -3.730  -4.826  0.00  0.00     0.016 A 
ATOM     32  C   LIG d   1       8.274  -3.182  -5.061  0.00  0.00    -0.055 A 
ATOM     33  H   LIG d   1       6.873  -4.792  -4.949  0.00  0.00     0.069 H 
ATOM     34  C   LIG d   1       8.474  -1.826  -4.906  0.00  0.00    -0.051 A 
ATOM     35  H   LIG d   1       9.092  -3.816  -5.366  0.00  0.00     0.062 H 
ATOM     36  H   LIG d   1       9.449  -1.398  -5.090  0.00  0.00     0.062 H 
BRANCH  29  37
ATOM     37  N   LIG d   1       4.639  -3.517  -4.187  0.00  0.00     0.080 N 
ATOM     38  O   LIG d   1       3.907  -3.032  -3.356  0.00  0.00     0.041 OA
ATOM     39  O   LIG d   1       4.283  -4.486  -4.815  0.00  0.00    -0.576 OA
ENDBRANCH  29  37
ENDBRANCH  25  27
ENDBRANCH  13  22
BRANCH   1  40
ATOM     40  C   LIG d   1      10.374   7.291  -2.039  0.00  0.00     0.035 A 
ATOM     41  C   LIG d   1       9.284   7.585  -1.231  0.00  0.00    -0.037 A 
ATOM     42  C   LIG d   1       9.035   8.892  -0.857  0.00  0.00    -0.018 A 
ATOM     43  H   LIG d   1       8.631   6.793  -0.895  0.00  0.00     0.064 H 
ATOM     44  C   LIG d   1       9.874   9.908  -1.289  0.00  0.00     0.120 A 
ATOM     45  H   LIG d   1       8.187   9.121  -0.229  0.00  0.00     0.066 H 
ATOM     46  C   LIG d   1      10.961   9.615  -2.100  0.00  0.00    -0.018 A 
ATOM     47  C   LIG d   1      11.213   8.309  -2.470  0.00  0.00    -0.037 A 
ATOM     48  H   LIG d   1      11.611  10.407  -2.440  0.00  0.00     0.066 H 
ATOM     49  H   LIG d   1      12.061   8.080  -3.099  0.00  0.00     0.064 H 
BRANCH  44  50
ATOM     50  O   LIG d   1       9.629  11.194  -0.920  0.00  0.00    -0.495 OA
BRANCH  50  51
ATOM     51  C   LIG d   1      10.335  11.688   0.220  0.00  0.00     0.079 C 
ATOM     52  H   LIG d   1      10.326  12.778   0.206  0.00  0.00     0.066 H 
ATOM     53  H   LIG d   1       9.851  11.332   1.129  0.00  0.00     0.066 H 
ATOM     54  H   LIG d   1      11.364  11.333   0.192  0.00  0.00     0.066 H 
ENDBRANCH  50  51
ENDBRANCH  44  50
ENDBRANCH   1  40
TORSDOF 6
ENDMDL
