MODEL 1
REMARK VINA RESULT:      -8.0      0.000      0.000
REMARK  9 active torsions:
REMARK  status: ('A' for Active; 'I' for Inactive)
REMARK    1  A    between atoms: C_1  and  C_2 
REMARK    2  A    between atoms: C_2  and  C_3 
REMARK    3  A    between atoms: C_3  and  O_4 
REMARK    4  A    between atoms: O_4  and  C_5 
REMARK    5  A    between atoms: C_5  and  C_7 
REMARK    6  A    between atoms: C_10  and  N_13 
REMARK    7  A    between atoms: C_24  and  C_27 
REMARK    8  A    between atoms: C_25  and  C_26 
REMARK    9  A    between atoms: C_27  and  C_28 
ROOT
ATOM      1  N   LIG d   1      10.665   4.916  -3.208  0.00  0.00    -0.293 NA
ATOM      2  C   LIG d   1       9.551   3.958  -3.176  0.00  0.00     0.047 C 
ATOM      3  C   LIG d   1       9.279   3.451  -4.569  0.00  0.00     0.054 A 
ATOM      4  C   LIG d   1       9.762   4.126  -5.677  0.00  0.00     0.131 A 
ATOM      5  C   LIG d   1       9.500   3.651  -6.963  0.00  0.00    -0.019 A 
ATOM      6  C   LIG d   1       8.762   2.518  -7.147  0.00  0.00    -0.047 A 
ATOM      7  C   LIG d   1       8.272   1.820  -6.038  0.00  0.00     0.021 A 
ATOM      8  C   LIG d   1       8.531   2.294  -4.739  0.00  0.00     0.147 A 
ATOM      9  O   LIG d   1       8.052   1.623  -3.670  0.00  0.00    -0.421 OA
ATOM     10  C   LIG d   1       7.328   0.501  -3.814  0.00  0.00     0.341 A 
ATOM     11  O   LIG d   1       6.917  -0.072  -2.822  0.00  0.00    -0.245 OA
ATOM     12  C   LIG d   1       7.031  -0.030  -5.087  0.00  0.00     0.045 A 
ATOM     13  C   LIG d   1       7.483   0.598  -6.204  0.00  0.00    -0.029 A 
ATOM     14  O   LIG d   1      10.498   5.260  -5.533  0.00  0.00    -0.473 OA
ATOM     15  C   LIG d   1      10.444   5.916  -4.265  0.00  0.00     0.157 C 
ATOM     16  H   LIG d   1       8.659   4.452  -2.789  0.00  0.00     0.052 H 
ATOM     17  H   LIG d   1       9.810   3.120  -2.530  0.00  0.00     0.052 H 
ATOM     18  H   LIG d   1       9.881   4.186  -7.819  0.00  0.00     0.065 H 
ATOM     19  H   LIG d   1       8.560   2.159  -8.146  0.00  0.00     0.063 H 
ATOM     20  H   LIG d   1       9.465   6.376  -4.133  0.00  0.00     0.091 H 
ATOM     21  H   LIG d   1      11.220   6.679  -4.214  0.00  0.00     0.091 H 
ENDROOT
BRANCH   1  22
ATOM     22  C   LIG d   1      10.834   5.526  -1.970  0.00  0.00     0.033 A 
ATOM     23  C   LIG d   1      10.097   6.663  -1.651  0.00  0.00    -0.040 A 
ATOM     24  C   LIG d   1      10.260   7.266  -0.431  0.00  0.00    -0.046 A 
ATOM     25  H   LIG d   1       9.396   7.070  -2.364  0.00  0.00     0.064 H 
ATOM     26  C   LIG d   1      11.167   6.739   0.493  0.00  0.00     0.059 A 
ATOM     27  H   LIG d   1       9.688   8.149  -0.183  0.00  0.00     0.063 H 
ATOM     28  C   LIG d   1      11.907   5.597   0.168  0.00  0.00    -0.046 A 
ATOM     29  C   LIG d   1      11.734   4.995  -1.050  0.00  0.00    -0.040 A 
ATOM     30  H   LIG d   1      12.608   5.187   0.880  0.00  0.00     0.063 H 
ATOM     31  H   LIG d   1      12.301   4.109  -1.300  0.00  0.00     0.064 H 
BRANCH  26  32
ATOM     32  C   LIG d   1      11.345   7.384   1.806  0.00  0.00     0.339 C 
ATOM     33  O   LIG d   1      11.707   8.544   1.869  0.00  0.00    -0.245 OA
BRANCH  32  34
ATOM     34  O   LIG d   1      11.109   6.691   2.937  0.00  0.00    -0.461 OA
BRANCH  34  35
ATOM     35  C   LIG d   1      11.366   7.370   4.193  0.00  0.00     0.092 C 
ATOM     36  H   LIG d   1      12.333   7.872   4.144  0.00  0.00     0.070 H 
ATOM     37  H   LIG d   1      10.583   8.106   4.376  0.00  0.00     0.070 H 
BRANCH  35  38
ATOM     38  C   LIG d   1      11.381   6.348   5.332  0.00  0.00    -0.021 C 
ATOM     39  H   LIG d   1      10.938   5.414   4.988  0.00  0.00     0.029 H 
ATOM     40  H   LIG d   1      12.411   6.168   5.644  0.00  0.00     0.029 H 
BRANCH  38  41
ATOM     41  C   LIG d   1      10.577   6.890   6.516  0.00  0.00    -0.062 C 
ATOM     42  H   LIG d   1      10.126   7.844   6.241  0.00  0.00     0.023 H 
ATOM     43  H   LIG d   1       9.793   6.179   6.779  0.00  0.00     0.023 H 
ATOM     44  H   LIG d   1      11.239   7.034   7.370  0.00  0.00     0.023 H 
ENDBRANCH  38  41
ENDBRANCH  35  38
ENDBRANCH  34  35
ENDBRANCH  32  34
ENDBRANCH  26  32
ENDBRANCH   1  22
BRANCH  13  45
ATOM     45  C   LIG d   1       7.181   0.051  -7.575  0.00  0.00    -0.038 C 
ATOM     46  H   LIG d   1       6.800  -0.966  -7.485  0.00  0.00     0.028 H 
ATOM     47  H   LIG d   1       6.433   0.679  -8.060  0.00  0.00     0.028 H 
ATOM     48  H   LIG d   1       8.093   0.045  -8.172  0.00  0.00     0.028 H 
ENDBRANCH  13  45
BRANCH  12  49
ATOM     49  C   LIG d   1       6.216  -1.291  -5.207  0.00  0.00     0.005 C 
ATOM     50  H   LIG d   1       6.019  -1.498  -6.259  0.00  0.00     0.036 H 
ATOM     51  H   LIG d   1       6.767  -2.124  -4.771  0.00  0.00     0.036 H 
BRANCH  49  52
ATOM     52  C   LIG d   1       4.909  -1.116  -4.477  0.00  0.00    -0.043 A 
ATOM     53  C   LIG d   1       4.005  -0.160  -4.898  0.00  0.00    -0.058 A 
ATOM     54  C   LIG d   1       2.807   0.002  -4.228  0.00  0.00    -0.061 A 
ATOM     55  H   LIG d   1       4.235   0.463  -5.751  0.00  0.00     0.062 H 
ATOM     56  C   LIG d   1       2.512  -0.794  -3.137  0.00  0.00    -0.062 A 
ATOM     57  H   LIG d   1       2.100   0.749  -4.557  0.00  0.00     0.062 H 
ATOM     58  C   LIG d   1       3.416  -1.751  -2.716  0.00  0.00    -0.061 A 
ATOM     59  H   LIG d   1       1.576  -0.668  -2.614  0.00  0.00     0.062 H 
ATOM     60  C   LIG d   1       4.613  -1.916  -3.389  0.00  0.00    -0.058 A 
ATOM     61  H   LIG d   1       3.187  -2.374  -1.864  0.00  0.00     0.062 H 
ATOM     62  H   LIG d   1       5.317  -2.667  -3.063  0.00  0.00     0.062 H 
ENDBRANCH  49  52
ENDBRANCH  12  49
TORSDOF 9
ENDMDL
MODEL 2
REMARK VINA RESULT:      -7.8      1.170      1.910
REMARK  9 active torsions:
REMARK  status: ('A' for Active; 'I' for Inactive)
REMARK    1  A    between atoms: C_1  and  C_2 
REMARK    2  A    between atoms: C_2  and  C_3 
REMARK    3  A    between atoms: C_3  and  O_4 
REMARK    4  A    between atoms: O_4  and  C_5 
REMARK    5  A    between atoms: C_5  and  C_7 
REMARK    6  A    between atoms: C_10  and  N_13 
REMARK    7  A    between atoms: C_24  and  C_27 
REMARK    8  A    between atoms: C_25  and  C_26 
REMARK    9  A    between atoms: C_27  and  C_28 
ROOT
ATOM      1  N   LIG d   1      10.644   4.923  -3.337  0.00  0.00    -0.293 NA
ATOM      2  C   LIG d   1       9.531   3.964  -3.285  0.00  0.00     0.047 C 
ATOM      3  C   LIG d   1       9.267   3.420  -4.666  0.00  0.00     0.054 A 
ATOM      4  C   LIG d   1       9.754   4.067  -5.788  0.00  0.00     0.131 A 
ATOM      5  C   LIG d   1       9.499   3.557  -7.063  0.00  0.00    -0.019 A 
ATOM      6  C   LIG d   1       8.765   2.418  -7.220  0.00  0.00    -0.047 A 
ATOM      7  C   LIG d   1       8.271   1.749  -6.096  0.00  0.00     0.021 A 
ATOM      8  C   LIG d   1       8.522   2.257  -4.809  0.00  0.00     0.147 A 
ATOM      9  O   LIG d   1       8.039   1.613  -3.725  0.00  0.00    -0.421 OA
ATOM     10  C   LIG d   1       7.319   0.487  -3.843  0.00  0.00     0.341 A 
ATOM     11  O   LIG d   1       6.904  -0.060  -2.838  0.00  0.00    -0.245 OA
ATOM     12  C   LIG d   1       7.029  -0.078  -5.102  0.00  0.00     0.045 A 
ATOM     13  C   LIG d   1       7.484   0.521  -6.233  0.00  0.00    -0.029 A 
ATOM     14  O   LIG d   1      10.487   5.205  -5.671  0.00  0.00    -0.473 OA
ATOM     15  C   LIG d   1      10.426   5.895  -4.421  0.00  0.00     0.157 C 
ATOM     16  H   LIG d   1       8.636   4.466  -2.916  0.00  0.00     0.052 H 
ATOM     17  H   LIG d   1       9.789   3.144  -2.616  0.00  0.00     0.052 H 
ATOM     18  H   LIG d   1       9.883   4.071  -7.931  0.00  0.00     0.065 H 
ATOM     19  H   LIG d   1       8.568   2.033  -8.210  0.00  0.00     0.063 H 
ATOM     20  H   LIG d   1       9.445   6.356  -4.306  0.00  0.00     0.091 H 
ATOM     21  H   LIG d   1      11.200   6.661  -4.386  0.00  0.00     0.091 H 
ENDROOT
BRANCH   1  22
ATOM     22  C   LIG d   1      10.805   5.566  -2.115  0.00  0.00     0.033 A 
ATOM     23  C   LIG d   1       9.926   6.579  -1.742  0.00  0.00    -0.040 A 
ATOM     24  C   LIG d   1      10.082   7.214  -0.538  0.00  0.00    -0.046 A 
ATOM     25  H   LIG d   1       9.121   6.864  -2.402  0.00  0.00     0.064 H 
ATOM     26  C   LIG d   1      11.125   6.844   0.317  0.00  0.00     0.059 A 
ATOM     27  H   LIG d   1       9.400   8.000  -0.248  0.00  0.00     0.063 H 
ATOM     28  C   LIG d   1      12.007   5.826  -0.061  0.00  0.00    -0.046 A 
ATOM     29  C   LIG d   1      11.842   5.191  -1.264  0.00  0.00    -0.040 A 
ATOM     30  H   LIG d   1      12.813   5.537   0.597  0.00  0.00     0.063 H 
ATOM     31  H   LIG d   1      12.519   4.400  -1.554  0.00  0.00     0.064 H 
BRANCH  26  32
ATOM     32  C   LIG d   1      11.296   7.524   1.614  0.00  0.00     0.339 C 
ATOM     33  O   LIG d   1      11.339   6.872   2.639  0.00  0.00    -0.245 OA
BRANCH  32  34
ATOM     34  O   LIG d   1      11.403   8.866   1.663  0.00  0.00    -0.461 OA
BRANCH  34  35
ATOM     35  C   LIG d   1      12.508   9.467   0.940  0.00  0.00     0.092 C 
ATOM     36  H   LIG d   1      13.171   9.972   1.643  0.00  0.00     0.070 H 
ATOM     37  H   LIG d   1      13.062   8.691   0.412  0.00  0.00     0.070 H 
BRANCH  35  38
ATOM     38  C   LIG d   1      11.967  10.482  -0.069  0.00  0.00    -0.021 C 
ATOM     39  H   LIG d   1      12.624  11.350  -0.099  0.00  0.00     0.029 H 
ATOM     40  H   LIG d   1      11.924  10.024  -1.057  0.00  0.00     0.029 H 
BRANCH  38  41
ATOM     41  C   LIG d   1      10.562  10.920   0.351  0.00  0.00    -0.062 C 
ATOM     42  H   LIG d   1      10.340  11.895  -0.084  0.00  0.00     0.023 H 
ATOM     43  H   LIG d   1       9.833  10.190  -0.000  0.00  0.00     0.023 H 
ATOM     44  H   LIG d   1      10.512  10.989   1.438  0.00  0.00     0.023 H 
ENDBRANCH  38  41
ENDBRANCH  35  38
ENDBRANCH  34  35
ENDBRANCH  32  34
ENDBRANCH  26  32
ENDBRANCH   1  22
BRANCH  13  45
ATOM     45  C   LIG d   1       7.190  -0.062  -7.591  0.00  0.00    -0.038 C 
ATOM     46  H   LIG d   1       6.133  -0.320  -7.655  0.00  0.00     0.028 H 
ATOM     47  H   LIG d   1       7.434   0.670  -8.362  0.00  0.00     0.028 H 
ATOM     48  H   LIG d   1       7.792  -0.959  -7.739  0.00  0.00     0.028 H 
ENDBRANCH  13  45
BRANCH  12  49
ATOM     49  C   LIG d   1       6.216  -1.344  -5.193  0.00  0.00     0.005 C 
ATOM     50  H   LIG d   1       6.032  -1.583  -6.241  0.00  0.00     0.036 H 
ATOM     51  H   LIG d   1       6.764  -2.162  -4.725  0.00  0.00     0.036 H 
BRANCH  49  52
ATOM     52  C   LIG d   1       4.901  -1.148  -4.484  0.00  0.00    -0.043 A 
ATOM     53  C   LIG d   1       4.007  -0.197  -4.936  0.00  0.00    -0.058 A 
ATOM     54  C   LIG d   1       2.800  -0.017  -4.285  0.00  0.00    -0.061 A 
ATOM     55  H   LIG d   1       4.250   0.407  -5.798  0.00  0.00     0.062 H 
ATOM     56  C   LIG d   1       2.488  -0.790  -3.182  0.00  0.00    -0.062 A 
ATOM     57  H   LIG d   1       2.101   0.727  -4.638  0.00  0.00     0.062 H 
ATOM     58  C   LIG d   1       3.382  -1.742  -2.730  0.00  0.00    -0.061 A 
ATOM     59  H   LIG d   1       1.546  -0.649  -2.674  0.00  0.00     0.062 H 
ATOM     60  C   LIG d   1       4.587  -1.925  -3.384  0.00  0.00    -0.058 A 
ATOM     61  H   LIG d   1       3.139  -2.346  -1.869  0.00  0.00     0.062 H 
ATOM     62  H   LIG d   1       5.284  -2.672  -3.033  0.00  0.00     0.062 H 
ENDBRANCH  49  52
ENDBRANCH  12  49
TORSDOF 9
ENDMDL
MODEL 3
REMARK VINA RESULT:      -7.8      7.130     12.840
REMARK  9 active torsions:
REMARK  status: ('A' for Active; 'I' for Inactive)
REMARK    1  A    between atoms: C_1  and  C_2 
REMARK    2  A    between atoms: C_2  and  C_3 
REMARK    3  A    between atoms: C_3  and  O_4 
REMARK    4  A    between atoms: O_4  and  C_5 
REMARK    5  A    between atoms: C_5  and  C_7 
REMARK    6  A    between atoms: C_10  and  N_13 
REMARK    7  A    between atoms: C_24  and  C_27 
REMARK    8  A    between atoms: C_25  and  C_26 
REMARK    9  A    between atoms: C_27  and  C_28 
ROOT
ATOM      1  N   LIG d   1       4.651  -8.192  -5.672  0.00  0.00    -0.293 NA
ATOM      2  C   LIG d   1       5.381  -6.930  -5.485  0.00  0.00     0.047 C 
ATOM      3  C   LIG d   1       4.830  -5.883  -6.419  0.00  0.00     0.054 A 
ATOM      4  C   LIG d   1       4.059  -6.241  -7.510  0.00  0.00     0.131 A 
ATOM      5  C   LIG d   1       3.557  -5.264  -8.371  0.00  0.00    -0.019 A 
ATOM      6  C   LIG d   1       3.823  -3.944  -8.152  0.00  0.00    -0.047 A 
ATOM      7  C   LIG d   1       4.596  -3.564  -7.050  0.00  0.00     0.021 A 
ATOM      8  C   LIG d   1       5.105  -4.544  -6.178  0.00  0.00     0.147 A 
ATOM      9  O   LIG d   1       5.856  -4.176  -5.118  0.00  0.00    -0.421 OA
ATOM     10  C   LIG d   1       6.132  -2.886  -4.869  0.00  0.00     0.341 A 
ATOM     11  O   LIG d   1       6.812  -2.601  -3.901  0.00  0.00    -0.245 OA
ATOM     12  C   LIG d   1       5.653  -1.852  -5.701  0.00  0.00     0.045 A 
ATOM     13  C   LIG d   1       4.893  -2.155  -6.785  0.00  0.00    -0.029 A 
ATOM     14  O   LIG d   1       3.775  -7.546  -7.762  0.00  0.00    -0.473 OA
ATOM     15  C   LIG d   1       4.579  -8.528  -7.104  0.00  0.00     0.157 C 
ATOM     16  H   LIG d   1       6.439  -7.087  -5.699  0.00  0.00     0.052 H 
ATOM     17  H   LIG d   1       5.266  -6.594  -4.455  0.00  0.00     0.052 H 
ATOM     18  H   LIG d   1       2.957  -5.555  -9.220  0.00  0.00     0.065 H 
ATOM     19  H   LIG d   1       3.435  -3.194  -8.826  0.00  0.00     0.063 H 
ATOM     20  H   LIG d   1       5.582  -8.525  -7.531  0.00  0.00     0.091 H 
ATOM     21  H   LIG d   1       4.129  -9.512  -7.226  0.00  0.00     0.091 H 
ENDROOT
BRANCH   1  22
ATOM     22  C   LIG d   1       5.241  -9.222  -4.948  0.00  0.00     0.033 A 
ATOM     23  C   LIG d   1       6.616  -9.427  -5.026  0.00  0.00    -0.040 A 
ATOM     24  C   LIG d   1       7.201 -10.440  -4.312  0.00  0.00    -0.046 A 
ATOM     25  H   LIG d   1       7.222  -8.786  -5.649  0.00  0.00     0.064 H 
ATOM     26  C   LIG d   1       6.416 -11.269  -3.505  0.00  0.00     0.059 A 
ATOM     27  H   LIG d   1       8.268 -10.599  -4.373  0.00  0.00     0.063 H 
ATOM     28  C   LIG d   1       5.034 -11.060  -3.429  0.00  0.00    -0.046 A 
ATOM     29  C   LIG d   1       4.457 -10.041  -4.141  0.00  0.00    -0.040 A 
ATOM     30  H   LIG d   1       4.425 -11.698  -2.806  0.00  0.00     0.063 H 
ATOM     31  H   LIG d   1       3.391  -9.876  -4.078  0.00  0.00     0.064 H 
BRANCH  26  32
ATOM     32  C   LIG d   1       7.040 -12.359  -2.735  0.00  0.00     0.339 C 
ATOM     33  O   LIG d   1       7.703 -13.204  -3.306  0.00  0.00    -0.245 OA
BRANCH  32  34
ATOM     34  O   LIG d   1       6.877 -12.421  -1.399  0.00  0.00    -0.461 OA
BRANCH  34  35
ATOM     35  C   LIG d   1       7.269 -11.254  -0.632  0.00  0.00     0.092 C 
ATOM     36  H   LIG d   1       6.800 -10.365  -1.057  0.00  0.00     0.070 H 
ATOM     37  H   LIG d   1       6.947 -11.373   0.403  0.00  0.00     0.070 H 
BRANCH  35  38
ATOM     38  C   LIG d   1       8.790 -11.098  -0.678  0.00  0.00    -0.021 C 
ATOM     39  H   LIG d   1       9.207 -11.301   0.308  0.00  0.00     0.029 H 
ATOM     40  H   LIG d   1       9.205 -11.803  -1.400  0.00  0.00     0.029 H 
BRANCH  38  41
ATOM     41  C   LIG d   1       9.145  -9.670  -1.099  0.00  0.00    -0.062 C 
ATOM     42  H   LIG d   1       9.778  -9.215  -0.337  0.00  0.00     0.023 H 
ATOM     43  H   LIG d   1       9.679  -9.693  -2.049  0.00  0.00     0.023 H 
ATOM     44  H   LIG d   1       8.232  -9.086  -1.209  0.00  0.00     0.023 H 
ENDBRANCH  38  41
ENDBRANCH  35  38
ENDBRANCH  34  35
ENDBRANCH  32  34
ENDBRANCH  26  32
ENDBRANCH   1  22
BRANCH  13  45
ATOM     45  C   LIG d   1       4.368  -1.070  -7.690  0.00  0.00    -0.038 C 
ATOM     46  H   LIG d   1       3.329  -1.278  -7.943  0.00  0.00     0.028 H 
ATOM     47  H   LIG d   1       4.433  -0.108  -7.180  0.00  0.00     0.028 H 
ATOM     48  H   LIG d   1       4.964  -1.038  -8.602  0.00  0.00     0.028 H 
ENDBRANCH  13  45
BRANCH  12  49
ATOM     49  C   LIG d   1       5.985  -0.416  -5.388  0.00  0.00     0.005 C 
ATOM     50  H   LIG d   1       7.043  -0.334  -5.138  0.00  0.00     0.036 H 
ATOM     51  H   LIG d   1       5.767   0.205  -6.257  0.00  0.00     0.036 H 
BRANCH  49  52
ATOM     52  C   LIG d   1       5.155   0.047  -4.218  0.00  0.00    -0.043 A 
ATOM     53  C   LIG d   1       5.763   0.659  -3.139  0.00  0.00    -0.058 A 
ATOM     54  C   LIG d   1       5.002   1.084  -2.066  0.00  0.00    -0.061 A 
ATOM     55  H   LIG d   1       6.834   0.806  -3.133  0.00  0.00     0.062 H 
ATOM     56  C   LIG d   1       3.632   0.897  -2.072  0.00  0.00    -0.062 A 
ATOM     57  H   LIG d   1       5.477   1.563  -1.222  0.00  0.00     0.062 H 
ATOM     58  C   LIG d   1       3.024   0.286  -3.152  0.00  0.00    -0.061 A 
ATOM     59  H   LIG d   1       3.038   1.229  -1.234  0.00  0.00     0.062 H 
ATOM     60  C   LIG d   1       3.785  -0.135  -4.228  0.00  0.00    -0.058 A 
ATOM     61  H   LIG d   1       1.954   0.140  -3.159  0.00  0.00     0.062 H 
ATOM     62  H   LIG d   1       3.308  -0.609  -5.073  0.00  0.00     0.062 H 
ENDBRANCH  49  52
ENDBRANCH  12  49
TORSDOF 9
ENDMDL
MODEL 4
REMARK VINA RESULT:      -7.4      2.950      9.879
REMARK  9 active torsions:
REMARK  status: ('A' for Active; 'I' for Inactive)
REMARK    1  A    between atoms: C_1  and  C_2 
REMARK    2  A    between atoms: C_2  and  C_3 
REMARK    3  A    between atoms: C_3  and  O_4 
REMARK    4  A    between atoms: O_4  and  C_5 
REMARK    5  A    between atoms: C_5  and  C_7 
REMARK    6  A    between atoms: C_10  and  N_13 
REMARK    7  A    between atoms: C_24  and  C_27 
REMARK    8  A    between atoms: C_25  and  C_26 
REMARK    9  A    between atoms: C_27  and  C_28 
ROOT
ATOM      1  N   LIG d   1       9.767   3.389  -5.003  0.00  0.00    -0.293 NA
ATOM      2  C   LIG d   1       9.614   4.253  -3.823  0.00  0.00     0.047 C 
ATOM      3  C   LIG d   1      10.760   5.229  -3.759  0.00  0.00     0.054 A 
ATOM      4  C   LIG d   1      11.919   5.013  -4.484  0.00  0.00     0.131 A 
ATOM      5  C   LIG d   1      12.976   5.922  -4.414  0.00  0.00    -0.019 A 
ATOM      6  C   LIG d   1      12.885   7.032  -3.627  0.00  0.00    -0.047 A 
ATOM      7  C   LIG d   1      11.718   7.270  -2.893  0.00  0.00     0.021 A 
ATOM      8  C   LIG d   1      10.649   6.357  -2.958  0.00  0.00     0.147 A 
ATOM      9  O   LIG d   1       9.527   6.585  -2.243  0.00  0.00    -0.421 OA
ATOM     10  C   LIG d   1       9.400   7.671  -1.464  0.00  0.00     0.341 A 
ATOM     11  O   LIG d   1       8.369   7.835  -0.838  0.00  0.00    -0.245 OA
ATOM     12  C   LIG d   1      10.432   8.626  -1.352  0.00  0.00     0.045 A 
ATOM     13  C   LIG d   1      11.588   8.456  -2.045  0.00  0.00    -0.029 A 
ATOM     14  O   LIG d   1      12.048   3.916  -5.277  0.00  0.00    -0.473 OA
ATOM     15  C   LIG d   1      11.132   2.840  -5.056  0.00  0.00     0.157 C 
ATOM     16  H   LIG d   1       9.610   3.638  -2.922  0.00  0.00     0.052 H 
ATOM     17  H   LIG d   1       8.675   4.800  -3.893  0.00  0.00     0.052 H 
ATOM     18  H   LIG d   1      13.875   5.742  -4.984  0.00  0.00     0.065 H 
ATOM     19  H   LIG d   1      13.710   7.728  -3.575  0.00  0.00     0.063 H 
ATOM     20  H   LIG d   1      11.366   2.350  -4.112  0.00  0.00     0.091 H 
ATOM     21  H   LIG d   1      11.206   2.123  -5.873  0.00  0.00     0.091 H 
ENDROOT
BRANCH   1  22
ATOM     22  C   LIG d   1       8.820   2.371  -5.002  0.00  0.00     0.033 A 
ATOM     23  C   LIG d   1       8.247   1.957  -3.803  0.00  0.00    -0.040 A 
ATOM     24  C   LIG d   1       7.313   0.955  -3.799  0.00  0.00    -0.046 A 
ATOM     25  H   LIG d   1       8.538   2.427  -2.875  0.00  0.00     0.064 H 
ATOM     26  C   LIG d   1       6.935   0.347  -5.000  0.00  0.00     0.059 A 
ATOM     27  H   LIG d   1       6.868   0.634  -2.868  0.00  0.00     0.063 H 
ATOM     28  C   LIG d   1       7.513   0.765  -6.203  0.00  0.00    -0.046 A 
ATOM     29  C   LIG d   1       8.443   1.772  -6.201  0.00  0.00    -0.040 A 
ATOM     30  H   LIG d   1       7.223   0.298  -7.133  0.00  0.00     0.063 H 
ATOM     31  H   LIG d   1       8.886   2.099  -7.131  0.00  0.00     0.064 H 
BRANCH  26  32
ATOM     32  C   LIG d   1       5.930  -0.731  -5.000  0.00  0.00     0.339 C 
ATOM     33  O   LIG d   1       5.352  -1.022  -6.029  0.00  0.00    -0.245 OA
BRANCH  32  34
ATOM     34  O   LIG d   1       5.650  -1.393  -3.861  0.00  0.00    -0.461 OA
BRANCH  34  35
ATOM     35  C   LIG d   1       4.310  -1.246  -3.324  0.00  0.00     0.092 C 
ATOM     36  H   LIG d   1       3.766  -0.500  -3.904  0.00  0.00     0.070 H 
ATOM     37  H   LIG d   1       3.788  -2.201  -3.382  0.00  0.00     0.070 H 
BRANCH  35  38
ATOM     38  C   LIG d   1       4.390  -0.796  -1.864  0.00  0.00    -0.021 C 
ATOM     39  H   LIG d   1       3.544  -1.203  -1.311  0.00  0.00     0.029 H 
ATOM     40  H   LIG d   1       5.320  -1.158  -1.423  0.00  0.00     0.029 H 
BRANCH  38  41
ATOM     41  C   LIG d   1       4.356   0.732  -1.797  0.00  0.00    -0.062 C 
ATOM     42  H   LIG d   1       3.365   1.085  -2.081  0.00  0.00     0.023 H 
ATOM     43  H   LIG d   1       4.581   1.057  -0.782  0.00  0.00     0.023 H 
ATOM     44  H   LIG d   1       5.098   1.142  -2.483  0.00  0.00     0.023 H 
ENDBRANCH  38  41
ENDBRANCH  35  38
ENDBRANCH  34  35
ENDBRANCH  32  34
ENDBRANCH  26  32
ENDBRANCH   1  22
BRANCH  13  45
ATOM     45  C   LIG d   1      12.706   9.462  -1.943  0.00  0.00    -0.038 C 
ATOM     46  H   LIG d   1      12.334  10.373  -1.476  0.00  0.00     0.028 H 
ATOM     47  H   LIG d   1      13.515   9.047  -1.341  0.00  0.00     0.028 H 
ATOM     48  H   LIG d   1      13.078   9.692  -2.942  0.00  0.00     0.028 H 
ENDBRANCH  13  45
BRANCH  12  49
ATOM     49  C   LIG d   1      10.252   9.832  -0.467  0.00  0.00     0.005 C 
ATOM     50  H   LIG d   1       9.447   9.643   0.245  0.00  0.00     0.036 H 
ATOM     51  H   LIG d   1      11.178  10.026   0.075  0.00  0.00     0.036 H 
BRANCH  49  52
ATOM     52  C   LIG d   1       9.903  11.029  -1.313  0.00  0.00    -0.043 A 
ATOM     53  C   LIG d   1      10.447  12.265  -1.019  0.00  0.00    -0.058 A 
ATOM     54  C   LIG d   1      10.127  13.363  -1.795  0.00  0.00    -0.061 A 
ATOM     55  H   LIG d   1      11.121  12.373  -0.182  0.00  0.00     0.062 H 
ATOM     56  C   LIG d   1       9.264  13.225  -2.866  0.00  0.00    -0.062 A 
ATOM     57  H   LIG d   1      10.551  14.330  -1.565  0.00  0.00     0.062 H 
ATOM     58  C   LIG d   1       8.722  11.989  -3.161  0.00  0.00    -0.061 A 
ATOM     59  H   LIG d   1       9.014  14.083  -3.473  0.00  0.00     0.062 H 
ATOM     60  C   LIG d   1       9.045  10.889  -2.387  0.00  0.00    -0.058 A 
ATOM     61  H   LIG d   1       8.047  11.880  -3.998  0.00  0.00     0.062 H 
ATOM     62  H   LIG d   1       8.624   9.922  -2.621  0.00  0.00     0.062 H 
ENDBRANCH  49  52
ENDBRANCH  12  49
TORSDOF 9
ENDMDL
MODEL 5
REMARK VINA RESULT:      -7.3      2.896      3.905
REMARK  9 active torsions:
REMARK  status: ('A' for Active; 'I' for Inactive)
REMARK    1  A    between atoms: C_1  and  C_2 
REMARK    2  A    between atoms: C_2  and  C_3 
REMARK    3  A    between atoms: C_3  and  O_4 
REMARK    4  A    between atoms: O_4  and  C_5 
REMARK    5  A    between atoms: C_5  and  C_7 
REMARK    6  A    between atoms: C_10  and  N_13 
REMARK    7  A    between atoms: C_24  and  C_27 
REMARK    8  A    between atoms: C_25  and  C_26 
REMARK    9  A    between atoms: C_27  and  C_28 
ROOT
ATOM      1  N   LIG d   1      11.004   4.845  -3.305  0.00  0.00    -0.293 NA
ATOM      2  C   LIG d   1       9.702   4.178  -3.453  0.00  0.00     0.047 C 
ATOM      3  C   LIG d   1       9.882   2.871  -4.181  0.00  0.00     0.054 A 
ATOM      4  C   LIG d   1      11.032   2.616  -4.908  0.00  0.00     0.131 A 
ATOM      5  C   LIG d   1      11.187   1.404  -5.583  0.00  0.00    -0.019 A 
ATOM      6  C   LIG d   1      10.207   0.456  -5.539  0.00  0.00    -0.047 A 
ATOM      7  C   LIG d   1       9.041   0.695  -4.804  0.00  0.00     0.021 A 
ATOM      8  C   LIG d   1       8.878   1.915  -4.122  0.00  0.00     0.147 A 
ATOM      9  O   LIG d   1       7.750   2.146  -3.418  0.00  0.00    -0.421 OA
ATOM     10  C   LIG d   1       6.768   1.233  -3.348  0.00  0.00     0.341 A 
ATOM     11  O   LIG d   1       5.768   1.485  -2.701  0.00  0.00    -0.245 OA
ATOM     12  C   LIG d   1       6.865  -0.011  -4.006  0.00  0.00     0.045 A 
ATOM     13  C   LIG d   1       7.974  -0.306  -4.733  0.00  0.00    -0.029 A 
ATOM     14  O   LIG d   1      12.029   3.537  -4.977  0.00  0.00    -0.473 OA
ATOM     15  C   LIG d   1      11.706   4.878  -4.599  0.00  0.00     0.157 C 
ATOM     16  H   LIG d   1       9.028   4.820  -4.021  0.00  0.00     0.052 H 
ATOM     17  H   LIG d   1       9.278   3.989  -2.468  0.00  0.00     0.052 H 
ATOM     18  H   LIG d   1      12.088   1.217  -6.147  0.00  0.00     0.065 H 
ATOM     19  H   LIG d   1      10.332  -0.478  -6.068  0.00  0.00     0.063 H 
ATOM     20  H   LIG d   1      11.060   5.325  -5.354  0.00  0.00     0.091 H 
ATOM     21  H   LIG d   1      12.621   5.462  -4.504  0.00  0.00     0.091 H 
ENDROOT
BRANCH   1  22
ATOM     22  C   LIG d   1      10.853   6.126  -2.787  0.00  0.00     0.033 A 
ATOM     23  C   LIG d   1       9.709   6.451  -2.062  0.00  0.00    -0.040 A 
ATOM     24  C   LIG d   1       9.558   7.713  -1.549  0.00  0.00    -0.046 A 
ATOM     25  H   LIG d   1       8.942   5.708  -1.903  0.00  0.00     0.064 H 
ATOM     26  C   LIG d   1      10.551   8.674  -1.755  0.00  0.00     0.059 A 
ATOM     27  H   LIG d   1       8.670   7.965  -0.986  0.00  0.00     0.063 H 
ATOM     28  C   LIG d   1      11.699   8.344  -2.485  0.00  0.00    -0.046 A 
ATOM     29  C   LIG d   1      11.848   7.079  -2.989  0.00  0.00    -0.040 A 
ATOM     30  H   LIG d   1      12.469   9.085  -2.644  0.00  0.00     0.063 H 
ATOM     31  H   LIG d   1      12.736   6.822  -3.548  0.00  0.00     0.064 H 
BRANCH  26  32
ATOM     32  C   LIG d   1      10.393  10.032  -1.204  0.00  0.00     0.339 C 
ATOM     33  O   LIG d   1      11.146  10.427  -0.335  0.00  0.00    -0.245 OA
BRANCH  32  34
ATOM     34  O   LIG d   1       9.414  10.836  -1.663  0.00  0.00    -0.461 OA
BRANCH  34  35
ATOM     35  C   LIG d   1       9.734  11.686  -2.794  0.00  0.00     0.092 C 
ATOM     36  H   LIG d   1       9.613  12.732  -2.509  0.00  0.00     0.070 H 
ATOM     37  H   LIG d   1      10.765  11.511  -3.101  0.00  0.00     0.070 H 
BRANCH  35  38
ATOM     38  C   LIG d   1       8.794  11.363  -3.958  0.00  0.00    -0.021 C 
ATOM     39  H   LIG d   1       7.871  10.932  -3.571  0.00  0.00     0.029 H 
ATOM     40  H   LIG d   1       8.566  12.279  -4.505  0.00  0.00     0.029 H 
BRANCH  38  41
ATOM     41  C   LIG d   1       9.470  10.363  -4.898  0.00  0.00    -0.062 C 
ATOM     42  H   LIG d   1       8.965   9.400  -4.826  0.00  0.00     0.023 H 
ATOM     43  H   LIG d   1       9.411  10.730  -5.923  0.00  0.00     0.023 H 
ATOM     44  H   LIG d   1      10.516  10.246  -4.613  0.00  0.00     0.023 H 
ENDBRANCH  38  41
ENDBRANCH  35  38
ENDBRANCH  34  35
ENDBRANCH  32  34
ENDBRANCH  26  32
ENDBRANCH   1  22
BRANCH  13  45
ATOM     45  C   LIG d   1       8.104  -1.628  -5.445  0.00  0.00    -0.038 C 
ATOM     46  H   LIG d   1       7.124  -1.950  -5.796  0.00  0.00     0.028 H 
ATOM     47  H   LIG d   1       8.777  -1.518  -6.296  0.00  0.00     0.028 H 
ATOM     48  H   LIG d   1       8.506  -2.372  -4.758  0.00  0.00     0.028 H 
ENDBRANCH  13  45
BRANCH  12  49
ATOM     49  C   LIG d   1       5.741  -1.009  -3.904  0.00  0.00     0.005 C 
ATOM     50  H   LIG d   1       6.087  -1.983  -4.252  0.00  0.00     0.036 H 
ATOM     51  H   LIG d   1       5.419  -1.089  -2.866  0.00  0.00     0.036 H 
BRANCH  49  52
ATOM     52  C   LIG d   1       4.585  -0.553  -4.757  0.00  0.00    -0.043 A 
ATOM     53  C   LIG d   1       3.419  -0.114  -4.161  0.00  0.00    -0.058 A 
ATOM     54  C   LIG d   1       2.358   0.304  -4.943  0.00  0.00    -0.061 A 
ATOM     55  H   LIG d   1       3.335  -0.096  -3.084  0.00  0.00     0.062 H 
ATOM     56  C   LIG d   1       2.464   0.282  -6.321  0.00  0.00    -0.062 A 
ATOM     57  H   LIG d   1       1.446   0.648  -4.478  0.00  0.00     0.062 H 
ATOM     58  C   LIG d   1       3.632  -0.156  -6.917  0.00  0.00    -0.061 A 
ATOM     59  H   LIG d   1       1.636   0.609  -6.932  0.00  0.00     0.062 H 
ATOM     60  C   LIG d   1       4.694  -0.570  -6.134  0.00  0.00    -0.058 A 
ATOM     61  H   LIG d   1       3.716  -0.174  -7.993  0.00  0.00     0.062 H 
ATOM     62  H   LIG d   1       5.608  -0.909  -6.600  0.00  0.00     0.062 H 
ENDBRANCH  49  52
ENDBRANCH  12  49
TORSDOF 9
ENDMDL
MODEL 6
REMARK VINA RESULT:      -7.3      2.292      9.856
REMARK  9 active torsions:
REMARK  status: ('A' for Active; 'I' for Inactive)
REMARK    1  A    between atoms: C_1  and  C_2 
REMARK    2  A    between atoms: C_2  and  C_3 
REMARK    3  A    between atoms: C_3  and  O_4 
REMARK    4  A    between atoms: O_4  and  C_5 
REMARK    5  A    between atoms: C_5  and  C_7 
REMARK    6  A    between atoms: C_10  and  N_13 
REMARK    7  A    between atoms: C_24  and  C_27 
REMARK    8  A    between atoms: C_25  and  C_26 
REMARK    9  A    between atoms: C_27  and  C_28 
ROOT
ATOM      1  N   LIG d   1       9.519   3.360  -5.098  0.00  0.00    -0.293 NA
ATOM      2  C   LIG d   1       9.415   4.256  -3.938  0.00  0.00     0.047 C 
ATOM      3  C   LIG d   1      10.509   5.292  -3.999  0.00  0.00     0.054 A 
ATOM      4  C   LIG d   1      11.615   5.109  -4.810  0.00  0.00     0.131 A 
ATOM      5  C   LIG d   1      12.624   6.073  -4.856  0.00  0.00    -0.019 A 
ATOM      6  C   LIG d   1      12.537   7.205  -4.100  0.00  0.00    -0.047 A 
ATOM      7  C   LIG d   1      11.422   7.408  -3.279  0.00  0.00     0.021 A 
ATOM      8  C   LIG d   1      10.402   6.441  -3.228  0.00  0.00     0.147 A 
ATOM      9  O   LIG d   1       9.330   6.636  -2.430  0.00  0.00    -0.421 OA
ATOM     10  C   LIG d   1       9.209   7.741  -1.678  0.00  0.00     0.341 A 
ATOM     11  O   LIG d   1       8.225   7.875  -0.974  0.00  0.00    -0.245 OA
ATOM     12  C   LIG d   1      10.193   8.752  -1.682  0.00  0.00     0.045 A 
ATOM     13  C   LIG d   1      11.298   8.616  -2.461  0.00  0.00    -0.029 A 
ATOM     14  O   LIG d   1      11.738   3.993  -5.576  0.00  0.00    -0.473 OA
ATOM     15  C   LIG d   1      10.903   2.880  -5.247  0.00  0.00     0.157 C 
ATOM     16  H   LIG d   1       9.517   3.675  -3.020  0.00  0.00     0.052 H 
ATOM     17  H   LIG d   1       8.445   4.752  -3.947  0.00  0.00     0.052 H 
ATOM     18  H   LIG d   1      13.482   5.918  -5.492  0.00  0.00     0.065 H 
ATOM     19  H   LIG d   1      13.324   7.943  -4.137  0.00  0.00     0.063 H 
ATOM     20  H   LIG d   1      11.238   2.436  -4.310  0.00  0.00     0.091 H 
ATOM     21  H   LIG d   1      10.949   2.139  -6.044  0.00  0.00     0.091 H 
ENDROOT
BRANCH   1  22
ATOM     22  C   LIG d   1       8.631   2.296  -4.987  0.00  0.00     0.033 A 
ATOM     23  C   LIG d   1       8.140   1.929  -3.737  0.00  0.00    -0.040 A 
ATOM     24  C   LIG d   1       7.264   0.881  -3.624  0.00  0.00    -0.046 A 
ATOM     25  H   LIG d   1       8.448   2.472  -2.856  0.00  0.00     0.064 H 
ATOM     26  C   LIG d   1       6.864   0.180  -4.765  0.00  0.00     0.059 A 
ATOM     27  H   LIG d   1       6.882   0.597  -2.654  0.00  0.00     0.063 H 
ATOM     28  C   LIG d   1       7.360   0.550  -6.020  0.00  0.00    -0.046 A 
ATOM     29  C   LIG d   1       8.231   1.603  -6.127  0.00  0.00    -0.040 A 
ATOM     30  H   LIG d   1       7.052   0.011  -6.904  0.00  0.00     0.063 H 
ATOM     31  H   LIG d   1       8.610   1.893  -7.096  0.00  0.00     0.064 H 
BRANCH  26  32
ATOM     32  C   LIG d   1       5.921  -0.948  -4.649  0.00  0.00     0.339 C 
ATOM     33  O   LIG d   1       6.342  -2.088  -4.597  0.00  0.00    -0.245 OA
BRANCH  32  34
ATOM     34  O   LIG d   1       4.595  -0.716  -4.601  0.00  0.00    -0.461 OA
BRANCH  34  35
ATOM     35  C   LIG d   1       3.864  -1.299  -3.491  0.00  0.00     0.092 C 
ATOM     36  H   LIG d   1       2.799  -1.096  -3.610  0.00  0.00     0.070 H 
ATOM     37  H   LIG d   1       4.028  -2.376  -3.472  0.00  0.00     0.070 H 
BRANCH  35  38
ATOM     38  C   LIG d   1       4.355  -0.685  -2.178  0.00  0.00    -0.021 C 
ATOM     39  H   LIG d   1       3.960  -1.258  -1.339  0.00  0.00     0.029 H 
ATOM     40  H   LIG d   1       5.445  -0.707  -2.152  0.00  0.00     0.029 H 
BRANCH  38  41
ATOM     41  C   LIG d   1       3.871   0.764  -2.079  0.00  0.00    -0.062 C 
ATOM     42  H   LIG d   1       4.707   1.407  -1.805  0.00  0.00     0.023 H 
ATOM     43  H   LIG d   1       3.470   1.079  -3.042  0.00  0.00     0.023 H 
ATOM     44  H   LIG d   1       3.093   0.836  -1.319  0.00  0.00     0.023 H 
ENDBRANCH  38  41
ENDBRANCH  35  38
ENDBRANCH  34  35
ENDBRANCH  32  34
ENDBRANCH  26  32
ENDBRANCH   1  22
BRANCH  13  45
ATOM     45  C   LIG d   1      12.364   9.681  -2.484  0.00  0.00    -0.038 C 
ATOM     46  H   LIG d   1      12.475  10.062  -3.499  0.00  0.00     0.028 H 
ATOM     47  H   LIG d   1      12.079  10.495  -1.818  0.00  0.00     0.028 H 
ATOM     48  H   LIG d   1      13.310   9.253  -2.151  0.00  0.00     0.028 H 
ENDBRANCH  13  45
BRANCH  12  49
ATOM     49  C   LIG d   1      10.021   9.977  -0.823  0.00  0.00     0.005 C 
ATOM     50  H   LIG d   1      10.362  10.856  -1.371  0.00  0.00     0.036 H 
ATOM     51  H   LIG d   1       8.968  10.096  -0.566  0.00  0.00     0.036 H 
BRANCH  49  52
ATOM     52  C   LIG d   1      10.832   9.826   0.439  0.00  0.00    -0.043 A 
ATOM     53  C   LIG d   1      10.987   8.579   1.014  0.00  0.00    -0.058 A 
ATOM     54  C   LIG d   1      11.731   8.440   2.171  0.00  0.00    -0.061 A 
ATOM     55  H   LIG d   1      10.527   7.713   0.561  0.00  0.00     0.062 H 
ATOM     56  C   LIG d   1      12.321   9.548   2.752  0.00  0.00    -0.062 A 
ATOM     57  H   LIG d   1      11.853   7.466   2.622  0.00  0.00     0.062 H 
ATOM     58  C   LIG d   1      12.166  10.794   2.175  0.00  0.00    -0.061 A 
ATOM     59  H   LIG d   1      12.902   9.439   3.655  0.00  0.00     0.062 H 
ATOM     60  C   LIG d   1      11.426  10.933   1.015  0.00  0.00    -0.058 A 
ATOM     61  H   LIG d   1      12.626  11.660   2.627  0.00  0.00     0.062 H 
ATOM     62  H   LIG d   1      11.309  11.907   0.562  0.00  0.00     0.062 H 
ENDBRANCH  49  52
ENDBRANCH  12  49
TORSDOF 9
ENDMDL
MODEL 7
REMARK VINA RESULT:      -7.3      7.307     13.823
REMARK  9 active torsions:
REMARK  status: ('A' for Active; 'I' for Inactive)
REMARK    1  A    between atoms: C_1  and  C_2 
REMARK    2  A    between atoms: C_2  and  C_3 
REMARK    3  A    between atoms: C_3  and  O_4 
REMARK    4  A    between atoms: O_4  and  C_5 
REMARK    5  A    between atoms: C_5  and  C_7 
REMARK    6  A    between atoms: C_10  and  N_13 
REMARK    7  A    between atoms: C_24  and  C_27 
REMARK    8  A    between atoms: C_25  and  C_26 
REMARK    9  A    between atoms: C_27  and  C_28 
ROOT
ATOM      1  N   LIG d   1       1.797  -1.636 -10.987  0.00  0.00    -0.293 NA
ATOM      2  C   LIG d   1       2.683  -2.131  -9.924  0.00  0.00     0.047 C 
ATOM      3  C   LIG d   1       3.748  -1.104  -9.633  0.00  0.00     0.054 A 
ATOM      4  C   LIG d   1       4.019  -0.089 -10.534  0.00  0.00     0.131 A 
ATOM      5  C   LIG d   1       5.011   0.854 -10.257  0.00  0.00    -0.019 A 
ATOM      6  C   LIG d   1       5.728   0.786  -9.099  0.00  0.00    -0.047 A 
ATOM      7  C   LIG d   1       5.463  -0.230  -8.175  0.00  0.00     0.021 A 
ATOM      8  C   LIG d   1       4.466  -1.184  -8.448  0.00  0.00     0.147 A 
ATOM      9  O   LIG d   1       4.215  -2.167  -7.558  0.00  0.00    -0.421 OA
ATOM     10  C   LIG d   1       4.897  -2.260  -6.406  0.00  0.00     0.341 A 
ATOM     11  O   LIG d   1       4.637  -3.163  -5.632  0.00  0.00    -0.245 OA
ATOM     12  C   LIG d   1       5.910  -1.337  -6.068  0.00  0.00     0.045 A 
ATOM     13  C   LIG d   1       6.212  -0.324  -6.921  0.00  0.00    -0.029 A 
ATOM     14  O   LIG d   1       3.326   0.009 -11.699  0.00  0.00    -0.473 OA
ATOM     15  C   LIG d   1       2.595  -1.143 -12.122  0.00  0.00     0.157 C 
ATOM     16  H   LIG d   1       3.154  -3.060 -10.246  0.00  0.00     0.052 H 
ATOM     17  H   LIG d   1       2.100  -2.314  -9.022  0.00  0.00     0.052 H 
ATOM     18  H   LIG d   1       5.214   1.641 -10.968  0.00  0.00     0.065 H 
ATOM     19  H   LIG d   1       6.497   1.517  -8.895  0.00  0.00     0.063 H 
ATOM     20  H   LIG d   1       3.289  -1.919 -12.445  0.00  0.00     0.091 H 
ATOM     21  H   LIG d   1       1.933  -0.875 -12.945  0.00  0.00     0.091 H 
ENDROOT
BRANCH   1  22
ATOM     22  C   LIG d   1       0.907  -2.624 -11.394  0.00  0.00     0.033 A 
ATOM     23  C   LIG d   1       0.244  -2.502 -12.612  0.00  0.00    -0.040 A 
ATOM     24  C   LIG d   1      -0.633  -3.474 -13.016  0.00  0.00    -0.046 A 
ATOM     25  H   LIG d   1       0.422  -1.641 -13.239  0.00  0.00     0.064 H 
ATOM     26  C   LIG d   1      -0.862  -4.589 -12.204  0.00  0.00     0.059 A 
ATOM     27  H   LIG d   1      -1.147  -3.380 -13.962  0.00  0.00     0.063 H 
ATOM     28  C   LIG d   1      -0.195  -4.708 -10.980  0.00  0.00    -0.046 A 
ATOM     29  C   LIG d   1       0.686  -3.735 -10.585  0.00  0.00    -0.040 A 
ATOM     30  H   LIG d   1      -0.369  -5.568 -10.351  0.00  0.00     0.063 H 
ATOM     31  H   LIG d   1       1.206  -3.829  -9.642  0.00  0.00     0.064 H 
BRANCH  26  32
ATOM     32  C   LIG d   1      -1.804  -5.638 -12.635  0.00  0.00     0.339 C 
ATOM     33  O   LIG d   1      -1.648  -6.191 -13.706  0.00  0.00    -0.245 OA
BRANCH  32  34
ATOM     34  O   LIG d   1      -2.839  -5.982 -11.844  0.00  0.00    -0.461 OA
BRANCH  34  35
ATOM     35  C   LIG d   1      -4.077  -5.244 -12.018  0.00  0.00     0.092 C 
ATOM     36  H   LIG d   1      -4.032  -4.672 -12.946  0.00  0.00     0.070 H 
ATOM     37  H   LIG d   1      -4.913  -5.942 -12.062  0.00  0.00     0.070 H 
BRANCH  35  38
ATOM     38  C   LIG d   1      -4.271  -4.288 -10.839  0.00  0.00    -0.021 C 
ATOM     39  H   LIG d   1      -3.674  -3.391 -10.997  0.00  0.00     0.029 H 
ATOM     40  H   LIG d   1      -5.324  -4.015 -10.764  0.00  0.00     0.029 H 
BRANCH  38  41
ATOM     41  C   LIG d   1      -3.828  -4.975  -9.546  0.00  0.00    -0.062 C 
ATOM     42  H   LIG d   1      -2.826  -4.639  -9.281  0.00  0.00     0.023 H 
ATOM     43  H   LIG d   1      -4.521  -4.721  -8.743  0.00  0.00     0.023 H 
ATOM     44  H   LIG d   1      -3.822  -6.056  -9.692  0.00  0.00     0.023 H 
ENDBRANCH  38  41
ENDBRANCH  35  38
ENDBRANCH  34  35
ENDBRANCH  32  34
ENDBRANCH  26  32
ENDBRANCH   1  22
BRANCH  13  45
ATOM     45  C   LIG d   1       7.288   0.675  -6.584  0.00  0.00    -0.038 C 
ATOM     46  H   LIG d   1       7.569   0.569  -5.537  0.00  0.00     0.028 H 
ATOM     47  H   LIG d   1       8.160   0.497  -7.215  0.00  0.00     0.028 H 
ATOM     48  H   LIG d   1       6.914   1.684  -6.759  0.00  0.00     0.028 H 
ENDBRANCH  13  45
BRANCH  12  49
ATOM     49  C   LIG d   1       6.653  -1.476  -4.765  0.00  0.00     0.005 C 
ATOM     50  H   LIG d   1       6.788  -2.533  -4.533  0.00  0.00     0.036 H 
ATOM     51  H   LIG d   1       7.629  -0.996  -4.850  0.00  0.00     0.036 H 
BRANCH  49  52
ATOM     52  C   LIG d   1       5.864  -0.817  -3.663  0.00  0.00    -0.043 A 
ATOM     53  C   LIG d   1       5.921   0.553  -3.496  0.00  0.00    -0.058 A 
ATOM     54  C   LIG d   1       5.197   1.158  -2.486  0.00  0.00    -0.061 A 
ATOM     55  H   LIG d   1       6.532   1.153  -4.156  0.00  0.00     0.062 H 
ATOM     56  C   LIG d   1       4.415   0.391  -1.642  0.00  0.00    -0.062 A 
ATOM     57  H   LIG d   1       5.241   2.229  -2.355  0.00  0.00     0.062 H 
ATOM     58  C   LIG d   1       4.357  -0.980  -1.810  0.00  0.00    -0.061 A 
ATOM     59  H   LIG d   1       3.849   0.863  -0.853  0.00  0.00     0.062 H 
ATOM     60  C   LIG d   1       5.078  -1.584  -2.823  0.00  0.00    -0.058 A 
ATOM     61  H   LIG d   1       3.746  -1.580  -1.151  0.00  0.00     0.062 H 
ATOM     62  H   LIG d   1       5.029  -2.654  -2.957  0.00  0.00     0.062 H 
ENDBRANCH  49  52
ENDBRANCH  12  49
TORSDOF 9
ENDMDL
MODEL 8
REMARK VINA RESULT:      -7.2      3.302      3.941
REMARK  9 active torsions:
REMARK  status: ('A' for Active; 'I' for Inactive)
REMARK    1  A    between atoms: C_1  and  C_2 
REMARK    2  A    between atoms: C_2  and  C_3 
REMARK    3  A    between atoms: C_3  and  O_4 
REMARK    4  A    between atoms: O_4  and  C_5 
REMARK    5  A    between atoms: C_5  and  C_7 
REMARK    6  A    between atoms: C_10  and  N_13 
REMARK    7  A    between atoms: C_24  and  C_27 
REMARK    8  A    between atoms: C_25  and  C_26 
REMARK    9  A    between atoms: C_27  and  C_28 
ROOT
ATOM      1  N   LIG d   1      10.455   5.069  -5.463  0.00  0.00    -0.293 NA
ATOM      2  C   LIG d   1       9.277   4.276  -5.080  0.00  0.00     0.047 C 
ATOM      3  C   LIG d   1       9.426   2.867  -5.594  0.00  0.00     0.054 A 
ATOM      4  C   LIG d   1      10.339   2.568  -6.589  0.00  0.00     0.131 A 
ATOM      5  C   LIG d   1      10.466   1.260  -7.061  0.00  0.00    -0.019 A 
ATOM      6  C   LIG d   1       9.689   0.261  -6.552  0.00  0.00    -0.047 A 
ATOM      7  C   LIG d   1       8.765   0.545  -5.541  0.00  0.00     0.021 A 
ATOM      8  C   LIG d   1       8.632   1.861  -5.061  0.00  0.00     0.147 A 
ATOM      9  O   LIG d   1       7.735   2.135  -4.090  0.00  0.00    -0.421 OA
ATOM     10  C   LIG d   1       6.959   1.175  -3.562  0.00  0.00     0.341 A 
ATOM     11  O   LIG d   1       6.165   1.468  -2.687  0.00  0.00    -0.245 OA
ATOM     12  C   LIG d   1       7.041  -0.165  -3.995  0.00  0.00     0.045 A 
ATOM     13  C   LIG d   1       7.922  -0.507  -4.970  0.00  0.00    -0.029 A 
ATOM     14  O   LIG d   1      11.129   3.537  -7.123  0.00  0.00    -0.473 OA
ATOM     15  C   LIG d   1      10.738   4.894  -6.897  0.00  0.00     0.157 C 
ATOM     16  H   LIG d   1       8.381   4.727  -5.510  0.00  0.00     0.052 H 
ATOM     17  H   LIG d   1       9.189   4.259  -3.994  0.00  0.00     0.052 H 
ATOM     18  H   LIG d   1      11.181   1.038  -7.838  0.00  0.00     0.065 H 
ATOM     19  H   LIG d   1       9.790  -0.748  -6.926  0.00  0.00     0.063 H 
ATOM     20  H   LIG d   1       9.843   5.117  -7.477  0.00  0.00     0.091 H 
ATOM     21  H   LIG d   1      11.546   5.562  -7.194  0.00  0.00     0.091 H 
ENDROOT
BRANCH   1  22
ATOM     22  C   LIG d   1      10.276   6.411  -5.150  0.00  0.00     0.033 A 
ATOM     23  C   LIG d   1       9.543   7.232  -6.004  0.00  0.00    -0.040 A 
ATOM     24  C   LIG d   1       9.365   8.556  -5.697  0.00  0.00    -0.046 A 
ATOM     25  H   LIG d   1       9.116   6.825  -6.908  0.00  0.00     0.064 H 
ATOM     26  C   LIG d   1       9.918   9.082  -4.527  0.00  0.00     0.059 A 
ATOM     27  H   LIG d   1       8.796   9.192  -6.360  0.00  0.00     0.063 H 
ATOM     28  C   LIG d   1      10.654   8.255  -3.671  0.00  0.00    -0.046 A 
ATOM     29  C   LIG d   1      10.823   6.931  -3.980  0.00  0.00    -0.040 A 
ATOM     30  H   LIG d   1      11.082   8.659  -2.765  0.00  0.00     0.063 H 
ATOM     31  H   LIG d   1      11.387   6.290  -3.317  0.00  0.00     0.064 H 
BRANCH  26  32
ATOM     32  C   LIG d   1       9.727  10.505  -4.193  0.00  0.00     0.339 C 
ATOM     33  O   LIG d   1      10.089  11.365  -4.972  0.00  0.00    -0.245 OA
BRANCH  32  34
ATOM     34  O   LIG d   1       9.154  10.853  -3.024  0.00  0.00    -0.461 OA
BRANCH  34  35
ATOM     35  C   LIG d   1      10.008  11.477  -2.031  0.00  0.00     0.092 C 
ATOM     36  H   LIG d   1      11.039  11.478  -2.386  0.00  0.00     0.070 H 
ATOM     37  H   LIG d   1       9.681  12.504  -1.863  0.00  0.00     0.070 H 
BRANCH  35  38
ATOM     38  C   LIG d   1       9.921  10.694  -0.719  0.00  0.00    -0.021 C 
ATOM     39  H   LIG d   1      10.866  10.183  -0.538  0.00  0.00     0.029 H 
ATOM     40  H   LIG d   1       9.718  11.383   0.102  0.00  0.00     0.029 H 
BRANCH  38  41
ATOM     41  C   LIG d   1       8.793   9.665  -0.812  0.00  0.00    -0.062 C 
ATOM     42  H   LIG d   1       9.146   8.705  -0.434  0.00  0.00     0.023 H 
ATOM     43  H   LIG d   1       7.944  10.001  -0.216  0.00  0.00     0.023 H 
ATOM     44  H   LIG d   1       8.486   9.555  -1.852  0.00  0.00     0.023 H 
ENDBRANCH  38  41
ENDBRANCH  35  38
ENDBRANCH  34  35
ENDBRANCH  32  34
ENDBRANCH  26  32
ENDBRANCH   1  22
BRANCH  13  45
ATOM     45  C   LIG d   1       8.030  -1.931  -5.451  0.00  0.00    -0.038 C 
ATOM     46  H   LIG d   1       8.365  -1.941  -6.487  0.00  0.00     0.028 H 
ATOM     47  H   LIG d   1       8.747  -2.471  -4.831  0.00  0.00     0.028 H 
ATOM     48  H   LIG d   1       7.054  -2.413  -5.380  0.00  0.00     0.028 H 
ENDBRANCH  13  45
BRANCH  12  49
ATOM     49  C   LIG d   1       6.153  -1.214  -3.377  0.00  0.00     0.005 C 
ATOM     50  H   LIG d   1       6.410  -2.193  -3.782  0.00  0.00     0.036 H 
ATOM     51  H   LIG d   1       6.294  -1.219  -2.296  0.00  0.00     0.036 H 
BRANCH  49  52
ATOM     52  C   LIG d   1       4.712  -0.902  -3.694  0.00  0.00    -0.043 A 
ATOM     53  C   LIG d   1       4.365  -0.445  -4.951  0.00  0.00    -0.058 A 
ATOM     54  C   LIG d   1       3.044  -0.160  -5.242  0.00  0.00    -0.061 A 
ATOM     55  H   LIG d   1       5.125  -0.311  -5.707  0.00  0.00     0.062 H 
ATOM     56  C   LIG d   1       2.070  -0.331  -4.275  0.00  0.00    -0.062 A 
ATOM     57  H   LIG d   1       2.772   0.198  -6.224  0.00  0.00     0.062 H 
ATOM     58  C   LIG d   1       2.418  -0.790  -3.019  0.00  0.00    -0.061 A 
ATOM     59  H   LIG d   1       1.038  -0.109  -4.502  0.00  0.00     0.062 H 
ATOM     60  C   LIG d   1       3.739  -1.080  -2.729  0.00  0.00    -0.058 A 
ATOM     61  H   LIG d   1       1.658  -0.925  -2.263  0.00  0.00     0.062 H 
ATOM     62  H   LIG d   1       4.010  -1.442  -1.748  0.00  0.00     0.062 H 
ENDBRANCH  49  52
ENDBRANCH  12  49
TORSDOF 9
ENDMDL
MODEL 9
REMARK VINA RESULT:      -7.1      4.338      5.687
REMARK  9 active torsions:
REMARK  status: ('A' for Active; 'I' for Inactive)
REMARK    1  A    between atoms: C_1  and  C_2 
REMARK    2  A    between atoms: C_2  and  C_3 
REMARK    3  A    between atoms: C_3  and  O_4 
REMARK    4  A    between atoms: O_4  and  C_5 
REMARK    5  A    between atoms: C_5  and  C_7 
REMARK    6  A    between atoms: C_10  and  N_13 
REMARK    7  A    between atoms: C_24  and  C_27 
REMARK    8  A    between atoms: C_25  and  C_26 
REMARK    9  A    between atoms: C_27  and  C_28 
ROOT
ATOM      1  N   LIG d   1      10.269   5.287  -6.340  0.00  0.00    -0.293 NA
ATOM      2  C   LIG d   1       9.191   4.472  -5.763  0.00  0.00     0.047 C 
ATOM      3  C   LIG d   1       9.339   3.042  -6.216  0.00  0.00     0.054 A 
ATOM      4  C   LIG d   1      10.129   2.721  -7.305  0.00  0.00     0.131 A 
ATOM      5  C   LIG d   1      10.255   1.394  -7.719  0.00  0.00    -0.019 A 
ATOM      6  C   LIG d   1       9.600   0.396  -7.059  0.00  0.00    -0.047 A 
ATOM      7  C   LIG d   1       8.803   0.702  -5.951  0.00  0.00     0.021 A 
ATOM      8  C   LIG d   1       8.670   2.038  -5.530  0.00  0.00     0.147 A 
ATOM      9  O   LIG d   1       7.895   2.333  -4.464  0.00  0.00    -0.421 OA
ATOM     10  C   LIG d   1       7.241   1.375  -3.787  0.00  0.00     0.341 A 
ATOM     11  O   LIG d   1       6.554   1.687  -2.832  0.00  0.00    -0.245 OA
ATOM     12  C   LIG d   1       7.330   0.016  -4.155  0.00  0.00     0.045 A 
ATOM     13  C   LIG d   1       8.092  -0.348  -5.219  0.00  0.00    -0.029 A 
ATOM     14  O   LIG d   1      10.795   3.688  -7.990  0.00  0.00    -0.473 OA
ATOM     15  C   LIG d   1      10.372   5.039  -7.788  0.00  0.00     0.157 C 
ATOM     16  H   LIG d   1       8.226   4.860  -6.094  0.00  0.00     0.052 H 
ATOM     17  H   LIG d   1       9.245   4.516  -4.676  0.00  0.00     0.052 H 
ATOM     18  H   LIG d   1      10.874   1.156  -8.572  0.00  0.00     0.065 H 
ATOM     19  H   LIG d   1       9.699  -0.628  -7.389  0.00  0.00     0.063 H 
ATOM     20  H   LIG d   1       9.400   5.192  -8.255  0.00  0.00     0.091 H 
ATOM     21  H   LIG d   1      11.102   5.720  -8.224  0.00  0.00     0.091 H 
ENDROOT
BRANCH   1  22
ATOM     22  C   LIG d   1      10.068   6.637  -6.079  0.00  0.00     0.033 A 
ATOM     23  C   LIG d   1      10.214   7.123  -4.782  0.00  0.00    -0.040 A 
ATOM     24  C   LIG d   1      10.017   8.454  -4.521  0.00  0.00    -0.046 A 
ATOM     25  H   LIG d   1      10.483   6.450  -3.981  0.00  0.00     0.064 H 
ATOM     26  C   LIG d   1       9.670   9.325  -5.558  0.00  0.00     0.059 A 
ATOM     27  H   LIG d   1      10.131   8.831  -3.515  0.00  0.00     0.063 H 
ATOM     28  C   LIG d   1       9.523   8.834  -6.860  0.00  0.00    -0.046 A 
ATOM     29  C   LIG d   1       9.728   7.503  -7.116  0.00  0.00    -0.040 A 
ATOM     30  H   LIG d   1       9.256   9.504  -7.664  0.00  0.00     0.063 H 
ATOM     31  H   LIG d   1       9.620   7.124  -8.122  0.00  0.00     0.064 H 
BRANCH  26  32
ATOM     32  C   LIG d   1       9.458  10.757  -5.283  0.00  0.00     0.339 C 
ATOM     33  O   LIG d   1       8.630  11.101  -4.461  0.00  0.00    -0.245 OA
BRANCH  32  34
ATOM     34  O   LIG d   1      10.181  11.685  -5.940  0.00  0.00    -0.461 OA
BRANCH  34  35
ATOM     35  C   LIG d   1       9.463  12.836  -6.456  0.00  0.00     0.092 C 
ATOM     36  H   LIG d   1       8.406  12.589  -6.559  0.00  0.00     0.070 H 
ATOM     37  H   LIG d   1       9.574  13.673  -5.766  0.00  0.00     0.070 H 
BRANCH  35  38
ATOM     38  C   LIG d   1      10.032  13.223  -7.823  0.00  0.00    -0.021 C 
ATOM     39  H   LIG d   1       9.239  13.186  -8.569  0.00  0.00     0.029 H 
ATOM     40  H   LIG d   1      10.438  14.233  -7.774  0.00  0.00     0.029 H 
BRANCH  38  41
ATOM     41  C   LIG d   1      11.143  12.244  -8.209  0.00  0.00    -0.062 C 
ATOM     42  H   LIG d   1      11.973  12.343  -7.509  0.00  0.00     0.023 H 
ATOM     43  H   LIG d   1      10.757  11.225  -8.175  0.00  0.00     0.023 H 
ATOM     44  H   LIG d   1      11.490  12.468  -9.218  0.00  0.00     0.023 H 
ENDBRANCH  38  41
ENDBRANCH  35  38
ENDBRANCH  34  35
ENDBRANCH  32  34
ENDBRANCH  26  32
ENDBRANCH   1  22
BRANCH  13  45
ATOM     45  C   LIG d   1       8.205  -1.792  -5.632  0.00  0.00    -0.038 C 
ATOM     46  H   LIG d   1       7.963  -1.888  -6.690  0.00  0.00     0.028 H 
ATOM     47  H   LIG d   1       9.223  -2.142  -5.458  0.00  0.00     0.028 H 
ATOM     48  H   LIG d   1       7.509  -2.393  -5.046  0.00  0.00     0.028 H 
ENDBRANCH  13  45
BRANCH  12  49
ATOM     49  C   LIG d   1       6.580  -1.029  -3.370  0.00  0.00     0.005 C 
ATOM     50  H   LIG d   1       6.862  -2.021  -3.724  0.00  0.00     0.036 H 
ATOM     51  H   LIG d   1       6.829  -0.937  -2.312  0.00  0.00     0.036 H 
BRANCH  49  52
ATOM     52  C   LIG d   1       5.098  -0.831  -3.557  0.00  0.00    -0.043 A 
ATOM     53  C   LIG d   1       4.604  -0.436  -4.785  0.00  0.00    -0.058 A 
ATOM     54  C   LIG d   1       3.244  -0.255  -4.957  0.00  0.00    -0.061 A 
ATOM     55  H   LIG d   1       5.279  -0.269  -5.612  0.00  0.00     0.062 H 
ATOM     56  C   LIG d   1       2.379  -0.469  -3.900  0.00  0.00    -0.062 A 
ATOM     57  H   LIG d   1       2.857   0.054  -5.917  0.00  0.00     0.062 H 
ATOM     58  C   LIG d   1       2.874  -0.865  -2.672  0.00  0.00    -0.061 A 
ATOM     59  H   LIG d   1       1.317  -0.327  -4.034  0.00  0.00     0.062 H 
ATOM     60  C   LIG d   1       4.233  -1.051  -2.501  0.00  0.00    -0.058 A 
ATOM     61  H   LIG d   1       2.199  -1.033  -1.846  0.00  0.00     0.062 H 
ATOM     62  H   LIG d   1       4.619  -1.365  -1.543  0.00  0.00     0.062 H 
ENDBRANCH  49  52
ENDBRANCH  12  49
TORSDOF 9
ENDMDL
