MODEL 1
REMARK VINA RESULT:      -7.6      0.000      0.000
REMARK  11 active torsions:
REMARK  status: ('A' for Active; 'I' for Inactive)
REMARK    1  A    between atoms: C_1  and  C_2 
REMARK    2  A    between atoms: C_2  and  C_3 
REMARK    3  A    between atoms: C_3  and  O_4 
REMARK    4  A    between atoms: O_4  and  C_5 
REMARK    5  A    between atoms: C_8  and  C_13 
REMARK    6  A    between atoms: C_10  and  O_11 
REMARK    7  A    between atoms: O_11  and  C_12 
REMARK    8  A    between atoms: N_20  and  C_35 
REMARK    9  A    between atoms: C_23  and  C_34 
REMARK   10  A    between atoms: C_35  and  C_36 
REMARK   11  A    between atoms: C_36  and  C_37 
ROOT
ATOM      1  C   LIG d   1       8.437  -1.469  -4.754  0.00  0.00     0.028 C 
ATOM      2  H   LIG d   1       9.095  -1.777  -3.941  0.00  0.00     0.041 H 
ATOM      3  C   LIG d   1       9.276  -0.917  -5.911  0.00  0.00     0.027 C 
ATOM      4  N   LIG d   1       9.760   0.428  -5.549  0.00  0.00    -0.280 N 
ATOM      5  C   LIG d   1      11.071   0.638  -5.409  0.00  0.00     0.234 C 
ATOM      6  O   LIG d   1      11.826  -0.258  -5.725  0.00  0.00    -0.274 OA
ATOM      7  C   LIG d   1      11.670   1.905  -4.889  0.00  0.00     0.091 C 
ATOM      8  N   LIG d   1      10.655   2.872  -4.501  0.00  0.00    -0.290 N 
ATOM      9  C   LIG d   1       9.350   2.694  -4.703  0.00  0.00     0.245 C 
ATOM     10  O   LIG d   1       8.592   3.564  -4.333  0.00  0.00    -0.273 OA
ATOM     11  C   LIG d   1       8.767   1.485  -5.359  0.00  0.00     0.151 C 
ATOM     12  C   LIG d   1       7.639   0.924  -4.527  0.00  0.00     0.054 A 
ATOM     13  C   LIG d   1       7.500  -0.395  -4.263  0.00  0.00    -0.008 A 
ATOM     14  C   LIG d   1       6.314  -0.542  -3.445  0.00  0.00     0.004 A 
ATOM     15  C   LIG d   1       5.683  -1.653  -2.879  0.00  0.00    -0.052 A 
ATOM     16  C   LIG d   1       4.548  -1.416  -2.143  0.00  0.00    -0.061 A 
ATOM     17  C   LIG d   1       4.041  -0.140  -1.963  0.00  0.00    -0.060 A 
ATOM     18  C   LIG d   1       4.644   0.978  -2.512  0.00  0.00    -0.038 A 
ATOM     19  C   LIG d   1       5.798   0.768  -3.264  0.00  0.00     0.047 A 
ATOM     20  N   LIG d   1       6.626   1.627  -3.934  0.00  0.00    -0.356 N 
ATOM     21  H   LIG d   1       6.513   2.589  -3.979  0.00  0.00     0.166 HD
ATOM     22  H   LIG d   1      10.127  -1.574  -6.092  0.00  0.00     0.047 H 
ATOM     23  H   LIG d   1       8.662  -0.855  -6.810  0.00  0.00     0.047 H 
ATOM     24  H   LIG d   1      12.289   1.674  -4.023  0.00  0.00     0.056 H 
ATOM     25  H   LIG d   1      12.297   2.344  -5.665  0.00  0.00     0.056 H 
ATOM     26  H   LIG d   1       6.071  -2.653  -3.014  0.00  0.00     0.062 H 
ATOM     27  H   LIG d   1       4.034  -2.251  -1.690  0.00  0.00     0.062 H 
ATOM     28  H   LIG d   1       3.144  -0.013  -1.375  0.00  0.00     0.062 H 
ATOM     29  H   LIG d   1       4.239   1.969  -2.365  0.00  0.00     0.064 H 
ENDROOT
BRANCH   1  30
ATOM     30  C   LIG d   1       7.638  -2.655  -5.231  0.00  0.00    -0.035 A 
ATOM     31  C   LIG d   1       7.830  -3.894  -4.651  0.00  0.00    -0.054 A 
ATOM     32  C   LIG d   1       7.100  -4.985  -5.086  0.00  0.00    -0.016 A 
ATOM     33  H   LIG d   1       8.552  -4.012  -3.857  0.00  0.00     0.062 H 
ATOM     34  C   LIG d   1       6.173  -4.837  -6.105  0.00  0.00     0.162 A 
ATOM     35  H   LIG d   1       7.251  -5.952  -4.630  0.00  0.00     0.066 H 
ATOM     36  C   LIG d   1       5.984  -3.589  -6.693  0.00  0.00     0.162 A 
ATOM     37  C   LIG d   1       6.715  -2.499  -6.249  0.00  0.00    -0.013 A 
ATOM     38  H   LIG d   1       6.566  -1.529  -6.700  0.00  0.00     0.066 H 
BRANCH  34  39
ATOM     39  O   LIG d   1       5.454  -5.908  -6.533  0.00  0.00    -0.488 OA
BRANCH  39  40
ATOM     40  C   LIG d   1       4.871  -6.742  -5.530  0.00  0.00     0.089 C 
ATOM     41  H   LIG d   1       3.785  -6.653  -5.570  0.00  0.00     0.070 H 
ATOM     42  H   LIG d   1       5.225  -6.429  -4.548  0.00  0.00     0.070 H 
BRANCH  40  43
ATOM     43  C   LIG d   1       5.274  -8.197  -5.778  0.00  0.00    -0.021 C 
ATOM     44  H   LIG d   1       6.360  -8.284  -5.742  0.00  0.00     0.029 H 
ATOM     45  H   LIG d   1       4.917  -8.510  -6.759  0.00  0.00     0.029 H 
BRANCH  43  46
ATOM     46  C   LIG d   1       4.654  -9.088  -4.700  0.00  0.00    -0.062 C 
ATOM     47  H   LIG d   1       4.533 -10.099  -5.091  0.00  0.00     0.023 H 
ATOM     48  H   LIG d   1       5.306  -9.111  -3.827  0.00  0.00     0.023 H 
ATOM     49  H   LIG d   1       3.680  -8.690  -4.416  0.00  0.00     0.023 H 
ENDBRANCH  43  46
ENDBRANCH  40  43
ENDBRANCH  39  40
ENDBRANCH  34  39
BRANCH  36  50
ATOM     50  O   LIG d   1       5.079  -3.440  -7.698  0.00  0.00    -0.491 OA
BRANCH  50  51
ATOM     51  C   LIG d   1       4.349  -2.211  -7.736  0.00  0.00     0.079 C 
ATOM     52  H   LIG d   1       4.231  -1.891  -8.770  0.00  0.00     0.066 H 
ATOM     53  H   LIG d   1       3.368  -2.359  -7.287  0.00  0.00     0.066 H 
ATOM     54  H   LIG d   1       4.893  -1.449  -7.178  0.00  0.00     0.066 H 
ENDBRANCH  50  51
ENDBRANCH  36  50
ENDBRANCH   1  30
BRANCH  11  55
ATOM     55  C   LIG d   1       8.203   1.887  -6.724  0.00  0.00    -0.029 C 
ATOM     56  H   LIG d   1       7.120   1.994  -6.651  0.00  0.00     0.026 H 
ATOM     57  H   LIG d   1       8.642   2.835  -7.033  0.00  0.00     0.026 H 
ATOM     58  H   LIG d   1       8.443   1.117  -7.457  0.00  0.00     0.026 H 
ENDBRANCH  11  55
BRANCH   8  59
ATOM     59  C   LIG d   1      11.093   4.108  -3.850  0.00  0.00     0.019 C 
ATOM     60  H   LIG d   1      12.145   4.284  -4.074  0.00  0.00     0.047 H 
ATOM     61  H   LIG d   1      10.499   4.944  -4.219  0.00  0.00     0.047 H 
BRANCH  59  62
ATOM     62  C   LIG d   1      10.909   3.981  -2.336  0.00  0.00    -0.009 C 
ATOM     63  H   LIG d   1      10.111   3.269  -2.126  0.00  0.00     0.033 H 
ATOM     64  H   LIG d   1      11.838   3.630  -1.885  0.00  0.00     0.033 H 
BRANCH  62  65
ATOM     65  C   LIG d   1      10.546   5.324  -1.759  0.00  0.00    -0.011 A 
ATOM     66  C   LIG d   1      11.002   5.685  -0.503  0.00  0.00     0.127 A 
ATOM     67  C   LIG d   1      10.673   6.922   0.024  0.00  0.00    -0.026 A 
ATOM     68  F   LIG d   1      11.775   4.832   0.206  0.00  0.00    -0.205 F 
ATOM     69  C   LIG d   1       9.880   7.791  -0.700  0.00  0.00    -0.059 A 
ATOM     70  H   LIG d   1      11.032   7.207   1.001  0.00  0.00     0.065 H 
ATOM     71  C   LIG d   1       9.419   7.428  -1.952  0.00  0.00    -0.061 A 
ATOM     72  H   LIG d   1       9.620   8.756  -0.288  0.00  0.00     0.062 H 
ATOM     73  C   LIG d   1       9.751   6.195  -2.481  0.00  0.00    -0.056 A 
ATOM     74  H   LIG d   1       8.798   8.109  -2.518  0.00  0.00     0.062 H 
ATOM     75  H   LIG d   1       9.391   5.913  -3.460  0.00  0.00     0.062 H 
ENDBRANCH  62  65
ENDBRANCH  59  62
ENDBRANCH   8  59
TORSDOF 11
ENDMDL
MODEL 2
REMARK VINA RESULT:      -7.5      1.539      1.955
REMARK  11 active torsions:
REMARK  status: ('A' for Active; 'I' for Inactive)
REMARK    1  A    between atoms: C_1  and  C_2 
REMARK    2  A    between atoms: C_2  and  C_3 
REMARK    3  A    between atoms: C_3  and  O_4 
REMARK    4  A    between atoms: O_4  and  C_5 
REMARK    5  A    between atoms: C_8  and  C_13 
REMARK    6  A    between atoms: C_10  and  O_11 
REMARK    7  A    between atoms: O_11  and  C_12 
REMARK    8  A    between atoms: N_20  and  C_35 
REMARK    9  A    between atoms: C_23  and  C_34 
REMARK   10  A    between atoms: C_35  and  C_36 
REMARK   11  A    between atoms: C_36  and  C_37 
ROOT
ATOM      1  C   LIG d   1       8.347  -1.658  -4.640  0.00  0.00     0.028 C 
ATOM      2  H   LIG d   1       8.919  -2.127  -3.840  0.00  0.00     0.041 H 
ATOM      3  C   LIG d   1       9.305  -0.982  -5.626  0.00  0.00     0.027 C 
ATOM      4  N   LIG d   1       9.817   0.260  -5.017  0.00  0.00    -0.280 N 
ATOM      5  C   LIG d   1      11.119   0.369  -4.745  0.00  0.00     0.234 C 
ATOM      6  O   LIG d   1      11.857  -0.508  -5.142  0.00  0.00    -0.274 OA
ATOM      7  C   LIG d   1      11.728   1.503  -3.984  0.00  0.00     0.091 C 
ATOM      8  N   LIG d   1      10.729   2.454  -3.525  0.00  0.00    -0.290 N 
ATOM      9  C   LIG d   1       9.439   2.385  -3.852  0.00  0.00     0.245 C 
ATOM     10  O   LIG d   1       8.691   3.230  -3.407  0.00  0.00    -0.273 OA
ATOM     11  C   LIG d   1       8.860   1.330  -4.736  0.00  0.00     0.151 C 
ATOM     12  C   LIG d   1       7.641   0.712  -4.094  0.00  0.00     0.054 A 
ATOM     13  C   LIG d   1       7.421  -0.622  -4.056  0.00  0.00    -0.008 A 
ATOM     14  C   LIG d   1       6.164  -0.825  -3.367  0.00  0.00     0.004 A 
ATOM     15  C   LIG d   1       5.438  -1.973  -3.036  0.00  0.00    -0.052 A 
ATOM     16  C   LIG d   1       4.256  -1.788  -2.361  0.00  0.00    -0.061 A 
ATOM     17  C   LIG d   1       3.794  -0.528  -2.018  0.00  0.00    -0.060 A 
ATOM     18  C   LIG d   1       4.491   0.625  -2.333  0.00  0.00    -0.038 A 
ATOM     19  C   LIG d   1       5.694   0.468  -3.018  0.00  0.00     0.047 A 
ATOM     20  N   LIG d   1       6.614   1.372  -3.476  0.00  0.00    -0.356 N 
ATOM     21  H   LIG d   1       6.549   2.334  -3.375  0.00  0.00     0.166 HD
ATOM     22  H   LIG d   1      10.138  -1.651  -5.844  0.00  0.00     0.047 H 
ATOM     23  H   LIG d   1       8.773  -0.744  -6.548  0.00  0.00     0.047 H 
ATOM     24  H   LIG d   1      12.261   1.104  -3.120  0.00  0.00     0.056 H 
ATOM     25  H   LIG d   1      12.438   2.020  -4.628  0.00  0.00     0.056 H 
ATOM     26  H   LIG d   1       5.790  -2.960  -3.300  0.00  0.00     0.062 H 
ATOM     27  H   LIG d   1       3.669  -2.653  -2.089  0.00  0.00     0.062 H 
ATOM     28  H   LIG d   1       2.857  -0.444  -1.488  0.00  0.00     0.062 H 
ATOM     29  H   LIG d   1       4.120   1.602  -2.060  0.00  0.00     0.064 H 
ENDROOT
BRANCH   1  30
ATOM     30  C   LIG d   1       7.539  -2.706  -5.361  0.00  0.00    -0.035 A 
ATOM     31  C   LIG d   1       7.538  -4.011  -4.905  0.00  0.00    -0.054 A 
ATOM     32  C   LIG d   1       6.798  -4.976  -5.564  0.00  0.00    -0.016 A 
ATOM     33  H   LIG d   1       8.116  -4.278  -4.034  0.00  0.00     0.062 H 
ATOM     34  C   LIG d   1       6.056  -4.636  -6.683  0.00  0.00     0.162 A 
ATOM     35  H   LIG d   1       6.799  -5.994  -5.205  0.00  0.00     0.066 H 
ATOM     36  C   LIG d   1       6.061  -3.323  -7.146  0.00  0.00     0.162 A 
ATOM     37  C   LIG d   1       6.800  -2.360  -6.478  0.00  0.00    -0.013 A 
ATOM     38  H   LIG d   1       6.802  -1.339  -6.831  0.00  0.00     0.066 H 
BRANCH  34  39
ATOM     39  O   LIG d   1       5.328  -5.584  -7.332  0.00  0.00    -0.488 OA
BRANCH  39  40
ATOM     40  C   LIG d   1       4.387  -6.325  -6.554  0.00  0.00     0.089 C 
ATOM     41  H   LIG d   1       3.383  -6.169  -6.952  0.00  0.00     0.070 H 
ATOM     42  H   LIG d   1       4.424  -5.985  -5.519  0.00  0.00     0.070 H 
BRANCH  40  43
ATOM     43  C   LIG d   1       4.734  -7.813  -6.613  0.00  0.00    -0.021 C 
ATOM     44  H   LIG d   1       5.628  -7.954  -7.221  0.00  0.00     0.029 H 
ATOM     45  H   LIG d   1       3.903  -8.362  -7.057  0.00  0.00     0.029 H 
BRANCH  43  46
ATOM     46  C   LIG d   1       4.992  -8.334  -5.198  0.00  0.00    -0.062 C 
ATOM     47  H   LIG d   1       5.283  -7.505  -4.553  0.00  0.00     0.023 H 
ATOM     48  H   LIG d   1       4.084  -8.796  -4.809  0.00  0.00     0.023 H 
ATOM     49  H   LIG d   1       5.793  -9.072  -5.224  0.00  0.00     0.023 H 
ENDBRANCH  43  46
ENDBRANCH  40  43
ENDBRANCH  39  40
ENDBRANCH  34  39
BRANCH  36  50
ATOM     50  O   LIG d   1       5.339  -2.986  -8.248  0.00  0.00    -0.491 OA
BRANCH  50  51
ATOM     51  C   LIG d   1       4.085  -2.335  -8.027  0.00  0.00     0.079 C 
ATOM     52  H   LIG d   1       3.913  -1.602  -8.814  0.00  0.00     0.066 H 
ATOM     53  H   LIG d   1       3.286  -3.075  -8.038  0.00  0.00     0.066 H 
ATOM     54  H   LIG d   1       4.103  -1.833  -7.060  0.00  0.00     0.066 H 
ENDBRANCH  50  51
ENDBRANCH  36  50
ENDBRANCH   1  30
BRANCH  11  55
ATOM     55  C   LIG d   1       8.432   1.972  -6.058  0.00  0.00    -0.029 C 
ATOM     56  H   LIG d   1       8.259   1.192  -6.800  0.00  0.00     0.026 H 
ATOM     57  H   LIG d   1       7.514   2.538  -5.906  0.00  0.00     0.026 H 
ATOM     58  H   LIG d   1       9.218   2.640  -6.409  0.00  0.00     0.026 H 
ENDBRANCH  11  55
BRANCH   8  59
ATOM     59  C   LIG d   1      11.165   3.546  -2.652  0.00  0.00     0.019 C 
ATOM     60  H   LIG d   1      10.292   4.063  -2.254  0.00  0.00     0.047 H 
ATOM     61  H   LIG d   1      11.755   3.142  -1.830  0.00  0.00     0.047 H 
BRANCH  59  62
ATOM     62  C   LIG d   1      12.017   4.531  -3.455  0.00  0.00    -0.009 C 
ATOM     63  H   LIG d   1      12.706   5.045  -2.785  0.00  0.00     0.033 H 
ATOM     64  H   LIG d   1      12.584   3.988  -4.213  0.00  0.00     0.033 H 
BRANCH  62  65
ATOM     65  C   LIG d   1      11.122   5.541  -4.125  0.00  0.00    -0.011 A 
ATOM     66  C   LIG d   1      10.756   5.372  -5.449  0.00  0.00     0.127 A 
ATOM     67  C   LIG d   1       9.929   6.297  -6.062  0.00  0.00    -0.026 A 
ATOM     68  F   LIG d   1      11.202   4.300  -6.142  0.00  0.00    -0.205 F 
ATOM     69  C   LIG d   1       9.479   7.395  -5.355  0.00  0.00    -0.059 A 
ATOM     70  H   LIG d   1       9.639   6.164  -7.094  0.00  0.00     0.065 H 
ATOM     71  C   LIG d   1       9.849   7.567  -4.034  0.00  0.00    -0.061 A 
ATOM     72  H   LIG d   1       8.836   8.119  -5.834  0.00  0.00     0.062 H 
ATOM     73  C   LIG d   1      10.671   6.641  -3.419  0.00  0.00    -0.056 A 
ATOM     74  H   LIG d   1       9.496   8.426  -3.481  0.00  0.00     0.062 H 
ATOM     75  H   LIG d   1      10.959   6.775  -2.387  0.00  0.00     0.062 H 
ENDBRANCH  62  65
ENDBRANCH  59  62
ENDBRANCH   8  59
TORSDOF 11
ENDMDL
MODEL 3
REMARK VINA RESULT:      -7.3      5.294     10.666
REMARK  11 active torsions:
REMARK  status: ('A' for Active; 'I' for Inactive)
REMARK    1  A    between atoms: C_1  and  C_2 
REMARK    2  A    between atoms: C_2  and  C_3 
REMARK    3  A    between atoms: C_3  and  O_4 
REMARK    4  A    between atoms: O_4  and  C_5 
REMARK    5  A    between atoms: C_8  and  C_13 
REMARK    6  A    between atoms: C_10  and  O_11 
REMARK    7  A    between atoms: O_11  and  C_12 
REMARK    8  A    between atoms: N_20  and  C_35 
REMARK    9  A    between atoms: C_23  and  C_34 
REMARK   10  A    between atoms: C_35  and  C_36 
REMARK   11  A    between atoms: C_36  and  C_37 
ROOT
ATOM      1  C   LIG d   1       9.728   5.819  -8.184  0.00  0.00     0.028 C 
ATOM      2  H   LIG d   1       8.675   5.827  -8.465  0.00  0.00     0.041 H 
ATOM      3  C   LIG d   1      10.270   4.388  -8.275  0.00  0.00     0.027 C 
ATOM      4  N   LIG d   1       9.769   3.615  -7.124  0.00  0.00    -0.280 N 
ATOM      5  C   LIG d   1       8.951   2.580  -7.335  0.00  0.00     0.234 C 
ATOM      6  O   LIG d   1       8.764   2.230  -8.481  0.00  0.00    -0.274 OA
ATOM      7  C   LIG d   1       8.252   1.826  -6.250  0.00  0.00     0.091 C 
ATOM      8  N   LIG d   1       8.523   2.382  -4.934  0.00  0.00    -0.290 N 
ATOM      9  C   LIG d   1       9.391   3.368  -4.713  0.00  0.00     0.245 C 
ATOM     10  O   LIG d   1       9.534   3.758  -3.574  0.00  0.00    -0.273 OA
ATOM     11  C   LIG d   1      10.199   4.021  -5.786  0.00  0.00     0.151 C 
ATOM     12  C   LIG d   1      10.085   5.524  -5.694  0.00  0.00     0.054 A 
ATOM     13  C   LIG d   1       9.876   6.317  -6.769  0.00  0.00    -0.008 A 
ATOM     14  C   LIG d   1       9.826   7.682  -6.287  0.00  0.00     0.004 A 
ATOM     15  C   LIG d   1       9.639   8.909  -6.929  0.00  0.00    -0.052 A 
ATOM     16  C   LIG d   1       9.648  10.032  -6.139  0.00  0.00    -0.061 A 
ATOM     17  C   LIG d   1       9.834   9.965  -4.768  0.00  0.00    -0.060 A 
ATOM     18  C   LIG d   1      10.021   8.765  -4.105  0.00  0.00    -0.038 A 
ATOM     19  C   LIG d   1      10.016   7.608  -4.882  0.00  0.00     0.047 A 
ATOM     20  N   LIG d   1      10.172   6.287  -4.562  0.00  0.00    -0.356 N 
ATOM     21  H   LIG d   1      10.317   5.943  -3.666  0.00  0.00     0.166 HD
ATOM     22  H   LIG d   1       9.929   3.926  -9.202  0.00  0.00     0.047 H 
ATOM     23  H   LIG d   1      11.361   4.409  -8.255  0.00  0.00     0.047 H 
ATOM     24  H   LIG d   1       7.178   1.857  -6.434  0.00  0.00     0.056 H 
ATOM     25  H   LIG d   1       8.583   0.789  -6.271  0.00  0.00     0.056 H 
ATOM     26  H   LIG d   1       9.494   8.971  -7.998  0.00  0.00     0.062 H 
ATOM     27  H   LIG d   1       9.506  10.998  -6.601  0.00  0.00     0.062 H 
ATOM     28  H   LIG d   1       9.832  10.882  -4.196  0.00  0.00     0.062 H 
ATOM     29  H   LIG d   1      10.165   8.726  -3.036  0.00  0.00     0.064 H 
ENDROOT
BRANCH   1  30
ATOM     30  C   LIG d   1      10.504   6.712  -9.117  0.00  0.00    -0.035 A 
ATOM     31  C   LIG d   1      11.876   6.815  -8.989  0.00  0.00    -0.054 A 
ATOM     32  C   LIG d   1      12.593   7.634  -9.843  0.00  0.00    -0.016 A 
ATOM     33  H   LIG d   1      12.390   6.256  -8.222  0.00  0.00     0.062 H 
ATOM     34  C   LIG d   1      11.936   8.353 -10.828  0.00  0.00     0.162 A 
ATOM     35  H   LIG d   1      13.666   7.711  -9.742  0.00  0.00     0.066 H 
ATOM     36  C   LIG d   1      10.553   8.254 -10.952  0.00  0.00     0.162 A 
ATOM     37  C   LIG d   1       9.842   7.427 -10.098  0.00  0.00    -0.013 A 
ATOM     38  H   LIG d   1       8.769   7.344 -10.195  0.00  0.00     0.066 H 
BRANCH  34  39
ATOM     39  O   LIG d   1      12.640   9.158 -11.668  0.00  0.00    -0.488 OA
BRANCH  39  40
ATOM     40  C   LIG d   1      13.370  10.234 -11.076  0.00  0.00     0.089 C 
ATOM     41  H   LIG d   1      14.163  10.552 -11.753  0.00  0.00     0.070 H 
ATOM     42  H   LIG d   1      13.807   9.901 -10.135  0.00  0.00     0.070 H 
BRANCH  40  43
ATOM     43  C   LIG d   1      12.425  11.407 -10.811  0.00  0.00    -0.021 C 
ATOM     44  H   LIG d   1      11.480  11.236 -11.328  0.00  0.00     0.029 H 
ATOM     45  H   LIG d   1      12.878  12.328 -11.178  0.00  0.00     0.029 H 
BRANCH  43  46
ATOM     46  C   LIG d   1      12.169  11.528  -9.307  0.00  0.00    -0.062 C 
ATOM     47  H   LIG d   1      12.474  10.605  -8.813  0.00  0.00     0.023 H 
ATOM     48  H   LIG d   1      12.744  12.363  -8.907  0.00  0.00     0.023 H 
ATOM     49  H   LIG d   1      11.107  11.700  -9.132  0.00  0.00     0.023 H 
ENDBRANCH  43  46
ENDBRANCH  40  43
ENDBRANCH  39  40
ENDBRANCH  34  39
BRANCH  36  50
ATOM     50  O   LIG d   1       9.903   8.962 -11.914  0.00  0.00    -0.491 OA
BRANCH  50  51
ATOM     51  C   LIG d   1       9.511   8.251 -13.090  0.00  0.00     0.079 C 
ATOM     52  H   LIG d   1       9.897   7.233 -13.045  0.00  0.00     0.066 H 
ATOM     53  H   LIG d   1       8.424   8.225 -13.153  0.00  0.00     0.066 H 
ATOM     54  H   LIG d   1       9.915   8.754 -13.969  0.00  0.00     0.066 H 
ENDBRANCH  50  51
ENDBRANCH  36  50
ENDBRANCH   1  30
BRANCH  11  55
ATOM     55  C   LIG d   1      11.669   3.639  -5.601  0.00  0.00    -0.029 C 
ATOM     56  H   LIG d   1      12.293   4.524  -5.729  0.00  0.00     0.026 H 
ATOM     57  H   LIG d   1      11.815   3.234  -4.599  0.00  0.00     0.026 H 
ATOM     58  H   LIG d   1      11.946   2.889  -6.341  0.00  0.00     0.026 H 
ENDBRANCH  11  55
BRANCH   8  59
ATOM     59  C   LIG d   1       7.799   1.827  -3.788  0.00  0.00     0.019 C 
ATOM     60  H   LIG d   1       8.398   1.951  -2.886  0.00  0.00     0.047 H 
ATOM     61  H   LIG d   1       6.850   2.349  -3.669  0.00  0.00     0.047 H 
BRANCH  59  62
ATOM     62  C   LIG d   1       7.535   0.338  -4.024  0.00  0.00    -0.009 C 
ATOM     63  H   LIG d   1       7.397   0.158  -5.090  0.00  0.00     0.033 H 
ATOM     64  H   LIG d   1       8.385  -0.243  -3.665  0.00  0.00     0.033 H 
BRANCH  62  65
ATOM     65  C   LIG d   1       6.293  -0.077  -3.280  0.00  0.00    -0.011 A 
ATOM     66  C   LIG d   1       5.928  -1.411  -3.229  0.00  0.00     0.127 A 
ATOM     67  C   LIG d   1       4.789  -1.791  -2.541  0.00  0.00    -0.026 A 
ATOM     68  F   LIG d   1       6.687  -2.343  -3.848  0.00  0.00    -0.205 F 
ATOM     69  C   LIG d   1       4.012  -0.837  -1.913  0.00  0.00    -0.059 A 
ATOM     70  H   LIG d   1       4.506  -2.833  -2.496  0.00  0.00     0.065 H 
ATOM     71  C   LIG d   1       4.373   0.496  -1.969  0.00  0.00    -0.061 A 
ATOM     72  H   LIG d   1       3.121  -1.133  -1.378  0.00  0.00     0.062 H 
ATOM     73  C   LIG d   1       5.513   0.876  -2.652  0.00  0.00    -0.056 A 
ATOM     74  H   LIG d   1       3.764   1.242  -1.477  0.00  0.00     0.062 H 
ATOM     75  H   LIG d   1       5.795   1.918  -2.694  0.00  0.00     0.062 H 
ENDBRANCH  62  65
ENDBRANCH  59  62
ENDBRANCH   8  59
TORSDOF 11
ENDMDL
MODEL 4
REMARK VINA RESULT:      -7.3      1.227      2.197
REMARK  11 active torsions:
REMARK  status: ('A' for Active; 'I' for Inactive)
REMARK    1  A    between atoms: C_1  and  C_2 
REMARK    2  A    between atoms: C_2  and  C_3 
REMARK    3  A    between atoms: C_3  and  O_4 
REMARK    4  A    between atoms: O_4  and  C_5 
REMARK    5  A    between atoms: C_8  and  C_13 
REMARK    6  A    between atoms: C_10  and  O_11 
REMARK    7  A    between atoms: O_11  and  C_12 
REMARK    8  A    between atoms: N_20  and  C_35 
REMARK    9  A    between atoms: C_23  and  C_34 
REMARK   10  A    between atoms: C_35  and  C_36 
REMARK   11  A    between atoms: C_36  and  C_37 
ROOT
ATOM      1  C   LIG d   1       8.243  -1.691  -4.813  0.00  0.00     0.028 C 
ATOM      2  H   LIG d   1       8.812  -2.225  -4.053  0.00  0.00     0.041 H 
ATOM      3  C   LIG d   1       9.207  -0.965  -5.759  0.00  0.00     0.027 C 
ATOM      4  N   LIG d   1       9.747   0.221  -5.069  0.00  0.00    -0.280 N 
ATOM      5  C   LIG d   1      11.054   0.286  -4.803  0.00  0.00     0.234 C 
ATOM      6  O   LIG d   1      11.771  -0.575  -5.267  0.00  0.00    -0.274 OA
ATOM      7  C   LIG d   1      11.691   1.352  -3.970  0.00  0.00     0.091 C 
ATOM      8  N   LIG d   1      10.714   2.288  -3.437  0.00  0.00    -0.290 N 
ATOM      9  C   LIG d   1       9.421   2.267  -3.756  0.00  0.00     0.245 C 
ATOM     10  O   LIG d   1       8.693   3.092  -3.246  0.00  0.00    -0.273 OA
ATOM     11  C   LIG d   1       8.814   1.287  -4.706  0.00  0.00     0.151 C 
ATOM     12  C   LIG d   1       7.588   0.649  -4.097  0.00  0.00     0.054 A 
ATOM     13  C   LIG d   1       7.342  -0.680  -4.150  0.00  0.00    -0.008 A 
ATOM     14  C   LIG d   1       6.087  -0.907  -3.464  0.00  0.00     0.004 A 
ATOM     15  C   LIG d   1       5.341  -2.061  -3.208  0.00  0.00    -0.052 A 
ATOM     16  C   LIG d   1       4.169  -1.902  -2.510  0.00  0.00    -0.061 A 
ATOM     17  C   LIG d   1       3.734  -0.660  -2.076  0.00  0.00    -0.060 A 
ATOM     18  C   LIG d   1       4.451   0.499  -2.316  0.00  0.00    -0.038 A 
ATOM     19  C   LIG d   1       5.646   0.368  -3.022  0.00  0.00     0.047 A 
ATOM     20  N   LIG d   1       6.579   1.283  -3.425  0.00  0.00    -0.356 N 
ATOM     21  H   LIG d   1       6.534   2.237  -3.256  0.00  0.00     0.166 HD
ATOM     22  H   LIG d   1      10.024  -1.633  -6.031  0.00  0.00     0.047 H 
ATOM     23  H   LIG d   1       8.672  -0.654  -6.657  0.00  0.00     0.047 H 
ATOM     24  H   LIG d   1      12.222   0.884  -3.142  0.00  0.00     0.056 H 
ATOM     25  H   LIG d   1      12.406   1.899  -4.584  0.00  0.00     0.056 H 
ATOM     26  H   LIG d   1       5.672  -3.033  -3.543  0.00  0.00     0.062 H 
ATOM     27  H   LIG d   1       3.567  -2.771  -2.293  0.00  0.00     0.062 H 
ATOM     28  H   LIG d   1       2.803  -0.595  -1.532  0.00  0.00     0.062 H 
ATOM     29  H   LIG d   1       4.102   1.461  -1.973  0.00  0.00     0.064 H 
ENDROOT
BRANCH   1  30
ATOM     30  C   LIG d   1       7.409  -2.670  -5.598  0.00  0.00    -0.035 A 
ATOM     31  C   LIG d   1       6.678  -2.235  -6.688  0.00  0.00    -0.054 A 
ATOM     32  C   LIG d   1       5.911  -3.130  -7.411  0.00  0.00    -0.016 A 
ATOM     33  H   LIG d   1       6.705  -1.195  -6.975  0.00  0.00     0.062 H 
ATOM     34  C   LIG d   1       5.875  -4.466  -7.045  0.00  0.00     0.162 A 
ATOM     35  H   LIG d   1       5.342  -2.788  -8.263  0.00  0.00     0.066 H 
ATOM     36  C   LIG d   1       6.606  -4.902  -5.944  0.00  0.00     0.162 A 
ATOM     37  C   LIG d   1       7.377  -4.002  -5.227  0.00  0.00    -0.013 A 
ATOM     38  H   LIG d   1       7.949  -4.339  -4.375  0.00  0.00     0.066 H 
BRANCH  34  39
ATOM     39  O   LIG d   1       5.121  -5.347  -7.755  0.00  0.00    -0.488 OA
BRANCH  39  40
ATOM     40  C   LIG d   1       3.719  -5.085  -7.836  0.00  0.00     0.089 C 
ATOM     41  H   LIG d   1       3.494  -4.150  -7.321  0.00  0.00     0.070 H 
ATOM     42  H   LIG d   1       3.170  -5.900  -7.365  0.00  0.00     0.070 H 
BRANCH  40  43
ATOM     43  C   LIG d   1       3.305  -4.972  -9.304  0.00  0.00    -0.021 C 
ATOM     44  H   LIG d   1       2.520  -5.698  -9.517  0.00  0.00     0.029 H 
ATOM     45  H   LIG d   1       4.166  -5.171  -9.941  0.00  0.00     0.029 H 
BRANCH  43  46
ATOM     46  C   LIG d   1       2.781  -3.560  -9.579  0.00  0.00    -0.062 C 
ATOM     47  H   LIG d   1       2.311  -3.166  -8.678  0.00  0.00     0.023 H 
ATOM     48  H   LIG d   1       3.611  -2.915  -9.869  0.00  0.00     0.023 H 
ATOM     49  H   LIG d   1       2.049  -3.596 -10.385  0.00  0.00     0.023 H 
ENDBRANCH  43  46
ENDBRANCH  40  43
ENDBRANCH  39  40
ENDBRANCH  34  39
BRANCH  36  50
ATOM     50  O   LIG d   1       6.569  -6.212  -5.576  0.00  0.00    -0.491 OA
BRANCH  50  51
ATOM     51  C   LIG d   1       7.799  -6.801  -5.151  0.00  0.00     0.079 C 
ATOM     52  H   LIG d   1       7.743  -7.032  -4.088  0.00  0.00     0.066 H 
ATOM     53  H   LIG d   1       7.975  -7.718  -5.713  0.00  0.00     0.066 H 
ATOM     54  H   LIG d   1       8.616  -6.103  -5.330  0.00  0.00     0.066 H 
ENDBRANCH  50  51
ENDBRANCH  36  50
ENDBRANCH   1  30
BRANCH  11  55
ATOM     55  C   LIG d   1       8.388   2.027  -5.976  0.00  0.00    -0.029 C 
ATOM     56  H   LIG d   1       7.722   2.849  -5.711  0.00  0.00     0.026 H 
ATOM     57  H   LIG d   1       9.270   2.423  -6.479  0.00  0.00     0.026 H 
ATOM     58  H   LIG d   1       7.868   1.339  -6.641  0.00  0.00     0.026 H 
ENDBRANCH  11  55
BRANCH   8  59
ATOM     59  C   LIG d   1      11.179   3.308  -2.495  0.00  0.00     0.019 C 
ATOM     60  H   LIG d   1      10.454   3.414  -1.688  0.00  0.00     0.047 H 
ATOM     61  H   LIG d   1      12.142   3.010  -2.081  0.00  0.00     0.047 H 
BRANCH  59  62
ATOM     62  C   LIG d   1      11.328   4.645  -3.224  0.00  0.00    -0.009 C 
ATOM     63  H   LIG d   1      12.364   4.774  -3.537  0.00  0.00     0.033 H 
ATOM     64  H   LIG d   1      10.680   4.656  -4.100  0.00  0.00     0.033 H 
BRANCH  62  65
ATOM     65  C   LIG d   1      10.940   5.769  -2.298  0.00  0.00    -0.011 A 
ATOM     66  C   LIG d   1      11.824   6.201  -1.324  0.00  0.00     0.127 A 
ATOM     67  C   LIG d   1      11.468   7.236  -0.478  0.00  0.00    -0.026 A 
ATOM     68  F   LIG d   1      13.036   5.614  -1.203  0.00  0.00    -0.205 F 
ATOM     69  C   LIG d   1      10.227   7.831  -0.599  0.00  0.00    -0.059 A 
ATOM     70  H   LIG d   1      12.158   7.577   0.280  0.00  0.00     0.065 H 
ATOM     71  C   LIG d   1       9.342   7.396  -1.568  0.00  0.00    -0.061 A 
ATOM     72  H   LIG d   1       9.948   8.638   0.064  0.00  0.00     0.062 H 
ATOM     73  C   LIG d   1       9.699   6.365  -2.417  0.00  0.00    -0.056 A 
ATOM     74  H   LIG d   1       8.372   7.862  -1.663  0.00  0.00     0.062 H 
ATOM     75  H   LIG d   1       9.007   6.026  -3.175  0.00  0.00     0.062 H 
ENDBRANCH  62  65
ENDBRANCH  59  62
ENDBRANCH   8  59
TORSDOF 11
ENDMDL
MODEL 5
REMARK VINA RESULT:      -7.2      3.761      8.672
REMARK  11 active torsions:
REMARK  status: ('A' for Active; 'I' for Inactive)
REMARK    1  A    between atoms: C_1  and  C_2 
REMARK    2  A    between atoms: C_2  and  C_3 
REMARK    3  A    between atoms: C_3  and  O_4 
REMARK    4  A    between atoms: O_4  and  C_5 
REMARK    5  A    between atoms: C_8  and  C_13 
REMARK    6  A    between atoms: C_10  and  O_11 
REMARK    7  A    between atoms: O_11  and  C_12 
REMARK    8  A    between atoms: N_20  and  C_35 
REMARK    9  A    between atoms: C_23  and  C_34 
REMARK   10  A    between atoms: C_35  and  C_36 
REMARK   11  A    between atoms: C_36  and  C_37 
ROOT
ATOM      1  C   LIG d   1       8.046   1.793  -7.603  0.00  0.00     0.028 C 
ATOM      2  H   LIG d   1       7.026   2.175  -7.575  0.00  0.00     0.041 H 
ATOM      3  C   LIG d   1       8.057   0.411  -8.266  0.00  0.00     0.027 C 
ATOM      4  N   LIG d   1       7.519  -0.578  -7.312  0.00  0.00    -0.280 N 
ATOM      5  C   LIG d   1       6.380  -1.212  -7.598  0.00  0.00     0.234 C 
ATOM      6  O   LIG d   1       5.903  -1.052  -8.702  0.00  0.00    -0.274 OA
ATOM      7  C   LIG d   1       5.654  -2.108  -6.647  0.00  0.00     0.091 C 
ATOM      8  N   LIG d   1       6.304  -2.170  -5.348  0.00  0.00    -0.290 N 
ATOM      9  C   LIG d   1       7.476  -1.595  -5.081  0.00  0.00     0.245 C 
ATOM     10  O   LIG d   1       7.924  -1.706  -3.959  0.00  0.00    -0.273 OA
ATOM     11  C   LIG d   1       8.270  -0.822  -6.081  0.00  0.00     0.151 C 
ATOM     12  C   LIG d   1       8.683   0.515  -5.512  0.00  0.00     0.054 A 
ATOM     13  C   LIG d   1       8.579   1.675  -6.198  0.00  0.00    -0.008 A 
ATOM     14  C   LIG d   1       9.068   2.727  -5.331  0.00  0.00     0.004 A 
ATOM     15  C   LIG d   1       9.201   4.108  -5.496  0.00  0.00    -0.052 A 
ATOM     16  C   LIG d   1       9.713   4.815  -4.436  0.00  0.00    -0.061 A 
ATOM     17  C   LIG d   1      10.085   4.199  -3.252  0.00  0.00    -0.060 A 
ATOM     18  C   LIG d   1       9.965   2.834  -3.061  0.00  0.00    -0.038 A 
ATOM     19  C   LIG d   1       9.448   2.091  -4.120  0.00  0.00     0.047 A 
ATOM     20  N   LIG d   1       9.202   0.753  -4.268  0.00  0.00    -0.356 N 
ATOM     21  H   LIG d   1       9.367   0.077  -3.593  0.00  0.00     0.166 HD
ATOM     22  H   LIG d   1       7.435   0.430  -9.161  0.00  0.00     0.047 H 
ATOM     23  H   LIG d   1       9.079   0.142  -8.533  0.00  0.00     0.047 H 
ATOM     24  H   LIG d   1       4.637  -1.736  -6.517  0.00  0.00     0.056 H 
ATOM     25  H   LIG d   1       5.611  -3.112  -7.069  0.00  0.00     0.056 H 
ATOM     26  H   LIG d   1       8.914   4.597  -6.416  0.00  0.00     0.062 H 
ATOM     27  H   LIG d   1       9.830   5.885  -4.528  0.00  0.00     0.062 H 
ATOM     28  H   LIG d   1      10.483   4.806  -2.452  0.00  0.00     0.062 H 
ATOM     29  H   LIG d   1      10.259   2.366  -2.133  0.00  0.00     0.064 H 
ENDROOT
BRANCH   1  30
ATOM     30  C   LIG d   1       8.915   2.737  -8.394  0.00  0.00    -0.035 A 
ATOM     31  C   LIG d   1       8.382   3.912  -8.890  0.00  0.00    -0.054 A 
ATOM     32  C   LIG d   1       9.176   4.782  -9.617  0.00  0.00    -0.016 A 
ATOM     33  H   LIG d   1       7.345   4.152  -8.711  0.00  0.00     0.062 H 
ATOM     34  C   LIG d   1      10.507   4.476  -9.848  0.00  0.00     0.162 A 
ATOM     35  H   LIG d   1       8.757   5.699 -10.002  0.00  0.00     0.066 H 
ATOM     36  C   LIG d   1      11.041   3.290  -9.353  0.00  0.00     0.162 A 
ATOM     37  C   LIG d   1      10.243   2.426  -8.621  0.00  0.00    -0.013 A 
ATOM     38  H   LIG d   1      10.657   1.507  -8.232  0.00  0.00     0.066 H 
BRANCH  34  39
ATOM     39  O   LIG d   1      11.288   5.330 -10.562  0.00  0.00    -0.488 OA
BRANCH  39  40
ATOM     40  C   LIG d   1      10.683   6.545 -11.007  0.00  0.00     0.089 C 
ATOM     41  H   LIG d   1      11.326   7.387 -10.750  0.00  0.00     0.070 H 
ATOM     42  H   LIG d   1       9.714   6.667 -10.522  0.00  0.00     0.070 H 
BRANCH  40  43
ATOM     43  C   LIG d   1      10.490   6.493 -12.524  0.00  0.00    -0.021 C 
ATOM     44  H   LIG d   1      10.906   5.563 -12.911  0.00  0.00     0.029 H 
ATOM     45  H   LIG d   1      11.002   7.339 -12.984  0.00  0.00     0.029 H 
BRANCH  43  46
ATOM     46  C   LIG d   1       8.997   6.561 -12.852  0.00  0.00    -0.062 C 
ATOM     47  H   LIG d   1       8.429   6.075 -12.058  0.00  0.00     0.023 H 
ATOM     48  H   LIG d   1       8.689   7.603 -12.933  0.00  0.00     0.023 H 
ATOM     49  H   LIG d   1       8.810   6.051 -13.797  0.00  0.00     0.023 H 
ENDBRANCH  43  46
ENDBRANCH  40  43
ENDBRANCH  39  40
ENDBRANCH  34  39
BRANCH  36  50
ATOM     50  O   LIG d   1      12.346   2.982  -9.583  0.00  0.00    -0.491 OA
BRANCH  50  51
ATOM     51  C   LIG d   1      12.615   1.739 -10.235  0.00  0.00     0.079 C 
ATOM     52  H   LIG d   1      12.533   1.870 -11.313  0.00  0.00     0.066 H 
ATOM     53  H   LIG d   1      13.622   1.408  -9.984  0.00  0.00     0.066 H 
ATOM     54  H   LIG d   1      11.893   0.993  -9.903  0.00  0.00     0.066 H 
ENDBRANCH  50  51
ENDBRANCH  36  50
ENDBRANCH   1  30
BRANCH  11  55
ATOM     55  C   LIG d   1       9.538  -1.609  -6.422  0.00  0.00    -0.029 C 
ATOM     56  H   LIG d   1      10.114  -1.781  -5.513  0.00  0.00     0.026 H 
ATOM     57  H   LIG d   1       9.263  -2.567  -6.864  0.00  0.00     0.026 H 
ATOM     58  H   LIG d   1      10.139  -1.041  -7.131  0.00  0.00     0.026 H 
ENDBRANCH  11  55
BRANCH   8  59
ATOM     59  C   LIG d   1       5.633  -2.905  -4.274  0.00  0.00     0.019 C 
ATOM     60  H   LIG d   1       5.682  -3.973  -4.479  0.00  0.00     0.047 H 
ATOM     61  H   LIG d   1       6.125  -2.693  -3.325  0.00  0.00     0.047 H 
BRANCH  59  62
ATOM     62  C   LIG d   1       4.168  -2.468  -4.196  0.00  0.00    -0.009 C 
ATOM     63  H   LIG d   1       3.765  -2.369  -5.203  0.00  0.00     0.033 H 
ATOM     64  H   LIG d   1       3.594  -3.216  -3.646  0.00  0.00     0.033 H 
BRANCH  62  65
ATOM     65  C   LIG d   1       4.075  -1.143  -3.486  0.00  0.00    -0.011 A 
ATOM     66  C   LIG d   1       3.455  -0.069  -4.100  0.00  0.00     0.127 A 
ATOM     67  C   LIG d   1       3.366   1.147  -3.445  0.00  0.00    -0.026 A 
ATOM     68  F   LIG d   1       2.931  -0.210  -5.339  0.00  0.00    -0.205 F 
ATOM     69  C   LIG d   1       3.906   1.291  -2.182  0.00  0.00    -0.059 A 
ATOM     70  H   LIG d   1       2.878   1.984  -3.922  0.00  0.00     0.065 H 
ATOM     71  C   LIG d   1       4.531   0.220  -1.570  0.00  0.00    -0.061 A 
ATOM     72  H   LIG d   1       3.839   2.240  -1.671  0.00  0.00     0.062 H 
ATOM     73  C   LIG d   1       4.616  -0.996  -2.222  0.00  0.00    -0.056 A 
ATOM     74  H   LIG d   1       4.953   0.333  -0.581  0.00  0.00     0.062 H 
ATOM     75  H   LIG d   1       5.104  -1.833  -1.743  0.00  0.00     0.062 H 
ENDBRANCH  62  65
ENDBRANCH  59  62
ENDBRANCH   8  59
TORSDOF 11
ENDMDL
MODEL 6
REMARK VINA RESULT:      -7.2      5.536     10.242
REMARK  11 active torsions:
REMARK  status: ('A' for Active; 'I' for Inactive)
REMARK    1  A    between atoms: C_1  and  C_2 
REMARK    2  A    between atoms: C_2  and  C_3 
REMARK    3  A    between atoms: C_3  and  O_4 
REMARK    4  A    between atoms: O_4  and  C_5 
REMARK    5  A    between atoms: C_8  and  C_13 
REMARK    6  A    between atoms: C_10  and  O_11 
REMARK    7  A    between atoms: O_11  and  C_12 
REMARK    8  A    between atoms: N_20  and  C_35 
REMARK    9  A    between atoms: C_23  and  C_34 
REMARK   10  A    between atoms: C_35  and  C_36 
REMARK   11  A    between atoms: C_36  and  C_37 
ROOT
ATOM      1  C   LIG d   1       9.291   4.923  -8.980  0.00  0.00     0.028 C 
ATOM      2  H   LIG d   1       8.216   4.888  -9.158  0.00  0.00     0.041 H 
ATOM      3  C   LIG d   1       9.840   3.496  -8.880  0.00  0.00     0.027 C 
ATOM      4  N   LIG d   1       9.458   2.929  -7.573  0.00  0.00    -0.280 N 
ATOM      5  C   LIG d   1       8.636   1.877  -7.530  0.00  0.00     0.234 C 
ATOM      6  O   LIG d   1       8.348   1.339  -8.579  0.00  0.00    -0.274 OA
ATOM      7  C   LIG d   1       8.050   1.319  -6.274  0.00  0.00     0.091 C 
ATOM      8  N   LIG d   1       8.435   2.086  -5.101  0.00  0.00    -0.290 N 
ATOM      9  C   LIG d   1       9.308   3.093  -5.131  0.00  0.00     0.245 C 
ATOM     10  O   LIG d   1       9.552   3.668  -4.092  0.00  0.00    -0.273 OA
ATOM     11  C   LIG d   1      10.004   3.552  -6.369  0.00  0.00     0.151 C 
ATOM     12  C   LIG d   1       9.882   5.050  -6.520  0.00  0.00     0.054 A 
ATOM     13  C   LIG d   1       9.564   5.652  -7.688  0.00  0.00    -0.008 A 
ATOM     14  C   LIG d   1       9.542   7.078  -7.439  0.00  0.00     0.004 A 
ATOM     15  C   LIG d   1       9.282   8.181  -8.257  0.00  0.00    -0.052 A 
ATOM     16  C   LIG d   1       9.351   9.421  -7.671  0.00  0.00    -0.061 A 
ATOM     17  C   LIG d   1       9.664   9.585  -6.332  0.00  0.00    -0.060 A 
ATOM     18  C   LIG d   1       9.927   8.512  -5.498  0.00  0.00    -0.038 A 
ATOM     19  C   LIG d   1       9.863   7.241  -6.066  0.00  0.00     0.047 A 
ATOM     20  N   LIG d   1      10.064   5.992  -5.545  0.00  0.00    -0.356 N 
ATOM     21  H   LIG d   1      10.296   5.803  -4.622  0.00  0.00     0.166 HD
ATOM     22  H   LIG d   1       9.420   2.886  -9.680  0.00  0.00     0.047 H 
ATOM     23  H   LIG d   1      10.927   3.516  -8.966  0.00  0.00     0.047 H 
ATOM     24  H   LIG d   1       6.963   1.322  -6.359  0.00  0.00     0.056 H 
ATOM     25  H   LIG d   1       8.390   0.291  -6.151  0.00  0.00     0.056 H 
ATOM     26  H   LIG d   1       9.037   8.063  -9.303  0.00  0.00     0.062 H 
ATOM     27  H   LIG d   1       9.155  10.296  -8.273  0.00  0.00     0.062 H 
ATOM     28  H   LIG d   1       9.704  10.585  -5.925  0.00  0.00     0.062 H 
ATOM     29  H   LIG d   1      10.170   8.653  -4.456  0.00  0.00     0.064 H 
ENDROOT
BRANCH   1  30
ATOM     30  C   LIG d   1       9.966   5.645 -10.117  0.00  0.00    -0.035 A 
ATOM     31  C   LIG d   1      11.310   5.959 -10.033  0.00  0.00    -0.054 A 
ATOM     32  C   LIG d   1      11.934   6.621 -11.075  0.00  0.00    -0.016 A 
ATOM     33  H   LIG d   1      11.873   5.688  -9.153  0.00  0.00     0.062 H 
ATOM     34  C   LIG d   1      11.213   6.970 -12.206  0.00  0.00     0.162 A 
ATOM     35  H   LIG d   1      12.984   6.864 -11.008  0.00  0.00     0.066 H 
ATOM     36  C   LIG d   1       9.859   6.658 -12.287  0.00  0.00     0.162 A 
ATOM     37  C   LIG d   1       9.241   5.990 -11.243  0.00  0.00    -0.013 A 
ATOM     38  H   LIG d   1       8.191   5.743 -11.306  0.00  0.00     0.066 H 
BRANCH  34  39
ATOM     39  O   LIG d   1      11.826   7.621 -13.230  0.00  0.00    -0.488 OA
BRANCH  39  40
ATOM     40  C   LIG d   1      12.484   8.849 -12.918  0.00  0.00     0.089 C 
ATOM     41  H   LIG d   1      13.134   9.135 -13.746  0.00  0.00     0.070 H 
ATOM     42  H   LIG d   1      13.080   8.722 -12.015  0.00  0.00     0.070 H 
BRANCH  40  43
ATOM     43  C   LIG d   1      11.439   9.944 -12.689  0.00  0.00    -0.021 C 
ATOM     44  H   LIG d   1      11.939  10.864 -12.386  0.00  0.00     0.029 H 
ATOM     45  H   LIG d   1      10.750   9.629 -11.905  0.00  0.00     0.029 H 
BRANCH  43  46
ATOM     46  C   LIG d   1      10.663  10.187 -13.984  0.00  0.00    -0.062 C 
ATOM     47  H   LIG d   1       9.593  10.137 -13.781  0.00  0.00     0.023 H 
ATOM     48  H   LIG d   1      10.912  11.172 -14.378  0.00  0.00     0.023 H 
ATOM     49  H   LIG d   1      10.929   9.425 -14.716  0.00  0.00     0.023 H 
ENDBRANCH  43  46
ENDBRANCH  40  43
ENDBRANCH  39  40
ENDBRANCH  34  39
BRANCH  36  50
ATOM     50  O   LIG d   1       9.145   7.004 -13.392  0.00  0.00    -0.491 OA
BRANCH  50  51
ATOM     51  C   LIG d   1       8.735   5.943 -14.258  0.00  0.00     0.079 C 
ATOM     52  H   LIG d   1       8.230   6.360 -15.128  0.00  0.00     0.066 H 
ATOM     53  H   LIG d   1       9.610   5.381 -14.581  0.00  0.00     0.066 H 
ATOM     54  H   LIG d   1       8.054   5.282 -13.723  0.00  0.00     0.066 H 
ENDBRANCH  50  51
ENDBRANCH  36  50
ENDBRANCH   1  30
BRANCH  11  55
ATOM     55  C   LIG d   1      11.490   3.202  -6.260  0.00  0.00    -0.029 C 
ATOM     56  H   LIG d   1      11.699   2.810  -5.264  0.00  0.00     0.026 H 
ATOM     57  H   LIG d   1      11.741   2.448  -7.006  0.00  0.00     0.026 H 
ATOM     58  H   LIG d   1      12.088   4.096  -6.431  0.00  0.00     0.026 H 
ENDBRANCH  11  55
BRANCH   8  59
ATOM     59  C   LIG d   1       7.828   1.734  -3.815  0.00  0.00     0.019 C 
ATOM     60  H   LIG d   1       8.521   1.972  -3.009  0.00  0.00     0.047 H 
ATOM     61  H   LIG d   1       6.906   2.300  -3.681  0.00  0.00     0.047 H 
BRANCH  59  62
ATOM     62  C   LIG d   1       7.514   0.236  -3.792  0.00  0.00    -0.009 C 
ATOM     63  H   LIG d   1       7.514  -0.150  -4.811  0.00  0.00     0.033 H 
ATOM     64  H   LIG d   1       8.271  -0.284  -3.205  0.00  0.00     0.033 H 
BRANCH  62  65
ATOM     65  C   LIG d   1       6.159   0.016  -3.173  0.00  0.00    -0.011 A 
ATOM     66  C   LIG d   1       5.668  -1.269  -3.017  0.00  0.00     0.127 A 
ATOM     67  C   LIG d   1       4.425  -1.470  -2.442  0.00  0.00    -0.026 A 
ATOM     68  F   LIG d   1       6.406  -2.327  -3.420  0.00  0.00    -0.205 F 
ATOM     69  C   LIG d   1       3.670  -0.387  -2.035  0.00  0.00    -0.059 A 
ATOM     70  H   LIG d   1       4.044  -2.472  -2.316  0.00  0.00     0.065 H 
ATOM     71  C   LIG d   1       4.157   0.896  -2.196  0.00  0.00    -0.061 A 
ATOM     72  H   LIG d   1       2.698  -0.544  -1.589  0.00  0.00     0.062 H 
ATOM     73  C   LIG d   1       5.401   1.098  -2.765  0.00  0.00    -0.056 A 
ATOM     74  H   LIG d   1       3.566   1.743  -1.876  0.00  0.00     0.062 H 
ATOM     75  H   LIG d   1       5.781   2.102  -2.890  0.00  0.00     0.062 H 
ENDBRANCH  62  65
ENDBRANCH  59  62
ENDBRANCH   8  59
TORSDOF 11
ENDMDL
MODEL 7
REMARK VINA RESULT:      -7.2      4.106     10.604
REMARK  11 active torsions:
REMARK  status: ('A' for Active; 'I' for Inactive)
REMARK    1  A    between atoms: C_1  and  C_2 
REMARK    2  A    between atoms: C_2  and  C_3 
REMARK    3  A    between atoms: C_3  and  O_4 
REMARK    4  A    between atoms: O_4  and  C_5 
REMARK    5  A    between atoms: C_8  and  C_13 
REMARK    6  A    between atoms: C_10  and  O_11 
REMARK    7  A    between atoms: O_11  and  C_12 
REMARK    8  A    between atoms: N_20  and  C_35 
REMARK    9  A    between atoms: C_23  and  C_34 
REMARK   10  A    between atoms: C_35  and  C_36 
REMARK   11  A    between atoms: C_36  and  C_37 
ROOT
ATOM      1  C   LIG d   1       9.742   6.236  -5.710  0.00  0.00     0.028 C 
ATOM      2  H   LIG d   1       8.664   6.344  -5.824  0.00  0.00     0.041 H 
ATOM      3  C   LIG d   1      10.267   5.227  -6.738  0.00  0.00     0.027 C 
ATOM      4  N   LIG d   1       9.900   3.867  -6.301  0.00  0.00    -0.280 N 
ATOM      5  C   LIG d   1       9.060   3.144  -7.046  0.00  0.00     0.234 C 
ATOM      6  O   LIG d   1       8.741   3.584  -8.131  0.00  0.00    -0.274 OA
ATOM      7  C   LIG d   1       8.488   1.827  -6.630  0.00  0.00     0.091 C 
ATOM      8  N   LIG d   1       8.910   1.444  -5.293  0.00  0.00    -0.290 N 
ATOM      9  C   LIG d   1       9.801   2.127  -4.575  0.00  0.00     0.245 C 
ATOM     10  O   LIG d   1      10.075   1.719  -3.467  0.00  0.00    -0.273 OA
ATOM     11  C   LIG d   1      10.481   3.366  -5.056  0.00  0.00     0.151 C 
ATOM     12  C   LIG d   1      10.383   4.461  -4.021  0.00  0.00     0.054 A 
ATOM     13  C   LIG d   1      10.053   5.737  -4.321  0.00  0.00    -0.008 A 
ATOM     14  C   LIG d   1      10.063   6.482  -3.080  0.00  0.00     0.004 A 
ATOM     15  C   LIG d   1       9.807   7.822  -2.775  0.00  0.00    -0.052 A 
ATOM     16  C   LIG d   1       9.910   8.191  -1.456  0.00  0.00    -0.061 A 
ATOM     17  C   LIG d   1      10.252   7.286  -0.464  0.00  0.00    -0.060 A 
ATOM     18  C   LIG d   1      10.511   5.955  -0.736  0.00  0.00    -0.038 A 
ATOM     19  C   LIG d   1      10.414   5.552  -2.067  0.00  0.00     0.047 A 
ATOM     20  N   LIG d   1      10.601   4.341  -2.675  0.00  0.00    -0.356 N 
ATOM     21  H   LIG d   1      10.848   3.520  -2.220  0.00  0.00     0.166 HD
ATOM     22  H   LIG d   1       9.820   5.431  -7.711  0.00  0.00     0.047 H 
ATOM     23  H   LIG d   1      11.352   5.308  -6.808  0.00  0.00     0.047 H 
ATOM     24  H   LIG d   1       7.400   1.890  -6.654  0.00  0.00     0.056 H 
ATOM     25  H   LIG d   1       8.812   1.062  -7.336  0.00  0.00     0.056 H 
ATOM     26  H   LIG d   1       9.540   8.535  -3.542  0.00  0.00     0.062 H 
ATOM     27  H   LIG d   1       9.718   9.218  -1.184  0.00  0.00     0.062 H 
ATOM     28  H   LIG d   1      10.319   7.633   0.557  0.00  0.00     0.062 H 
ATOM     29  H   LIG d   1      10.777   5.259   0.045  0.00  0.00     0.064 H 
ENDROOT
BRANCH   1  30
ATOM     30  C   LIG d   1      10.408   7.570  -5.927  0.00  0.00    -0.035 A 
ATOM     31  C   LIG d   1      11.772   7.632  -6.141  0.00  0.00    -0.054 A 
ATOM     32  C   LIG d   1      12.388   8.854  -6.341  0.00  0.00    -0.016 A 
ATOM     33  H   LIG d   1      12.358   6.726  -6.152  0.00  0.00     0.062 H 
ATOM     34  C   LIG d   1      11.638  10.019  -6.327  0.00  0.00     0.162 A 
ATOM     35  H   LIG d   1      13.454   8.900  -6.510  0.00  0.00     0.066 H 
ATOM     36  C   LIG d   1      10.265   9.956  -6.105  0.00  0.00     0.162 A 
ATOM     37  C   LIG d   1       9.653   8.728  -5.912  0.00  0.00    -0.013 A 
ATOM     38  H   LIG d   1       8.588   8.676  -5.745  0.00  0.00     0.066 H 
BRANCH  34  39
ATOM     39  O   LIG d   1      12.242  11.221  -6.524  0.00  0.00    -0.488 OA
BRANCH  39  40
ATOM     40  C   LIG d   1      12.959  11.395  -7.747  0.00  0.00     0.089 C 
ATOM     41  H   LIG d   1      13.509  10.482  -7.979  0.00  0.00     0.070 H 
ATOM     42  H   LIG d   1      13.659  12.223  -7.643  0.00  0.00     0.070 H 
BRANCH  40  43
ATOM     43  C   LIG d   1      11.974  11.699  -8.877  0.00  0.00    -0.021 C 
ATOM     44  H   LIG d   1      12.207  12.673  -9.309  0.00  0.00     0.029 H 
ATOM     45  H   LIG d   1      10.959  11.711  -8.481  0.00  0.00     0.029 H 
BRANCH  43  46
ATOM     46  C   LIG d   1      12.088  10.622  -9.957  0.00  0.00    -0.062 C 
ATOM     47  H   LIG d   1      13.140  10.417 -10.156  0.00  0.00     0.023 H 
ATOM     48  H   LIG d   1      11.599   9.710  -9.615  0.00  0.00     0.023 H 
ATOM     49  H   LIG d   1      11.607  10.972 -10.871  0.00  0.00     0.023 H 
ENDBRANCH  43  46
ENDBRANCH  40  43
ENDBRANCH  39  40
ENDBRANCH  34  39
BRANCH  36  50
ATOM     50  O   LIG d   1       9.525  11.097  -6.085  0.00  0.00    -0.491 OA
BRANCH  50  51
ATOM     51  C   LIG d   1       9.209  11.642  -4.802  0.00  0.00     0.079 C 
ATOM     52  H   LIG d   1       8.299  11.176  -4.424  0.00  0.00     0.066 H 
ATOM     53  H   LIG d   1      10.029  11.446  -4.113  0.00  0.00     0.066 H 
ATOM     54  H   LIG d   1       9.057  12.717  -4.892  0.00  0.00     0.066 H 
ENDBRANCH  50  51
ENDBRANCH  36  50
ENDBRANCH   1  30
BRANCH  11  55
ATOM     55  C   LIG d   1      11.962   3.059  -5.290  0.00  0.00    -0.029 C 
ATOM     56  H   LIG d   1      12.173   3.082  -6.360  0.00  0.00     0.026 H 
ATOM     57  H   LIG d   1      12.573   3.806  -4.784  0.00  0.00     0.026 H 
ATOM     58  H   LIG d   1      12.195   2.070  -4.895  0.00  0.00     0.026 H 
ENDBRANCH  11  55
BRANCH   8  59
ATOM     59  C   LIG d   1       8.322   0.240  -4.702  0.00  0.00     0.019 C 
ATOM     60  H   LIG d   1       8.868  -0.638  -5.046  0.00  0.00     0.047 H 
ATOM     61  H   LIG d   1       8.381   0.302  -3.616  0.00  0.00     0.047 H 
BRANCH  59  62
ATOM     62  C   LIG d   1       6.856   0.127  -5.127  0.00  0.00    -0.009 C 
ATOM     63  H   LIG d   1       6.560   1.033  -5.654  0.00  0.00     0.033 H 
ATOM     64  H   LIG d   1       6.734  -0.734  -5.786  0.00  0.00     0.033 H 
BRANCH  62  65
ATOM     65  C   LIG d   1       5.991  -0.049  -3.906  0.00  0.00    -0.011 A 
ATOM     66  C   LIG d   1       5.534  -1.308  -3.556  0.00  0.00     0.127 A 
ATOM     67  C   LIG d   1       4.744  -1.469  -2.431  0.00  0.00    -0.026 A 
ATOM     68  F   LIG d   1       5.865  -2.381  -4.309  0.00  0.00    -0.205 F 
ATOM     69  C   LIG d   1       4.402  -0.371  -1.665  0.00  0.00    -0.059 A 
ATOM     70  H   LIG d   1       4.391  -2.451  -2.154  0.00  0.00     0.065 H 
ATOM     71  C   LIG d   1       4.853   0.887  -2.018  0.00  0.00    -0.061 A 
ATOM     72  H   LIG d   1       3.783  -0.496  -0.789  0.00  0.00     0.062 H 
ATOM     73  C   LIG d   1       5.647   1.048  -3.139  0.00  0.00    -0.056 A 
ATOM     74  H   LIG d   1       4.586   1.745  -1.419  0.00  0.00     0.062 H 
ATOM     75  H   LIG d   1       5.999   2.032  -3.414  0.00  0.00     0.062 H 
ENDBRANCH  62  65
ENDBRANCH  59  62
ENDBRANCH   8  59
TORSDOF 11
ENDMDL
MODEL 8
REMARK VINA RESULT:      -7.0      3.608     10.491
REMARK  11 active torsions:
REMARK  status: ('A' for Active; 'I' for Inactive)
REMARK    1  A    between atoms: C_1  and  C_2 
REMARK    2  A    between atoms: C_2  and  C_3 
REMARK    3  A    between atoms: C_3  and  O_4 
REMARK    4  A    between atoms: O_4  and  C_5 
REMARK    5  A    between atoms: C_8  and  C_13 
REMARK    6  A    between atoms: C_10  and  O_11 
REMARK    7  A    between atoms: O_11  and  C_12 
REMARK    8  A    between atoms: N_20  and  C_35 
REMARK    9  A    between atoms: C_23  and  C_34 
REMARK   10  A    between atoms: C_35  and  C_36 
REMARK   11  A    between atoms: C_36  and  C_37 
ROOT
ATOM      1  C   LIG d   1       9.673   5.954  -5.963  0.00  0.00     0.028 C 
ATOM      2  H   LIG d   1       8.600   6.104  -6.078  0.00  0.00     0.041 H 
ATOM      3  C   LIG d   1      10.157   4.914  -6.980  0.00  0.00     0.027 C 
ATOM      4  N   LIG d   1       9.736   3.575  -6.528  0.00  0.00    -0.280 N 
ATOM      5  C   LIG d   1       8.868   2.877  -7.264  0.00  0.00     0.234 C 
ATOM      6  O   LIG d   1       8.566   3.317  -8.354  0.00  0.00    -0.274 OA
ATOM      7  C   LIG d   1       8.244   1.589  -6.833  0.00  0.00     0.091 C 
ATOM      8  N   LIG d   1       8.652   1.204  -5.491  0.00  0.00    -0.290 N 
ATOM      9  C   LIG d   1       9.569   1.860  -4.782  0.00  0.00     0.245 C 
ATOM     10  O   LIG d   1       9.828   1.454  -3.669  0.00  0.00    -0.273 OA
ATOM     11  C   LIG d   1      10.298   3.065  -5.277  0.00  0.00     0.151 C 
ATOM     12  C   LIG d   1      10.244   4.174  -4.254  0.00  0.00     0.054 A 
ATOM     13  C   LIG d   1       9.966   5.459  -4.569  0.00  0.00    -0.008 A 
ATOM     14  C   LIG d   1      10.006   6.218  -3.336  0.00  0.00     0.004 A 
ATOM     15  C   LIG d   1       9.803   7.570  -3.046  0.00  0.00    -0.052 A 
ATOM     16  C   LIG d   1       9.922   7.949  -1.732  0.00  0.00    -0.061 A 
ATOM     17  C   LIG d   1      10.229   7.044  -0.730  0.00  0.00    -0.060 A 
ATOM     18  C   LIG d   1      10.435   5.700  -0.987  0.00  0.00    -0.038 A 
ATOM     19  C   LIG d   1      10.320   5.286  -2.313  0.00  0.00     0.047 A 
ATOM     20  N   LIG d   1      10.459   4.061  -2.907  0.00  0.00    -0.356 N 
ATOM     21  H   LIG d   1      10.673   3.237  -2.443  0.00  0.00     0.166 HD
ATOM     22  H   LIG d   1       9.718   5.125  -7.955  0.00  0.00     0.047 H 
ATOM     23  H   LIG d   1      11.245   4.951  -7.051  0.00  0.00     0.047 H 
ATOM     24  H   LIG d   1       7.160   1.695  -6.857  0.00  0.00     0.056 H 
ATOM     25  H   LIG d   1       8.537   0.804  -7.530  0.00  0.00     0.056 H 
ATOM     26  H   LIG d   1       9.564   8.284  -3.822  0.00  0.00     0.062 H 
ATOM     27  H   LIG d   1       9.772   8.987  -1.471  0.00  0.00     0.062 H 
ATOM     28  H   LIG d   1      10.310   7.399   0.287  0.00  0.00     0.062 H 
ATOM     29  H   LIG d   1      10.674   5.003  -0.197  0.00  0.00     0.064 H 
ENDROOT
BRANCH   1  30
ATOM     30  C   LIG d   1      10.392   7.258  -6.196  0.00  0.00    -0.035 A 
ATOM     31  C   LIG d   1      11.753   7.262  -6.437  0.00  0.00    -0.054 A 
ATOM     32  C   LIG d   1      12.417   8.456  -6.652  0.00  0.00    -0.016 A 
ATOM     33  H   LIG d   1      12.299   6.331  -6.459  0.00  0.00     0.062 H 
ATOM     34  C   LIG d   1      11.718   9.652  -6.624  0.00  0.00     0.162 A 
ATOM     35  H   LIG d   1      13.480   8.456  -6.841  0.00  0.00     0.066 H 
ATOM     36  C   LIG d   1      10.348   9.648  -6.375  0.00  0.00     0.162 A 
ATOM     37  C   LIG d   1       9.688   8.448  -6.167  0.00  0.00    -0.013 A 
ATOM     38  H   LIG d   1       8.625   8.442  -5.979  0.00  0.00     0.066 H 
BRANCH  34  39
ATOM     39  O   LIG d   1      12.370  10.827  -6.835  0.00  0.00    -0.488 OA
BRANCH  39  40
ATOM     40  C   LIG d   1      13.436  11.147  -5.940  0.00  0.00     0.089 C 
ATOM     41  H   LIG d   1      14.152  11.795  -6.445  0.00  0.00     0.070 H 
ATOM     42  H   LIG d   1      13.934  10.230  -5.627  0.00  0.00     0.070 H 
BRANCH  40  43
ATOM     43  C   LIG d   1      12.873  11.866  -4.713  0.00  0.00    -0.021 C 
ATOM     44  H   LIG d   1      11.859  12.206  -4.924  0.00  0.00     0.029 H 
ATOM     45  H   LIG d   1      13.502  12.724  -4.475  0.00  0.00     0.029 H 
BRANCH  43  46
ATOM     46  C   LIG d   1      12.851  10.905  -3.523  0.00  0.00    -0.062 C 
ATOM     47  H   LIG d   1      13.803  10.375  -3.466  0.00  0.00     0.023 H 
ATOM     48  H   LIG d   1      12.693  11.467  -2.603  0.00  0.00     0.023 H 
ATOM     49  H   LIG d   1      12.043  10.185  -3.653  0.00  0.00     0.023 H 
ENDBRANCH  43  46
ENDBRANCH  40  43
ENDBRANCH  39  40
ENDBRANCH  34  39
BRANCH  36  50
ATOM     50  O   LIG d   1       9.659  10.820  -6.341  0.00  0.00    -0.491 OA
BRANCH  50  51
ATOM     51  C   LIG d   1       9.246  11.293  -5.057  0.00  0.00     0.079 C 
ATOM     52  H   LIG d   1       9.179  12.380  -5.074  0.00  0.00     0.066 H 
ATOM     53  H   LIG d   1       8.270  10.873  -4.813  0.00  0.00     0.066 H 
ATOM     54  H   LIG d   1       9.973  10.985  -4.306  0.00  0.00     0.066 H 
ENDBRANCH  50  51
ENDBRANCH  36  50
ENDBRANCH   1  30
BRANCH  11  55
ATOM     55  C   LIG d   1      11.766   2.696  -5.508  0.00  0.00    -0.029 C 
ATOM     56  H   LIG d   1      12.269   3.516  -6.021  0.00  0.00     0.026 H 
ATOM     57  H   LIG d   1      12.250   2.517  -4.548  0.00  0.00     0.026 H 
ATOM     58  H   LIG d   1      11.822   1.796  -6.118  0.00  0.00     0.026 H 
ENDBRANCH  11  55
BRANCH   8  59
ATOM     59  C   LIG d   1       8.016   0.032  -4.886  0.00  0.00     0.019 C 
ATOM     60  H   LIG d   1       8.496  -0.873  -5.257  0.00  0.00     0.047 H 
ATOM     61  H   LIG d   1       8.120   0.080  -3.802  0.00  0.00     0.047 H 
BRANCH  59  62
ATOM     62  C   LIG d   1       6.531   0.009  -5.255  0.00  0.00    -0.009 C 
ATOM     63  H   LIG d   1       6.222   1.002  -5.579  0.00  0.00     0.033 H 
ATOM     64  H   LIG d   1       6.369  -0.704  -6.064  0.00  0.00     0.033 H 
BRANCH  62  65
ATOM     65  C   LIG d   1       5.721  -0.403  -4.054  0.00  0.00    -0.011 A 
ATOM     66  C   LIG d   1       5.476   0.507  -3.039  0.00  0.00     0.127 A 
ATOM     67  C   LIG d   1       4.726   0.130  -1.938  0.00  0.00    -0.026 A 
ATOM     68  F   LIG d   1       5.963   1.765  -3.127  0.00  0.00    -0.205 F 
ATOM     69  C   LIG d   1       4.233  -1.158  -1.848  0.00  0.00    -0.059 A 
ATOM     70  H   LIG d   1       4.530   0.839  -1.148  0.00  0.00     0.065 H 
ATOM     71  C   LIG d   1       4.483  -2.068  -2.858  0.00  0.00    -0.061 A 
ATOM     72  H   LIG d   1       3.651  -1.454  -0.987  0.00  0.00     0.062 H 
ATOM     73  C   LIG d   1       5.227  -1.690  -3.960  0.00  0.00    -0.056 A 
ATOM     74  H   LIG d   1       4.096  -3.074  -2.787  0.00  0.00     0.062 H 
ATOM     75  H   LIG d   1       5.421  -2.402  -4.750  0.00  0.00     0.062 H 
ENDBRANCH  62  65
ENDBRANCH  59  62
ENDBRANCH   8  59
TORSDOF 11
ENDMDL
MODEL 9
REMARK VINA RESULT:      -7.0      6.161      9.505
REMARK  11 active torsions:
REMARK  status: ('A' for Active; 'I' for Inactive)
REMARK    1  A    between atoms: C_1  and  C_2 
REMARK    2  A    between atoms: C_2  and  C_3 
REMARK    3  A    between atoms: C_3  and  O_4 
REMARK    4  A    between atoms: O_4  and  C_5 
REMARK    5  A    between atoms: C_8  and  C_13 
REMARK    6  A    between atoms: C_10  and  O_11 
REMARK    7  A    between atoms: O_11  and  C_12 
REMARK    8  A    between atoms: N_20  and  C_35 
REMARK    9  A    between atoms: C_23  and  C_34 
REMARK   10  A    between atoms: C_35  and  C_36 
REMARK   11  A    between atoms: C_36  and  C_37 
ROOT
ATOM      1  C   LIG d   1       9.984  -7.473  -1.648  0.00  0.00     0.028 C 
ATOM      2  H   LIG d   1       9.575  -6.849  -0.853  0.00  0.00     0.041 H 
ATOM      3  C   LIG d   1      10.802  -6.606  -2.611  0.00  0.00     0.027 C 
ATOM      4  N   LIG d   1       9.876  -5.825  -3.452  0.00  0.00    -0.280 N 
ATOM      5  C   LIG d   1       9.867  -4.493  -3.355  0.00  0.00     0.234 C 
ATOM      6  O   LIG d   1      10.725  -3.968  -2.677  0.00  0.00    -0.274 OA
ATOM      7  C   LIG d   1       8.868  -3.607  -4.028  0.00  0.00     0.091 C 
ATOM      8  N   LIG d   1       7.870  -4.367  -4.764  0.00  0.00    -0.290 N 
ATOM      9  C   LIG d   1       7.916  -5.689  -4.920  0.00  0.00     0.245 C 
ATOM     10  O   LIG d   1       7.026  -6.221  -5.548  0.00  0.00    -0.273 OA
ATOM     11  C   LIG d   1       8.999  -6.555  -4.367  0.00  0.00     0.151 C 
ATOM     12  C   LIG d   1       8.410  -7.725  -3.616  0.00  0.00     0.054 A 
ATOM     13  C   LIG d   1       8.856  -8.128  -2.405  0.00  0.00    -0.008 A 
ATOM     14  C   LIG d   1       8.053  -9.267  -2.013  0.00  0.00     0.004 A 
ATOM     15  C   LIG d   1       8.056 -10.086  -0.881  0.00  0.00    -0.052 A 
ATOM     16  C   LIG d   1       7.128 -11.098  -0.842  0.00  0.00    -0.061 A 
ATOM     17  C   LIG d   1       6.226 -11.309  -1.872  0.00  0.00    -0.060 A 
ATOM     18  C   LIG d   1       6.201 -10.514  -3.005  0.00  0.00    -0.038 A 
ATOM     19  C   LIG d   1       7.131  -9.479  -3.071  0.00  0.00     0.047 A 
ATOM     20  N   LIG d   1       7.379  -8.528  -4.023  0.00  0.00    -0.356 N 
ATOM     21  H   LIG d   1       6.895  -8.435  -4.858  0.00  0.00     0.166 HD
ATOM     22  H   LIG d   1      11.438  -5.928  -2.041  0.00  0.00     0.047 H 
ATOM     23  H   LIG d   1      11.420  -7.245  -3.243  0.00  0.00     0.047 H 
ATOM     24  H   LIG d   1       8.368  -3.001  -3.274  0.00  0.00     0.056 H 
ATOM     25  H   LIG d   1       9.392  -2.948  -4.721  0.00  0.00     0.056 H 
ATOM     26  H   LIG d   1       8.756  -9.930  -0.072  0.00  0.00     0.062 H 
ATOM     27  H   LIG d   1       7.101 -11.750   0.018  0.00  0.00     0.062 H 
ATOM     28  H   LIG d   1       5.520 -12.121  -1.788  0.00  0.00     0.062 H 
ATOM     29  H   LIG d   1       5.493 -10.689  -3.802  0.00  0.00     0.064 H 
ENDROOT
BRANCH   1  30
ATOM     30  C   LIG d   1      10.871  -8.534  -1.048  0.00  0.00    -0.035 A 
ATOM     31  C   LIG d   1      11.543  -9.417  -1.872  0.00  0.00    -0.054 A 
ATOM     32  C   LIG d   1      12.358 -10.392  -1.326  0.00  0.00    -0.016 A 
ATOM     33  H   LIG d   1      11.432  -9.345  -2.943  0.00  0.00     0.062 H 
ATOM     34  C   LIG d   1      12.502 -10.485   0.048  0.00  0.00     0.162 A 
ATOM     35  H   LIG d   1      12.884 -11.079  -1.972  0.00  0.00     0.066 H 
ATOM     36  C   LIG d   1      11.820  -9.600   0.878  0.00  0.00     0.162 A 
ATOM     37  C   LIG d   1      11.009  -8.622   0.325  0.00  0.00    -0.013 A 
ATOM     38  H   LIG d   1      10.483  -7.930   0.966  0.00  0.00     0.066 H 
BRANCH  34  39
ATOM     39  O   LIG d   1      13.303 -11.444   0.586  0.00  0.00    -0.488 OA
BRANCH  39  40
ATOM     40  C   LIG d   1      12.960 -12.803   0.315  0.00  0.00     0.089 C 
ATOM     41  H   LIG d   1      13.796 -13.450   0.583  0.00  0.00     0.070 H 
ATOM     42  H   LIG d   1      12.738 -12.917  -0.746  0.00  0.00     0.070 H 
BRANCH  40  43
ATOM     43  C   LIG d   1      11.730 -13.193   1.137  0.00  0.00    -0.021 C 
ATOM     44  H   LIG d   1      11.170 -13.965   0.609  0.00  0.00     0.029 H 
ATOM     45  H   LIG d   1      11.097 -12.318   1.280  0.00  0.00     0.029 H 
BRANCH  43  46
ATOM     46  C   LIG d   1      12.175 -13.729   2.500  0.00  0.00    -0.062 C 
ATOM     47  H   LIG d   1      11.894 -14.778   2.587  0.00  0.00     0.023 H 
ATOM     48  H   LIG d   1      13.257 -13.632   2.592  0.00  0.00     0.023 H 
ATOM     49  H   LIG d   1      11.690 -13.156   3.291  0.00  0.00     0.023 H 
ENDBRANCH  43  46
ENDBRANCH  40  43
ENDBRANCH  39  40
ENDBRANCH  34  39
BRANCH  36  50
ATOM     50  O   LIG d   1      11.953  -9.692   2.229  0.00  0.00    -0.491 OA
BRANCH  50  51
ATOM     51  C   LIG d   1      11.233  -8.741   3.017  0.00  0.00     0.079 C 
ATOM     52  H   LIG d   1      10.203  -9.075   3.138  0.00  0.00     0.066 H 
ATOM     53  H   LIG d   1      11.703  -8.652   3.996  0.00  0.00     0.066 H 
ATOM     54  H   LIG d   1      11.245  -7.773   2.518  0.00  0.00     0.066 H 
ENDBRANCH  50  51
ENDBRANCH  36  50
ENDBRANCH   1  30
BRANCH  11  55
ATOM     55  C   LIG d   1       9.837  -7.101  -5.525  0.00  0.00    -0.029 C 
ATOM     56  H   LIG d   1       9.176  -7.518  -6.286  0.00  0.00     0.026 H 
ATOM     57  H   LIG d   1      10.425  -6.293  -5.960  0.00  0.00     0.026 H 
ATOM     58  H   LIG d   1      10.504  -7.879  -5.157  0.00  0.00     0.026 H 
ENDBRANCH  11  55
BRANCH   8  59
ATOM     59  C   LIG d   1       6.752  -3.636  -5.365  0.00  0.00     0.019 C 
ATOM     60  H   LIG d   1       6.758  -3.788  -6.444  0.00  0.00     0.047 H 
ATOM     61  H   LIG d   1       5.813  -4.004  -4.951  0.00  0.00     0.047 H 
BRANCH  59  62
ATOM     62  C   LIG d   1       6.894  -2.144  -5.058  0.00  0.00    -0.009 C 
ATOM     63  H   LIG d   1       7.907  -1.939  -4.712  0.00  0.00     0.033 H 
ATOM     64  H   LIG d   1       6.695  -1.567  -5.962  0.00  0.00     0.033 H 
BRANCH  62  65
ATOM     65  C   LIG d   1       5.909  -1.754  -3.987  0.00  0.00    -0.011 A 
ATOM     66  C   LIG d   1       6.081  -0.575  -3.283  0.00  0.00     0.127 A 
ATOM     67  C   LIG d   1       5.173  -0.216  -2.302  0.00  0.00    -0.026 A 
ATOM     68  F   LIG d   1       7.134   0.228  -3.557  0.00  0.00    -0.205 F 
ATOM     69  C   LIG d   1       4.101  -1.040  -2.019  0.00  0.00    -0.059 A 
ATOM     70  H   LIG d   1       5.304   0.706  -1.755  0.00  0.00     0.065 H 
ATOM     71  C   LIG d   1       3.933  -2.221  -2.718  0.00  0.00    -0.061 A 
ATOM     72  H   LIG d   1       3.394  -0.762  -1.252  0.00  0.00     0.062 H 
ATOM     73  C   LIG d   1       4.836  -2.578  -3.701  0.00  0.00    -0.056 A 
ATOM     74  H   LIG d   1       3.094  -2.865  -2.497  0.00  0.00     0.062 H 
ATOM     75  H   LIG d   1       4.704  -3.501  -4.248  0.00  0.00     0.062 H 
ENDBRANCH  62  65
ENDBRANCH  59  62
ENDBRANCH   8  59
TORSDOF 11
ENDMDL
