MODEL 1
REMARK VINA RESULT:      -6.3      0.000      0.000
REMARK  4 active torsions:
REMARK  status: ('A' for Active; 'I' for Inactive)
REMARK    1  A    between atoms: C_1  and  C_2 
REMARK    2  A    between atoms: C_2  and  C_3 
REMARK    3  A    between atoms: C_8  and  O_9 
REMARK    4  A    between atoms: C_12  and  C_15 
ROOT
ATOM      1  C   LIG d   1       3.013  -1.420 -10.374  0.00  0.00    -0.005 A 
ATOM      2  C   LIG d   1       3.063  -0.653  -9.244  0.00  0.00    -0.041 A 
ATOM      3  C   LIG d   1       3.591  -1.188  -8.069  0.00  0.00     0.065 A 
ATOM      4  C   LIG d   1       4.071  -2.510  -8.041  0.00  0.00     0.142 A 
ATOM      5  C   LIG d   1       4.012  -3.274  -9.198  0.00  0.00     0.023 A 
ATOM      6  C   LIG d   1       3.480  -2.731 -10.355  0.00  0.00     0.123 A 
ATOM      7  O   LIG d   1       4.582  -3.024  -6.904  0.00  0.00    -0.462 OA
ATOM      8  C   LIG d   1       4.665  -2.339  -5.762  0.00  0.00     0.104 A 
ATOM      9  C   LIG d   1       4.239  -1.054  -5.647  0.00  0.00     0.066 A 
ATOM     10  C   LIG d   1       3.662  -0.392  -6.830  0.00  0.00     0.200 A 
ATOM     11  O   LIG d   1       3.263   0.759  -6.787  0.00  0.00    -0.286 OA
ATOM     12  H   LIG d   1       2.695   0.362  -9.260  0.00  0.00     0.063 H 
ATOM     13  H   LIG d   1       4.376  -4.291  -9.194  0.00  0.00     0.069 H 
ATOM     14  H   LIG d   1       5.088  -2.824  -4.894  0.00  0.00     0.104 H 
ENDROOT
BRANCH   9  15
ATOM     15  C   LIG d   1       4.353  -0.331  -4.357  0.00  0.00     0.007 A 
ATOM     16  C   LIG d   1       5.559   0.270  -3.995  0.00  0.00     0.049 A 
ATOM     17  C   LIG d   1       5.658   0.945  -2.795  0.00  0.00    -0.043 A 
ATOM     18 CL   LIG d   1       6.930   0.173  -5.056  0.00  0.00    -0.083 Cl
ATOM     19  C   LIG d   1       4.567   1.018  -1.948  0.00  0.00    -0.060 A 
ATOM     20  H   LIG d   1       6.589   1.415  -2.515  0.00  0.00     0.063 H 
ATOM     21  C   LIG d   1       3.369   0.420  -2.300  0.00  0.00    -0.061 A 
ATOM     22  H   LIG d   1       4.648   1.544  -1.009  0.00  0.00     0.062 H 
ATOM     23  C   LIG d   1       3.258  -0.254  -3.499  0.00  0.00    -0.052 A 
ATOM     24  H   LIG d   1       2.521   0.480  -1.634  0.00  0.00     0.062 H 
ATOM     25  H   LIG d   1       2.323  -0.721  -3.772  0.00  0.00     0.062 H 
ENDBRANCH   9  15
BRANCH   1  26
ATOM     26  C   LIG d   1       2.443  -0.844 -11.645  0.00  0.00    -0.027 C 
ATOM     27  H   LIG d   1       2.928  -1.317 -12.511  0.00  0.00     0.031 H 
ATOM     28  H   LIG d   1       2.624   0.240 -11.669  0.00  0.00     0.031 H 
BRANCH  26  29
ATOM     29  C   LIG d   1       0.937  -1.111 -11.695  0.00  0.00    -0.061 C 
ATOM     30  H   LIG d   1       0.392  -0.164 -11.567  0.00  0.00     0.023 H 
ATOM     31  H   LIG d   1       0.660  -1.805 -10.888  0.00  0.00     0.023 H 
ATOM     32  H   LIG d   1       0.676  -1.555 -12.667  0.00  0.00     0.023 H 
ENDBRANCH  26  29
ENDBRANCH   1  26
BRANCH   6  33
ATOM     33  O   LIG d   1       3.419  -3.483 -11.484  0.00  0.00    -0.506 OA
ATOM     34  H   LIG d   1       3.678  -4.552 -11.448  0.00  0.00     0.292 HD
ENDBRANCH   6  33
TORSDOF 4
ENDMDL
MODEL 2
REMARK VINA RESULT:      -6.1      4.278      7.173
REMARK  4 active torsions:
REMARK  status: ('A' for Active; 'I' for Inactive)
REMARK    1  A    between atoms: C_1  and  C_2 
REMARK    2  A    between atoms: C_2  and  C_3 
REMARK    3  A    between atoms: C_8  and  O_9 
REMARK    4  A    between atoms: C_12  and  C_15 
ROOT
ATOM      1  C   LIG d   1       5.511  -0.021  -2.898  0.00  0.00    -0.005 A 
ATOM      2  C   LIG d   1       5.057  -1.270  -3.216  0.00  0.00    -0.041 A 
ATOM      3  C   LIG d   1       5.714  -2.015  -4.195  0.00  0.00     0.065 A 
ATOM      4  C   LIG d   1       6.838  -1.489  -4.855  0.00  0.00     0.142 A 
ATOM      5  C   LIG d   1       7.286  -0.219  -4.520  0.00  0.00     0.023 A 
ATOM      6  C   LIG d   1       6.621   0.511  -3.550  0.00  0.00     0.123 A 
ATOM      7  O   LIG d   1       7.472  -2.212  -5.801  0.00  0.00    -0.462 OA
ATOM      8  C   LIG d   1       7.090  -3.438  -6.165  0.00  0.00     0.104 A 
ATOM      9  C   LIG d   1       6.020  -4.066  -5.610  0.00  0.00     0.066 A 
ATOM     10  C   LIG d   1       5.253  -3.366  -4.565  0.00  0.00     0.200 A 
ATOM     11  O   LIG d   1       4.285  -3.879  -4.032  0.00  0.00    -0.286 OA
ATOM     12  H   LIG d   1       4.194  -1.677  -2.713  0.00  0.00     0.063 H 
ATOM     13  H   LIG d   1       8.148   0.200  -5.017  0.00  0.00     0.069 H 
ATOM     14  H   LIG d   1       7.652  -3.951  -6.932  0.00  0.00     0.104 H 
ENDROOT
BRANCH   9  15
ATOM     15  C   LIG d   1       5.633  -5.429  -6.047  0.00  0.00     0.007 A 
ATOM     16  C   LIG d   1       4.653  -5.599  -7.025  0.00  0.00     0.049 A 
ATOM     17  C   LIG d   1       4.300  -6.871  -7.431  0.00  0.00    -0.043 A 
ATOM     18 CL   LIG d   1       3.884  -4.213  -7.734  0.00  0.00    -0.083 Cl
ATOM     19  C   LIG d   1       4.909  -7.975  -6.863  0.00  0.00    -0.060 A 
ATOM     20  H   LIG d   1       3.544  -7.004  -8.192  0.00  0.00     0.063 H 
ATOM     21  C   LIG d   1       5.879  -7.812  -5.889  0.00  0.00    -0.061 A 
ATOM     22  H   LIG d   1       4.628  -8.967  -7.181  0.00  0.00     0.062 H 
ATOM     23  C   LIG d   1       6.243  -6.546  -5.479  0.00  0.00    -0.052 A 
ATOM     24  H   LIG d   1       6.351  -8.677  -5.449  0.00  0.00     0.062 H 
ATOM     25  H   LIG d   1       6.999  -6.420  -4.718  0.00  0.00     0.062 H 
ENDBRANCH   9  15
BRANCH   1  26
ATOM     26  C   LIG d   1       4.804   0.787  -1.841  0.00  0.00    -0.027 C 
ATOM     27  H   LIG d   1       5.469   1.586  -1.483  0.00  0.00     0.031 H 
ATOM     28  H   LIG d   1       4.532   0.132  -0.999  0.00  0.00     0.031 H 
BRANCH  26  29
ATOM     29  C   LIG d   1       3.536   1.406  -2.434  0.00  0.00    -0.061 C 
ATOM     30  H   LIG d   1       3.689   1.597  -3.506  0.00  0.00     0.023 H 
ATOM     31  H   LIG d   1       3.316   2.353  -1.920  0.00  0.00     0.023 H 
ATOM     32  H   LIG d   1       2.693   0.712  -2.301  0.00  0.00     0.023 H 
ENDBRANCH  26  29
ENDBRANCH   1  26
BRANCH   6  33
ATOM     33  O   LIG d   1       7.057   1.756  -3.227  0.00  0.00    -0.506 OA
ATOM     34  H   LIG d   1       8.130   1.996  -3.289  0.00  0.00     0.292 HD
ENDBRANCH   6  33
TORSDOF 4
ENDMDL
MODEL 3
REMARK VINA RESULT:      -6.1      4.177      6.701
REMARK  4 active torsions:
REMARK  status: ('A' for Active; 'I' for Inactive)
REMARK    1  A    between atoms: C_1  and  C_2 
REMARK    2  A    between atoms: C_2  and  C_3 
REMARK    3  A    between atoms: C_8  and  O_9 
REMARK    4  A    between atoms: C_12  and  C_15 
ROOT
ATOM      1  C   LIG d   1       9.740  -4.444  -3.732  0.00  0.00    -0.005 A 
ATOM      2  C   LIG d   1       8.865  -3.399  -3.640  0.00  0.00    -0.041 A 
ATOM      3  C   LIG d   1       7.608  -3.495  -4.239  0.00  0.00     0.065 A 
ATOM      4  C   LIG d   1       7.239  -4.660  -4.935  0.00  0.00     0.142 A 
ATOM      5  C   LIG d   1       8.141  -5.712  -5.018  0.00  0.00     0.023 A 
ATOM      6  C   LIG d   1       9.386  -5.599  -4.424  0.00  0.00     0.123 A 
ATOM      7  O   LIG d   1       6.024  -4.751  -5.513  0.00  0.00    -0.462 OA
ATOM      8  C   LIG d   1       5.115  -3.774  -5.466  0.00  0.00     0.104 A 
ATOM      9  C   LIG d   1       5.340  -2.596  -4.828  0.00  0.00     0.066 A 
ATOM     10  C   LIG d   1       6.637  -2.388  -4.162  0.00  0.00     0.200 A 
ATOM     11  O   LIG d   1       6.895  -1.352  -3.574  0.00  0.00    -0.286 OA
ATOM     12  H   LIG d   1       9.144  -2.502  -3.108  0.00  0.00     0.063 H 
ATOM     13  H   LIG d   1       7.874  -6.613  -5.549  0.00  0.00     0.069 H 
ATOM     14  H   LIG d   1       4.164  -3.926  -5.955  0.00  0.00     0.104 H 
ENDROOT
BRANCH   9  15
ATOM     15  C   LIG d   1       4.300  -1.540  -4.802  0.00  0.00     0.007 A 
ATOM     16  C   LIG d   1       3.529  -1.344  -3.655  0.00  0.00     0.049 A 
ATOM     17  C   LIG d   1       2.565  -0.355  -3.636  0.00  0.00    -0.043 A 
ATOM     18 CL   LIG d   1       3.787  -2.338  -2.255  0.00  0.00    -0.083 Cl
ATOM     19  C   LIG d   1       2.356   0.433  -4.752  0.00  0.00    -0.060 A 
ATOM     20  H   LIG d   1       1.970  -0.200  -2.747  0.00  0.00     0.063 H 
ATOM     21  C   LIG d   1       3.114   0.240  -5.894  0.00  0.00    -0.061 A 
ATOM     22  H   LIG d   1       1.599   1.203  -4.734  0.00  0.00     0.062 H 
ATOM     23  C   LIG d   1       4.084  -0.741  -5.924  0.00  0.00    -0.052 A 
ATOM     24  H   LIG d   1       2.947   0.858  -6.763  0.00  0.00     0.062 H 
ATOM     25  H   LIG d   1       4.674  -0.892  -6.816  0.00  0.00     0.062 H 
ENDBRANCH   9  15
BRANCH   1  26
ATOM     26  C   LIG d   1      11.098  -4.343  -3.086  0.00  0.00    -0.027 C 
ATOM     27  H   LIG d   1      11.593  -5.324  -3.117  0.00  0.00     0.031 H 
ATOM     28  H   LIG d   1      10.983  -4.023  -2.039  0.00  0.00     0.031 H 
BRANCH  26  29
ATOM     29  C   LIG d   1      11.947  -3.319  -3.841  0.00  0.00    -0.061 C 
ATOM     30  H   LIG d   1      11.321  -2.795  -4.578  0.00  0.00     0.023 H 
ATOM     31  H   LIG d   1      12.769  -3.835  -4.359  0.00  0.00     0.023 H 
ATOM     32  H   LIG d   1      12.363  -2.590  -3.129  0.00  0.00     0.023 H 
ENDBRANCH  26  29
ENDBRANCH   1  26
BRANCH   6  33
ATOM     33  O   LIG d   1      10.268  -6.627  -4.511  0.00  0.00    -0.506 OA
ATOM     34  H   LIG d   1      10.261  -7.424  -3.751  0.00  0.00     0.292 HD
ENDBRANCH   6  33
TORSDOF 4
ENDMDL
MODEL 4
REMARK VINA RESULT:      -6.1      2.120      6.959
REMARK  4 active torsions:
REMARK  status: ('A' for Active; 'I' for Inactive)
REMARK    1  A    between atoms: C_1  and  C_2 
REMARK    2  A    between atoms: C_2  and  C_3 
REMARK    3  A    between atoms: C_8  and  O_9 
REMARK    4  A    between atoms: C_12  and  C_15 
ROOT
ATOM      1  C   LIG d   1       3.991  -0.399  -3.502  0.00  0.00    -0.005 A 
ATOM      2  C   LIG d   1       4.063  -0.877  -4.780  0.00  0.00    -0.041 A 
ATOM      3  C   LIG d   1       3.577  -0.105  -5.835  0.00  0.00     0.065 A 
ATOM      4  C   LIG d   1       3.013   1.159  -5.590  0.00  0.00     0.142 A 
ATOM      5  C   LIG d   1       2.948   1.629  -4.286  0.00  0.00     0.023 A 
ATOM      6  C   LIG d   1       3.430   0.849  -3.249  0.00  0.00     0.123 A 
ATOM      7  O   LIG d   1       2.544   1.904  -6.612  0.00  0.00    -0.462 OA
ATOM      8  C   LIG d   1       2.580   1.507  -7.886  0.00  0.00     0.104 A 
ATOM      9  C   LIG d   1       3.096   0.308  -8.264  0.00  0.00     0.066 A 
ATOM     10  C   LIG d   1       3.638  -0.587  -7.227  0.00  0.00     0.200 A 
ATOM     11  O   LIG d   1       4.113  -1.674  -7.506  0.00  0.00    -0.286 OA
ATOM     12  H   LIG d   1       4.494  -1.848  -4.973  0.00  0.00     0.063 H 
ATOM     13  H   LIG d   1       2.518   2.598  -4.080  0.00  0.00     0.069 H 
ATOM     14  H   LIG d   1       2.183   2.164  -8.646  0.00  0.00     0.104 H 
ENDROOT
BRANCH   9  15
ATOM     15  C   LIG d   1       3.116  -0.090  -9.692  0.00  0.00     0.007 A 
ATOM     16  C   LIG d   1       4.214   0.226 -10.492  0.00  0.00     0.049 A 
ATOM     17  C   LIG d   1       4.229  -0.152 -11.820  0.00  0.00    -0.043 A 
ATOM     18 CL   LIG d   1       5.562   1.088  -9.817  0.00  0.00    -0.083 Cl
ATOM     19  C   LIG d   1       3.154  -0.834 -12.359  0.00  0.00    -0.060 A 
ATOM     20  H   LIG d   1       5.080   0.089 -12.440  0.00  0.00     0.063 H 
ATOM     21  C   LIG d   1       2.059  -1.146 -11.571  0.00  0.00    -0.061 A 
ATOM     22  H   LIG d   1       3.167  -1.125 -13.399  0.00  0.00     0.062 H 
ATOM     23  C   LIG d   1       2.036  -0.778 -10.242  0.00  0.00    -0.052 A 
ATOM     24  H   LIG d   1       1.223  -1.679 -11.998  0.00  0.00     0.062 H 
ATOM     25  H   LIG d   1       1.181  -1.021  -9.628  0.00  0.00     0.062 H 
ENDBRANCH   9  15
BRANCH   1  26
ATOM     26  C   LIG d   1       4.516  -1.231  -2.360  0.00  0.00    -0.027 C 
ATOM     27  H   LIG d   1       4.380  -0.684  -1.415  0.00  0.00     0.031 H 
ATOM     28  H   LIG d   1       5.586  -1.434  -2.516  0.00  0.00     0.031 H 
BRANCH  26  29
ATOM     29  C   LIG d   1       3.750  -2.554  -2.298  0.00  0.00    -0.061 C 
ATOM     30  H   LIG d   1       3.933  -3.128  -3.219  0.00  0.00     0.023 H 
ATOM     31  H   LIG d   1       2.674  -2.351  -2.201  0.00  0.00     0.023 H 
ATOM     32  H   LIG d   1       4.094  -3.136  -1.430  0.00  0.00     0.023 H 
ENDBRANCH  26  29
ENDBRANCH   1  26
BRANCH   6  33
ATOM     33  O   LIG d   1       3.360   1.309  -1.973  0.00  0.00    -0.506 OA
ATOM     34  H   LIG d   1       4.190   1.898  -1.554  0.00  0.00     0.292 HD
ENDBRANCH   6  33
TORSDOF 4
ENDMDL
MODEL 5
REMARK VINA RESULT:      -5.9      2.755      4.208
REMARK  4 active torsions:
REMARK  status: ('A' for Active; 'I' for Inactive)
REMARK    1  A    between atoms: C_1  and  C_2 
REMARK    2  A    between atoms: C_2  and  C_3 
REMARK    3  A    between atoms: C_8  and  O_9 
REMARK    4  A    between atoms: C_12  and  C_15 
ROOT
ATOM      1  C   LIG d   1       4.769  -6.325  -6.807  0.00  0.00    -0.005 A 
ATOM      2  C   LIG d   1       4.622  -5.483  -5.740  0.00  0.00    -0.041 A 
ATOM      3  C   LIG d   1       4.683  -4.103  -5.936  0.00  0.00     0.065 A 
ATOM      4  C   LIG d   1       4.894  -3.576  -7.222  0.00  0.00     0.142 A 
ATOM      5  C   LIG d   1       5.042  -4.446  -8.293  0.00  0.00     0.023 A 
ATOM      6  C   LIG d   1       4.985  -5.813  -8.083  0.00  0.00     0.123 A 
ATOM      7  O   LIG d   1       4.952  -2.241  -7.409  0.00  0.00    -0.462 OA
ATOM      8  C   LIG d   1       4.817  -1.356  -6.419  0.00  0.00     0.104 A 
ATOM      9  C   LIG d   1       4.609  -1.728  -5.129  0.00  0.00     0.066 A 
ATOM     10  C   LIG d   1       4.529  -3.164  -4.810  0.00  0.00     0.200 A 
ATOM     11  O   LIG d   1       4.343  -3.556  -3.672  0.00  0.00    -0.286 OA
ATOM     12  H   LIG d   1       4.460  -5.884  -4.751  0.00  0.00     0.063 H 
ATOM     13  H   LIG d   1       5.205  -4.057  -9.288  0.00  0.00     0.069 H 
ATOM     14  H   LIG d   1       4.876  -0.303  -6.652  0.00  0.00     0.104 H 
ENDROOT
BRANCH   9  15
ATOM     15  C   LIG d   1       4.464  -0.708  -4.062  0.00  0.00     0.007 A 
ATOM     16  C   LIG d   1       5.592  -0.222  -3.400  0.00  0.00     0.049 A 
ATOM     17  C   LIG d   1       5.451   0.731  -2.411  0.00  0.00    -0.043 A 
ATOM     18 CL   LIG d   1       7.169  -0.811  -3.824  0.00  0.00    -0.083 Cl
ATOM     19  C   LIG d   1       4.194   1.197  -2.070  0.00  0.00    -0.060 A 
ATOM     20  H   LIG d   1       6.323   1.111  -1.900  0.00  0.00     0.063 H 
ATOM     21  C   LIG d   1       3.071   0.715  -2.720  0.00  0.00    -0.061 A 
ATOM     22  H   LIG d   1       4.087   1.939  -1.294  0.00  0.00     0.062 H 
ATOM     23  C   LIG d   1       3.200  -0.234  -3.713  0.00  0.00    -0.052 A 
ATOM     24  H   LIG d   1       2.092   1.081  -2.449  0.00  0.00     0.062 H 
ATOM     25  H   LIG d   1       2.324  -0.611  -4.219  0.00  0.00     0.062 H 
ENDBRANCH   9  15
BRANCH   1  26
ATOM     26  C   LIG d   1       4.704  -7.816  -6.598  0.00  0.00    -0.027 C 
ATOM     27  H   LIG d   1       5.368  -8.317  -7.318  0.00  0.00     0.031 H 
ATOM     28  H   LIG d   1       3.671  -8.163  -6.750  0.00  0.00     0.031 H 
BRANCH  26  29
ATOM     29  C   LIG d   1       5.150  -8.153  -5.173  0.00  0.00    -0.061 C 
ATOM     30  H   LIG d   1       4.475  -8.909  -4.747  0.00  0.00     0.023 H 
ATOM     31  H   LIG d   1       5.119  -7.243  -4.555  0.00  0.00     0.023 H 
ATOM     32  H   LIG d   1       6.176  -8.547  -5.195  0.00  0.00     0.023 H 
ENDBRANCH  26  29
ENDBRANCH   1  26
BRANCH   6  33
ATOM     33  O   LIG d   1       5.134  -6.662  -9.132  0.00  0.00    -0.506 OA
ATOM     34  H   LIG d   1       6.133  -6.838  -9.559  0.00  0.00     0.292 HD
ENDBRANCH   6  33
TORSDOF 4
ENDMDL
MODEL 6
REMARK VINA RESULT:      -5.8      3.947      6.275
REMARK  4 active torsions:
REMARK  status: ('A' for Active; 'I' for Inactive)
REMARK    1  A    between atoms: C_1  and  C_2 
REMARK    2  A    between atoms: C_2  and  C_3 
REMARK    3  A    between atoms: C_8  and  O_9 
REMARK    4  A    between atoms: C_12  and  C_15 
ROOT
ATOM      1  C   LIG d   1       7.978  -6.373  -5.273  0.00  0.00    -0.005 A 
ATOM      2  C   LIG d   1       6.803  -5.680  -5.352  0.00  0.00    -0.041 A 
ATOM      3  C   LIG d   1       6.770  -4.332  -4.994  0.00  0.00     0.065 A 
ATOM      4  C   LIG d   1       7.937  -3.684  -4.555  0.00  0.00     0.142 A 
ATOM      5  C   LIG d   1       9.122  -4.403  -4.481  0.00  0.00     0.023 A 
ATOM      6  C   LIG d   1       9.138  -5.741  -4.833  0.00  0.00     0.123 A 
ATOM      7  O   LIG d   1       7.903  -2.380  -4.211  0.00  0.00    -0.462 OA
ATOM      8  C   LIG d   1       6.796  -1.637  -4.261  0.00  0.00     0.104 A 
ATOM      9  C   LIG d   1       5.598  -2.136  -4.666  0.00  0.00     0.066 A 
ATOM     10  C   LIG d   1       5.521  -3.552  -5.066  0.00  0.00     0.200 A 
ATOM     11  O   LIG d   1       4.475  -4.054  -5.438  0.00  0.00    -0.286 OA
ATOM     12  H   LIG d   1       5.903  -6.174  -5.688  0.00  0.00     0.063 H 
ATOM     13  H   LIG d   1      10.029  -3.920  -4.145  0.00  0.00     0.069 H 
ATOM     14  H   LIG d   1       6.852  -0.599  -3.968  0.00  0.00     0.104 H 
ENDROOT
BRANCH   9  15
ATOM     15  C   LIG d   1       4.394  -1.273  -4.707  0.00  0.00     0.007 A 
ATOM     16  C   LIG d   1       3.553  -1.191  -3.597  0.00  0.00     0.049 A 
ATOM     17  C   LIG d   1       2.435  -0.381  -3.639  0.00  0.00    -0.043 A 
ATOM     18 CL   LIG d   1       3.915  -2.102  -2.164  0.00  0.00    -0.083 Cl
ATOM     19  C   LIG d   1       2.144   0.341  -4.782  0.00  0.00    -0.060 A 
ATOM     20  H   LIG d   1       1.785  -0.314  -2.779  0.00  0.00     0.063 H 
ATOM     21  C   LIG d   1       2.972   0.260  -5.888  0.00  0.00    -0.061 A 
ATOM     22  H   LIG d   1       1.267   0.970  -4.813  0.00  0.00     0.062 H 
ATOM     23  C   LIG d   1       4.094  -0.542  -5.855  0.00  0.00    -0.052 A 
ATOM     24  H   LIG d   1       2.740   0.826  -6.778  0.00  0.00     0.062 H 
ATOM     25  H   LIG d   1       4.739  -0.605  -6.719  0.00  0.00     0.062 H 
ENDBRANCH   9  15
BRANCH   1  26
ATOM     26  C   LIG d   1       8.016  -7.829  -5.659  0.00  0.00    -0.027 C 
ATOM     27  H   LIG d   1       9.055  -8.126  -5.866  0.00  0.00     0.031 H 
ATOM     28  H   LIG d   1       7.403  -7.987  -6.558  0.00  0.00     0.031 H 
BRANCH  26  29
ATOM     29  C   LIG d   1       7.463  -8.676  -4.510  0.00  0.00    -0.061 C 
ATOM     30  H   LIG d   1       6.830  -9.477  -4.918  0.00  0.00     0.023 H 
ATOM     31  H   LIG d   1       6.865  -8.040  -3.841  0.00  0.00     0.023 H 
ATOM     32  H   LIG d   1       8.298  -9.118  -3.947  0.00  0.00     0.023 H 
ENDBRANCH  26  29
ENDBRANCH   1  26
BRANCH   6  33
ATOM     33  O   LIG d   1      10.298  -6.444  -4.756  0.00  0.00    -0.506 OA
ATOM     34  H   LIG d   1      10.291  -7.534  -4.905  0.00  0.00     0.292 HD
ENDBRANCH   6  33
TORSDOF 4
ENDMDL
MODEL 7
REMARK VINA RESULT:      -5.8      2.577      3.285
REMARK  4 active torsions:
REMARK  status: ('A' for Active; 'I' for Inactive)
REMARK    1  A    between atoms: C_1  and  C_2 
REMARK    2  A    between atoms: C_2  and  C_3 
REMARK    3  A    between atoms: C_8  and  O_9 
REMARK    4  A    between atoms: C_12  and  C_15 
ROOT
ATOM      1  C   LIG d   1       5.958  -0.186 -10.309  0.00  0.00    -0.005 A 
ATOM      2  C   LIG d   1       6.176  -0.364  -8.972  0.00  0.00    -0.041 A 
ATOM      3  C   LIG d   1       5.119  -0.214  -8.074  0.00  0.00     0.065 A 
ATOM      4  C   LIG d   1       3.834   0.117  -8.536  0.00  0.00     0.142 A 
ATOM      5  C   LIG d   1       3.631   0.294  -9.898  0.00  0.00     0.023 A 
ATOM      6  C   LIG d   1       4.690   0.148 -10.777  0.00  0.00     0.123 A 
ATOM      7  O   LIG d   1       2.814   0.260  -7.666  0.00  0.00    -0.462 OA
ATOM      8  C   LIG d   1       2.947   0.102  -6.347  0.00  0.00     0.104 A 
ATOM      9  C   LIG d   1       4.133  -0.218  -5.765  0.00  0.00     0.066 A 
ATOM     10  C   LIG d   1       5.316  -0.398  -6.624  0.00  0.00     0.200 A 
ATOM     11  O   LIG d   1       6.405  -0.685  -6.159  0.00  0.00    -0.286 OA
ATOM     12  H   LIG d   1       7.162  -0.617  -8.612  0.00  0.00     0.063 H 
ATOM     13  H   LIG d   1       2.649   0.549 -10.270  0.00  0.00     0.069 H 
ATOM     14  H   LIG d   1       2.080   0.235  -5.718  0.00  0.00     0.104 H 
ENDROOT
BRANCH   9  15
ATOM     15  C   LIG d   1       4.234  -0.383  -4.296  0.00  0.00     0.007 A 
ATOM     16  C   LIG d   1       4.380  -1.656  -3.743  0.00  0.00     0.049 A 
ATOM     17  C   LIG d   1       4.478  -1.804  -2.373  0.00  0.00    -0.043 A 
ATOM     18 CL   LIG d   1       4.444  -3.050  -4.776  0.00  0.00    -0.083 Cl
ATOM     19  C   LIG d   1       4.422  -0.694  -1.550  0.00  0.00    -0.060 A 
ATOM     20  H   LIG d   1       4.595  -2.789  -1.944  0.00  0.00     0.063 H 
ATOM     21  C   LIG d   1       4.272   0.570  -2.093  0.00  0.00    -0.061 A 
ATOM     22  H   LIG d   1       4.495  -0.814  -0.480  0.00  0.00     0.062 H 
ATOM     23  C   LIG d   1       4.178   0.730  -3.460  0.00  0.00    -0.052 A 
ATOM     24  H   LIG d   1       4.228   1.433  -1.445  0.00  0.00     0.062 H 
ATOM     25  H   LIG d   1       4.060   1.717  -3.882  0.00  0.00     0.062 H 
ENDBRANCH   9  15
BRANCH   1  26
ATOM     26  C   LIG d   1       7.098  -0.347 -11.282  0.00  0.00    -0.027 C 
ATOM     27  H   LIG d   1       6.890   0.237 -12.191  0.00  0.00     0.031 H 
ATOM     28  H   LIG d   1       7.207  -1.409 -11.546  0.00  0.00     0.031 H 
BRANCH  26  29
ATOM     29  C   LIG d   1       8.393   0.154 -10.639  0.00  0.00    -0.061 C 
ATOM     30  H   LIG d   1       8.944  -0.697 -10.213  0.00  0.00     0.023 H 
ATOM     31  H   LIG d   1       8.151   0.871  -9.840  0.00  0.00     0.023 H 
ATOM     32  H   LIG d   1       9.013   0.648 -11.401  0.00  0.00     0.023 H 
ENDBRANCH  26  29
ENDBRANCH   1  26
BRANCH   6  33
ATOM     33  O   LIG d   1       4.489   0.326 -12.108  0.00  0.00    -0.506 OA
ATOM     34  H   LIG d   1       5.335   0.594 -12.760  0.00  0.00     0.292 HD
ENDBRANCH   6  33
TORSDOF 4
ENDMDL
MODEL 8
REMARK VINA RESULT:      -5.7      4.337      6.803
REMARK  4 active torsions:
REMARK  status: ('A' for Active; 'I' for Inactive)
REMARK    1  A    between atoms: C_1  and  C_2 
REMARK    2  A    between atoms: C_2  and  C_3 
REMARK    3  A    between atoms: C_8  and  O_9 
REMARK    4  A    between atoms: C_12  and  C_15 
ROOT
ATOM      1  C   LIG d   1       9.854   3.578  -5.317  0.00  0.00    -0.005 A 
ATOM      2  C   LIG d   1       8.892   3.023  -4.521  0.00  0.00    -0.041 A 
ATOM      3  C   LIG d   1       8.107   1.980  -5.012  0.00  0.00     0.065 A 
ATOM      4  C   LIG d   1       8.300   1.498  -6.318  0.00  0.00     0.142 A 
ATOM      5  C   LIG d   1       9.281   2.074  -7.113  0.00  0.00     0.023 A 
ATOM      6  C   LIG d   1      10.049   3.112  -6.614  0.00  0.00     0.123 A 
ATOM      7  O   LIG d   1       7.540   0.489  -6.790  0.00  0.00    -0.462 OA
ATOM      8  C   LIG d   1       6.582  -0.105  -6.074  0.00  0.00     0.104 A 
ATOM      9  C   LIG d   1       6.290   0.261  -4.799  0.00  0.00     0.066 A 
ATOM     10  C   LIG d   1       7.060   1.355  -4.182  0.00  0.00     0.200 A 
ATOM     11  O   LIG d   1       6.842   1.727  -3.042  0.00  0.00    -0.286 OA
ATOM     12  H   LIG d   1       8.740   3.390  -3.517  0.00  0.00     0.063 H 
ATOM     13  H   LIG d   1       9.442   1.716  -8.119  0.00  0.00     0.069 H 
ATOM     14  H   LIG d   1       6.018  -0.907  -6.526  0.00  0.00     0.104 H 
ENDROOT
BRANCH   9  15
ATOM     15  C   LIG d   1       5.217  -0.428  -4.041  0.00  0.00     0.007 A 
ATOM     16  C   LIG d   1       5.515  -1.557  -3.276  0.00  0.00     0.049 A 
ATOM     17  C   LIG d   1       4.513  -2.192  -2.570  0.00  0.00    -0.043 A 
ATOM     18 CL   LIG d   1       7.142  -2.157  -3.210  0.00  0.00    -0.083 Cl
ATOM     19  C   LIG d   1       3.215  -1.716  -2.626  0.00  0.00    -0.060 A 
ATOM     20  H   LIG d   1       4.742  -3.063  -1.974  0.00  0.00     0.063 H 
ATOM     21  C   LIG d   1       2.914  -0.600  -3.387  0.00  0.00    -0.061 A 
ATOM     22  H   LIG d   1       2.434  -2.217  -2.075  0.00  0.00     0.062 H 
ATOM     23  C   LIG d   1       3.908   0.045  -4.094  0.00  0.00    -0.052 A 
ATOM     24  H   LIG d   1       1.899  -0.234  -3.428  0.00  0.00     0.062 H 
ATOM     25  H   LIG d   1       3.671   0.916  -4.688  0.00  0.00     0.062 H 
ENDBRANCH   9  15
BRANCH   1  26
ATOM     26  C   LIG d   1      10.704   4.705  -4.789  0.00  0.00    -0.027 C 
ATOM     27  H   LIG d   1      11.430   5.009  -5.558  0.00  0.00     0.031 H 
ATOM     28  H   LIG d   1      11.242   4.369  -3.890  0.00  0.00     0.031 H 
BRANCH  26  29
ATOM     29  C   LIG d   1       9.811   5.895  -4.434  0.00  0.00    -0.061 C 
ATOM     30  H   LIG d   1       9.786   6.601  -5.277  0.00  0.00     0.023 H 
ATOM     31  H   LIG d   1      10.212   6.402  -3.543  0.00  0.00     0.023 H 
ATOM     32  H   LIG d   1       8.791   5.539  -4.224  0.00  0.00     0.023 H 
ENDBRANCH  26  29
ENDBRANCH   1  26
BRANCH   6  33
ATOM     33  O   LIG d   1      11.005   3.678  -7.395  0.00  0.00    -0.506 OA
ATOM     34  H   LIG d   1      11.004   4.765  -7.565  0.00  0.00     0.292 HD
ENDBRANCH   6  33
TORSDOF 4
ENDMDL
MODEL 9
REMARK VINA RESULT:      -5.6      4.964      7.104
REMARK  4 active torsions:
REMARK  status: ('A' for Active; 'I' for Inactive)
REMARK    1  A    between atoms: C_1  and  C_2 
REMARK    2  A    between atoms: C_2  and  C_3 
REMARK    3  A    between atoms: C_8  and  O_9 
REMARK    4  A    between atoms: C_12  and  C_15 
ROOT
ATOM      1  C   LIG d   1       5.134  -0.594  -2.955  0.00  0.00    -0.005 A 
ATOM      2  C   LIG d   1       6.094   0.369  -3.088  0.00  0.00    -0.041 A 
ATOM      3  C   LIG d   1       7.241   0.102  -3.837  0.00  0.00     0.065 A 
ATOM      4  C   LIG d   1       7.413  -1.149  -4.453  0.00  0.00     0.142 A 
ATOM      5  C   LIG d   1       6.427  -2.115  -4.308  0.00  0.00     0.023 A 
ATOM      6  C   LIG d   1       5.298  -1.838  -3.557  0.00  0.00     0.123 A 
ATOM      7  O   LIG d   1       8.522  -1.404  -5.177  0.00  0.00    -0.462 OA
ATOM      8  C   LIG d   1       9.502  -0.516  -5.354  0.00  0.00     0.104 A 
ATOM      9  C   LIG d   1       9.466   0.731  -4.814  0.00  0.00     0.066 A 
ATOM     10  C   LIG d   1       8.298   1.116  -4.003  0.00  0.00     0.200 A 
ATOM     11  O   LIG d   1       8.211   2.220  -3.494  0.00  0.00    -0.286 OA
ATOM     12  H   LIG d   1       5.967   1.331  -2.616  0.00  0.00     0.063 H 
ATOM     13  H   LIG d   1       6.544  -3.082  -4.775  0.00  0.00     0.069 H 
ATOM     14  H   LIG d   1      10.359  -0.798  -5.948  0.00  0.00     0.104 H 
ENDROOT
BRANCH   9  15
ATOM     15  C   LIG d   1      10.579   1.685  -5.037  0.00  0.00     0.007 A 
ATOM     16  C   LIG d   1      10.519   2.596  -6.093  0.00  0.00     0.049 A 
ATOM     17  C   LIG d   1      11.556   3.485  -6.293  0.00  0.00    -0.043 A 
ATOM     18 CL   LIG d   1       9.140   2.614  -7.148  0.00  0.00    -0.083 Cl
ATOM     19  C   LIG d   1      12.657   3.467  -5.456  0.00  0.00    -0.060 A 
ATOM     20  H   LIG d   1      11.510   4.193  -7.107  0.00  0.00     0.063 H 
ATOM     21  C   LIG d   1      12.724   2.563  -4.411  0.00  0.00    -0.061 A 
ATOM     22  H   LIG d   1      13.468   4.161  -5.618  0.00  0.00     0.062 H 
ATOM     23  C   LIG d   1      11.691   1.673  -4.198  0.00  0.00    -0.052 A 
ATOM     24  H   LIG d   1      13.586   2.553  -3.761  0.00  0.00     0.062 H 
ATOM     25  H   LIG d   1      11.745   0.967  -3.382  0.00  0.00     0.062 H 
ENDBRANCH   9  15
BRANCH   1  26
ATOM     26  C   LIG d   1       3.894  -0.309  -2.147  0.00  0.00    -0.027 C 
ATOM     27  H   LIG d   1       4.070  -0.583  -1.097  0.00  0.00     0.031 H 
ATOM     28  H   LIG d   1       3.054  -0.898  -2.545  0.00  0.00     0.031 H 
BRANCH  26  29
ATOM     29  C   LIG d   1       3.558   1.181  -2.236  0.00  0.00    -0.061 C 
ATOM     30  H   LIG d   1       4.164   1.648  -3.026  0.00  0.00     0.023 H 
ATOM     31  H   LIG d   1       3.778   1.665  -1.272  0.00  0.00     0.023 H 
ATOM     32  H   LIG d   1       2.491   1.303  -2.472  0.00  0.00     0.023 H 
ENDBRANCH  26  29
ENDBRANCH   1  26
BRANCH   6  33
ATOM     33  O   LIG d   1       4.337  -2.787  -3.412  0.00  0.00    -0.506 OA
ATOM     34  H   LIG d   1       3.366  -2.523  -2.965  0.00  0.00     0.292 HD
ENDBRANCH   6  33
TORSDOF 4
ENDMDL
