MODEL 1
REMARK VINA RESULT:      -7.2      0.000      0.000
REMARK  5 active torsions:
REMARK  status: ('A' for Active; 'I' for Inactive)
REMARK    1  A    between atoms: C_5  and  N_7 
REMARK       I    between atoms: N_7  and  C_8 
REMARK       I    between atoms: C_8  and  N_10 
REMARK    2  A    between atoms: N_10  and  C_11 
REMARK    3  A    between atoms: C_20  and  N_25 
REMARK    4  A    between atoms: C_22  and  O_24 
REMARK    5  A    between atoms: C_28  and  C_31 
REMARK       I    between atoms: C_31  and  N_33 
ROOT
ATOM      1  C   LIG d   1       3.742   0.705  -2.207  0.00  0.00    -0.059 A 
ATOM      2  C   LIG d   1       5.053   1.130  -2.268  0.00  0.00    -0.044 A 
ATOM      3  C   LIG d   1       5.820   0.867  -3.405  0.00  0.00     0.053 A 
ATOM      4  C   LIG d   1       5.257   0.168  -4.474  0.00  0.00    -0.023 A 
ATOM      5  C   LIG d   1       3.938  -0.249  -4.404  0.00  0.00     0.036 A 
ATOM      6  C   LIG d   1       3.183   0.018  -3.268  0.00  0.00    -0.040 A 
ATOM      7  C   LIG d   1       7.181   1.307  -3.472  0.00  0.00     0.099 C 
ATOM      8  N   LIG d   1       8.261   1.657  -3.525  0.00  0.00    -0.191 NA
ATOM      9  H   LIG d   1       3.151   0.909  -1.326  0.00  0.00     0.062 H 
ATOM     10  H   LIG d   1       5.486   1.666  -1.437  0.00  0.00     0.063 H 
ATOM     11  H   LIG d   1       5.846  -0.043  -5.354  0.00  0.00     0.065 H 
ATOM     12  H   LIG d   1       2.156  -0.312  -3.214  0.00  0.00     0.064 H 
ENDROOT
BRANCH   5  13
ATOM     13  N   LIG d   1       3.365  -0.945  -5.476  0.00  0.00    -0.269 N 
ATOM     14  C   LIG d   1       3.266  -0.358  -6.685  0.00  0.00     0.304 C 
ATOM     15  O   LIG d   1       3.526   0.823  -6.810  0.00  0.00    -0.253 OA
ATOM     16  N   LIG d   1       2.878  -1.081  -7.755  0.00  0.00    -0.291 N 
ATOM     17  H   LIG d   1       2.564  -2.127  -7.627  0.00  0.00     0.151 HD
ATOM     18  H   LIG d   1       2.997  -1.972  -5.331  0.00  0.00     0.156 HD
BRANCH  16  19
ATOM     19  C   LIG d   1       2.876  -0.471  -9.087  0.00  0.00     0.084 C 
ATOM     20  H   LIG d   1       2.892   0.618  -8.930  0.00  0.00     0.055 H 
ATOM     21  C   LIG d   1       4.111  -0.934  -9.871  0.00  0.00     0.123 C 
ATOM     22  C   LIG d   1       3.984  -2.430 -10.177  0.00  0.00     0.059 C 
ATOM     23  H   LIG d   1       5.039  -0.712  -9.324  0.00  0.00     0.067 H 
ATOM     24  C   LIG d   1       2.617  -2.689 -10.829  0.00  0.00     0.206 C 
ATOM     25  H   LIG d   1       4.804  -2.766 -10.829  0.00  0.00     0.093 H 
ATOM     26  O   LIG d   1       2.447  -1.751 -11.907  0.00  0.00    -0.344 OA
ATOM     27  H   LIG d   1       2.494  -3.718 -11.197  0.00  0.00     0.097 H 
ATOM     28  O   LIG d   1       1.601  -2.360  -9.855  0.00  0.00    -0.339 OA
ATOM     29  C   LIG d   1       1.836  -0.574 -11.348  0.00  0.00     0.079 C 
ATOM     30  C   LIG d   1       1.617  -0.910  -9.854  0.00  0.00     0.106 C 
ATOM     31  H   LIG d   1       0.866  -0.356 -11.820  0.00  0.00     0.059 H 
ATOM     32  H   LIG d   1       2.492   0.304 -11.434  0.00  0.00     0.059 H 
ATOM     33  H   LIG d   1       0.708  -0.490  -9.400  0.00  0.00     0.064 H 
BRANCH  21  34
ATOM     34  O   LIG d   1       4.200  -0.200 -11.093  0.00  0.00    -0.384 OA
ATOM     35  H   LIG d   1       4.886  -0.535 -11.886  0.00  0.00     0.210 HD
ENDBRANCH  21  34
BRANCH  22  36
ATOM     36  N   LIG d   1       4.090  -3.198  -8.930  0.00  0.00     0.243 N 
ATOM     37  C   LIG d   1       5.444  -3.111  -8.370  0.00  0.00    -0.031 C 
ATOM     38  C   LIG d   1       5.479  -3.798  -7.004  0.00  0.00    -0.001 C 
ATOM     39  H   LIG d   1       6.154  -3.607  -9.048  0.00  0.00     0.082 H 
ATOM     40  H   LIG d   1       5.726  -2.053  -8.255  0.00  0.00     0.082 H 
ATOM     41  C   LIG d   1       5.067  -5.264  -7.166  0.00  0.00     0.045 C 
ATOM     42  H   LIG d   1       4.780  -3.294  -6.320  0.00  0.00     0.032 H 
ATOM     43  H   LIG d   1       6.496  -3.747  -6.591  0.00  0.00     0.032 H 
ATOM     44  C   LIG d   1       3.672  -5.328  -7.795  0.00  0.00    -0.001 C 
ATOM     45  H   LIG d   1       5.792  -5.793  -7.801  0.00  0.00     0.040 H 
ATOM     46  C   LIG d   1       3.691  -4.596  -9.138  0.00  0.00    -0.031 C 
ATOM     47  H   LIG d   1       2.943  -4.848  -7.125  0.00  0.00     0.032 H 
ATOM     48  H   LIG d   1       3.387  -6.379  -7.954  0.00  0.00     0.032 H 
ATOM     49  H   LIG d   1       2.686  -4.628  -9.586  0.00  0.00     0.082 H 
ATOM     50  H   LIG d   1       4.408  -5.086  -9.813  0.00  0.00     0.082 H 
ATOM     51  H   LIG d   1       3.396  -2.757  -8.199  0.00  0.00     0.204 HD
BRANCH  41  52
ATOM     52  C   LIG d   1       5.042  -5.932  -5.814  0.00  0.00     0.214 C 
ATOM     53  O   LIG d   1       4.110  -5.742  -5.061  0.00  0.00    -0.276 OA
ATOM     54  N   LIG d   1       6.056  -6.738  -5.443  0.00  0.00    -0.329 N 
ATOM     55  H   LIG d   1       6.037  -7.226  -4.456  0.00  0.00     0.145 HD
ATOM     56  H   LIG d   1       6.901  -6.910  -6.126  0.00  0.00     0.145 HD
ENDBRANCH  41  52
ENDBRANCH  22  36
ENDBRANCH  16  19
ENDBRANCH   5  13
TORSDOF 5
ENDMDL
MODEL 2
REMARK VINA RESULT:      -6.9      2.551      5.625
REMARK  5 active torsions:
REMARK  status: ('A' for Active; 'I' for Inactive)
REMARK    1  A    between atoms: C_5  and  N_7 
REMARK       I    between atoms: N_7  and  C_8 
REMARK       I    between atoms: C_8  and  N_10 
REMARK    2  A    between atoms: N_10  and  C_11 
REMARK    3  A    between atoms: C_20  and  N_25 
REMARK    4  A    between atoms: C_22  and  O_24 
REMARK    5  A    between atoms: C_28  and  C_31 
REMARK       I    between atoms: C_31  and  N_33 
ROOT
ATOM      1  C   LIG d   1       3.168   2.504  -9.337  0.00  0.00    -0.059 A 
ATOM      2  C   LIG d   1       4.504   2.831  -9.437  0.00  0.00    -0.044 A 
ATOM      3  C   LIG d   1       5.476   1.949  -8.960  0.00  0.00     0.053 A 
ATOM      4  C   LIG d   1       5.089   0.741  -8.377  0.00  0.00    -0.023 A 
ATOM      5  C   LIG d   1       3.744   0.421  -8.288  0.00  0.00     0.036 A 
ATOM      6  C   LIG d   1       2.785   1.305  -8.766  0.00  0.00    -0.040 A 
ATOM      7  C   LIG d   1       6.865   2.284  -9.062  0.00  0.00     0.099 C 
ATOM      8  N   LIG d   1       7.966   2.552  -9.144  0.00  0.00    -0.191 NA
ATOM      9  H   LIG d   1       2.417   3.188  -9.707  0.00  0.00     0.062 H 
ATOM     10  H   LIG d   1       4.799   3.769  -9.884  0.00  0.00     0.063 H 
ATOM     11  H   LIG d   1       5.835   0.056  -8.002  0.00  0.00     0.065 H 
ATOM     12  H   LIG d   1       1.737   1.055  -8.691  0.00  0.00     0.064 H 
ENDROOT
BRANCH   5  13
ATOM     13  N   LIG d   1       3.350  -0.793  -7.710  0.00  0.00    -0.269 N 
ATOM     14  C   LIG d   1       3.919  -1.946  -8.110  0.00  0.00     0.304 C 
ATOM     15  O   LIG d   1       4.657  -1.957  -9.077  0.00  0.00    -0.253 OA
ATOM     16  N   LIG d   1       3.671  -3.089  -7.440  0.00  0.00    -0.291 N 
ATOM     17  H   LIG d   1       2.940  -3.095  -6.618  0.00  0.00     0.151 HD
ATOM     18  H   LIG d   1       2.576  -0.804  -6.929  0.00  0.00     0.156 HD
BRANCH  16  19
ATOM     19  C   LIG d   1       4.373  -4.321  -7.807  0.00  0.00     0.084 C 
ATOM     20  H   LIG d   1       4.375  -4.361  -8.906  0.00  0.00     0.055 H 
ATOM     21  C   LIG d   1       5.804  -4.286  -7.254  0.00  0.00     0.123 C 
ATOM     22  C   LIG d   1       5.757  -4.360  -5.724  0.00  0.00     0.059 C 
ATOM     23  H   LIG d   1       6.345  -3.392  -7.596  0.00  0.00     0.067 H 
ATOM     24  C   LIG d   1       4.888  -5.558  -5.312  0.00  0.00     0.206 C 
ATOM     25  H   LIG d   1       6.771  -4.444  -5.305  0.00  0.00     0.093 H 
ATOM     26  O   LIG d   1       5.339  -6.714  -6.042  0.00  0.00    -0.344 OA
ATOM     27  H   LIG d   1       4.903  -5.761  -4.232  0.00  0.00     0.097 H 
ATOM     28  O   LIG d   1       3.543  -5.300  -5.774  0.00  0.00    -0.339 OA
ATOM     29  C   LIG d   1       4.603  -6.744  -7.278  0.00  0.00     0.079 C 
ATOM     30  C   LIG d   1       3.645  -5.532  -7.201  0.00  0.00     0.106 C 
ATOM     31  H   LIG d   1       4.016  -7.669  -7.380  0.00  0.00     0.059 H 
ATOM     32  H   LIG d   1       5.266  -6.633  -8.148  0.00  0.00     0.059 H 
ATOM     33  H   LIG d   1       2.659  -5.675  -7.665  0.00  0.00     0.064 H 
BRANCH  21  34
ATOM     34  O   LIG d   1       6.539  -5.399  -7.765  0.00  0.00    -0.384 OA
ATOM     35  H   LIG d   1       6.125  -6.000  -8.588  0.00  0.00     0.210 HD
ENDBRANCH  21  34
BRANCH  22  36
ATOM     36  N   LIG d   1       5.176  -3.122  -5.189  0.00  0.00     0.243 N 
ATOM     37  C   LIG d   1       6.134  -2.012  -5.269  0.00  0.00    -0.031 C 
ATOM     38  C   LIG d   1       5.449  -0.713  -4.840  0.00  0.00    -0.001 C 
ATOM     39  H   LIG d   1       6.986  -2.215  -4.602  0.00  0.00     0.082 H 
ATOM     40  H   LIG d   1       6.494  -1.913  -6.304  0.00  0.00     0.082 H 
ATOM     41  C   LIG d   1       4.933  -0.864  -3.406  0.00  0.00     0.045 C 
ATOM     42  H   LIG d   1       4.606  -0.501  -5.513  0.00  0.00     0.032 H 
ATOM     43  H   LIG d   1       6.171   0.115  -4.884  0.00  0.00     0.032 H 
ATOM     44  C   LIG d   1       3.974  -2.056  -3.340  0.00  0.00    -0.001 C 
ATOM     45  H   LIG d   1       5.774  -1.018  -2.715  0.00  0.00     0.040 H 
ATOM     46  C   LIG d   1       4.701  -3.316  -3.813  0.00  0.00    -0.031 C 
ATOM     47  H   LIG d   1       3.106  -1.867  -3.990  0.00  0.00     0.032 H 
ATOM     48  H   LIG d   1       3.631  -2.197  -2.304  0.00  0.00     0.032 H 
ATOM     49  H   LIG d   1       4.011  -4.172  -3.780  0.00  0.00     0.082 H 
ATOM     50  H   LIG d   1       5.559  -3.513  -3.153  0.00  0.00     0.082 H 
ATOM     51  H   LIG d   1       4.306  -2.859  -5.809  0.00  0.00     0.204 HD
BRANCH  41  52
ATOM     52  C   LIG d   1       4.205   0.392  -2.999  0.00  0.00     0.214 C 
ATOM     53  O   LIG d   1       3.543   1.001  -3.812  0.00  0.00    -0.276 OA
ATOM     54  N   LIG d   1       4.293   0.839  -1.731  0.00  0.00    -0.329 N 
ATOM     55  H   LIG d   1       3.762   1.756  -1.433  0.00  0.00     0.145 HD
ATOM     56  H   LIG d   1       4.894   0.288  -0.992  0.00  0.00     0.145 HD
ENDBRANCH  41  52
ENDBRANCH  22  36
ENDBRANCH  16  19
ENDBRANCH   5  13
TORSDOF 5
ENDMDL
MODEL 3
REMARK VINA RESULT:      -6.8      3.196      7.524
REMARK  5 active torsions:
REMARK  status: ('A' for Active; 'I' for Inactive)
REMARK    1  A    between atoms: C_5  and  N_7 
REMARK       I    between atoms: N_7  and  C_8 
REMARK       I    between atoms: C_8  and  N_10 
REMARK    2  A    between atoms: N_10  and  C_11 
REMARK    3  A    between atoms: C_20  and  N_25 
REMARK    4  A    between atoms: C_22  and  O_24 
REMARK    5  A    between atoms: C_28  and  C_31 
REMARK       I    between atoms: C_31  and  N_33 
ROOT
ATOM      1  C   LIG d   1       3.931   0.369 -11.867  0.00  0.00    -0.059 A 
ATOM      2  C   LIG d   1       4.981  -0.409 -12.308  0.00  0.00    -0.044 A 
ATOM      3  C   LIG d   1       5.984  -0.797 -11.418  0.00  0.00     0.053 A 
ATOM      4  C   LIG d   1       5.922  -0.389 -10.084  0.00  0.00    -0.023 A 
ATOM      5  C   LIG d   1       4.861   0.388  -9.651  0.00  0.00     0.036 A 
ATOM      6  C   LIG d   1       3.867   0.768 -10.546  0.00  0.00    -0.040 A 
ATOM      7  C   LIG d   1       7.076  -1.605 -11.871  0.00  0.00     0.099 C 
ATOM      8  N   LIG d   1       7.941  -2.247 -12.233  0.00  0.00    -0.191 NA
ATOM      9  H   LIG d   1       3.155   0.669 -12.558  0.00  0.00     0.062 H 
ATOM     10  H   LIG d   1       5.027  -0.719 -13.342  0.00  0.00     0.063 H 
ATOM     11  H   LIG d   1       6.698  -0.681  -9.391  0.00  0.00     0.065 H 
ATOM     12  H   LIG d   1       3.042   1.377 -10.206  0.00  0.00     0.064 H 
ENDROOT
BRANCH   5  13
ATOM     13  N   LIG d   1       4.790   0.795  -8.313  0.00  0.00    -0.269 N 
ATOM     14  C   LIG d   1       4.167   0.020  -7.404  0.00  0.00     0.304 C 
ATOM     15  O   LIG d   1       3.530  -0.951  -7.768  0.00  0.00    -0.253 OA
ATOM     16  N   LIG d   1       4.247   0.320  -6.093  0.00  0.00    -0.291 N 
ATOM     17  H   LIG d   1       4.752   1.243  -5.771  0.00  0.00     0.151 HD
ATOM     18  H   LIG d   1       5.245   1.747  -8.004  0.00  0.00     0.156 HD
BRANCH  16  19
ATOM     19  C   LIG d   1       3.662  -0.582  -5.098  0.00  0.00     0.084 C 
ATOM     20  H   LIG d   1       2.906  -1.180  -5.628  0.00  0.00     0.055 H 
ATOM     21  C   LIG d   1       4.756  -1.478  -4.504  0.00  0.00     0.123 C 
ATOM     22  C   LIG d   1       5.714  -0.621  -3.669  0.00  0.00     0.059 C 
ATOM     23  H   LIG d   1       5.292  -2.031  -5.289  0.00  0.00     0.067 H 
ATOM     24  C   LIG d   1       4.894   0.216  -2.676  0.00  0.00     0.206 C 
ATOM     25  H   LIG d   1       6.448  -1.251  -3.145  0.00  0.00     0.093 H 
ATOM     26  O   LIG d   1       3.985  -0.663  -1.989  0.00  0.00    -0.344 OA
ATOM     27  H   LIG d   1       5.510   0.767  -1.951  0.00  0.00     0.097 H 
ATOM     28  O   LIG d   1       4.066   1.117  -3.445  0.00  0.00    -0.339 OA
ATOM     29  C   LIG d   1       2.779  -0.717  -2.773  0.00  0.00     0.079 C 
ATOM     30  C   LIG d   1       3.033   0.241  -3.961  0.00  0.00     0.106 C 
ATOM     31  H   LIG d   1       1.906  -0.368  -2.201  0.00  0.00     0.059 H 
ATOM     32  H   LIG d   1       2.587  -1.731  -3.154  0.00  0.00     0.059 H 
ATOM     33  H   LIG d   1       2.157   0.802  -4.315  0.00  0.00     0.064 H 
BRANCH  21  34
ATOM     34  O   LIG d   1       4.157  -2.473  -3.673  0.00  0.00    -0.384 OA
ATOM     35  H   LIG d   1       3.646  -3.334  -4.129  0.00  0.00     0.210 HD
ENDBRANCH  21  34
BRANCH  22  36
ATOM     36  N   LIG d   1       6.475   0.271  -4.555  0.00  0.00     0.243 N 
ATOM     37  C   LIG d   1       7.303  -0.498  -5.492  0.00  0.00    -0.031 C 
ATOM     38  C   LIG d   1       7.966   0.454  -6.490  0.00  0.00    -0.001 C 
ATOM     39  H   LIG d   1       8.079  -1.043  -4.934  0.00  0.00     0.082 H 
ATOM     40  H   LIG d   1       6.670  -1.216  -6.036  0.00  0.00     0.082 H 
ATOM     41  C   LIG d   1       8.829   1.463  -5.727  0.00  0.00     0.045 C 
ATOM     42  H   LIG d   1       7.192   0.989  -7.058  0.00  0.00     0.032 H 
ATOM     43  H   LIG d   1       8.598  -0.120  -7.182  0.00  0.00     0.032 H 
ATOM     44  C   LIG d   1       7.953   2.217  -4.723  0.00  0.00    -0.001 C 
ATOM     45  H   LIG d   1       9.643   0.943  -5.200  0.00  0.00     0.040 H 
ATOM     46  C   LIG d   1       7.290   1.214  -3.778  0.00  0.00    -0.031 C 
ATOM     47  H   LIG d   1       7.177   2.781  -5.262  0.00  0.00     0.032 H 
ATOM     48  H   LIG d   1       8.574   2.914  -4.141  0.00  0.00     0.032 H 
ATOM     49  H   LIG d   1       6.648   1.751  -3.064  0.00  0.00     0.082 H 
ATOM     50  H   LIG d   1       8.065   0.661  -3.227  0.00  0.00     0.082 H 
ATOM     51  H   LIG d   1       5.756   0.858  -5.145  0.00  0.00     0.204 HD
BRANCH  41  52
ATOM     52  C   LIG d   1       9.438   2.440  -6.699  0.00  0.00     0.214 C 
ATOM     53  O   LIG d   1       9.775   2.068  -7.803  0.00  0.00    -0.276 OA
ATOM     54  N   LIG d   1       9.611   3.728  -6.340  0.00  0.00    -0.329 N 
ATOM     55  H   LIG d   1      10.056   4.442  -7.050  0.00  0.00     0.145 HD
ATOM     56  H   LIG d   1       9.307   4.066  -5.339  0.00  0.00     0.145 HD
ENDBRANCH  41  52
ENDBRANCH  22  36
ENDBRANCH  16  19
ENDBRANCH   5  13
TORSDOF 5
ENDMDL
MODEL 4
REMARK VINA RESULT:      -6.7      3.254      5.308
REMARK  5 active torsions:
REMARK  status: ('A' for Active; 'I' for Inactive)
REMARK    1  A    between atoms: C_5  and  N_7 
REMARK       I    between atoms: N_7  and  C_8 
REMARK       I    between atoms: C_8  and  N_10 
REMARK    2  A    between atoms: N_10  and  C_11 
REMARK    3  A    between atoms: C_20  and  N_25 
REMARK    4  A    between atoms: C_22  and  O_24 
REMARK    5  A    between atoms: C_28  and  C_31 
REMARK       I    between atoms: C_31  and  N_33 
ROOT
ATOM      1  C   LIG d   1      11.327   2.654  -5.511  0.00  0.00    -0.059 A 
ATOM      2  C   LIG d   1      11.961   1.493  -5.120  0.00  0.00    -0.044 A 
ATOM      3  C   LIG d   1      11.234   0.307  -4.999  0.00  0.00     0.053 A 
ATOM      4  C   LIG d   1       9.863   0.304  -5.268  0.00  0.00    -0.023 A 
ATOM      5  C   LIG d   1       9.239   1.474  -5.666  0.00  0.00     0.036 A 
ATOM      6  C   LIG d   1       9.972   2.649  -5.784  0.00  0.00    -0.040 A 
ATOM      7  C   LIG d   1      11.888  -0.901  -4.593  0.00  0.00     0.099 C 
ATOM      8  N   LIG d   1      12.409  -1.858  -4.272  0.00  0.00    -0.191 NA
ATOM      9  H   LIG d   1      11.891   3.571  -5.604  0.00  0.00     0.062 H 
ATOM     10  H   LIG d   1      13.020   1.501  -4.908  0.00  0.00     0.063 H 
ATOM     11  H   LIG d   1       9.294  -0.609  -5.171  0.00  0.00     0.065 H 
ATOM     12  H   LIG d   1       9.481   3.561  -6.090  0.00  0.00     0.064 H 
ENDROOT
BRANCH   5  13
ATOM     13  N   LIG d   1       7.866   1.476  -5.944  0.00  0.00    -0.269 N 
ATOM     14  C   LIG d   1       7.433   1.272  -7.203  0.00  0.00     0.304 C 
ATOM     15  O   LIG d   1       8.229   1.244  -8.122  0.00  0.00    -0.253 OA
ATOM     16  N   LIG d   1       6.118   1.100  -7.444  0.00  0.00    -0.291 N 
ATOM     17  H   LIG d   1       5.391   1.207  -6.626  0.00  0.00     0.151 HD
ATOM     18  H   LIG d   1       7.141   1.643  -5.133  0.00  0.00     0.156 HD
BRANCH  16  19
ATOM     19  C   LIG d   1       5.659   0.770  -8.796  0.00  0.00     0.084 C 
ATOM     20  H   LIG d   1       6.564   0.653  -9.411  0.00  0.00     0.055 H 
ATOM     21  C   LIG d   1       4.843  -0.529  -8.763  0.00  0.00     0.123 C 
ATOM     22  C   LIG d   1       3.534  -0.285  -8.006  0.00  0.00     0.059 C 
ATOM     23  H   LIG d   1       5.418  -1.353  -8.317  0.00  0.00     0.067 H 
ATOM     24  C   LIG d   1       2.840   0.950  -8.599  0.00  0.00     0.206 C 
ATOM     25  H   LIG d   1       2.881  -1.169  -8.057  0.00  0.00     0.093 H 
ATOM     26  O   LIG d   1       2.786   0.794 -10.029  0.00  0.00    -0.344 OA
ATOM     27  H   LIG d   1       1.831   1.123  -8.198  0.00  0.00     0.097 H 
ATOM     28  O   LIG d   1       3.697   2.089  -8.359  0.00  0.00    -0.339 OA
ATOM     29  C   LIG d   1       4.000   1.355 -10.559  0.00  0.00     0.079 C 
ATOM     30  C   LIG d   1       4.760   1.899  -9.326  0.00  0.00     0.106 C 
ATOM     31  H   LIG d   1       3.796   2.181 -11.257  0.00  0.00     0.059 H 
ATOM     32  H   LIG d   1       4.614   0.594 -11.062  0.00  0.00     0.059 H 
ATOM     33  H   LIG d   1       5.335   2.821  -9.491  0.00  0.00     0.064 H 
BRANCH  21  34
ATOM     34  O   LIG d   1       4.553  -0.942 -10.100  0.00  0.00    -0.384 OA
ATOM     35  H   LIG d   1       3.757  -0.441 -10.669  0.00  0.00     0.210 HD
ENDBRANCH  21  34
BRANCH  22  36
ATOM     36  N   LIG d   1       3.824  -0.052  -6.585  0.00  0.00     0.243 N 
ATOM     37  C   LIG d   1       4.464  -1.227  -5.978  0.00  0.00    -0.031 C 
ATOM     38  C   LIG d   1       4.881  -0.898  -4.543  0.00  0.00    -0.001 C 
ATOM     39  H   LIG d   1       3.754  -2.068  -5.970  0.00  0.00     0.082 H 
ATOM     40  H   LIG d   1       5.353  -1.503  -6.565  0.00  0.00     0.082 H 
ATOM     41  C   LIG d   1       3.643  -0.495  -3.737  0.00  0.00     0.045 C 
ATOM     42  H   LIG d   1       5.601  -0.067  -4.550  0.00  0.00     0.032 H 
ATOM     43  H   LIG d   1       5.347  -1.782  -4.084  0.00  0.00     0.032 H 
ATOM     44  C   LIG d   1       2.968   0.700  -4.416  0.00  0.00    -0.001 C 
ATOM     45  H   LIG d   1       2.941  -1.340  -3.674  0.00  0.00     0.040 H 
ATOM     46  C   LIG d   1       2.606   0.325  -5.854  0.00  0.00    -0.031 C 
ATOM     47  H   LIG d   1       3.657   1.558  -4.423  0.00  0.00     0.032 H 
ATOM     48  H   LIG d   1       2.054   0.969  -3.866  0.00  0.00     0.032 H 
ATOM     49  H   LIG d   1       2.134   1.186  -6.350  0.00  0.00     0.082 H 
ATOM     50  H   LIG d   1       1.906  -0.523  -5.847  0.00  0.00     0.082 H 
ATOM     51  H   LIG d   1       4.530   0.788  -6.515  0.00  0.00     0.204 HD
BRANCH  41  52
ATOM     52  C   LIG d   1       4.056  -0.113  -2.339  0.00  0.00     0.214 C 
ATOM     53  O   LIG d   1       4.396  -0.970  -1.551  0.00  0.00    -0.276 OA
ATOM     54  N   LIG d   1       4.045   1.181  -1.963  0.00  0.00    -0.329 N 
ATOM     55  H   LIG d   1       4.346   1.460  -0.942  0.00  0.00     0.145 HD
ATOM     56  H   LIG d   1       3.736   1.959  -2.676  0.00  0.00     0.145 HD
ENDBRANCH  41  52
ENDBRANCH  22  36
ENDBRANCH  16  19
ENDBRANCH   5  13
TORSDOF 5
ENDMDL
MODEL 5
REMARK VINA RESULT:      -6.7      3.251      5.371
REMARK  5 active torsions:
REMARK  status: ('A' for Active; 'I' for Inactive)
REMARK    1  A    between atoms: C_5  and  N_7 
REMARK       I    between atoms: N_7  and  C_8 
REMARK       I    between atoms: C_8  and  N_10 
REMARK    2  A    between atoms: N_10  and  C_11 
REMARK    3  A    between atoms: C_20  and  N_25 
REMARK    4  A    between atoms: C_22  and  O_24 
REMARK    5  A    between atoms: C_28  and  C_31 
REMARK       I    between atoms: C_31  and  N_33 
ROOT
ATOM      1  C   LIG d   1      11.467   1.685  -5.603  0.00  0.00    -0.059 A 
ATOM      2  C   LIG d   1      11.739   2.992  -5.255  0.00  0.00    -0.044 A 
ATOM      3  C   LIG d   1      10.697   3.914  -5.134  0.00  0.00     0.053 A 
ATOM      4  C   LIG d   1       9.382   3.509  -5.374  0.00  0.00    -0.023 A 
ATOM      5  C   LIG d   1       9.120   2.193  -5.717  0.00  0.00     0.036 A 
ATOM      6  C   LIG d   1      10.165   1.283  -5.834  0.00  0.00    -0.040 A 
ATOM      7  C   LIG d   1      10.975   5.271  -4.773  0.00  0.00     0.099 C 
ATOM      8  N   LIG d   1      11.197   6.348  -4.486  0.00  0.00    -0.191 NA
ATOM      9  H   LIG d   1      12.274   0.973  -5.696  0.00  0.00     0.062 H 
ATOM     10  H   LIG d   1      12.757   3.302  -5.075  0.00  0.00     0.063 H 
ATOM     11  H   LIG d   1       8.572   4.218  -5.287  0.00  0.00     0.065 H 
ATOM     12  H   LIG d   1       9.958   0.258  -6.106  0.00  0.00     0.064 H 
ENDROOT
BRANCH   5  13
ATOM     13  N   LIG d   1       7.803   1.779  -5.952  0.00  0.00    -0.269 N 
ATOM     14  C   LIG d   1       7.386   1.539  -7.210  0.00  0.00     0.304 C 
ATOM     15  O   LIG d   1       8.097   1.831  -8.152  0.00  0.00    -0.253 OA
ATOM     16  N   LIG d   1       6.180   0.976  -7.425  0.00  0.00    -0.291 N 
ATOM     17  H   LIG d   1       5.503   0.789  -6.578  0.00  0.00     0.151 HD
ATOM     18  H   LIG d   1       7.109   1.649  -5.108  0.00  0.00     0.156 HD
BRANCH  16  19
ATOM     19  C   LIG d   1       5.772   0.616  -8.785  0.00  0.00     0.084 C 
ATOM     20  H   LIG d   1       6.699   0.430  -9.347  0.00  0.00     0.055 H 
ATOM     21  C   LIG d   1       4.891  -0.639  -8.745  0.00  0.00     0.123 C 
ATOM     22  C   LIG d   1       3.559  -0.301  -8.066  0.00  0.00     0.059 C 
ATOM     23  H   LIG d   1       5.400  -1.472  -8.239  0.00  0.00     0.067 H 
ATOM     24  C   LIG d   1       2.960   0.942  -8.741  0.00  0.00     0.206 C 
ATOM     25  H   LIG d   1       2.866  -1.153  -8.118  0.00  0.00     0.093 H 
ATOM     26  O   LIG d   1       2.969   0.731 -10.165  0.00  0.00    -0.344 OA
ATOM     27  H   LIG d   1       1.942   1.180  -8.399  0.00  0.00     0.097 H 
ATOM     28  O   LIG d   1       3.861   2.046  -8.500  0.00  0.00    -0.339 OA
ATOM     29  C   LIG d   1       4.235   1.210 -10.652  0.00  0.00     0.079 C 
ATOM     30  C   LIG d   1       4.959   1.765  -9.403  0.00  0.00     0.106 C 
ATOM     31  H   LIG d   1       4.108   2.016 -11.390  0.00  0.00     0.059 H 
ATOM     32  H   LIG d   1       4.834   0.400 -11.094  0.00  0.00     0.059 H 
ATOM     33  H   LIG d   1       5.588   2.651  -9.572  0.00  0.00     0.064 H 
BRANCH  21  34
ATOM     34  O   LIG d   1       4.647  -1.091 -10.078  0.00  0.00    -0.384 OA
ATOM     35  H   LIG d   1       3.624  -1.079 -10.484  0.00  0.00     0.210 HD
ENDBRANCH  21  34
BRANCH  22  36
ATOM     36  N   LIG d   1       3.790  -0.026  -6.642  0.00  0.00     0.243 N 
ATOM     37  C   LIG d   1       4.353  -1.199  -5.963  0.00  0.00    -0.031 C 
ATOM     38  C   LIG d   1       4.715  -0.833  -4.522  0.00  0.00    -0.001 C 
ATOM     39  H   LIG d   1       3.612  -2.012  -5.960  0.00  0.00     0.082 H 
ATOM     40  H   LIG d   1       5.258  -1.531  -6.495  0.00  0.00     0.082 H 
ATOM     41  C   LIG d   1       3.456  -0.354  -3.793  0.00  0.00     0.045 C 
ATOM     42  H   LIG d   1       5.466  -0.030  -4.523  0.00  0.00     0.032 H 
ATOM     43  H   LIG d   1       5.122  -1.715  -4.009  0.00  0.00     0.032 H 
ATOM     44  C   LIG d   1       2.861   0.839  -4.547  0.00  0.00    -0.001 C 
ATOM     45  H   LIG d   1       2.719  -1.169  -3.734  0.00  0.00     0.040 H 
ATOM     46  C   LIG d   1       2.555   0.424  -5.986  0.00  0.00    -0.031 C 
ATOM     47  H   LIG d   1       3.583   1.670  -4.550  0.00  0.00     0.032 H 
ATOM     48  H   LIG d   1       1.933   1.162  -4.052  0.00  0.00     0.032 H 
ATOM     49  H   LIG d   1       2.140   1.283  -6.535  0.00  0.00     0.082 H 
ATOM     50  H   LIG d   1       1.822  -0.396  -5.983  0.00  0.00     0.082 H 
ATOM     51  H   LIG d   1       4.524   0.790  -6.567  0.00  0.00     0.204 HD
BRANCH  41  52
ATOM     52  C   LIG d   1       3.816   0.065  -2.390  0.00  0.00     0.214 C 
ATOM     53  O   LIG d   1       3.525   1.174  -1.994  0.00  0.00    -0.276 OA
ATOM     54  N   LIG d   1       4.464  -0.793  -1.577  0.00  0.00    -0.329 N 
ATOM     55  H   LIG d   1       4.727  -0.487  -0.553  0.00  0.00     0.145 HD
ATOM     56  H   LIG d   1       4.728  -1.799  -1.935  0.00  0.00     0.145 HD
ENDBRANCH  41  52
ENDBRANCH  22  36
ENDBRANCH  16  19
ENDBRANCH   5  13
TORSDOF 5
ENDMDL
MODEL 6
REMARK VINA RESULT:      -6.6      2.398      7.476
REMARK  5 active torsions:
REMARK  status: ('A' for Active; 'I' for Inactive)
REMARK    1  A    between atoms: C_5  and  N_7 
REMARK       I    between atoms: N_7  and  C_8 
REMARK       I    between atoms: C_8  and  N_10 
REMARK    2  A    between atoms: N_10  and  C_11 
REMARK    3  A    between atoms: C_20  and  N_25 
REMARK    4  A    between atoms: C_22  and  O_24 
REMARK    5  A    between atoms: C_28  and  C_31 
REMARK       I    between atoms: C_31  and  N_33 
ROOT
ATOM      1  C   LIG d   1       6.010  -6.365  -8.986  0.00  0.00    -0.059 A 
ATOM      2  C   LIG d   1       5.824  -7.688  -8.641  0.00  0.00    -0.044 A 
ATOM      3  C   LIG d   1       4.993  -8.020  -7.570  0.00  0.00     0.053 A 
ATOM      4  C   LIG d   1       4.358  -7.009  -6.846  0.00  0.00    -0.023 A 
ATOM      5  C   LIG d   1       4.547  -5.685  -7.205  0.00  0.00     0.036 A 
ATOM      6  C   LIG d   1       5.376  -5.365  -8.274  0.00  0.00    -0.040 A 
ATOM      7  C   LIG d   1       4.797  -9.392  -7.209  0.00  0.00     0.099 C 
ATOM      8  N   LIG d   1       4.643 -10.481  -6.924  0.00  0.00    -0.191 NA
ATOM      9  H   LIG d   1       6.654  -6.110  -9.815  0.00  0.00     0.062 H 
ATOM     10  H   LIG d   1       6.321  -8.467  -9.201  0.00  0.00     0.063 H 
ATOM     11  H   LIG d   1       3.718  -7.259  -6.013  0.00  0.00     0.065 H 
ATOM     12  H   LIG d   1       5.525  -4.331  -8.549  0.00  0.00     0.064 H 
ENDROOT
BRANCH   5  13
ATOM     13  N   LIG d   1       3.907  -4.666  -6.487  0.00  0.00    -0.269 N 
ATOM     14  C   LIG d   1       4.495  -4.138  -5.397  0.00  0.00     0.304 C 
ATOM     15  O   LIG d   1       5.502  -4.646  -4.943  0.00  0.00    -0.253 OA
ATOM     16  N   LIG d   1       3.968  -3.045  -4.809  0.00  0.00    -0.291 N 
ATOM     17  H   LIG d   1       3.013  -2.635  -5.169  0.00  0.00     0.151 HD
ATOM     18  H   LIG d   1       2.923  -4.298  -6.815  0.00  0.00     0.156 HD
BRANCH  16  19
ATOM     19  C   LIG d   1       4.666  -2.406  -3.691  0.00  0.00     0.084 C 
ATOM     20  H   LIG d   1       5.226  -3.203  -3.179  0.00  0.00     0.055 H 
ATOM     21  C   LIG d   1       5.612  -1.322  -4.223  0.00  0.00     0.123 C 
ATOM     22  C   LIG d   1       4.786  -0.174  -4.812  0.00  0.00     0.059 C 
ATOM     23  H   LIG d   1       6.316  -1.731  -4.962  0.00  0.00     0.067 H 
ATOM     24  C   LIG d   1       3.742   0.269  -3.776  0.00  0.00     0.206 C 
ATOM     25  H   LIG d   1       5.434   0.665  -5.106  0.00  0.00     0.093 H 
ATOM     26  O   LIG d   1       4.416   0.482  -2.522  0.00  0.00    -0.344 OA
ATOM     27  H   LIG d   1       3.189   1.173  -4.068  0.00  0.00     0.097 H 
ATOM     28  O   LIG d   1       2.845  -0.842  -3.558  0.00  0.00    -0.339 OA
ATOM     29  C   LIG d   1       4.415  -0.777  -1.825  0.00  0.00     0.079 C 
ATOM     30  C   LIG d   1       3.644  -1.745  -2.752  0.00  0.00     0.106 C 
ATOM     31  H   LIG d   1       3.896  -0.705  -0.857  0.00  0.00     0.059 H 
ATOM     32  H   LIG d   1       5.435  -1.154  -1.667  0.00  0.00     0.059 H 
ATOM     33  H   LIG d   1       3.025  -2.499  -2.244  0.00  0.00     0.064 H 
BRANCH  21  34
ATOM     34  O   LIG d   1       6.421  -0.830  -3.154  0.00  0.00    -0.384 OA
ATOM     35  H   LIG d   1       7.401  -0.377  -3.369  0.00  0.00     0.210 HD
ENDBRANCH  21  34
BRANCH  22  36
ATOM     36  N   LIG d   1       4.106  -0.633  -6.031  0.00  0.00     0.243 N 
ATOM     37  C   LIG d   1       5.075  -0.953  -7.087  0.00  0.00    -0.031 C 
ATOM     38  C   LIG d   1       4.344  -1.563  -8.285  0.00  0.00    -0.001 C 
ATOM     39  H   LIG d   1       5.591  -0.034  -7.401  0.00  0.00     0.082 H 
ATOM     40  H   LIG d   1       5.812  -1.674  -6.701  0.00  0.00     0.082 H 
ATOM     41  C   LIG d   1       3.306  -0.564  -8.804  0.00  0.00     0.045 C 
ATOM     42  H   LIG d   1       3.838  -2.489  -7.976  0.00  0.00     0.032 H 
ATOM     43  H   LIG d   1       5.067  -1.788  -9.082  0.00  0.00     0.032 H 
ATOM     44  C   LIG d   1       2.338  -0.210  -7.672  0.00  0.00    -0.001 C 
ATOM     45  H   LIG d   1       3.806   0.345  -9.171  0.00  0.00     0.040 H 
ATOM     46  C   LIG d   1       3.127   0.360  -6.493  0.00  0.00    -0.031 C 
ATOM     47  H   LIG d   1       1.800  -1.114  -7.352  0.00  0.00     0.032 H 
ATOM     48  H   LIG d   1       1.614   0.540  -8.026  0.00  0.00     0.032 H 
ATOM     49  H   LIG d   1       2.435   0.602  -5.671  0.00  0.00     0.082 H 
ATOM     50  H   LIG d   1       3.652   1.273  -6.809  0.00  0.00     0.082 H 
ATOM     51  H   LIG d   1       3.557  -1.555  -5.788  0.00  0.00     0.204 HD
BRANCH  41  52
ATOM     52  C   LIG d   1       2.542  -1.181  -9.948  0.00  0.00     0.214 C 
ATOM     53  O   LIG d   1       3.126  -1.834 -10.786  0.00  0.00    -0.276 OA
ATOM     54  N   LIG d   1       1.209  -1.005 -10.040  0.00  0.00    -0.329 N 
ATOM     55  H   LIG d   1       0.651  -1.456 -10.874  0.00  0.00     0.145 HD
ATOM     56  H   LIG d   1       0.678  -0.413  -9.280  0.00  0.00     0.145 HD
ENDBRANCH  41  52
ENDBRANCH  22  36
ENDBRANCH  16  19
ENDBRANCH   5  13
TORSDOF 5
ENDMDL
MODEL 7
REMARK VINA RESULT:      -6.6      3.198      4.536
REMARK  5 active torsions:
REMARK  status: ('A' for Active; 'I' for Inactive)
REMARK    1  A    between atoms: C_5  and  N_7 
REMARK       I    between atoms: N_7  and  C_8 
REMARK       I    between atoms: C_8  and  N_10 
REMARK    2  A    between atoms: N_10  and  C_11 
REMARK    3  A    between atoms: C_20  and  N_25 
REMARK    4  A    between atoms: C_22  and  O_24 
REMARK    5  A    between atoms: C_28  and  C_31 
REMARK       I    between atoms: C_31  and  N_33 
ROOT
ATOM      1  C   LIG d   1       4.111   0.104  -1.949  0.00  0.00    -0.059 A 
ATOM      2  C   LIG d   1       5.122   0.981  -2.281  0.00  0.00    -0.044 A 
ATOM      3  C   LIG d   1       6.147   0.573  -3.138  0.00  0.00     0.053 A 
ATOM      4  C   LIG d   1       6.146  -0.726  -3.650  0.00  0.00    -0.023 A 
ATOM      5  C   LIG d   1       5.122  -1.596  -3.315  0.00  0.00     0.036 A 
ATOM      6  C   LIG d   1       4.107  -1.180  -2.462  0.00  0.00    -0.040 A 
ATOM      7  C   LIG d   1       7.199   1.481  -3.485  0.00  0.00     0.099 C 
ATOM      8  N   LIG d   1       8.032   2.202  -3.760  0.00  0.00    -0.191 NA
ATOM      9  H   LIG d   1       3.319   0.421  -1.287  0.00  0.00     0.062 H 
ATOM     10  H   LIG d   1       5.121   1.983  -1.879  0.00  0.00     0.063 H 
ATOM     11  H   LIG d   1       6.938  -1.049  -4.309  0.00  0.00     0.065 H 
ATOM     12  H   LIG d   1       3.311  -1.862  -2.199  0.00  0.00     0.064 H 
ENDROOT
BRANCH   5  13
ATOM     13  N   LIG d   1       5.112  -2.898  -3.831  0.00  0.00    -0.269 N 
ATOM     14  C   LIG d   1       4.748  -3.113  -5.110  0.00  0.00     0.304 C 
ATOM     15  O   LIG d   1       4.278  -2.206  -5.769  0.00  0.00    -0.253 OA
ATOM     16  N   LIG d   1       4.904  -4.335  -5.658  0.00  0.00    -0.291 N 
ATOM     17  H   LIG d   1       5.250  -5.175  -5.039  0.00  0.00     0.151 HD
ATOM     18  H   LIG d   1       5.403  -3.745  -3.191  0.00  0.00     0.156 HD
BRANCH  16  19
ATOM     19  C   LIG d   1       4.611  -4.542  -7.079  0.00  0.00     0.084 C 
ATOM     20  H   LIG d   1       3.847  -3.798  -7.349  0.00  0.00     0.055 H 
ATOM     21  C   LIG d   1       5.888  -4.346  -7.905  0.00  0.00     0.123 C 
ATOM     22  C   LIG d   1       6.873  -5.477  -7.589  0.00  0.00     0.059 C 
ATOM     23  H   LIG d   1       6.337  -3.359  -7.723  0.00  0.00     0.067 H 
ATOM     24  C   LIG d   1       6.150  -6.823  -7.746  0.00  0.00     0.206 C 
ATOM     25  H   LIG d   1       7.755  -5.422  -8.245  0.00  0.00     0.093 H 
ATOM     26  O   LIG d   1       5.483  -6.831  -9.022  0.00  0.00    -0.344 OA
ATOM     27  H   LIG d   1       6.817  -7.693  -7.661  0.00  0.00     0.097 H 
ATOM     28  O   LIG d   1       5.102  -6.873  -6.752  0.00  0.00    -0.339 OA
ATOM     29  C   LIG d   1       4.173  -6.274  -8.814  0.00  0.00     0.079 C 
ATOM     30  C   LIG d   1       4.102  -5.976  -7.298  0.00  0.00     0.106 C 
ATOM     31  H   LIG d   1       3.381  -6.988  -9.085  0.00  0.00     0.059 H 
ATOM     32  H   LIG d   1       4.034  -5.340  -9.378  0.00  0.00     0.059 H 
ATOM     33  H   LIG d   1       3.118  -6.125  -6.829  0.00  0.00     0.064 H 
BRANCH  21  34
ATOM     34  O   LIG d   1       5.563  -4.369  -9.296  0.00  0.00    -0.384 OA
ATOM     35  H   LIG d   1       5.178  -3.462  -9.785  0.00  0.00     0.210 HD
ENDBRANCH  21  34
BRANCH  22  36
ATOM     36  N   LIG d   1       7.358  -5.335  -6.211  0.00  0.00     0.243 N 
ATOM     37  C   LIG d   1       8.148  -4.107  -6.053  0.00  0.00    -0.031 C 
ATOM     38  C   LIG d   1       8.513  -3.919  -4.579  0.00  0.00    -0.001 C 
ATOM     39  H   LIG d   1       9.068  -4.183  -6.651  0.00  0.00     0.082 H 
ATOM     40  H   LIG d   1       7.557  -3.245  -6.397  0.00  0.00     0.082 H 
ATOM     41  C   LIG d   1       9.317  -5.130  -4.099  0.00  0.00     0.045 C 
ATOM     42  H   LIG d   1       7.594  -3.828  -3.981  0.00  0.00     0.032 H 
ATOM     43  H   LIG d   1       9.117  -3.008  -4.462  0.00  0.00     0.032 H 
ATOM     44  C   LIG d   1       8.492  -6.401  -4.319  0.00  0.00    -0.001 C 
ATOM     45  H   LIG d   1      10.267  -5.197  -4.651  0.00  0.00     0.040 H 
ATOM     46  C   LIG d   1       8.128  -6.517  -5.799  0.00  0.00    -0.031 C 
ATOM     47  H   LIG d   1       7.572  -6.351  -3.717  0.00  0.00     0.032 H 
ATOM     48  H   LIG d   1       9.080  -7.280  -4.015  0.00  0.00     0.032 H 
ATOM     49  H   LIG d   1       7.522  -7.422  -5.959  0.00  0.00     0.082 H 
ATOM     50  H   LIG d   1       9.048  -6.582  -6.399  0.00  0.00     0.082 H 
ATOM     51  H   LIG d   1       6.484  -5.259  -5.548  0.00  0.00     0.204 HD
BRANCH  41  52
ATOM     52  C   LIG d   1       9.629  -4.978  -2.632  0.00  0.00     0.214 C 
ATOM     53  O   LIG d   1       9.941  -5.948  -1.975  0.00  0.00    -0.276 OA
ATOM     54  N   LIG d   1       9.559  -3.764  -2.051  0.00  0.00    -0.329 N 
ATOM     55  H   LIG d   1       9.787  -3.653  -0.980  0.00  0.00     0.145 HD
ATOM     56  H   LIG d   1       9.276  -2.884  -2.647  0.00  0.00     0.145 HD
ENDBRANCH  41  52
ENDBRANCH  22  36
ENDBRANCH  16  19
ENDBRANCH   5  13
TORSDOF 5
ENDMDL
MODEL 8
REMARK VINA RESULT:      -6.3      2.697      6.932
REMARK  5 active torsions:
REMARK  status: ('A' for Active; 'I' for Inactive)
REMARK    1  A    between atoms: C_5  and  N_7 
REMARK       I    between atoms: N_7  and  C_8 
REMARK       I    between atoms: C_8  and  N_10 
REMARK    2  A    between atoms: N_10  and  C_11 
REMARK    3  A    between atoms: C_20  and  N_25 
REMARK    4  A    between atoms: C_22  and  O_24 
REMARK    5  A    between atoms: C_28  and  C_31 
REMARK       I    between atoms: C_31  and  N_33 
ROOT
ATOM      1  C   LIG d   1       3.599   0.384 -11.395  0.00  0.00    -0.059 A 
ATOM      2  C   LIG d   1       2.665  -0.551 -11.788  0.00  0.00    -0.044 A 
ATOM      3  C   LIG d   1       2.299  -1.581 -10.918  0.00  0.00     0.053 A 
ATOM      4  C   LIG d   1       2.888  -1.662  -9.654  0.00  0.00    -0.023 A 
ATOM      5  C   LIG d   1       3.820  -0.714  -9.268  0.00  0.00     0.036 A 
ATOM      6  C   LIG d   1       4.177   0.307 -10.142  0.00  0.00    -0.040 A 
ATOM      7  C   LIG d   1       1.330  -2.554 -11.322  0.00  0.00     0.099 C 
ATOM      8  N   LIG d   1       0.560  -3.326 -11.644  0.00  0.00    -0.191 NA
ATOM      9  H   LIG d   1       3.881   1.180 -12.069  0.00  0.00     0.062 H 
ATOM     10  H   LIG d   1       2.216  -0.488 -12.768  0.00  0.00     0.063 H 
ATOM     11  H   LIG d   1       2.613  -2.458  -8.979  0.00  0.00     0.065 H 
ATOM     12  H   LIG d   1       4.907   1.044  -9.840  0.00  0.00     0.064 H 
ENDROOT
BRANCH   5  13
ATOM     13  N   LIG d   1       4.409  -0.786  -8.000  0.00  0.00    -0.269 N 
ATOM     14  C   LIG d   1       3.750  -0.316  -6.923  0.00  0.00     0.304 C 
ATOM     15  O   LIG d   1       2.718   0.311  -7.068  0.00  0.00    -0.253 OA
ATOM     16  N   LIG d   1       4.234  -0.540  -5.685  0.00  0.00    -0.291 N 
ATOM     17  H   LIG d   1       5.209  -1.034  -5.558  0.00  0.00     0.151 HD
ATOM     18  H   LIG d   1       5.410  -1.227  -7.883  0.00  0.00     0.156 HD
BRANCH  16  19
ATOM     19  C   LIG d   1       3.463  -0.126  -4.511  0.00  0.00     0.084 C 
ATOM     20  H   LIG d   1       2.448   0.100  -4.870  0.00  0.00     0.055 H 
ATOM     21  C   LIG d   1       3.442  -1.260  -3.478  0.00  0.00     0.123 C 
ATOM     22  C   LIG d   1       4.853  -1.453  -2.911  0.00  0.00     0.059 C 
ATOM     23  H   LIG d   1       3.052  -2.191  -3.912  0.00  0.00     0.067 H 
ATOM     24  C   LIG d   1       5.386  -0.095  -2.433  0.00  0.00     0.206 C 
ATOM     25  H   LIG d   1       4.848  -2.188  -2.092  0.00  0.00     0.093 H 
ATOM     26  O   LIG d   1       4.387   0.511  -1.593  0.00  0.00    -0.344 OA
ATOM     27  H   LIG d   1       6.343  -0.162  -1.896  0.00  0.00     0.097 H 
ATOM     28  O   LIG d   1       5.500   0.761  -3.592  0.00  0.00    -0.339 OA
ATOM     29  C   LIG d   1       3.522   1.275  -2.453  0.00  0.00     0.079 C 
ATOM     30  C   LIG d   1       4.120   1.108  -3.870  0.00  0.00     0.106 C 
ATOM     31  H   LIG d   1       3.517   2.342  -2.181  0.00  0.00     0.059 H 
ATOM     32  H   LIG d   1       2.493   0.889  -2.441  0.00  0.00     0.059 H 
ATOM     33  H   LIG d   1       4.041   1.986  -4.526  0.00  0.00     0.064 H 
BRANCH  21  34
ATOM     34  O   LIG d   1       2.543  -0.924  -2.420  0.00  0.00    -0.384 OA
ATOM     35  H   LIG d   1       2.319   0.131  -2.203  0.00  0.00     0.210 HD
ENDBRANCH  21  34
BRANCH  22  36
ATOM     36  N   LIG d   1       5.734  -1.988  -3.957  0.00  0.00     0.243 N 
ATOM     37  C   LIG d   1       5.249  -3.287  -4.441  0.00  0.00    -0.031 C 
ATOM     38  C   LIG d   1       6.104  -3.744  -5.625  0.00  0.00    -0.001 C 
ATOM     39  H   LIG d   1       5.318  -4.029  -3.632  0.00  0.00     0.082 H 
ATOM     40  H   LIG d   1       4.201  -3.191  -4.762  0.00  0.00     0.082 H 
ATOM     41  C   LIG d   1       7.565  -3.857  -5.179  0.00  0.00     0.045 C 
ATOM     42  H   LIG d   1       6.026  -3.011  -6.441  0.00  0.00     0.032 H 
ATOM     43  H   LIG d   1       5.752  -4.724  -5.978  0.00  0.00     0.032 H 
ATOM     44  C   LIG d   1       8.031  -2.504  -4.634  0.00  0.00    -0.001 C 
ATOM     45  H   LIG d   1       7.665  -4.631  -4.403  0.00  0.00     0.040 H 
ATOM     46  C   LIG d   1       7.120  -2.084  -3.480  0.00  0.00    -0.031 C 
ATOM     47  H   LIG d   1       7.983  -1.749  -5.434  0.00  0.00     0.032 H 
ATOM     48  H   LIG d   1       9.066  -2.588  -4.273  0.00  0.00     0.032 H 
ATOM     49  H   LIG d   1       7.443  -1.104  -3.096  0.00  0.00     0.082 H 
ATOM     50  H   LIG d   1       7.180  -2.830  -2.675  0.00  0.00     0.082 H 
ATOM     51  H   LIG d   1       5.720  -1.288  -4.805  0.00  0.00     0.204 HD
BRANCH  41  52
ATOM     52  C   LIG d   1       8.422  -4.250  -6.356  0.00  0.00     0.214 C 
ATOM     53  O   LIG d   1       9.012  -5.309  -6.350  0.00  0.00    -0.276 OA
ATOM     54  N   LIG d   1       8.533  -3.422  -7.413  0.00  0.00    -0.329 N 
ATOM     55  H   LIG d   1       9.159  -3.708  -8.272  0.00  0.00     0.145 HD
ATOM     56  H   LIG d   1       7.998  -2.461  -7.419  0.00  0.00     0.145 HD
ENDBRANCH  41  52
ENDBRANCH  22  36
ENDBRANCH  16  19
ENDBRANCH   5  13
TORSDOF 5
ENDMDL
MODEL 9
REMARK VINA RESULT:      -6.3     10.542     14.501
REMARK  5 active torsions:
REMARK  status: ('A' for Active; 'I' for Inactive)
REMARK    1  A    between atoms: C_5  and  N_7 
REMARK       I    between atoms: N_7  and  C_8 
REMARK       I    between atoms: C_8  and  N_10 
REMARK    2  A    between atoms: N_10  and  C_11 
REMARK    3  A    between atoms: C_20  and  N_25 
REMARK    4  A    between atoms: C_22  and  O_24 
REMARK    5  A    between atoms: C_28  and  C_31 
REMARK       I    between atoms: C_31  and  N_33 
ROOT
ATOM      1  C   LIG d   1      11.049   9.015  -8.228  0.00  0.00    -0.059 A 
ATOM      2  C   LIG d   1      10.442   8.196  -9.157  0.00  0.00    -0.044 A 
ATOM      3  C   LIG d   1       9.588   7.175  -8.736  0.00  0.00     0.053 A 
ATOM      4  C   LIG d   1       9.357   6.984  -7.372  0.00  0.00    -0.023 A 
ATOM      5  C   LIG d   1       9.966   7.816  -6.448  0.00  0.00     0.036 A 
ATOM      6  C   LIG d   1      10.815   8.829  -6.878  0.00  0.00    -0.040 A 
ATOM      7  C   LIG d   1       8.956   6.323  -9.698  0.00  0.00     0.099 C 
ATOM      8  N   LIG d   1       8.455   5.648 -10.462  0.00  0.00    -0.191 NA
ATOM      9  H   LIG d   1      11.710   9.804  -8.555  0.00  0.00     0.062 H 
ATOM     10  H   LIG d   1      10.628   8.345 -10.210  0.00  0.00     0.063 H 
ATOM     11  H   LIG d   1       8.701   6.193  -7.040  0.00  0.00     0.065 H 
ATOM     12  H   LIG d   1      11.293   9.474  -6.155  0.00  0.00     0.064 H 
ENDROOT
BRANCH   5  13
ATOM     13  N   LIG d   1       9.733   7.633  -5.080  0.00  0.00    -0.269 N 
ATOM     14  C   LIG d   1      10.575   6.879  -4.347  0.00  0.00     0.304 C 
ATOM     15  O   LIG d   1      11.445   6.230  -4.896  0.00  0.00    -0.253 OA
ATOM     16  N   LIG d   1      10.454   6.843  -3.005  0.00  0.00    -0.291 N 
ATOM     17  H   LIG d   1       9.617   7.363  -2.515  0.00  0.00     0.151 HD
ATOM     18  H   LIG d   1       8.862   8.106  -4.603  0.00  0.00     0.156 HD
BRANCH  16  19
ATOM     19  C   LIG d   1      11.435   6.112  -2.200  0.00  0.00     0.084 C 
ATOM     20  H   LIG d   1      11.825   5.307  -2.842  0.00  0.00     0.055 H 
ATOM     21  C   LIG d   1      12.559   7.061  -1.764  0.00  0.00     0.123 C 
ATOM     22  C   LIG d   1      11.997   8.086  -0.772  0.00  0.00     0.059 C 
ATOM     23  H   LIG d   1      13.027   7.553  -2.629  0.00  0.00     0.067 H 
ATOM     24  C   LIG d   1      11.253   7.340   0.345  0.00  0.00     0.206 C 
ATOM     25  H   LIG d   1      12.802   8.714  -0.362  0.00  0.00     0.093 H 
ATOM     26  O   LIG d   1      12.115   6.302   0.845  0.00  0.00    -0.344 OA
ATOM     27  H   LIG d   1      10.926   7.992   1.167  0.00  0.00     0.097 H 
ATOM     28  O   LIG d   1      10.128   6.662  -0.259  0.00  0.00    -0.339 OA
ATOM     29  C   LIG d   1      11.869   5.130   0.047  0.00  0.00     0.079 C 
ATOM     30  C   LIG d   1      10.756   5.548  -0.942  0.00  0.00     0.106 C 
ATOM     31  H   LIG d   1      11.518   4.287   0.660  0.00  0.00     0.059 H 
ATOM     32  H   LIG d   1      12.764   4.826  -0.515  0.00  0.00     0.059 H 
ATOM     33  H   LIG d   1      10.030   4.763  -1.200  0.00  0.00     0.064 H 
BRANCH  21  34
ATOM     34  O   LIG d   1      13.600   6.311  -1.138  0.00  0.00    -0.384 OA
ATOM     35  H   LIG d   1      13.543   6.081  -0.064  0.00  0.00     0.210 HD
ENDBRANCH  21  34
BRANCH  22  36
ATOM     36  N   LIG d   1      11.069   8.986  -1.468  0.00  0.00     0.243 N 
ATOM     37  C   LIG d   1      11.784   9.860  -2.407  0.00  0.00    -0.031 C 
ATOM     38  C   LIG d   1      10.776  10.678  -3.216  0.00  0.00    -0.001 C 
ATOM     39  H   LIG d   1      12.442  10.540  -1.846  0.00  0.00     0.082 H 
ATOM     40  H   LIG d   1      12.390   9.245  -3.090  0.00  0.00     0.082 H 
ATOM     41  C   LIG d   1       9.923  11.516  -2.259  0.00  0.00     0.045 C 
ATOM     42  H   LIG d   1      10.126  10.000  -3.788  0.00  0.00     0.032 H 
ATOM     43  H   LIG d   1      11.312  11.344  -3.907  0.00  0.00     0.032 H 
ATOM     44  C   LIG d   1       9.226  10.586  -1.261  0.00  0.00    -0.001 C 
ATOM     45  H   LIG d   1      10.555  12.239  -1.722  0.00  0.00     0.040 H 
ATOM     46  C   LIG d   1      10.279   9.771  -0.510  0.00  0.00    -0.031 C 
ATOM     47  H   LIG d   1       8.551   9.905  -1.802  0.00  0.00     0.032 H 
ATOM     48  H   LIG d   1       8.644  11.184  -0.544  0.00  0.00     0.032 H 
ATOM     49  H   LIG d   1       9.781   9.091   0.197  0.00  0.00     0.082 H 
ATOM     50  H   LIG d   1      10.944  10.451   0.043  0.00  0.00     0.082 H 
ATOM     51  H   LIG d   1      10.369   8.369  -2.051  0.00  0.00     0.204 HD
BRANCH  41  52
ATOM     52  C   LIG d   1       8.888  12.280  -3.045  0.00  0.00     0.214 C 
ATOM     53  O   LIG d   1       9.205  13.278  -3.656  0.00  0.00    -0.276 OA
ATOM     54  N   LIG d   1       7.609  11.854  -3.067  0.00  0.00    -0.329 N 
ATOM     55  H   LIG d   1       6.854  12.412  -3.641  0.00  0.00     0.145 HD
ATOM     56  H   LIG d   1       7.321  10.948  -2.513  0.00  0.00     0.145 HD
ENDBRANCH  41  52
ENDBRANCH  22  36
ENDBRANCH  16  19
ENDBRANCH   5  13
TORSDOF 5
ENDMDL
