MODEL 1
REMARK VINA RESULT:      -7.4      0.000      0.000
REMARK  13 active torsions:
REMARK  status: ('A' for Active; 'I' for Inactive)
REMARK    1  A    between atoms: C_1  and  O_2 
REMARK    2  A    between atoms: O_2  and  C_3 
REMARK    3  A    between atoms: C_6  and  N_9 
REMARK       I    between atoms: N_9  and  C_10 
REMARK    4  A    between atoms: C_10  and  C_12 
REMARK    5  A    between atoms: C_12  and  C_13 
REMARK    6  A    between atoms: C_12  and  O_17 
REMARK    7  A    between atoms: O_17  and  C_18 
REMARK    8  A    between atoms: C_18  and  C_19 
REMARK    9  A    between atoms: C_19  and  C_20 
REMARK   10  A    between atoms: C_19  and  O_24 
REMARK   11  A    between atoms: O_24  and  C_25 
REMARK   12  A    between atoms: C_25  and  C_26 
REMARK   13  A    between atoms: C_26  and  C_27 
ROOT
ATOM      1  C   LIG d   1       7.444   1.017  -7.486  0.00  0.00     0.387 C 
ATOM      2  F   LIG d   1       7.973  -0.187  -7.960  0.00  0.00    -0.190 F 
ENDROOT
BRANCH   1   3
ATOM      3  C   LIG d   1       8.425   1.661  -6.541  0.00  0.00     0.292 C 
ATOM      4  N   LIG d   1       7.980   2.320  -5.453  0.00  0.00    -0.281 N 
ATOM      5  H   LIG d   1       7.032   2.332  -5.247  0.00  0.00     0.155 HD
ATOM      6  O   LIG d   1       9.616   1.588  -6.761  0.00  0.00    -0.269 OA
BRANCH   4   7
ATOM      7  C   LIG d   1       8.886   2.984  -4.617  0.00  0.00     0.034 A 
ATOM      8  C   LIG d   1       9.184   4.321  -4.838  0.00  0.00    -0.037 A 
ATOM      9  C   LIG d   1      10.076   4.976  -4.012  0.00  0.00    -0.018 A 
ATOM     10  H   LIG d   1       8.717   4.851  -5.656  0.00  0.00     0.064 H 
ATOM     11  C   LIG d   1      10.675   4.298  -2.961  0.00  0.00     0.120 A 
ATOM     12  H   LIG d   1      10.307   6.017  -4.184  0.00  0.00     0.066 H 
ATOM     13  C   LIG d   1      10.382   2.959  -2.742  0.00  0.00    -0.018 A 
ATOM     14  C   LIG d   1       9.486   2.305  -3.564  0.00  0.00    -0.037 A 
ATOM     15  H   LIG d   1      10.852   2.429  -1.927  0.00  0.00     0.066 H 
ATOM     16  H   LIG d   1       9.253   1.264  -3.391  0.00  0.00     0.064 H 
BRANCH  11  17
ATOM     17  O   LIG d   1      11.554   4.942  -2.148  0.00  0.00    -0.495 OA
BRANCH  17  18
ATOM     18  C   LIG d   1      11.031   5.502  -0.942  0.00  0.00     0.079 C 
ATOM     19  H   LIG d   1      11.291   4.859  -0.101  0.00  0.00     0.066 H 
ATOM     20  H   LIG d   1      11.458   6.494  -0.787  0.00  0.00     0.066 H 
ATOM     21  H   LIG d   1       9.947   5.582  -1.018  0.00  0.00     0.066 H 
ENDBRANCH  17  18
ENDBRANCH  11  17
ENDBRANCH   4   7
ENDBRANCH   1   3
BRANCH   1  22
ATOM     22  C   LIG d   1       7.178   1.956  -8.665  0.00  0.00     0.459 C 
ATOM     23  F   LIG d   1       7.463   1.292  -9.863  0.00  0.00    -0.165 F 
ATOM     24  F   LIG d   1       5.837   2.349  -8.657  0.00  0.00    -0.165 F 
ATOM     25  F   LIG d   1       7.996   3.086  -8.555  0.00  0.00    -0.165 F 
ENDBRANCH   1  22
BRANCH   1  26
ATOM     26  O   LIG d   1       6.218   0.761  -6.797  0.00  0.00    -0.263 OA
BRANCH  26  27
ATOM     27  C   LIG d   1       5.725  -0.569  -6.964  0.00  0.00     0.428 C 
ATOM     28  F   LIG d   1       5.454  -0.801  -8.316  0.00  0.00    -0.169 F 
ATOM     29  F   LIG d   1       6.689  -1.482  -6.519  0.00  0.00    -0.169 F 
BRANCH  27  30
ATOM     30  C   LIG d   1       4.442  -0.745  -6.149  0.00  0.00     0.401 C 
ATOM     31  F   LIG d   1       4.188  -2.109  -5.968  0.00  0.00    -0.191 F 
BRANCH  30  32
ATOM     32  C   LIG d   1       3.272  -0.102  -6.896  0.00  0.00     0.458 C 
ATOM     33  F   LIG d   1       2.262   0.229  -5.987  0.00  0.00    -0.165 F 
ATOM     34  F   LIG d   1       3.714   1.057  -7.546  0.00  0.00    -0.165 F 
ATOM     35  F   LIG d   1       2.771  -1.003  -7.841  0.00  0.00    -0.165 F 
ENDBRANCH  30  32
BRANCH  30  36
ATOM     36  O   LIG d   1       4.597  -0.116  -4.876  0.00  0.00    -0.264 OA
BRANCH  36  37
ATOM     37  C   LIG d   1       4.609  -1.027  -3.775  0.00  0.00     0.432 C 
ATOM     38  F   LIG d   1       3.825  -2.143  -4.084  0.00  0.00    -0.168 F 
ATOM     39  F   LIG d   1       5.924  -1.437  -3.523  0.00  0.00    -0.168 F 
BRANCH  37  40
ATOM     40  C   LIG d   1       4.044  -0.335  -2.533  0.00  0.00     0.429 C 
ATOM     41  F   LIG d   1       2.666  -0.148  -2.690  0.00  0.00    -0.186 F 
ATOM     42  F   LIG d   1       4.282  -1.130  -1.407  0.00  0.00    -0.186 F 
BRANCH  40  43
ATOM     43  C   LIG d   1       4.726   1.023  -2.351  0.00  0.00     0.463 C 
ATOM     44  F   LIG d   1       6.027   0.964  -2.858  0.00  0.00    -0.165 F 
ATOM     45  F   LIG d   1       4.002   2.003  -3.037  0.00  0.00    -0.165 F 
ATOM     46  F   LIG d   1       4.770   1.343  -0.989  0.00  0.00    -0.165 F 
ENDBRANCH  40  43
ENDBRANCH  37  40
ENDBRANCH  36  37
ENDBRANCH  30  36
ENDBRANCH  27  30
ENDBRANCH  26  27
ENDBRANCH   1  26
TORSDOF 13
ENDMDL
MODEL 2
REMARK VINA RESULT:      -7.3      4.095      7.184
REMARK  13 active torsions:
REMARK  status: ('A' for Active; 'I' for Inactive)
REMARK    1  A    between atoms: C_1  and  O_2 
REMARK    2  A    between atoms: O_2  and  C_3 
REMARK    3  A    between atoms: C_6  and  N_9 
REMARK       I    between atoms: N_9  and  C_10 
REMARK    4  A    between atoms: C_10  and  C_12 
REMARK    5  A    between atoms: C_12  and  C_13 
REMARK    6  A    between atoms: C_12  and  O_17 
REMARK    7  A    between atoms: O_17  and  C_18 
REMARK    8  A    between atoms: C_18  and  C_19 
REMARK    9  A    between atoms: C_19  and  C_20 
REMARK   10  A    between atoms: C_19  and  O_24 
REMARK   11  A    between atoms: O_24  and  C_25 
REMARK   12  A    between atoms: C_25  and  C_26 
REMARK   13  A    between atoms: C_26  and  C_27 
ROOT
ATOM      1  C   LIG d   1       3.081   0.224  -7.060  0.00  0.00     0.387 C 
ATOM      2  F   LIG d   1       1.760  -0.104  -6.739  0.00  0.00    -0.190 F 
ENDROOT
BRANCH   1   3
ATOM      3  C   LIG d   1       3.772  -0.983  -7.641  0.00  0.00     0.292 C 
ATOM      4  N   LIG d   1       3.058  -1.912  -8.307  0.00  0.00    -0.281 N 
ATOM      5  H   LIG d   1       2.109  -1.777  -8.461  0.00  0.00     0.155 HD
ATOM      6  O   LIG d   1       4.970  -1.119  -7.508  0.00  0.00    -0.269 OA
BRANCH   4   7
ATOM      7  C   LIG d   1       3.686  -3.071  -8.780  0.00  0.00     0.034 A 
ATOM      8  C   LIG d   1       3.714  -4.216  -7.996  0.00  0.00    -0.037 A 
ATOM      9  C   LIG d   1       4.331  -5.359  -8.464  0.00  0.00    -0.018 A 
ATOM     10  H   LIG d   1       3.251  -4.214  -7.020  0.00  0.00     0.064 H 
ATOM     11  C   LIG d   1       4.924  -5.364  -9.718  0.00  0.00     0.120 A 
ATOM     12  H   LIG d   1       4.352  -6.250  -7.854  0.00  0.00     0.066 H 
ATOM     13  C   LIG d   1       4.902  -4.218 -10.500  0.00  0.00    -0.018 A 
ATOM     14  C   LIG d   1       4.280  -3.076 -10.036  0.00  0.00    -0.037 A 
ATOM     15  H   LIG d   1       5.369  -4.220 -11.474  0.00  0.00     0.066 H 
ATOM     16  H   LIG d   1       4.258  -2.186 -10.647  0.00  0.00     0.064 H 
BRANCH  11  17
ATOM     17  O   LIG d   1       5.533  -6.489 -10.177  0.00  0.00    -0.495 OA
BRANCH  17  18
ATOM     18  C   LIG d   1       5.515  -7.633  -9.321  0.00  0.00     0.079 C 
ATOM     19  H   LIG d   1       5.662  -7.316  -8.289  0.00  0.00     0.066 H 
ATOM     20  H   LIG d   1       4.554  -8.140  -9.412  0.00  0.00     0.066 H 
ATOM     21  H   LIG d   1       6.314  -8.315  -9.610  0.00  0.00     0.066 H 
ENDBRANCH  17  18
ENDBRANCH  11  17
ENDBRANCH   4   7
ENDBRANCH   1   3
BRANCH   1  22
ATOM     22  C   LIG d   1       3.090   1.360  -8.085  0.00  0.00     0.459 C 
ATOM     23  F   LIG d   1       2.322   0.992  -9.195  0.00  0.00    -0.165 F 
ATOM     24  F   LIG d   1       2.552   2.514  -7.507  0.00  0.00    -0.165 F 
ATOM     25  F   LIG d   1       4.405   1.611  -8.491  0.00  0.00    -0.165 F 
ENDBRANCH   1  22
BRANCH   1  26
ATOM     26  O   LIG d   1       3.769   0.643  -5.879  0.00  0.00    -0.263 OA
BRANCH  26  27
ATOM     27  C   LIG d   1       2.963   0.622  -4.699  0.00  0.00     0.428 C 
ATOM     28  F   LIG d   1       2.654   1.933  -4.321  0.00  0.00    -0.169 F 
ATOM     29  F   LIG d   1       1.779  -0.080  -4.956  0.00  0.00    -0.169 F 
BRANCH  27  30
ATOM     30  C   LIG d   1       3.730  -0.067  -3.569  0.00  0.00     0.401 C 
ATOM     31  F   LIG d   1       2.948  -1.099  -3.037  0.00  0.00    -0.191 F 
BRANCH  30  32
ATOM     32  C   LIG d   1       4.045   0.952  -2.472  0.00  0.00     0.458 C 
ATOM     33  F   LIG d   1       4.599   0.294  -1.369  0.00  0.00    -0.165 F 
ATOM     34  F   LIG d   1       4.957   1.895  -2.959  0.00  0.00    -0.165 F 
ATOM     35  F   LIG d   1       2.867   1.599  -2.085  0.00  0.00    -0.165 F 
ENDBRANCH  30  32
BRANCH  30  36
ATOM     36  O   LIG d   1       4.949  -0.608  -4.081  0.00  0.00    -0.264 OA
BRANCH  36  37
ATOM     37  C   LIG d   1       5.037  -2.031  -3.990  0.00  0.00     0.432 C 
ATOM     38  F   LIG d   1       4.723  -2.436  -2.689  0.00  0.00    -0.168 F 
ATOM     39  F   LIG d   1       4.135  -2.612  -4.889  0.00  0.00    -0.168 F 
BRANCH  37  40
ATOM     40  C   LIG d   1       6.459  -2.478  -4.334  0.00  0.00     0.429 C 
ATOM     41  F   LIG d   1       7.048  -1.539  -5.189  0.00  0.00    -0.186 F 
ATOM     42  F   LIG d   1       7.214  -2.577  -3.161  0.00  0.00    -0.186 F 
BRANCH  40  43
ATOM     43  C   LIG d   1       6.413  -3.841  -5.028  0.00  0.00     0.463 C 
ATOM     44  F   LIG d   1       5.237  -4.507  -4.669  0.00  0.00    -0.165 F 
ATOM     45  F   LIG d   1       6.440  -3.660  -6.415  0.00  0.00    -0.165 F 
ATOM     46  F   LIG d   1       7.519  -4.602  -4.634  0.00  0.00    -0.165 F 
ENDBRANCH  40  43
ENDBRANCH  37  40
ENDBRANCH  36  37
ENDBRANCH  30  36
ENDBRANCH  27  30
ENDBRANCH  26  27
ENDBRANCH   1  26
TORSDOF 13
ENDMDL
MODEL 3
REMARK VINA RESULT:      -7.1      3.902      7.588
REMARK  13 active torsions:
REMARK  status: ('A' for Active; 'I' for Inactive)
REMARK    1  A    between atoms: C_1  and  O_2 
REMARK    2  A    between atoms: O_2  and  C_3 
REMARK    3  A    between atoms: C_6  and  N_9 
REMARK       I    between atoms: N_9  and  C_10 
REMARK    4  A    between atoms: C_10  and  C_12 
REMARK    5  A    between atoms: C_12  and  C_13 
REMARK    6  A    between atoms: C_12  and  O_17 
REMARK    7  A    between atoms: O_17  and  C_18 
REMARK    8  A    between atoms: C_18  and  C_19 
REMARK    9  A    between atoms: C_19  and  C_20 
REMARK   10  A    between atoms: C_19  and  O_24 
REMARK   11  A    between atoms: O_24  and  C_25 
REMARK   12  A    between atoms: C_25  and  C_26 
REMARK   13  A    between atoms: C_26  and  C_27 
ROOT
ATOM      1  C   LIG d   1       3.502   1.110  -8.836  0.00  0.00     0.387 C 
ATOM      2  F   LIG d   1       2.364   1.716  -8.294  0.00  0.00    -0.190 F 
ENDROOT
BRANCH   1   3
ATOM      3  C   LIG d   1       3.086  -0.020  -9.743  0.00  0.00     0.292 C 
ATOM      4  N   LIG d   1       1.778  -0.280  -9.938  0.00  0.00    -0.281 N 
ATOM      5  H   LIG d   1       1.104   0.294  -9.540  0.00  0.00     0.155 HD
ATOM      6  O   LIG d   1       3.929  -0.694 -10.295  0.00  0.00    -0.269 OA
BRANCH   4   7
ATOM      7  C   LIG d   1       1.392  -1.377 -10.718  0.00  0.00     0.034 A 
ATOM      8  C   LIG d   1       1.381  -2.652 -10.168  0.00  0.00    -0.037 A 
ATOM      9  C   LIG d   1       0.998  -3.732 -10.938  0.00  0.00    -0.018 A 
ATOM     10  H   LIG d   1       1.671  -2.798  -9.138  0.00  0.00     0.064 H 
ATOM     11  C   LIG d   1       0.625  -3.546 -12.260  0.00  0.00     0.120 A 
ATOM     12  H   LIG d   1       0.989  -4.724 -10.509  0.00  0.00     0.066 H 
ATOM     13  C   LIG d   1       0.640  -2.273 -12.813  0.00  0.00    -0.018 A 
ATOM     14  C   LIG d   1       1.018  -1.190 -12.043  0.00  0.00    -0.037 A 
ATOM     15  H   LIG d   1       0.354  -2.128 -13.844  0.00  0.00     0.066 H 
ATOM     16  H   LIG d   1       1.025  -0.199 -12.471  0.00  0.00     0.064 H 
BRANCH  11  17
ATOM     17  O   LIG d   1       0.249  -4.610 -13.017  0.00  0.00    -0.495 OA
BRANCH  17  18
ATOM     18  C   LIG d   1      -0.942  -5.297 -12.625  0.00  0.00     0.079 C 
ATOM     19  H   LIG d   1      -1.796  -4.873 -13.152  0.00  0.00     0.066 H 
ATOM     20  H   LIG d   1      -0.849  -6.355 -12.874  0.00  0.00     0.066 H 
ATOM     21  H   LIG d   1      -1.086  -5.189 -11.550  0.00  0.00     0.066 H 
ENDBRANCH  17  18
ENDBRANCH  11  17
ENDBRANCH   4   7
ENDBRANCH   1   3
BRANCH   1  22
ATOM     22  C   LIG d   1       4.296   2.144  -9.639  0.00  0.00     0.459 C 
ATOM     23  F   LIG d   1       3.802   2.196 -10.947  0.00  0.00    -0.165 F 
ATOM     24  F   LIG d   1       4.166   3.400  -9.041  0.00  0.00    -0.165 F 
ATOM     25  F   LIG d   1       5.645   1.777  -9.666  0.00  0.00    -0.165 F 
ENDBRANCH   1  22
BRANCH   1  26
ATOM     26  O   LIG d   1       4.319   0.598  -7.781  0.00  0.00    -0.263 OA
BRANCH  26  27
ATOM     27  C   LIG d   1       3.592  -0.113  -6.778  0.00  0.00     0.428 C 
ATOM     28  F   LIG d   1       2.829   0.787  -6.027  0.00  0.00    -0.169 F 
ATOM     29  F   LIG d   1       2.746  -1.046  -7.388  0.00  0.00    -0.169 F 
BRANCH  27  30
ATOM     30  C   LIG d   1       4.574  -0.841  -5.856  0.00  0.00     0.401 C 
ATOM     31  F   LIG d   1       5.638   0.012  -5.542  0.00  0.00    -0.191 F 
BRANCH  30  32
ATOM     32  C   LIG d   1       5.110  -2.086  -6.565  0.00  0.00     0.458 C 
ATOM     33  F   LIG d   1       4.209  -3.144  -6.395  0.00  0.00    -0.165 F 
ATOM     34  F   LIG d   1       5.260  -1.817  -7.931  0.00  0.00    -0.165 F 
ATOM     35  F   LIG d   1       6.349  -2.437  -6.020  0.00  0.00    -0.165 F 
ENDBRANCH  30  32
BRANCH  30  36
ATOM     36  O   LIG d   1       3.903  -1.228  -4.656  0.00  0.00    -0.264 OA
BRANCH  36  37
ATOM     37  C   LIG d   1       4.775  -1.425  -3.541  0.00  0.00     0.432 C 
ATOM     38  F   LIG d   1       4.879  -2.792  -3.266  0.00  0.00    -0.168 F 
ATOM     39  F   LIG d   1       6.041  -0.912  -3.843  0.00  0.00    -0.168 F 
BRANCH  37  40
ATOM     40  C   LIG d   1       4.210  -0.700  -2.317  0.00  0.00     0.429 C 
ATOM     41  F   LIG d   1       2.815  -0.643  -2.412  0.00  0.00    -0.186 F 
ATOM     42  F   LIG d   1       4.570  -1.393  -1.157  0.00  0.00    -0.186 F 
BRANCH  40  43
ATOM     43  C   LIG d   1       4.775   0.721  -2.260  0.00  0.00     0.463 C 
ATOM     44  F   LIG d   1       4.570   1.254  -0.983  0.00  0.00    -0.165 F 
ATOM     45  F   LIG d   1       6.146   0.689  -2.536  0.00  0.00    -0.165 F 
ATOM     46  F   LIG d   1       4.126   1.519  -3.208  0.00  0.00    -0.165 F 
ENDBRANCH  40  43
ENDBRANCH  37  40
ENDBRANCH  36  37
ENDBRANCH  30  36
ENDBRANCH  27  30
ENDBRANCH  26  27
ENDBRANCH   1  26
TORSDOF 13
ENDMDL
MODEL 4
REMARK VINA RESULT:      -7.1      1.717      2.777
REMARK  13 active torsions:
REMARK  status: ('A' for Active; 'I' for Inactive)
REMARK    1  A    between atoms: C_1  and  O_2 
REMARK    2  A    between atoms: O_2  and  C_3 
REMARK    3  A    between atoms: C_6  and  N_9 
REMARK       I    between atoms: N_9  and  C_10 
REMARK    4  A    between atoms: C_10  and  C_12 
REMARK    5  A    between atoms: C_12  and  C_13 
REMARK    6  A    between atoms: C_12  and  O_17 
REMARK    7  A    between atoms: O_17  and  C_18 
REMARK    8  A    between atoms: C_18  and  C_19 
REMARK    9  A    between atoms: C_19  and  C_20 
REMARK   10  A    between atoms: C_19  and  O_24 
REMARK   11  A    between atoms: O_24  and  C_25 
REMARK   12  A    between atoms: C_25  and  C_26 
REMARK   13  A    between atoms: C_26  and  C_27 
ROOT
ATOM      1  C   LIG d   1       7.762   0.199  -6.723  0.00  0.00     0.387 C 
ATOM      2  F   LIG d   1       8.950  -0.475  -7.020  0.00  0.00    -0.190 F 
ENDROOT
BRANCH   1   3
ATOM      3  C   LIG d   1       8.052   1.342  -5.785  0.00  0.00     0.292 C 
ATOM      4  N   LIG d   1       9.269   1.922  -5.787  0.00  0.00    -0.281 N 
ATOM      5  H   LIG d   1       9.939   1.641  -6.429  0.00  0.00     0.155 HD
ATOM      6  O   LIG d   1       7.192   1.739  -5.028  0.00  0.00    -0.269 OA
BRANCH   4   7
ATOM      7  C   LIG d   1       9.564   2.932  -4.863  0.00  0.00     0.034 A 
ATOM      8  C   LIG d   1      10.009   2.602  -3.590  0.00  0.00    -0.037 A 
ATOM      9  C   LIG d   1      10.301   3.599  -2.680  0.00  0.00    -0.018 A 
ATOM     10  H   LIG d   1      10.127   1.565  -3.311  0.00  0.00     0.064 H 
ATOM     11  C   LIG d   1      10.151   4.930  -3.037  0.00  0.00     0.120 A 
ATOM     12  H   LIG d   1      10.648   3.341  -1.690  0.00  0.00     0.066 H 
ATOM     13  C   LIG d   1       9.702   5.262  -4.307  0.00  0.00    -0.018 A 
ATOM     14  C   LIG d   1       9.414   4.266  -5.220  0.00  0.00    -0.037 A 
ATOM     15  H   LIG d   1       9.579   6.298  -4.583  0.00  0.00     0.066 H 
ATOM     16  H   LIG d   1       9.069   4.524  -6.210  0.00  0.00     0.064 H 
BRANCH  11  17
ATOM     17  O   LIG d   1      10.439   5.910  -2.141  0.00  0.00    -0.495 OA
BRANCH  17  18
ATOM     18  C   LIG d   1       9.423   6.887  -1.899  0.00  0.00     0.079 C 
ATOM     19  H   LIG d   1       8.520   6.614  -2.444  0.00  0.00     0.066 H 
ATOM     20  H   LIG d   1       9.206   6.929  -0.832  0.00  0.00     0.066 H 
ATOM     21  H   LIG d   1       9.771   7.863  -2.238  0.00  0.00     0.066 H 
ENDBRANCH  17  18
ENDBRANCH  11  17
ENDBRANCH   4   7
ENDBRANCH   1   3
BRANCH   1  22
ATOM     22  C   LIG d   1       7.148   0.742  -8.015  0.00  0.00     0.459 C 
ATOM     23  F   LIG d   1       7.338   2.127  -8.075  0.00  0.00    -0.165 F 
ATOM     24  F   LIG d   1       7.765   0.138  -9.115  0.00  0.00    -0.165 F 
ATOM     25  F   LIG d   1       5.778   0.460  -8.036  0.00  0.00    -0.165 F 
ENDBRANCH   1  22
BRANCH   1  26
ATOM     26  O   LIG d   1       6.843  -0.704  -6.103  0.00  0.00    -0.263 OA
BRANCH  26  27
ATOM     27  C   LIG d   1       7.470  -1.772  -5.390  0.00  0.00     0.428 C 
ATOM     28  F   LIG d   1       7.983  -2.703  -6.299  0.00  0.00    -0.169 F 
ATOM     29  F   LIG d   1       8.513  -1.261  -4.609  0.00  0.00    -0.169 F 
BRANCH  27  30
ATOM     30  C   LIG d   1       6.442  -2.455  -4.486  0.00  0.00     0.401 C 
ATOM     31  F   LIG d   1       6.998  -2.655  -3.217  0.00  0.00    -0.191 F 
BRANCH  30  32
ATOM     32  C   LIG d   1       6.050  -3.805  -5.090  0.00  0.00     0.458 C 
ATOM     33  F   LIG d   1       7.087  -4.723  -4.894  0.00  0.00    -0.165 F 
ATOM     34  F   LIG d   1       4.887  -4.274  -4.467  0.00  0.00    -0.165 F 
ATOM     35  F   LIG d   1       5.815  -3.652  -6.460  0.00  0.00    -0.165 F 
ENDBRANCH  30  32
BRANCH  30  36
ATOM     36  O   LIG d   1       5.282  -1.628  -4.373  0.00  0.00    -0.264 OA
BRANCH  36  37
ATOM     37  C   LIG d   1       5.123  -1.022  -3.089  0.00  0.00     0.432 C 
ATOM     38  F   LIG d   1       4.892  -2.015  -2.130  0.00  0.00    -0.168 F 
ATOM     39  F   LIG d   1       6.285  -0.317  -2.759  0.00  0.00    -0.168 F 
BRANCH  37  40
ATOM     40  C   LIG d   1       3.934  -0.060  -3.123  0.00  0.00     0.429 C 
ATOM     41  F   LIG d   1       3.741   0.396  -4.432  0.00  0.00    -0.186 F 
ATOM     42  F   LIG d   1       2.783  -0.724  -2.686  0.00  0.00    -0.186 F 
BRANCH  40  43
ATOM     43  C   LIG d   1       4.215   1.132  -2.204  0.00  0.00     0.463 C 
ATOM     44  F   LIG d   1       4.691   0.669  -0.973  0.00  0.00    -0.165 F 
ATOM     45  F   LIG d   1       5.177   1.958  -2.794  0.00  0.00    -0.165 F 
ATOM     46  F   LIG d   1       3.034   1.856  -2.007  0.00  0.00    -0.165 F 
ENDBRANCH  40  43
ENDBRANCH  37  40
ENDBRANCH  36  37
ENDBRANCH  30  36
ENDBRANCH  27  30
ENDBRANCH  26  27
ENDBRANCH   1  26
TORSDOF 13
ENDMDL
MODEL 5
REMARK VINA RESULT:      -7.1      3.730      7.544
REMARK  13 active torsions:
REMARK  status: ('A' for Active; 'I' for Inactive)
REMARK    1  A    between atoms: C_1  and  O_2 
REMARK    2  A    between atoms: O_2  and  C_3 
REMARK    3  A    between atoms: C_6  and  N_9 
REMARK       I    between atoms: N_9  and  C_10 
REMARK    4  A    between atoms: C_10  and  C_12 
REMARK    5  A    between atoms: C_12  and  C_13 
REMARK    6  A    between atoms: C_12  and  O_17 
REMARK    7  A    between atoms: O_17  and  C_18 
REMARK    8  A    between atoms: C_18  and  C_19 
REMARK    9  A    between atoms: C_19  and  C_20 
REMARK   10  A    between atoms: C_19  and  O_24 
REMARK   11  A    between atoms: O_24  and  C_25 
REMARK   12  A    between atoms: C_25  and  C_26 
REMARK   13  A    between atoms: C_26  and  C_27 
ROOT
ATOM      1  C   LIG d   1       3.523   1.259  -8.586  0.00  0.00     0.387 C 
ATOM      2  F   LIG d   1       2.323   1.959  -8.432  0.00  0.00    -0.190 F 
ENDROOT
BRANCH   1   3
ATOM      3  C   LIG d   1       3.281   0.021  -9.412  0.00  0.00     0.292 C 
ATOM      4  N   LIG d   1       2.154  -0.091 -10.143  0.00  0.00    -0.281 N 
ATOM      5  H   LIG d   1       1.525   0.647 -10.181  0.00  0.00     0.155 HD
ATOM      6  O   LIG d   1       4.100  -0.873  -9.419  0.00  0.00    -0.269 OA
BRANCH   4   7
ATOM      7  C   LIG d   1       1.892  -1.271 -10.849  0.00  0.00     0.034 A 
ATOM      8  C   LIG d   1       2.168  -1.345 -12.208  0.00  0.00    -0.037 A 
ATOM      9  C   LIG d   1       1.910  -2.510 -12.902  0.00  0.00    -0.018 A 
ATOM     10  H   LIG d   1       2.585  -0.491 -12.721  0.00  0.00     0.064 H 
ATOM     11  C   LIG d   1       1.377  -3.608 -12.244  0.00  0.00     0.120 A 
ATOM     12  H   LIG d   1       2.126  -2.567 -13.959  0.00  0.00     0.066 H 
ATOM     13  C   LIG d   1       1.096  -3.534 -10.887  0.00  0.00    -0.018 A 
ATOM     14  C   LIG d   1       1.357  -2.371 -10.190  0.00  0.00    -0.037 A 
ATOM     15  H   LIG d   1       0.675  -4.387 -10.375  0.00  0.00     0.066 H 
ATOM     16  H   LIG d   1       1.143  -2.315  -9.132  0.00  0.00     0.064 H 
BRANCH  11  17
ATOM     17  O   LIG d   1       1.123  -4.754 -12.928  0.00  0.00    -0.495 OA
BRANCH  17  18
ATOM     18  C   LIG d   1       1.468  -5.983 -12.286  0.00  0.00     0.079 C 
ATOM     19  H   LIG d   1       0.567  -6.448 -11.886  0.00  0.00     0.066 H 
ATOM     20  H   LIG d   1       1.932  -6.654 -13.010  0.00  0.00     0.066 H 
ATOM     21  H   LIG d   1       2.167  -5.785 -11.474  0.00  0.00     0.066 H 
ENDBRANCH  17  18
ENDBRANCH  11  17
ENDBRANCH   4   7
ENDBRANCH   1   3
BRANCH   1  22
ATOM     22  C   LIG d   1       4.547   2.152  -9.292  0.00  0.00     0.459 C 
ATOM     23  F   LIG d   1       4.164   3.491  -9.162  0.00  0.00    -0.165 F 
ATOM     24  F   LIG d   1       5.805   1.967  -8.712  0.00  0.00    -0.165 F 
ATOM     25  F   LIG d   1       4.604   1.814 -10.648  0.00  0.00    -0.165 F 
ENDBRANCH   1  22
BRANCH   1  26
ATOM     26  O   LIG d   1       4.026   0.883  -7.302  0.00  0.00    -0.263 OA
BRANCH  26  27
ATOM     27  C   LIG d   1       3.008   0.562  -6.352  0.00  0.00     0.428 C 
ATOM     28  F   LIG d   1       2.429   1.741  -5.871  0.00  0.00    -0.169 F 
ATOM     29  F   LIG d   1       2.026  -0.222  -6.968  0.00  0.00    -0.169 F 
BRANCH  27  30
ATOM     30  C   LIG d   1       3.624  -0.216  -5.187  0.00  0.00     0.401 C 
ATOM     31  F   LIG d   1       3.918  -1.520  -5.601  0.00  0.00    -0.191 F 
BRANCH  30  32
ATOM     32  C   LIG d   1       2.631  -0.262  -4.024  0.00  0.00     0.458 C 
ATOM     33  F   LIG d   1       2.914   0.774  -3.128  0.00  0.00    -0.165 F 
ATOM     34  F   LIG d   1       1.330  -0.110  -4.516  0.00  0.00    -0.165 F 
ATOM     35  F   LIG d   1       2.741  -1.491  -3.365  0.00  0.00    -0.165 F 
ENDBRANCH  30  32
BRANCH  30  36
ATOM     36  O   LIG d   1       4.825   0.432  -4.763  0.00  0.00    -0.264 OA
BRANCH  36  37
ATOM     37  C   LIG d   1       5.946  -0.445  -4.641  0.00  0.00     0.432 C 
ATOM     38  F   LIG d   1       5.512  -1.700  -4.201  0.00  0.00    -0.168 F 
ATOM     39  F   LIG d   1       6.571  -0.579  -5.887  0.00  0.00    -0.168 F 
BRANCH  37  40
ATOM     40  C   LIG d   1       6.940   0.134  -3.632  0.00  0.00     0.429 C 
ATOM     41  F   LIG d   1       6.291   1.078  -2.829  0.00  0.00    -0.186 F 
ATOM     42  F   LIG d   1       7.442  -0.895  -2.829  0.00  0.00    -0.186 F 
BRANCH  40  43
ATOM     43  C   LIG d   1       8.093   0.807  -4.380  0.00  0.00     0.463 C 
ATOM     44  F   LIG d   1       7.579   1.626  -5.390  0.00  0.00    -0.165 F 
ATOM     45  F   LIG d   1       8.839   1.582  -3.486  0.00  0.00    -0.165 F 
ATOM     46  F   LIG d   1       8.915  -0.173  -4.947  0.00  0.00    -0.165 F 
ENDBRANCH  40  43
ENDBRANCH  37  40
ENDBRANCH  36  37
ENDBRANCH  30  36
ENDBRANCH  27  30
ENDBRANCH  26  27
ENDBRANCH   1  26
TORSDOF 13
ENDMDL
MODEL 6
REMARK VINA RESULT:      -7.0      3.693      6.681
REMARK  13 active torsions:
REMARK  status: ('A' for Active; 'I' for Inactive)
REMARK    1  A    between atoms: C_1  and  O_2 
REMARK    2  A    between atoms: O_2  and  C_3 
REMARK    3  A    between atoms: C_6  and  N_9 
REMARK       I    between atoms: N_9  and  C_10 
REMARK    4  A    between atoms: C_10  and  C_12 
REMARK    5  A    between atoms: C_12  and  C_13 
REMARK    6  A    between atoms: C_12  and  O_17 
REMARK    7  A    between atoms: O_17  and  C_18 
REMARK    8  A    between atoms: C_18  and  C_19 
REMARK    9  A    between atoms: C_19  and  C_20 
REMARK   10  A    between atoms: C_19  and  O_24 
REMARK   11  A    between atoms: O_24  and  C_25 
REMARK   12  A    between atoms: C_25  and  C_26 
REMARK   13  A    between atoms: C_26  and  C_27 
ROOT
ATOM      1  C   LIG d   1       2.944   0.190  -7.121  0.00  0.00     0.387 C 
ATOM      2  F   LIG d   1       1.592   0.037  -6.802  0.00  0.00    -0.190 F 
ENDROOT
BRANCH   1   3
ATOM      3  C   LIG d   1       3.492  -1.118  -7.631  0.00  0.00     0.292 C 
ATOM      4  N   LIG d   1       4.212  -1.912  -6.813  0.00  0.00    -0.281 N 
ATOM      5  H   LIG d   1       4.331  -1.668  -5.882  0.00  0.00     0.155 HD
ATOM      6  O   LIG d   1       3.285  -1.456  -8.777  0.00  0.00    -0.269 OA
BRANCH   4   7
ATOM      7  C   LIG d   1       4.786  -3.089  -7.307  0.00  0.00     0.034 A 
ATOM      8  C   LIG d   1       6.030  -3.051  -7.923  0.00  0.00    -0.037 A 
ATOM      9  C   LIG d   1       6.596  -4.214  -8.408  0.00  0.00    -0.018 A 
ATOM     10  H   LIG d   1       6.556  -2.113  -8.021  0.00  0.00     0.064 H 
ATOM     11  C   LIG d   1       5.923  -5.419  -8.282  0.00  0.00     0.120 A 
ATOM     12  H   LIG d   1       7.565  -4.184  -8.886  0.00  0.00     0.066 H 
ATOM     13  C   LIG d   1       4.677  -5.458  -7.671  0.00  0.00    -0.018 A 
ATOM     14  C   LIG d   1       4.112  -4.297  -7.181  0.00  0.00    -0.037 A 
ATOM     15  H   LIG d   1       4.150  -6.396  -7.578  0.00  0.00     0.066 H 
ATOM     16  H   LIG d   1       3.145  -4.328  -6.702  0.00  0.00     0.064 H 
BRANCH  11  17
ATOM     17  O   LIG d   1       6.481  -6.563  -8.760  0.00  0.00    -0.495 OA
BRANCH  17  18
ATOM     18  C   LIG d   1       5.804  -7.787  -8.467  0.00  0.00     0.079 C 
ATOM     19  H   LIG d   1       6.416  -8.388  -7.794  0.00  0.00     0.066 H 
ATOM     20  H   LIG d   1       4.848  -7.569  -7.991  0.00  0.00     0.066 H 
ATOM     21  H   LIG d   1       5.632  -8.337  -9.392  0.00  0.00     0.066 H 
ENDBRANCH  17  18
ENDBRANCH  11  17
ENDBRANCH   4   7
ENDBRANCH   1   3
BRANCH   1  22
ATOM     22  C   LIG d   1       3.095   1.263  -8.202  0.00  0.00     0.459 C 
ATOM     23  F   LIG d   1       4.431   1.325  -8.613  0.00  0.00    -0.165 F 
ATOM     24  F   LIG d   1       2.285   0.941  -9.295  0.00  0.00    -0.165 F 
ATOM     25  F   LIG d   1       2.709   2.504  -7.685  0.00  0.00    -0.165 F 
ENDBRANCH   1  22
BRANCH   1  26
ATOM     26  O   LIG d   1       3.668   0.586  -5.954  0.00  0.00    -0.263 OA
BRANCH  26  27
ATOM     27  C   LIG d   1       2.885   0.588  -4.759  0.00  0.00     0.428 C 
ATOM     28  F   LIG d   1       2.379   1.872  -4.533  0.00  0.00    -0.169 F 
ATOM     29  F   LIG d   1       1.824  -0.314  -4.895  0.00  0.00    -0.169 F 
BRANCH  27  30
ATOM     30  C   LIG d   1       3.760   0.170  -3.575  0.00  0.00     0.401 C 
ATOM     31  F   LIG d   1       3.039  -0.696  -2.745  0.00  0.00    -0.191 F 
BRANCH  30  32
ATOM     32  C   LIG d   1       4.170   1.412  -2.781  0.00  0.00     0.458 C 
ATOM     33  F   LIG d   1       3.311   2.471  -3.094  0.00  0.00    -0.165 F 
ATOM     34  F   LIG d   1       4.092   1.138  -1.411  0.00  0.00    -0.165 F 
ATOM     35  F   LIG d   1       5.483   1.764  -3.112  0.00  0.00    -0.165 F 
ENDBRANCH  30  32
BRANCH  30  36
ATOM     36  O   LIG d   1       4.929  -0.495  -4.057  0.00  0.00    -0.264 OA
BRANCH  36  37
ATOM     37  C   LIG d   1       5.257  -1.687  -3.340  0.00  0.00     0.432 C 
ATOM     38  F   LIG d   1       5.245  -1.424  -1.966  0.00  0.00    -0.168 F 
ATOM     39  F   LIG d   1       4.315  -2.680  -3.633  0.00  0.00    -0.168 F 
BRANCH  37  40
ATOM     40  C   LIG d   1       6.649  -2.165  -3.756  0.00  0.00     0.429 C 
ATOM     41  F   LIG d   1       7.354  -2.588  -2.623  0.00  0.00    -0.186 F 
ATOM     42  F   LIG d   1       6.528  -3.230  -4.654  0.00  0.00    -0.186 F 
BRANCH  40  43
ATOM     43  C   LIG d   1       7.405  -1.016  -4.427  0.00  0.00     0.463 C 
ATOM     44  F   LIG d   1       7.525   0.050  -3.529  0.00  0.00    -0.165 F 
ATOM     45  F   LIG d   1       8.678  -1.453  -4.805  0.00  0.00    -0.165 F 
ATOM     46  F   LIG d   1       6.700  -0.594  -5.560  0.00  0.00    -0.165 F 
ENDBRANCH  40  43
ENDBRANCH  37  40
ENDBRANCH  36  37
ENDBRANCH  30  36
ENDBRANCH  27  30
ENDBRANCH  26  27
ENDBRANCH   1  26
TORSDOF 13
ENDMDL
MODEL 7
REMARK VINA RESULT:      -6.9      3.134      4.359
REMARK  13 active torsions:
REMARK  status: ('A' for Active; 'I' for Inactive)
REMARK    1  A    between atoms: C_1  and  O_2 
REMARK    2  A    between atoms: O_2  and  C_3 
REMARK    3  A    between atoms: C_6  and  N_9 
REMARK       I    between atoms: N_9  and  C_10 
REMARK    4  A    between atoms: C_10  and  C_12 
REMARK    5  A    between atoms: C_12  and  C_13 
REMARK    6  A    between atoms: C_12  and  O_17 
REMARK    7  A    between atoms: O_17  and  C_18 
REMARK    8  A    between atoms: C_18  and  C_19 
REMARK    9  A    between atoms: C_19  and  C_20 
REMARK   10  A    between atoms: C_19  and  O_24 
REMARK   11  A    between atoms: O_24  and  C_25 
REMARK   12  A    between atoms: C_25  and  C_26 
REMARK   13  A    between atoms: C_26  and  C_27 
ROOT
ATOM      1  C   LIG d   1       4.294   1.049  -8.815  0.00  0.00     0.387 C 
ATOM      2  F   LIG d   1       3.837  -0.152  -9.364  0.00  0.00    -0.190 F 
ENDROOT
BRANCH   1   3
ATOM      3  C   LIG d   1       5.766   1.204  -9.098  0.00  0.00     0.292 C 
ATOM      4  N   LIG d   1       6.595   1.648  -8.132  0.00  0.00    -0.281 N 
ATOM      5  H   LIG d   1       6.254   1.815  -7.239  0.00  0.00     0.155 HD
ATOM      6  O   LIG d   1       6.205   0.929 -10.195  0.00  0.00    -0.269 OA
BRANCH   4   7
ATOM      7  C   LIG d   1       7.949   1.865  -8.417  0.00  0.00     0.034 A 
ATOM      8  C   LIG d   1       8.878   0.860  -8.186  0.00  0.00    -0.037 A 
ATOM      9  C   LIG d   1      10.212   1.075  -8.469  0.00  0.00    -0.018 A 
ATOM     10  H   LIG d   1       8.557  -0.091  -7.787  0.00  0.00     0.064 H 
ATOM     11  C   LIG d   1      10.626   2.295  -8.983  0.00  0.00     0.120 A 
ATOM     12  H   LIG d   1      10.935   0.292  -8.290  0.00  0.00     0.066 H 
ATOM     13  C   LIG d   1       9.698   3.302  -9.209  0.00  0.00    -0.018 A 
ATOM     14  C   LIG d   1       8.363   3.087  -8.932  0.00  0.00    -0.037 A 
ATOM     15  H   LIG d   1      10.021   4.254  -9.604  0.00  0.00     0.066 H 
ATOM     16  H   LIG d   1       7.640   3.869  -9.112  0.00  0.00     0.064 H 
BRANCH  11  17
ATOM     17  O   LIG d   1      11.939   2.506  -9.260  0.00  0.00    -0.495 OA
BRANCH  17  18
ATOM     18  C   LIG d   1      12.266   3.688  -9.994  0.00  0.00     0.079 C 
ATOM     19  H   LIG d   1      12.558   4.476  -9.300  0.00  0.00     0.066 H 
ATOM     20  H   LIG d   1      13.091   3.477 -10.674  0.00  0.00     0.066 H 
ATOM     21  H   LIG d   1      11.397   4.011 -10.567  0.00  0.00     0.066 H 
ENDBRANCH  17  18
ENDBRANCH  11  17
ENDBRANCH   4   7
ENDBRANCH   1   3
BRANCH   1  22
ATOM     22  C   LIG d   1       3.529   2.219  -9.438  0.00  0.00     0.459 C 
ATOM     23  F   LIG d   1       3.510   2.075 -10.829  0.00  0.00    -0.165 F 
ATOM     24  F   LIG d   1       2.218   2.230  -8.952  0.00  0.00    -0.165 F 
ATOM     25  F   LIG d   1       4.161   3.421  -9.103  0.00  0.00    -0.165 F 
ENDBRANCH   1  22
BRANCH   1  26
ATOM     26  O   LIG d   1       4.080   1.040  -7.402  0.00  0.00    -0.263 OA
BRANCH  26  27
ATOM     27  C   LIG d   1       3.505  -0.172  -6.910  0.00  0.00     0.428 C 
ATOM     28  F   LIG d   1       2.145  -0.210  -7.235  0.00  0.00    -0.169 F 
ATOM     29  F   LIG d   1       4.154  -1.266  -7.493  0.00  0.00    -0.169 F 
BRANCH  27  30
ATOM     30  C   LIG d   1       3.668  -0.234  -5.389  0.00  0.00     0.401 C 
ATOM     31  F   LIG d   1       3.592  -1.566  -4.966  0.00  0.00    -0.191 F 
BRANCH  30  32
ATOM     32  C   LIG d   1       2.553   0.576  -4.725  0.00  0.00     0.458 C 
ATOM     33  F   LIG d   1       2.907   0.859  -3.401  0.00  0.00    -0.165 F 
ATOM     34  F   LIG d   1       2.368   1.775  -5.424  0.00  0.00    -0.165 F 
ATOM     35  F   LIG d   1       1.366  -0.162  -4.742  0.00  0.00    -0.165 F 
ENDBRANCH  30  32
BRANCH  30  36
ATOM     36  O   LIG d   1       4.936   0.311  -5.023  0.00  0.00    -0.264 OA
BRANCH  36  37
ATOM     37  C   LIG d   1       5.828  -0.638  -4.434  0.00  0.00     0.432 C 
ATOM     38  F   LIG d   1       5.408  -0.928  -3.132  0.00  0.00    -0.168 F 
ATOM     39  F   LIG d   1       5.829  -1.812  -5.196  0.00  0.00    -0.168 F 
BRANCH  37  40
ATOM     40  C   LIG d   1       7.242  -0.054  -4.396  0.00  0.00     0.429 C 
ATOM     41  F   LIG d   1       7.303   1.074  -5.222  0.00  0.00    -0.186 F 
ATOM     42  F   LIG d   1       7.560   0.311  -3.084  0.00  0.00    -0.186 F 
BRANCH  40  43
ATOM     43  C   LIG d   1       8.241  -1.103  -4.890  0.00  0.00     0.463 C 
ATOM     44  F   LIG d   1       8.217  -2.209  -4.035  0.00  0.00    -0.165 F 
ATOM     45  F   LIG d   1       7.893  -1.505  -6.184  0.00  0.00    -0.165 F 
ATOM     46  F   LIG d   1       9.527  -0.550  -4.903  0.00  0.00    -0.165 F 
ENDBRANCH  40  43
ENDBRANCH  37  40
ENDBRANCH  36  37
ENDBRANCH  30  36
ENDBRANCH  27  30
ENDBRANCH  26  27
ENDBRANCH   1  26
TORSDOF 13
ENDMDL
MODEL 8
REMARK VINA RESULT:      -6.8      3.368      4.867
REMARK  13 active torsions:
REMARK  status: ('A' for Active; 'I' for Inactive)
REMARK    1  A    between atoms: C_1  and  O_2 
REMARK    2  A    between atoms: O_2  and  C_3 
REMARK    3  A    between atoms: C_6  and  N_9 
REMARK       I    between atoms: N_9  and  C_10 
REMARK    4  A    between atoms: C_10  and  C_12 
REMARK    5  A    between atoms: C_12  and  C_13 
REMARK    6  A    between atoms: C_12  and  O_17 
REMARK    7  A    between atoms: O_17  and  C_18 
REMARK    8  A    between atoms: C_18  and  C_19 
REMARK    9  A    between atoms: C_19  and  C_20 
REMARK   10  A    between atoms: C_19  and  O_24 
REMARK   11  A    between atoms: O_24  and  C_25 
REMARK   12  A    between atoms: C_25  and  C_26 
REMARK   13  A    between atoms: C_26  and  C_27 
ROOT
ATOM      1  C   LIG d   1       3.541   0.603  -7.621  0.00  0.00     0.387 C 
ATOM      2  F   LIG d   1       2.776  -0.550  -7.818  0.00  0.00    -0.190 F 
ENDROOT
BRANCH   1   3
ATOM      3  C   LIG d   1       4.965   0.340  -8.037  0.00  0.00     0.292 C 
ATOM      4  N   LIG d   1       5.971   1.039  -7.477  0.00  0.00    -0.281 N 
ATOM      5  H   LIG d   1       5.784   1.673  -6.766  0.00  0.00     0.155 HD
ATOM      6  O   LIG d   1       5.205  -0.502  -8.877  0.00  0.00    -0.269 OA
BRANCH   4   7
ATOM      7  C   LIG d   1       7.286   0.850  -7.918  0.00  0.00     0.034 A 
ATOM      8  C   LIG d   1       8.157   0.052  -7.188  0.00  0.00    -0.037 A 
ATOM      9  C   LIG d   1       9.453  -0.135  -7.625  0.00  0.00    -0.018 A 
ATOM     10  H   LIG d   1       7.820  -0.424  -6.279  0.00  0.00     0.064 H 
ATOM     11  C   LIG d   1       9.887   0.473  -8.793  0.00  0.00     0.120 A 
ATOM     12  H   LIG d   1      10.130  -0.757  -7.057  0.00  0.00     0.066 H 
ATOM     13  C   LIG d   1       9.019   1.276  -9.521  0.00  0.00    -0.018 A 
ATOM     14  C   LIG d   1       7.721   1.460  -9.088  0.00  0.00    -0.037 A 
ATOM     15  H   LIG d   1       9.359   1.755 -10.427  0.00  0.00     0.066 H 
ATOM     16  H   LIG d   1       7.044   2.080  -9.657  0.00  0.00     0.064 H 
BRANCH  11  17
ATOM     17  O   LIG d   1      11.163   0.289  -9.222  0.00  0.00    -0.495 OA
BRANCH  17  18
ATOM     18  C   LIG d   1      12.129  -0.094  -8.241  0.00  0.00     0.079 C 
ATOM     19  H   LIG d   1      13.109  -0.178  -8.710  0.00  0.00     0.066 H 
ATOM     20  H   LIG d   1      12.166   0.660  -7.454  0.00  0.00     0.066 H 
ATOM     21  H   LIG d   1      11.848  -1.055  -7.811  0.00  0.00     0.066 H 
ENDBRANCH  17  18
ENDBRANCH  11  17
ENDBRANCH   4   7
ENDBRANCH   1   3
BRANCH   1  22
ATOM     22  C   LIG d   1       2.966   1.746  -8.461  0.00  0.00     0.459 C 
ATOM     23  F   LIG d   1       3.987   2.319  -9.228  0.00  0.00    -0.165 F 
ATOM     24  F   LIG d   1       1.970   1.249  -9.307  0.00  0.00    -0.165 F 
ATOM     25  F   LIG d   1       2.419   2.717  -7.616  0.00  0.00    -0.165 F 
ENDBRANCH   1  22
BRANCH   1  26
ATOM     26  O   LIG d   1       3.508   0.967  -6.239  0.00  0.00    -0.263 OA
BRANCH  26  27
ATOM     27  C   LIG d   1       3.160  -0.108  -5.364  0.00  0.00     0.428 C 
ATOM     28  F   LIG d   1       1.804  -0.018  -5.031  0.00  0.00    -0.169 F 
ATOM     29  F   LIG d   1       3.402  -1.328  -6.006  0.00  0.00    -0.169 F 
BRANCH  27  30
ATOM     30  C   LIG d   1       4.004  -0.025  -4.091  0.00  0.00     0.401 C 
ATOM     31  F   LIG d   1       3.764  -1.152  -3.297  0.00  0.00    -0.191 F 
BRANCH  30  32
ATOM     32  C   LIG d   1       3.628   1.238  -3.312  0.00  0.00     0.458 C 
ATOM     33  F   LIG d   1       2.945   0.880  -2.145  0.00  0.00    -0.165 F 
ATOM     34  F   LIG d   1       4.791   1.941  -2.975  0.00  0.00    -0.165 F 
ATOM     35  F   LIG d   1       2.807   2.047  -4.104  0.00  0.00    -0.165 F 
ENDBRANCH  30  32
BRANCH  30  36
ATOM     36  O   LIG d   1       5.389   0.026  -4.440  0.00  0.00    -0.264 OA
BRANCH  36  37
ATOM     37  C   LIG d   1       6.211  -0.868  -3.687  0.00  0.00     0.432 C 
ATOM     38  F   LIG d   1       7.482  -0.307  -3.523  0.00  0.00    -0.168 F 
ATOM     39  F   LIG d   1       5.632  -1.088  -2.431  0.00  0.00    -0.168 F 
BRANCH  37  40
ATOM     40  C   LIG d   1       6.333  -2.199  -4.432  0.00  0.00     0.429 C 
ATOM     41  F   LIG d   1       5.304  -3.056  -4.026  0.00  0.00    -0.186 F 
ATOM     42  F   LIG d   1       6.237  -1.973  -5.809  0.00  0.00    -0.186 F 
BRANCH  40  43
ATOM     43  C   LIG d   1       7.686  -2.840  -4.113  0.00  0.00     0.463 C 
ATOM     44  F   LIG d   1       7.664  -4.187  -4.490  0.00  0.00    -0.165 F 
ATOM     45  F   LIG d   1       8.694  -2.175  -4.819  0.00  0.00    -0.165 F 
ATOM     46  F   LIG d   1       7.935  -2.743  -2.740  0.00  0.00    -0.165 F 
ENDBRANCH  40  43
ENDBRANCH  37  40
ENDBRANCH  36  37
ENDBRANCH  30  36
ENDBRANCH  27  30
ENDBRANCH  26  27
ENDBRANCH   1  26
TORSDOF 13
ENDMDL
MODEL 9
REMARK VINA RESULT:      -6.8      2.601      3.952
REMARK  13 active torsions:
REMARK  status: ('A' for Active; 'I' for Inactive)
REMARK    1  A    between atoms: C_1  and  O_2 
REMARK    2  A    between atoms: O_2  and  C_3 
REMARK    3  A    between atoms: C_6  and  N_9 
REMARK       I    between atoms: N_9  and  C_10 
REMARK    4  A    between atoms: C_10  and  C_12 
REMARK    5  A    between atoms: C_12  and  C_13 
REMARK    6  A    between atoms: C_12  and  O_17 
REMARK    7  A    between atoms: O_17  and  C_18 
REMARK    8  A    between atoms: C_18  and  C_19 
REMARK    9  A    between atoms: C_19  and  C_20 
REMARK   10  A    between atoms: C_19  and  O_24 
REMARK   11  A    between atoms: O_24  and  C_25 
REMARK   12  A    between atoms: C_25  and  C_26 
REMARK   13  A    between atoms: C_26  and  C_27 
ROOT
ATOM      1  C   LIG d   1       4.212  -0.821  -8.461  0.00  0.00     0.387 C 
ATOM      2  F   LIG d   1       4.787  -1.766  -9.316  0.00  0.00    -0.190 F 
ENDROOT
BRANCH   1   3
ATOM      3  C   LIG d   1       5.170   0.326  -8.263  0.00  0.00     0.292 C 
ATOM      4  N   LIG d   1       6.494   0.133  -8.422  0.00  0.00    -0.281 N 
ATOM      5  H   LIG d   1       6.827  -0.729  -8.718  0.00  0.00     0.155 HD
ATOM      6  O   LIG d   1       4.748   1.422  -7.960  0.00  0.00    -0.269 OA
BRANCH   4   7
ATOM      7  C   LIG d   1       7.390   1.178  -8.163  0.00  0.00     0.034 A 
ATOM      8  C   LIG d   1       7.750   2.053  -9.179  0.00  0.00    -0.037 A 
ATOM      9  C   LIG d   1       8.632   3.084  -8.921  0.00  0.00    -0.018 A 
ATOM     10  H   LIG d   1       7.338   1.929 -10.170  0.00  0.00     0.064 H 
ATOM     11  C   LIG d   1       9.159   3.245  -7.649  0.00  0.00     0.120 A 
ATOM     12  H   LIG d   1       8.911   3.766  -9.712  0.00  0.00     0.066 H 
ATOM     13  C   LIG d   1       8.804   2.368  -6.634  0.00  0.00    -0.018 A 
ATOM     14  C   LIG d   1       7.918   1.339  -6.889  0.00  0.00    -0.037 A 
ATOM     15  H   LIG d   1       9.219   2.490  -5.645  0.00  0.00     0.066 H 
ATOM     16  H   LIG d   1       7.638   0.659  -6.098  0.00  0.00     0.064 H 
BRANCH  11  17
ATOM     17  O   LIG d   1      10.028   4.260  -7.397  0.00  0.00    -0.495 OA
BRANCH  17  18
ATOM     18  C   LIG d   1       9.909   4.917  -6.133  0.00  0.00     0.079 C 
ATOM     19  H   LIG d   1       9.059   5.598  -6.156  0.00  0.00     0.066 H 
ATOM     20  H   LIG d   1       9.759   4.174  -5.350  0.00  0.00     0.066 H 
ATOM     21  H   LIG d   1      10.821   5.479  -5.930  0.00  0.00     0.066 H 
ENDBRANCH  17  18
ENDBRANCH  11  17
ENDBRANCH   4   7
ENDBRANCH   1   3
BRANCH   1  22
ATOM     22  C   LIG d   1       2.912  -0.300  -9.078  0.00  0.00     0.459 C 
ATOM     23  F   LIG d   1       3.205   0.432 -10.233  0.00  0.00    -0.165 F 
ATOM     24  F   LIG d   1       2.086  -1.379  -9.406  0.00  0.00    -0.165 F 
ATOM     25  F   LIG d   1       2.257   0.525  -8.157  0.00  0.00    -0.165 F 
ENDBRANCH   1  22
BRANCH   1  26
ATOM     26  O   LIG d   1       3.930  -1.429  -7.198  0.00  0.00    -0.263 OA
BRANCH  26  27
ATOM     27  C   LIG d   1       4.652  -2.638  -6.962  0.00  0.00     0.428 C 
ATOM     28  F   LIG d   1       3.836  -3.735  -7.260  0.00  0.00    -0.169 F 
ATOM     29  F   LIG d   1       5.789  -2.669  -7.777  0.00  0.00    -0.169 F 
BRANCH  27  30
ATOM     30  C   LIG d   1       5.075  -2.702  -5.493  0.00  0.00     0.401 C 
ATOM     31  F   LIG d   1       5.993  -1.679  -5.227  0.00  0.00    -0.191 F 
BRANCH  30  32
ATOM     32  C   LIG d   1       5.725  -4.057  -5.208  0.00  0.00     0.458 C 
ATOM     33  F   LIG d   1       6.778  -3.889  -4.302  0.00  0.00    -0.165 F 
ATOM     34  F   LIG d   1       4.773  -4.926  -4.662  0.00  0.00    -0.165 F 
ATOM     35  F   LIG d   1       6.219  -4.597  -6.401  0.00  0.00    -0.165 F 
ENDBRANCH  30  32
BRANCH  30  36
ATOM     36  O   LIG d   1       3.927  -2.540  -4.659  0.00  0.00    -0.264 OA
BRANCH  36  37
ATOM     37  C   LIG d   1       4.207  -1.937  -3.394  0.00  0.00     0.432 C 
ATOM     38  F   LIG d   1       3.761  -2.776  -2.367  0.00  0.00    -0.168 F 
ATOM     39  F   LIG d   1       5.587  -1.740  -3.267  0.00  0.00    -0.168 F 
BRANCH  37  40
ATOM     40  C   LIG d   1       3.489  -0.590  -3.300  0.00  0.00     0.429 C 
ATOM     41  F   LIG d   1       3.482   0.023  -4.559  0.00  0.00    -0.186 F 
ATOM     42  F   LIG d   1       2.172  -0.792  -2.873  0.00  0.00    -0.186 F 
BRANCH  40  43
ATOM     43  C   LIG d   1       4.218   0.309  -2.299  0.00  0.00     0.463 C 
ATOM     44  F   LIG d   1       5.389   0.803  -2.882  0.00  0.00    -0.165 F 
ATOM     45  F   LIG d   1       3.388   1.377  -1.942  0.00  0.00    -0.165 F 
ATOM     46  F   LIG d   1       4.541  -0.433  -1.158  0.00  0.00    -0.165 F 
ENDBRANCH  40  43
ENDBRANCH  37  40
ENDBRANCH  36  37
ENDBRANCH  30  36
ENDBRANCH  27  30
ENDBRANCH  26  27
ENDBRANCH   1  26
TORSDOF 13
ENDMDL
MODEL 10
REMARK VINA RESULT:      -6.7      3.438      4.993
REMARK  13 active torsions:
REMARK  status: ('A' for Active; 'I' for Inactive)
REMARK    1  A    between atoms: C_1  and  O_2 
REMARK    2  A    between atoms: O_2  and  C_3 
REMARK    3  A    between atoms: C_6  and  N_9 
REMARK       I    between atoms: N_9  and  C_10 
REMARK    4  A    between atoms: C_10  and  C_12 
REMARK    5  A    between atoms: C_12  and  C_13 
REMARK    6  A    between atoms: C_12  and  O_17 
REMARK    7  A    between atoms: O_17  and  C_18 
REMARK    8  A    between atoms: C_18  and  C_19 
REMARK    9  A    between atoms: C_19  and  C_20 
REMARK   10  A    between atoms: C_19  and  O_24 
REMARK   11  A    between atoms: O_24  and  C_25 
REMARK   12  A    between atoms: C_25  and  C_26 
REMARK   13  A    between atoms: C_26  and  C_27 
ROOT
ATOM      1  C   LIG d   1       7.932  -0.255  -6.236  0.00  0.00     0.387 C 
ATOM      2  F   LIG d   1       8.119  -0.189  -7.620  0.00  0.00    -0.190 F 
ENDROOT
BRANCH   1   3
ATOM      3  C   LIG d   1       8.500  -1.549  -5.713  0.00  0.00     0.292 C 
ATOM      4  N   LIG d   1       7.772  -2.316  -4.879  0.00  0.00    -0.281 N 
ATOM      5  H   LIG d   1       6.861  -2.064  -4.659  0.00  0.00     0.155 HD
ATOM      6  O   LIG d   1       9.614  -1.899  -6.043  0.00  0.00    -0.269 OA
BRANCH   4   7
ATOM      7  C   LIG d   1       8.328  -3.479  -4.332  0.00  0.00     0.034 A 
ATOM      8  C   LIG d   1       8.179  -4.695  -4.984  0.00  0.00    -0.037 A 
ATOM      9  C   LIG d   1       8.730  -5.841  -4.444  0.00  0.00    -0.018 A 
ATOM     10  H   LIG d   1       7.634  -4.745  -5.916  0.00  0.00     0.064 H 
ATOM     11  C   LIG d   1       9.431  -5.778  -3.250  0.00  0.00     0.120 A 
ATOM     12  H   LIG d   1       8.614  -6.787  -4.954  0.00  0.00     0.066 H 
ATOM     13  C   LIG d   1       9.576  -4.564  -2.594  0.00  0.00    -0.018 A 
ATOM     14  C   LIG d   1       9.030  -3.416  -3.135  0.00  0.00    -0.037 A 
ATOM     15  H   LIG d   1      10.118  -4.515  -1.660  0.00  0.00     0.066 H 
ATOM     16  H   LIG d   1       9.147  -2.470  -2.627  0.00  0.00     0.064 H 
BRANCH  11  17
ATOM     17  O   LIG d   1       9.972  -6.906  -2.719  0.00  0.00    -0.495 OA
BRANCH  17  18
ATOM     18  C   LIG d   1       9.063  -7.897  -2.237  0.00  0.00     0.079 C 
ATOM     19  H   LIG d   1       9.622  -8.705  -1.766  0.00  0.00     0.066 H 
ATOM     20  H   LIG d   1       8.389  -7.448  -1.507  0.00  0.00     0.066 H 
ATOM     21  H   LIG d   1       8.482  -8.293  -3.070  0.00  0.00     0.066 H 
ENDBRANCH  17  18
ENDBRANCH  11  17
ENDBRANCH   4   7
ENDBRANCH   1   3
BRANCH   1  22
ATOM     22  C   LIG d   1       8.645   0.923  -5.568  0.00  0.00     0.459 C 
ATOM     23  F   LIG d   1       7.840   2.064  -5.655  0.00  0.00    -0.165 F 
ATOM     24  F   LIG d   1       8.884   0.623  -4.224  0.00  0.00    -0.165 F 
ATOM     25  F   LIG d   1       9.861   1.161  -6.217  0.00  0.00    -0.165 F 
ENDBRANCH   1  22
BRANCH   1  26
ATOM     26  O   LIG d   1       6.535  -0.195  -5.940  0.00  0.00    -0.263 OA
BRANCH  26  27
ATOM     27  C   LIG d   1       5.692  -0.331  -7.085  0.00  0.00     0.428 C 
ATOM     28  F   LIG d   1       5.913   0.741  -7.957  0.00  0.00    -0.169 F 
ATOM     29  F   LIG d   1       5.986  -1.532  -7.740  0.00  0.00    -0.169 F 
BRANCH  27  30
ATOM     30  C   LIG d   1       4.227  -0.335  -6.644  0.00  0.00     0.401 C 
ATOM     31  F   LIG d   1       3.844  -1.640  -6.311  0.00  0.00    -0.191 F 
BRANCH  30  32
ATOM     32  C   LIG d   1       3.349   0.178  -7.788  0.00  0.00     0.458 C 
ATOM     33  F   LIG d   1       3.306   1.576  -7.753  0.00  0.00    -0.165 F 
ATOM     34  F   LIG d   1       3.885  -0.242  -9.011  0.00  0.00    -0.165 F 
ATOM     35  F   LIG d   1       2.054  -0.332  -7.647  0.00  0.00    -0.165 F 
ENDBRANCH  30  32
BRANCH  30  36
ATOM     36  O   LIG d   1       4.069   0.513  -5.506  0.00  0.00    -0.264 OA
BRANCH  36  37
ATOM     37  C   LIG d   1       3.306  -0.070  -4.448  0.00  0.00     0.432 C 
ATOM     38  F   LIG d   1       1.953  -0.082  -4.800  0.00  0.00    -0.168 F 
ATOM     39  F   LIG d   1       3.742  -1.382  -4.227  0.00  0.00    -0.168 F 
BRANCH  37  40
ATOM     40  C   LIG d   1       3.493   0.752  -3.170  0.00  0.00     0.429 C 
ATOM     41  F   LIG d   1       3.227   2.099  -3.440  0.00  0.00    -0.186 F 
ATOM     42  F   LIG d   1       2.614   0.290  -2.186  0.00  0.00    -0.186 F 
BRANCH  40  43
ATOM     43  C   LIG d   1       4.935   0.606  -2.676  0.00  0.00     0.463 C 
ATOM     44  F   LIG d   1       5.423  -0.657  -3.029  0.00  0.00    -0.165 F 
ATOM     45  F   LIG d   1       5.731   1.594  -3.263  0.00  0.00    -0.165 F 
ATOM     46  F   LIG d   1       4.965   0.746  -1.284  0.00  0.00    -0.165 F 
ENDBRANCH  40  43
ENDBRANCH  37  40
ENDBRANCH  36  37
ENDBRANCH  30  36
ENDBRANCH  27  30
ENDBRANCH  26  27
ENDBRANCH   1  26
TORSDOF 13
ENDMDL
