MODEL 1
REMARK VINA RESULT:      -7.1      0.000      0.000
REMARK  4 active torsions:
REMARK  status: ('A' for Active; 'I' for Inactive)
REMARK    1  A    between atoms: C_1  and  C_2 
REMARK    2  A    between atoms: C_2  and  C_3 
REMARK    3  A    between atoms: N_23  and  C_26 
REMARK    4  A    between atoms: C_29  and  C_32 
ROOT
ATOM      1  C   LIG d   1       5.441  -2.686  -5.022  0.00  0.00     0.033 C 
ATOM      2  C   LIG d   1       6.986  -2.750  -4.825  0.00  0.00    -0.032 A 
ATOM      3  C   LIG d   1       7.669  -3.884  -4.530  0.00  0.00    -0.057 A 
ATOM      4  C   LIG d   1       9.055  -3.813  -4.439  0.00  0.00    -0.061 A 
ATOM      5  C   LIG d   1       9.700  -2.609  -4.656  0.00  0.00    -0.061 A 
ATOM      6  C   LIG d   1       8.984  -1.455  -4.937  0.00  0.00    -0.058 A 
ATOM      7  C   LIG d   1       7.612  -1.518  -4.993  0.00  0.00    -0.035 A 
ATOM      8  C   LIG d   1       6.739  -0.279  -5.121  0.00  0.00     0.022 C 
ATOM      9  C   LIG d   1       5.791  -0.454  -3.919  0.00  0.00    -0.035 A 
ATOM     10  C   LIG d   1       5.104  -1.682  -3.910  0.00  0.00    -0.032 A 
ATOM     11  C   LIG d   1       4.168  -1.953  -2.944  0.00  0.00    -0.057 A 
ATOM     12  C   LIG d   1       3.953  -1.023  -1.937  0.00  0.00    -0.061 A 
ATOM     13  C   LIG d   1       4.668   0.159  -1.899  0.00  0.00    -0.061 A 
ATOM     14  C   LIG d   1       5.608   0.474  -2.940  0.00  0.00    -0.058 A 
ATOM     15  C   LIG d   1       5.685  -0.460  -6.213  0.00  0.00     0.059 C 
ATOM     16  H   LIG d   1       4.744  -0.000  -5.915  0.00  0.00     0.041 H 
ATOM     17  C   LIG d   1       5.498  -1.977  -6.348  0.00  0.00     0.062 C 
ATOM     18  H   LIG d   1       6.497  -2.219  -6.712  0.00  0.00     0.041 H 
ATOM     19  C   LIG d   1       4.703  -2.077  -7.568  0.00  0.00     0.231 C 
ATOM     20  O   LIG d   1       3.839  -2.883  -7.840  0.00  0.00    -0.275 OA
ATOM     21  N   LIG d   1       5.170  -1.034  -8.337  0.00  0.00    -0.210 N 
ATOM     22  C   LIG d   1       5.990  -0.155  -7.650  0.00  0.00     0.231 C 
ATOM     23  O   LIG d   1       6.734   0.700  -8.081  0.00  0.00    -0.275 OA
ATOM     24  H   LIG d   1       7.150  -4.817  -4.369  0.00  0.00     0.062 H 
ATOM     25  H   LIG d   1       9.628  -4.697  -4.199  0.00  0.00     0.062 H 
ATOM     26  H   LIG d   1      10.777  -2.567  -4.606  0.00  0.00     0.062 H 
ATOM     27  H   LIG d   1       9.497  -0.520  -5.108  0.00  0.00     0.062 H 
ATOM     28  H   LIG d   1       7.288   0.662  -5.154  0.00  0.00     0.041 H 
ATOM     29  H   LIG d   1       3.607  -2.876  -2.967  0.00  0.00     0.062 H 
ATOM     30  H   LIG d   1       3.215  -1.225  -1.174  0.00  0.00     0.062 H 
ATOM     31  H   LIG d   1       4.503   0.864  -1.096  0.00  0.00     0.062 H 
ATOM     32  H   LIG d   1       6.174   1.393  -2.937  0.00  0.00     0.062 H 
ENDROOT
BRANCH  21  33
ATOM     33  C   LIG d   1       4.882  -0.893  -9.703  0.00  0.00     0.044 A 
ATOM     34  C   LIG d   1       3.838  -0.076 -10.111  0.00  0.00    -0.040 A 
ATOM     35  C   LIG d   1       3.560   0.066 -11.457  0.00  0.00    -0.057 A 
ATOM     36  H   LIG d   1       3.246   0.452  -9.379  0.00  0.00     0.064 H 
ATOM     37  C   LIG d   1       4.315  -0.613 -12.395  0.00  0.00    -0.050 A 
ATOM     38  H   LIG d   1       2.750   0.706 -11.776  0.00  0.00     0.062 H 
ATOM     39  C   LIG d   1       5.353  -1.433 -11.990  0.00  0.00    -0.057 A 
ATOM     40  C   LIG d   1       5.638  -1.574 -10.647  0.00  0.00    -0.040 A 
ATOM     41  H   LIG d   1       5.940  -1.962 -12.726  0.00  0.00     0.062 H 
ATOM     42  H   LIG d   1       6.449  -2.213 -10.331  0.00  0.00     0.064 H 
BRANCH  37  43
ATOM     43  C   LIG d   1       4.006  -0.460 -13.862  0.00  0.00    -0.040 C 
ATOM     44  H   LIG d   1       3.074   0.094 -13.982  0.00  0.00     0.028 H 
ATOM     45  H   LIG d   1       4.816   0.083 -14.349  0.00  0.00     0.028 H 
ATOM     46  H   LIG d   1       3.903  -1.445 -14.317  0.00  0.00     0.028 H 
ENDBRANCH  37  43
ENDBRANCH  21  33
BRANCH   1  47
ATOM     47  C   LIG d   1       4.668  -4.006  -4.992  0.00  0.00    -0.041 C 
ATOM     48  H   LIG d   1       3.666  -3.850  -5.392  0.00  0.00     0.027 H 
ATOM     49  H   LIG d   1       4.597  -4.362  -3.964  0.00  0.00     0.027 H 
BRANCH  47  50
ATOM     50  C   LIG d   1       5.400  -5.045  -5.843  0.00  0.00    -0.064 C 
ATOM     51  H   LIG d   1       5.315  -6.025  -5.373  0.00  0.00     0.023 H 
ATOM     52  H   LIG d   1       4.956  -5.079  -6.838  0.00  0.00     0.023 H 
ATOM     53  H   LIG d   1       6.452  -4.772  -5.924  0.00  0.00     0.023 H 
ENDBRANCH  47  50
ENDBRANCH   1  47
TORSDOF 4
ENDMDL
MODEL 2
REMARK VINA RESULT:      -6.8      2.668      6.663
REMARK  4 active torsions:
REMARK  status: ('A' for Active; 'I' for Inactive)
REMARK    1  A    between atoms: C_1  and  C_2 
REMARK    2  A    between atoms: C_2  and  C_3 
REMARK    3  A    between atoms: N_23  and  C_26 
REMARK    4  A    between atoms: C_29  and  C_32 
ROOT
ATOM      1  C   LIG d   1       6.948  -0.273  -5.096  0.00  0.00     0.033 C 
ATOM      2  C   LIG d   1       5.952  -0.978  -6.065  0.00  0.00    -0.032 A 
ATOM      3  C   LIG d   1       5.512  -0.438  -7.229  0.00  0.00    -0.057 A 
ATOM      4  C   LIG d   1       4.668  -1.200  -8.032  0.00  0.00    -0.061 A 
ATOM      5  C   LIG d   1       4.308  -2.475  -7.637  0.00  0.00    -0.061 A 
ATOM      6  C   LIG d   1       4.751  -3.004  -6.434  0.00  0.00    -0.058 A 
ATOM      7  C   LIG d   1       5.557  -2.239  -5.625  0.00  0.00    -0.035 A 
ATOM      8  C   LIG d   1       5.946  -2.663  -4.217  0.00  0.00     0.022 C 
ATOM      9  C   LIG d   1       5.501  -1.436  -3.398  0.00  0.00    -0.035 A 
ATOM     10  C   LIG d   1       6.061  -0.223  -3.843  0.00  0.00    -0.032 A 
ATOM     11  C   LIG d   1       5.819   0.947  -3.169  0.00  0.00    -0.057 A 
ATOM     12  C   LIG d   1       4.963   0.929  -2.077  0.00  0.00    -0.061 A 
ATOM     13  C   LIG d   1       4.356  -0.245  -1.670  0.00  0.00    -0.061 A 
ATOM     14  C   LIG d   1       4.651  -1.484  -2.337  0.00  0.00    -0.058 A 
ATOM     15  C   LIG d   1       7.449  -2.501  -3.991  0.00  0.00     0.059 C 
ATOM     16  H   LIG d   1       7.646  -2.151  -2.978  0.00  0.00     0.041 H 
ATOM     17  C   LIG d   1       7.897  -1.436  -5.001  0.00  0.00     0.062 C 
ATOM     18  H   LIG d   1       7.689  -1.997  -5.912  0.00  0.00     0.041 H 
ATOM     19  C   LIG d   1       9.352  -1.533  -4.916  0.00  0.00     0.231 C 
ATOM     20  O   LIG d   1      10.173  -0.647  -5.024  0.00  0.00    -0.275 OA
ATOM     21  N   LIG d   1       9.567  -2.873  -4.683  0.00  0.00    -0.210 N 
ATOM     22  C   LIG d   1       8.417  -3.580  -4.374  0.00  0.00     0.231 C 
ATOM     23  O   LIG d   1       8.232  -4.778  -4.355  0.00  0.00    -0.275 OA
ATOM     24  H   LIG d   1       5.808   0.558  -7.524  0.00  0.00     0.062 H 
ATOM     25  H   LIG d   1       4.295  -0.796  -8.961  0.00  0.00     0.062 H 
ATOM     26  H   LIG d   1       3.672  -3.069  -8.276  0.00  0.00     0.062 H 
ATOM     27  H   LIG d   1       4.466  -4.002  -6.136  0.00  0.00     0.062 H 
ATOM     28  H   LIG d   1       5.527  -3.618  -3.899  0.00  0.00     0.041 H 
ATOM     29  H   LIG d   1       6.287   1.868  -3.482  0.00  0.00     0.062 H 
ATOM     30  H   LIG d   1       4.769   1.844  -1.536  0.00  0.00     0.062 H 
ATOM     31  H   LIG d   1       3.677  -0.238  -0.830  0.00  0.00     0.062 H 
ATOM     32  H   LIG d   1       4.197  -2.415  -2.034  0.00  0.00     0.062 H 
ENDROOT
BRANCH  21  33
ATOM     33  C   LIG d   1      10.826  -3.482  -4.788  0.00  0.00     0.044 A 
ATOM     34  C   LIG d   1      11.609  -3.658  -3.656  0.00  0.00    -0.040 A 
ATOM     35  C   LIG d   1      12.846  -4.263  -3.761  0.00  0.00    -0.057 A 
ATOM     36  H   LIG d   1      11.250  -3.327  -2.693  0.00  0.00     0.064 H 
ATOM     37  C   LIG d   1      13.309  -4.683  -4.994  0.00  0.00    -0.050 A 
ATOM     38  H   LIG d   1      13.455  -4.406  -2.880  0.00  0.00     0.062 H 
ATOM     39  C   LIG d   1      12.533  -4.504  -6.125  0.00  0.00    -0.057 A 
ATOM     40  C   LIG d   1      11.293  -3.904  -6.025  0.00  0.00    -0.040 A 
ATOM     41  H   LIG d   1      12.898  -4.833  -7.087  0.00  0.00     0.062 H 
ATOM     42  H   LIG d   1      10.688  -3.765  -6.908  0.00  0.00     0.064 H 
BRANCH  37  43
ATOM     43  C   LIG d   1      14.661  -5.339  -5.107  0.00  0.00    -0.040 C 
ATOM     44  H   LIG d   1      14.568  -6.405  -4.896  0.00  0.00     0.028 H 
ATOM     45  H   LIG d   1      15.048  -5.201  -6.117  0.00  0.00     0.028 H 
ATOM     46  H   LIG d   1      15.346  -4.886  -4.391  0.00  0.00     0.028 H 
ENDBRANCH  37  43
ENDBRANCH  21  33
BRANCH   1  47
ATOM     47  C   LIG d   1       7.550   1.059  -5.545  0.00  0.00    -0.041 C 
ATOM     48  H   LIG d   1       8.407   1.302  -4.916  0.00  0.00     0.027 H 
ATOM     49  H   LIG d   1       6.801   1.846  -5.456  0.00  0.00     0.027 H 
BRANCH  47  50
ATOM     50  C   LIG d   1       8.003   0.948  -7.002  0.00  0.00    -0.064 C 
ATOM     51  H   LIG d   1       7.134   0.799  -7.643  0.00  0.00     0.023 H 
ATOM     52  H   LIG d   1       8.518   1.864  -7.295  0.00  0.00     0.023 H 
ATOM     53  H   LIG d   1       8.681   0.101  -7.108  0.00  0.00     0.023 H 
ENDBRANCH  47  50
ENDBRANCH   1  47
TORSDOF 4
ENDMDL
MODEL 3
REMARK VINA RESULT:      -6.8      1.382      4.218
REMARK  4 active torsions:
REMARK  status: ('A' for Active; 'I' for Inactive)
REMARK    1  A    between atoms: C_1  and  C_2 
REMARK    2  A    between atoms: C_2  and  C_3 
REMARK    3  A    between atoms: N_23  and  C_26 
REMARK    4  A    between atoms: C_29  and  C_32 
ROOT
ATOM      1  C   LIG d   1       6.824  -0.417  -5.266  0.00  0.00     0.033 C 
ATOM      2  C   LIG d   1       5.976  -0.593  -3.970  0.00  0.00    -0.032 A 
ATOM      3  C   LIG d   1       5.733   0.399  -3.079  0.00  0.00    -0.057 A 
ATOM      4  C   LIG d   1       4.909   0.123  -1.992  0.00  0.00    -0.061 A 
ATOM      5  C   LIG d   1       4.356  -1.136  -1.851  0.00  0.00    -0.061 A 
ATOM      6  C   LIG d   1       4.631  -2.146  -2.760  0.00  0.00    -0.058 A 
ATOM      7  C   LIG d   1       5.473  -1.883  -3.815  0.00  0.00    -0.035 A 
ATOM      8  C   LIG d   1       5.968  -2.967  -4.759  0.00  0.00     0.022 C 
ATOM      9  C   LIG d   1       7.494  -2.767  -4.672  0.00  0.00    -0.035 A 
ATOM     10  C   LIG d   1       7.915  -1.460  -4.976  0.00  0.00    -0.032 A 
ATOM     11  C   LIG d   1       9.250  -1.145  -5.015  0.00  0.00    -0.057 A 
ATOM     12  C   LIG d   1      10.180  -2.122  -4.687  0.00  0.00    -0.061 A 
ATOM     13  C   LIG d   1       9.775  -3.393  -4.325  0.00  0.00    -0.061 A 
ATOM     14  C   LIG d   1       8.381  -3.744  -4.338  0.00  0.00    -0.058 A 
ATOM     15  C   LIG d   1       5.810  -2.538  -6.218  0.00  0.00     0.059 C 
ATOM     16  H   LIG d   1       6.656  -2.884  -6.811  0.00  0.00     0.041 H 
ATOM     17  C   LIG d   1       5.793  -1.004  -6.190  0.00  0.00     0.062 C 
ATOM     18  H   LIG d   1       4.864  -0.876  -5.633  0.00  0.00     0.041 H 
ATOM     19  C   LIG d   1       5.372  -0.681  -7.551  0.00  0.00     0.231 C 
ATOM     20  O   LIG d   1       5.704   0.261  -8.237  0.00  0.00    -0.275 OA
ATOM     21  N   LIG d   1       4.508  -1.706  -7.867  0.00  0.00    -0.210 N 
ATOM     22  C   LIG d   1       4.525  -2.753  -6.960  0.00  0.00     0.231 C 
ATOM     23  O   LIG d   1       3.735  -3.662  -6.821  0.00  0.00    -0.275 OA
ATOM     24  H   LIG d   1       6.170   1.379  -3.208  0.00  0.00     0.062 H 
ATOM     25  H   LIG d   1       4.702   0.890  -1.261  0.00  0.00     0.062 H 
ATOM     26  H   LIG d   1       3.700  -1.337  -1.017  0.00  0.00     0.062 H 
ATOM     27  H   LIG d   1       4.191  -3.125  -2.642  0.00  0.00     0.062 H 
ATOM     28  H   LIG d   1       5.610  -3.969  -4.527  0.00  0.00     0.041 H 
ATOM     29  H   LIG d   1       9.573  -0.154  -5.294  0.00  0.00     0.062 H 
ATOM     30  H   LIG d   1      11.233  -1.887  -4.718  0.00  0.00     0.062 H 
ATOM     31  H   LIG d   1      10.510  -4.137  -4.053  0.00  0.00     0.062 H 
ATOM     32  H   LIG d   1       8.040  -4.731  -4.067  0.00  0.00     0.062 H 
ENDROOT
BRANCH  21  33
ATOM     33  C   LIG d   1       3.656  -1.680  -8.980  0.00  0.00     0.044 A 
ATOM     34  C   LIG d   1       3.990  -2.385 -10.127  0.00  0.00    -0.040 A 
ATOM     35  C   LIG d   1       3.145  -2.363 -11.220  0.00  0.00    -0.057 A 
ATOM     36  H   LIG d   1       4.907  -2.954 -10.165  0.00  0.00     0.064 H 
ATOM     37  C   LIG d   1       1.974  -1.631 -11.175  0.00  0.00    -0.050 A 
ATOM     38  H   LIG d   1       3.402  -2.916 -12.113  0.00  0.00     0.062 H 
ATOM     39  C   LIG d   1       1.640  -0.923 -10.035  0.00  0.00    -0.057 A 
ATOM     40  C   LIG d   1       2.478  -0.946  -8.937  0.00  0.00    -0.040 A 
ATOM     41  H   LIG d   1       0.724  -0.352 -10.003  0.00  0.00     0.062 H 
ATOM     42  H   LIG d   1       2.218  -0.394  -8.047  0.00  0.00     0.064 H 
BRANCH  37  43
ATOM     43  C   LIG d   1       1.057  -1.605 -12.371  0.00  0.00    -0.040 C 
ATOM     44  H   LIG d   1       1.335  -0.777 -13.025  0.00  0.00     0.028 H 
ATOM     45  H   LIG d   1       1.145  -2.544 -12.917  0.00  0.00     0.028 H 
ATOM     46  H   LIG d   1       0.028  -1.472 -12.037  0.00  0.00     0.028 H 
ENDBRANCH  37  43
ENDBRANCH  21  33
BRANCH   1  47
ATOM     47  C   LIG d   1       7.315   0.992  -5.605  0.00  0.00    -0.041 C 
ATOM     48  H   LIG d   1       6.470   1.608  -5.909  0.00  0.00     0.027 H 
ATOM     49  H   LIG d   1       8.038   0.939  -6.419  0.00  0.00     0.027 H 
BRANCH  47  50
ATOM     50  C   LIG d   1       7.979   1.610  -4.373  0.00  0.00    -0.064 C 
ATOM     51  H   LIG d   1       8.386   2.588  -4.632  0.00  0.00     0.023 H 
ATOM     52  H   LIG d   1       7.241   1.722  -3.579  0.00  0.00     0.023 H 
ATOM     53  H   LIG d   1       8.785   0.961  -4.030  0.00  0.00     0.023 H 
ENDBRANCH  47  50
ENDBRANCH   1  47
TORSDOF 4
ENDMDL
MODEL 4
REMARK VINA RESULT:      -6.6      3.428      5.001
REMARK  4 active torsions:
REMARK  status: ('A' for Active; 'I' for Inactive)
REMARK    1  A    between atoms: C_1  and  C_2 
REMARK    2  A    between atoms: C_2  and  C_3 
REMARK    3  A    between atoms: N_23  and  C_26 
REMARK    4  A    between atoms: C_29  and  C_32 
ROOT
ATOM      1  C   LIG d   1       5.787  -0.712  -5.817  0.00  0.00     0.033 C 
ATOM      2  C   LIG d   1       6.536  -1.966  -5.274  0.00  0.00    -0.032 A 
ATOM      3  C   LIG d   1       6.500  -3.188  -5.862  0.00  0.00    -0.057 A 
ATOM      4  C   LIG d   1       7.263  -4.210  -5.306  0.00  0.00    -0.061 A 
ATOM      5  C   LIG d   1       8.038  -3.961  -4.188  0.00  0.00    -0.061 A 
ATOM      6  C   LIG d   1       8.046  -2.712  -3.587  0.00  0.00    -0.058 A 
ATOM      7  C   LIG d   1       7.266  -1.711  -4.116  0.00  0.00    -0.035 A 
ATOM      8  C   LIG d   1       7.077  -0.367  -3.428  0.00  0.00     0.022 C 
ATOM      9  C   LIG d   1       5.541  -0.282  -3.351  0.00  0.00    -0.035 A 
ATOM     10  C   LIG d   1       4.901  -0.421  -4.597  0.00  0.00    -0.032 A 
ATOM     11  C   LIG d   1       3.539  -0.292  -4.701  0.00  0.00    -0.057 A 
ATOM     12  C   LIG d   1       2.793  -0.085  -3.550  0.00  0.00    -0.061 A 
ATOM     13  C   LIG d   1       3.405  -0.011  -2.312  0.00  0.00    -0.061 A 
ATOM     14  C   LIG d   1       4.836  -0.088  -2.203  0.00  0.00    -0.058 A 
ATOM     15  C   LIG d   1       7.277   0.785  -4.412  0.00  0.00     0.059 C 
ATOM     16  H   LIG d   1       6.570   1.588  -4.206  0.00  0.00     0.041 H 
ATOM     17  C   LIG d   1       6.991   0.190  -5.797  0.00  0.00     0.062 C 
ATOM     18  H   LIG d   1       7.824  -0.513  -5.832  0.00  0.00     0.041 H 
ATOM     19  C   LIG d   1       7.459   1.251  -6.685  0.00  0.00     0.231 C 
ATOM     20  O   LIG d   1       7.012   1.583  -7.761  0.00  0.00    -0.275 OA
ATOM     21  N   LIG d   1       8.531   1.783  -6.004  0.00  0.00    -0.210 N 
ATOM     22  C   LIG d   1       8.640   1.342  -4.696  0.00  0.00     0.231 C 
ATOM     23  O   LIG d   1       9.577   1.427  -3.931  0.00  0.00    -0.275 OA
ATOM     24  H   LIG d   1       5.894  -3.363  -6.739  0.00  0.00     0.062 H 
ATOM     25  H   LIG d   1       7.251  -5.196  -5.747  0.00  0.00     0.062 H 
ATOM     26  H   LIG d   1       8.644  -4.753  -3.775  0.00  0.00     0.062 H 
ATOM     27  H   LIG d   1       8.657  -2.527  -2.716  0.00  0.00     0.062 H 
ATOM     28  H   LIG d   1       7.603  -0.266  -2.479  0.00  0.00     0.041 H 
ATOM     29  H   LIG d   1       3.054  -0.352  -5.665  0.00  0.00     0.062 H 
ATOM     30  H   LIG d   1       1.720   0.021  -3.622  0.00  0.00     0.062 H 
ATOM     31  H   LIG d   1       2.808   0.130  -1.423  0.00  0.00     0.062 H 
ATOM     32  H   LIG d   1       5.338  -0.025  -1.250  0.00  0.00     0.062 H 
ENDROOT
BRANCH  21  33
ATOM     33  C   LIG d   1       9.457   2.660  -6.589  0.00  0.00     0.044 A 
ATOM     34  C   LIG d   1       9.460   4.002  -6.237  0.00  0.00    -0.040 A 
ATOM     35  C   LIG d   1      10.378   4.862  -6.810  0.00  0.00    -0.057 A 
ATOM     36  H   LIG d   1       8.750   4.374  -5.514  0.00  0.00     0.064 H 
ATOM     37  C   LIG d   1      11.285   4.388  -7.739  0.00  0.00    -0.050 A 
ATOM     38  H   LIG d   1      10.385   5.906  -6.533  0.00  0.00     0.062 H 
ATOM     39  C   LIG d   1      11.280   3.052  -8.096  0.00  0.00    -0.057 A 
ATOM     40  C   LIG d   1      10.369   2.187  -7.523  0.00  0.00    -0.040 A 
ATOM     41  H   LIG d   1      11.989   2.685  -8.823  0.00  0.00     0.062 H 
ATOM     42  H   LIG d   1      10.366   1.143  -7.801  0.00  0.00     0.064 H 
BRANCH  37  43
ATOM     43  C   LIG d   1      12.280   5.330  -8.366  0.00  0.00    -0.040 C 
ATOM     44  H   LIG d   1      13.214   5.301  -7.802  0.00  0.00     0.028 H 
ATOM     45  H   LIG d   1      12.469   5.025  -9.396  0.00  0.00     0.028 H 
ATOM     46  H   LIG d   1      11.881   6.343  -8.354  0.00  0.00     0.028 H 
ENDBRANCH  37  43
ENDBRANCH  21  33
BRANCH   1  47
ATOM     47  C   LIG d   1       5.062  -0.845  -7.157  0.00  0.00    -0.041 C 
ATOM     48  H   LIG d   1       4.793   0.145  -7.525  0.00  0.00     0.027 H 
ATOM     49  H   LIG d   1       4.159  -1.441  -7.024  0.00  0.00     0.027 H 
BRANCH  47  50
ATOM     50  C   LIG d   1       5.983  -1.531  -8.169  0.00  0.00    -0.064 C 
ATOM     51  H   LIG d   1       5.428  -1.736  -9.085  0.00  0.00     0.023 H 
ATOM     52  H   LIG d   1       6.827  -0.880  -8.393  0.00  0.00     0.023 H 
ATOM     53  H   LIG d   1       6.348  -2.469  -7.750  0.00  0.00     0.023 H 
ENDBRANCH  47  50
ENDBRANCH   1  47
TORSDOF 4
ENDMDL
MODEL 5
REMARK VINA RESULT:      -6.6      2.542      5.549
REMARK  4 active torsions:
REMARK  status: ('A' for Active; 'I' for Inactive)
REMARK    1  A    between atoms: C_1  and  C_2 
REMARK    2  A    between atoms: C_2  and  C_3 
REMARK    3  A    between atoms: N_23  and  C_26 
REMARK    4  A    between atoms: C_29  and  C_32 
ROOT
ATOM      1  C   LIG d   1       6.658  -0.853  -4.812  0.00  0.00     0.033 C 
ATOM      2  C   LIG d   1       6.426  -0.113  -6.164  0.00  0.00    -0.032 A 
ATOM      3  C   LIG d   1       7.348   0.678  -6.766  0.00  0.00    -0.057 A 
ATOM      4  C   LIG d   1       7.035   1.234  -8.002  0.00  0.00    -0.061 A 
ATOM      5  C   LIG d   1       5.812   0.964  -8.588  0.00  0.00    -0.061 A 
ATOM      6  C   LIG d   1       4.872   0.170  -7.949  0.00  0.00    -0.058 A 
ATOM      7  C   LIG d   1       5.168  -0.351  -6.712  0.00  0.00    -0.035 A 
ATOM      8  C   LIG d   1       4.141  -1.085  -5.863  0.00  0.00     0.022 C 
ATOM      9  C   LIG d   1       4.221  -0.293  -4.544  0.00  0.00    -0.035 A 
ATOM     10  C   LIG d   1       5.517  -0.222  -4.000  0.00  0.00    -0.032 A 
ATOM     11  C   LIG d   1       5.735   0.385  -2.790  0.00  0.00    -0.057 A 
ATOM     12  C   LIG d   1       4.668   0.985  -2.136  0.00  0.00    -0.061 A 
ATOM     13  C   LIG d   1       3.402   0.977  -2.691  0.00  0.00    -0.061 A 
ATOM     14  C   LIG d   1       3.156   0.293  -3.931  0.00  0.00    -0.058 A 
ATOM     15  C   LIG d   1       4.711  -2.397  -5.325  0.00  0.00     0.059 C 
ATOM     16  H   LIG d   1       4.361  -2.576  -4.309  0.00  0.00     0.041 H 
ATOM     17  C   LIG d   1       6.234  -2.205  -5.318  0.00  0.00     0.062 C 
ATOM     18  H   LIG d   1       6.377  -2.120  -6.396  0.00  0.00     0.041 H 
ATOM     19  C   LIG d   1       6.708  -3.562  -5.061  0.00  0.00     0.231 C 
ATOM     20  O   LIG d   1       7.683  -3.911  -4.430  0.00  0.00    -0.275 OA
ATOM     21  N   LIG d   1       5.782  -4.350  -5.706  0.00  0.00    -0.210 N 
ATOM     22  C   LIG d   1       4.659  -3.660  -6.132  0.00  0.00     0.231 C 
ATOM     23  O   LIG d   1       3.800  -3.999  -6.917  0.00  0.00    -0.275 OA
ATOM     24  H   LIG d   1       8.302   0.873  -6.297  0.00  0.00     0.062 H 
ATOM     25  H   LIG d   1       7.745   1.873  -8.505  0.00  0.00     0.062 H 
ATOM     26  H   LIG d   1       5.584   1.380  -9.557  0.00  0.00     0.062 H 
ATOM     27  H   LIG d   1       3.920  -0.037  -8.416  0.00  0.00     0.062 H 
ATOM     28  H   LIG d   1       3.150  -1.156  -6.311  0.00  0.00     0.041 H 
ATOM     29  H   LIG d   1       6.722   0.398  -2.352  0.00  0.00     0.062 H 
ATOM     30  H   LIG d   1       4.829   1.462  -1.180  0.00  0.00     0.062 H 
ATOM     31  H   LIG d   1       2.586   1.465  -2.179  0.00  0.00     0.062 H 
ATOM     32  H   LIG d   1       2.176   0.266  -4.381  0.00  0.00     0.062 H 
ENDROOT
BRANCH  21  33
ATOM     33  C   LIG d   1       5.971  -5.717  -5.953  0.00  0.00     0.044 A 
ATOM     34  C   LIG d   1       5.168  -6.655  -5.318  0.00  0.00    -0.040 A 
ATOM     35  C   LIG d   1       5.352  -8.001  -5.567  0.00  0.00    -0.057 A 
ATOM     36  H   LIG d   1       4.398  -6.332  -4.633  0.00  0.00     0.064 H 
ATOM     37  C   LIG d   1       6.341  -8.415  -6.440  0.00  0.00    -0.050 A 
ATOM     38  H   LIG d   1       4.724  -8.731  -5.077  0.00  0.00     0.062 H 
ATOM     39  C   LIG d   1       7.146  -7.483  -7.070  0.00  0.00    -0.057 A 
ATOM     40  C   LIG d   1       6.963  -6.136  -6.828  0.00  0.00    -0.040 A 
ATOM     41  H   LIG d   1       7.918  -7.810  -7.751  0.00  0.00     0.062 H 
ATOM     42  H   LIG d   1       7.591  -5.409  -7.321  0.00  0.00     0.064 H 
BRANCH  37  43
ATOM     43  C   LIG d   1       6.543  -9.885  -6.705  0.00  0.00    -0.040 C 
ATOM     44  H   LIG d   1       7.584 -10.149  -6.517  0.00  0.00     0.028 H 
ATOM     45  H   LIG d   1       5.896 -10.465  -6.047  0.00  0.00     0.028 H 
ATOM     46  H   LIG d   1       6.296 -10.104  -7.744  0.00  0.00     0.028 H 
ENDBRANCH  37  43
ENDBRANCH  21  33
BRANCH   1  47
ATOM     47  C   LIG d   1       8.052  -0.770  -4.189  0.00  0.00    -0.041 C 
ATOM     48  H   LIG d   1       8.134  -1.499  -3.383  0.00  0.00     0.027 H 
ATOM     49  H   LIG d   1       8.212   0.232  -3.789  0.00  0.00     0.027 H 
BRANCH  47  50
ATOM     50  C   LIG d   1       9.107  -1.068  -5.256  0.00  0.00    -0.064 C 
ATOM     51  H   LIG d   1       8.714  -0.802  -6.238  0.00  0.00     0.023 H 
ATOM     52  H   LIG d   1      10.005  -0.484  -5.053  0.00  0.00     0.023 H 
ATOM     53  H   LIG d   1       9.351  -2.129  -5.239  0.00  0.00     0.023 H 
ENDBRANCH  47  50
ENDBRANCH   1  47
TORSDOF 4
ENDMDL
MODEL 6
REMARK VINA RESULT:      -6.6      2.792      3.911
REMARK  4 active torsions:
REMARK  status: ('A' for Active; 'I' for Inactive)
REMARK    1  A    between atoms: C_1  and  C_2 
REMARK    2  A    between atoms: C_2  and  C_3 
REMARK    3  A    between atoms: N_23  and  C_26 
REMARK    4  A    between atoms: C_29  and  C_32 
ROOT
ATOM      1  C   LIG d   1       4.593  -0.625  -6.022  0.00  0.00     0.033 C 
ATOM      2  C   LIG d   1       5.116  -2.071  -5.774  0.00  0.00    -0.032 A 
ATOM      3  C   LIG d   1       4.491  -3.192  -6.211  0.00  0.00    -0.057 A 
ATOM      4  C   LIG d   1       5.097  -4.422  -5.972  0.00  0.00    -0.061 A 
ATOM      5  C   LIG d   1       6.311  -4.474  -5.312  0.00  0.00    -0.061 A 
ATOM      6  C   LIG d   1       6.927  -3.319  -4.853  0.00  0.00    -0.058 A 
ATOM      7  C   LIG d   1       6.311  -2.107  -5.059  0.00  0.00    -0.035 A 
ATOM      8  C   LIG d   1       6.821  -0.813  -4.444  0.00  0.00     0.022 C 
ATOM      9  C   LIG d   1       5.558  -0.306  -3.722  0.00  0.00    -0.035 A 
ATOM     10  C   LIG d   1       4.436  -0.178  -4.561  0.00  0.00    -0.032 A 
ATOM     11  C   LIG d   1       3.257   0.334  -4.080  0.00  0.00    -0.057 A 
ATOM     12  C   LIG d   1       3.168   0.666  -2.735  0.00  0.00    -0.061 A 
ATOM     13  C   LIG d   1       4.244   0.484  -1.887  0.00  0.00    -0.061 A 
ATOM     14  C   LIG d   1       5.499   0.002  -2.397  0.00  0.00    -0.058 A 
ATOM     15  C   LIG d   1       6.894   0.299  -5.489  0.00  0.00     0.059 C 
ATOM     16  H   LIG d   1       6.601   1.253  -5.052  0.00  0.00     0.041 H 
ATOM     17  C   LIG d   1       5.889  -0.100  -6.578  0.00  0.00     0.062 C 
ATOM     18  H   LIG d   1       6.392  -1.004  -6.921  0.00  0.00     0.041 H 
ATOM     19  C   LIG d   1       6.209   0.843  -7.645  0.00  0.00     0.231 C 
ATOM     20  O   LIG d   1       5.457   1.358  -8.445  0.00  0.00    -0.275 OA
ATOM     21  N   LIG d   1       7.570   1.008  -7.526  0.00  0.00    -0.210 N 
ATOM     22  C   LIG d   1       8.100   0.469  -6.365  0.00  0.00     0.231 C 
ATOM     23  O   LIG d   1       9.256   0.238  -6.082  0.00  0.00    -0.275 OA
ATOM     24  H   LIG d   1       3.545  -3.132  -6.730  0.00  0.00     0.062 H 
ATOM     25  H   LIG d   1       4.621  -5.333  -6.301  0.00  0.00     0.062 H 
ATOM     26  H   LIG d   1       6.786  -5.429  -5.150  0.00  0.00     0.062 H 
ATOM     27  H   LIG d   1       7.877  -3.371  -4.342  0.00  0.00     0.062 H 
ATOM     28  H   LIG d   1       7.707  -0.926  -3.820  0.00  0.00     0.041 H 
ATOM     29  H   LIG d   1       2.412   0.476  -4.736  0.00  0.00     0.062 H 
ATOM     30  H   LIG d   1       2.246   1.073  -2.347  0.00  0.00     0.062 H 
ATOM     31  H   LIG d   1       4.152   0.728  -0.839  0.00  0.00     0.062 H 
ATOM     32  H   LIG d   1       6.356  -0.141  -1.758  0.00  0.00     0.062 H 
ENDROOT
BRANCH  21  33
ATOM     33  C   LIG d   1       8.362   1.626  -8.505  0.00  0.00     0.044 A 
ATOM     34  C   LIG d   1       8.713   2.962  -8.373  0.00  0.00    -0.040 A 
ATOM     35  C   LIG d   1       9.497   3.567  -9.335  0.00  0.00    -0.057 A 
ATOM     36  H   LIG d   1       8.377   3.528  -7.516  0.00  0.00     0.064 H 
ATOM     37  C   LIG d   1       9.924   2.846 -10.435  0.00  0.00    -0.050 A 
ATOM     38  H   LIG d   1       9.776   4.606  -9.231  0.00  0.00     0.062 H 
ATOM     39  C   LIG d   1       9.570   1.515 -10.572  0.00  0.00    -0.057 A 
ATOM     40  C   LIG d   1       8.790   0.904  -9.610  0.00  0.00    -0.040 A 
ATOM     41  H   LIG d   1       9.904   0.954 -11.433  0.00  0.00     0.062 H 
ATOM     42  H   LIG d   1       8.515  -0.134  -9.717  0.00  0.00     0.064 H 
BRANCH  37  43
ATOM     43  C   LIG d   1      10.775   3.509 -11.487  0.00  0.00    -0.040 C 
ATOM     44  H   LIG d   1      11.777   3.677 -11.090  0.00  0.00     0.028 H 
ATOM     45  H   LIG d   1      10.834   2.866 -12.364  0.00  0.00     0.028 H 
ATOM     46  H   LIG d   1      10.330   4.464 -11.765  0.00  0.00     0.028 H 
ENDBRANCH  37  43
ENDBRANCH  21  33
BRANCH   1  47
ATOM     47  C   LIG d   1       3.359  -0.461  -6.911  0.00  0.00    -0.041 C 
ATOM     48  H   LIG d   1       3.233   0.590  -7.169  0.00  0.00     0.027 H 
ATOM     49  H   LIG d   1       2.476  -0.811  -6.375  0.00  0.00     0.027 H 
BRANCH  47  50
ATOM     50  C   LIG d   1       3.539  -1.281  -8.190  0.00  0.00    -0.064 C 
ATOM     51  H   LIG d   1       3.236  -2.312  -8.006  0.00  0.00     0.023 H 
ATOM     52  H   LIG d   1       2.924  -0.857  -8.984  0.00  0.00     0.023 H 
ATOM     53  H   LIG d   1       4.586  -1.260  -8.490  0.00  0.00     0.023 H 
ENDBRANCH  47  50
ENDBRANCH   1  47
TORSDOF 4
ENDMDL
MODEL 7
REMARK VINA RESULT:      -6.4      2.517      5.861
REMARK  4 active torsions:
REMARK  status: ('A' for Active; 'I' for Inactive)
REMARK    1  A    between atoms: C_1  and  C_2 
REMARK    2  A    between atoms: C_2  and  C_3 
REMARK    3  A    between atoms: N_23  and  C_26 
REMARK    4  A    between atoms: C_29  and  C_32 
ROOT
ATOM      1  C   LIG d   1       4.753  -1.015  -4.990  0.00  0.00     0.033 C 
ATOM      2  C   LIG d   1       6.032  -0.161  -4.736  0.00  0.00    -0.032 A 
ATOM      3  C   LIG d   1       6.237   0.590  -3.625  0.00  0.00    -0.057 A 
ATOM      4  C   LIG d   1       7.450   1.258  -3.496  0.00  0.00    -0.061 A 
ATOM      5  C   LIG d   1       8.411   1.138  -4.484  0.00  0.00    -0.061 A 
ATOM      6  C   LIG d   1       8.176   0.383  -5.623  0.00  0.00    -0.058 A 
ATOM      7  C   LIG d   1       6.964  -0.250  -5.766  0.00  0.00    -0.035 A 
ATOM      8  C   LIG d   1       6.552  -0.952  -7.051  0.00  0.00     0.022 C 
ATOM      9  C   LIG d   1       5.204  -0.269  -7.349  0.00  0.00    -0.035 A 
ATOM     10  C   LIG d   1       4.280  -0.349  -6.291  0.00  0.00    -0.032 A 
ATOM     11  C   LIG d   1       3.009   0.148  -6.433  0.00  0.00    -0.057 A 
ATOM     12  C   LIG d   1       2.666   0.788  -7.616  0.00  0.00    -0.061 A 
ATOM     13  C   LIG d   1       3.586   0.929  -8.638  0.00  0.00    -0.061 A 
ATOM     14  C   LIG d   1       4.900   0.361  -8.517  0.00  0.00    -0.058 A 
ATOM     15  C   LIG d   1       5.992  -2.344  -6.759  0.00  0.00     0.059 C 
ATOM     16  H   LIG d   1       5.159  -2.566  -7.424  0.00  0.00     0.041 H 
ATOM     17  C   LIG d   1       5.493  -2.285  -5.309  0.00  0.00     0.062 C 
ATOM     18  H   LIG d   1       6.459  -2.134  -4.826  0.00  0.00     0.041 H 
ATOM     19  C   LIG d   1       5.232  -3.692  -5.022  0.00  0.00     0.231 C 
ATOM     20  O   LIG d   1       4.366  -4.169  -4.320  0.00  0.00    -0.275 OA
ATOM     21  N   LIG d   1       6.207  -4.349  -5.739  0.00  0.00    -0.210 N 
ATOM     22  C   LIG d   1       6.893  -3.536  -6.627  0.00  0.00     0.231 C 
ATOM     23  O   LIG d   1       7.936  -3.742  -7.210  0.00  0.00    -0.275 OA
ATOM     24  H   LIG d   1       5.478   0.667  -2.861  0.00  0.00     0.062 H 
ATOM     25  H   LIG d   1       7.642   1.869  -2.627  0.00  0.00     0.062 H 
ATOM     26  H   LIG d   1       9.358   1.642  -4.367  0.00  0.00     0.062 H 
ATOM     27  H   LIG d   1       8.934   0.293  -6.387  0.00  0.00     0.062 H 
ATOM     28  H   LIG d   1       7.291  -0.905  -7.850  0.00  0.00     0.041 H 
ATOM     29  H   LIG d   1       2.286   0.043  -5.637  0.00  0.00     0.062 H 
ATOM     30  H   LIG d   1       1.666   1.179  -7.739  0.00  0.00     0.062 H 
ATOM     31  H   LIG d   1       3.309   1.447  -9.544  0.00  0.00     0.062 H 
ATOM     32  H   LIG d   1       5.634   0.451  -9.303  0.00  0.00     0.062 H 
ENDROOT
BRANCH  21  33
ATOM     33  C   LIG d   1       6.513  -5.706  -5.562  0.00  0.00     0.044 A 
ATOM     34  C   LIG d   1       7.706  -6.076  -4.958  0.00  0.00    -0.040 A 
ATOM     35  C   LIG d   1       8.002  -7.414  -4.779  0.00  0.00    -0.057 A 
ATOM     36  H   LIG d   1       8.400  -5.320  -4.623  0.00  0.00     0.064 H 
ATOM     37  C   LIG d   1       7.116  -8.383  -5.211  0.00  0.00    -0.050 A 
ATOM     38  H   LIG d   1       8.928  -7.703  -4.304  0.00  0.00     0.062 H 
ATOM     39  C   LIG d   1       5.928  -8.017  -5.819  0.00  0.00    -0.057 A 
ATOM     40  C   LIG d   1       5.625  -6.681  -5.996  0.00  0.00    -0.040 A 
ATOM     41  H   LIG d   1       5.238  -8.776  -6.156  0.00  0.00     0.062 H 
ATOM     42  H   LIG d   1       4.698  -6.396  -6.469  0.00  0.00     0.064 H 
BRANCH  37  43
ATOM     43  C   LIG d   1       7.444  -9.841  -5.020  0.00  0.00    -0.040 C 
ATOM     44  H   LIG d   1       7.462 -10.074  -3.955  0.00  0.00     0.028 H 
ATOM     45  H   LIG d   1       6.686 -10.451  -5.513  0.00  0.00     0.028 H 
ATOM     46  H   LIG d   1       8.420 -10.054  -5.454  0.00  0.00     0.028 H 
ENDBRANCH  37  43
ENDBRANCH  21  33
BRANCH   1  47
ATOM     47  C   LIG d   1       3.721  -1.097  -3.864  0.00  0.00    -0.041 C 
ATOM     48  H   LIG d   1       2.994  -1.876  -4.092  0.00  0.00     0.027 H 
ATOM     49  H   LIG d   1       3.208  -0.140  -3.770  0.00  0.00     0.027 H 
BRANCH  47  50
ATOM     50  C   LIG d   1       4.427  -1.429  -2.548  0.00  0.00    -0.064 C 
ATOM     51  H   LIG d   1       3.978  -2.321  -2.109  0.00  0.00     0.023 H 
ATOM     52  H   LIG d   1       5.485  -1.611  -2.739  0.00  0.00     0.023 H 
ATOM     53  H   LIG d   1       4.321  -0.593  -1.857  0.00  0.00     0.023 H 
ENDBRANCH  47  50
ENDBRANCH   1  47
TORSDOF 4
ENDMDL
MODEL 8
REMARK VINA RESULT:      -6.4      1.972      3.253
REMARK  4 active torsions:
REMARK  status: ('A' for Active; 'I' for Inactive)
REMARK    1  A    between atoms: C_1  and  C_2 
REMARK    2  A    between atoms: C_2  and  C_3 
REMARK    3  A    between atoms: N_23  and  C_26 
REMARK    4  A    between atoms: C_29  and  C_32 
ROOT
ATOM      1  C   LIG d   1       6.713  -0.245  -4.576  0.00  0.00     0.033 C 
ATOM      2  C   LIG d   1       7.596  -1.529  -4.544  0.00  0.00    -0.032 A 
ATOM      3  C   LIG d   1       7.576  -2.442  -3.542  0.00  0.00    -0.057 A 
ATOM      4  C   LIG d   1       8.373  -3.576  -3.667  0.00  0.00    -0.061 A 
ATOM      5  C   LIG d   1       9.151  -3.750  -4.797  0.00  0.00    -0.061 A 
ATOM      6  C   LIG d   1       9.176  -2.796  -5.802  0.00  0.00    -0.058 A 
ATOM      7  C   LIG d   1       8.414  -1.660  -5.664  0.00  0.00    -0.035 A 
ATOM      8  C   LIG d   1       8.510  -0.485  -6.626  0.00  0.00     0.022 C 
ATOM      9  C   LIG d   1       8.789   0.678  -5.654  0.00  0.00    -0.035 A 
ATOM     10  C   LIG d   1       7.830   0.807  -4.633  0.00  0.00    -0.032 A 
ATOM     11  C   LIG d   1       7.901   1.842  -3.734  0.00  0.00    -0.057 A 
ATOM     12  C   LIG d   1       8.969   2.725  -3.809  0.00  0.00    -0.061 A 
ATOM     13  C   LIG d   1       9.952   2.570  -4.769  0.00  0.00    -0.061 A 
ATOM     14  C   LIG d   1       9.852   1.522  -5.748  0.00  0.00    -0.058 A 
ATOM     15  C   LIG d   1       7.122  -0.025  -7.070  0.00  0.00     0.059 C 
ATOM     16  H   LIG d   1       7.089   1.060  -7.155  0.00  0.00     0.041 H 
ATOM     17  C   LIG d   1       6.169  -0.484  -5.958  0.00  0.00     0.062 C 
ATOM     18  H   LIG d   1       6.293  -1.559  -6.088  0.00  0.00     0.041 H 
ATOM     19  C   LIG d   1       4.862  -0.258  -6.569  0.00  0.00     0.231 C 
ATOM     20  O   LIG d   1       3.830   0.086  -6.033  0.00  0.00    -0.275 OA
ATOM     21  N   LIG d   1       5.082  -0.532  -7.900  0.00  0.00    -0.210 N 
ATOM     22  C   LIG d   1       6.421  -0.667  -8.230  0.00  0.00     0.231 C 
ATOM     23  O   LIG d   1       6.923  -1.132  -9.230  0.00  0.00    -0.275 OA
ATOM     24  H   LIG d   1       6.957  -2.293  -2.669  0.00  0.00     0.062 H 
ATOM     25  H   LIG d   1       8.384  -4.319  -2.883  0.00  0.00     0.062 H 
ATOM     26  H   LIG d   1       9.750  -4.642  -4.897  0.00  0.00     0.062 H 
ATOM     27  H   LIG d   1       9.785  -2.943  -6.683  0.00  0.00     0.062 H 
ATOM     28  H   LIG d   1       9.237  -0.614  -7.427  0.00  0.00     0.041 H 
ATOM     29  H   LIG d   1       7.138   1.968  -2.980  0.00  0.00     0.062 H 
ATOM     30  H   LIG d   1       9.031   3.546  -3.109  0.00  0.00     0.062 H 
ATOM     31  H   LIG d   1      10.787   3.254  -4.801  0.00  0.00     0.062 H 
ATOM     32  H   LIG d   1      10.602   1.384  -6.512  0.00  0.00     0.062 H 
ENDROOT
BRANCH  21  33
ATOM     33  C   LIG d   1       4.050  -0.701  -8.834  0.00  0.00     0.044 A 
ATOM     34  C   LIG d   1       3.286  -1.860  -8.821  0.00  0.00    -0.040 A 
ATOM     35  C   LIG d   1       2.265  -2.021  -9.738  0.00  0.00    -0.057 A 
ATOM     36  H   LIG d   1       3.484  -2.631  -8.092  0.00  0.00     0.064 H 
ATOM     37  C   LIG d   1       2.013  -1.037 -10.675  0.00  0.00    -0.050 A 
ATOM     38  H   LIG d   1       1.666  -2.921  -9.726  0.00  0.00     0.062 H 
ATOM     39  C   LIG d   1       2.777   0.116 -10.694  0.00  0.00    -0.057 A 
ATOM     40  C   LIG d   1       3.795   0.286  -9.776  0.00  0.00    -0.040 A 
ATOM     41  H   LIG d   1       2.578   0.884 -11.427  0.00  0.00     0.062 H 
ATOM     42  H   LIG d   1       4.391   1.186  -9.790  0.00  0.00     0.064 H 
BRANCH  37  43
ATOM     43  C   LIG d   1       0.903  -1.219 -11.678  0.00  0.00    -0.040 C 
ATOM     44  H   LIG d   1      -0.033  -0.849 -11.256  0.00  0.00     0.028 H 
ATOM     45  H   LIG d   1       1.138  -0.661 -12.585  0.00  0.00     0.028 H 
ATOM     46  H   LIG d   1       0.799  -2.277 -11.918  0.00  0.00     0.028 H 
ENDBRANCH  37  43
ENDBRANCH  21  33
BRANCH   1  47
ATOM     47  C   LIG d   1       5.680  -0.069  -3.461  0.00  0.00    -0.041 C 
ATOM     48  H   LIG d   1       4.962   0.698  -3.749  0.00  0.00     0.027 H 
ATOM     49  H   LIG d   1       6.184   0.233  -2.543  0.00  0.00     0.027 H 
BRANCH  47  50
ATOM     50  C   LIG d   1       4.948  -1.393  -3.231  0.00  0.00    -0.064 C 
ATOM     51  H   LIG d   1       4.153  -1.245  -2.500  0.00  0.00     0.023 H 
ATOM     52  H   LIG d   1       4.519  -1.739  -4.171  0.00  0.00     0.023 H 
ATOM     53  H   LIG d   1       5.651  -2.136  -2.856  0.00  0.00     0.023 H 
ENDBRANCH  47  50
ENDBRANCH   1  47
TORSDOF 4
ENDMDL
MODEL 9
REMARK VINA RESULT:      -6.3      3.174      6.623
REMARK  4 active torsions:
REMARK  status: ('A' for Active; 'I' for Inactive)
REMARK    1  A    between atoms: C_1  and  C_2 
REMARK    2  A    between atoms: C_2  and  C_3 
REMARK    3  A    between atoms: N_23  and  C_26 
REMARK    4  A    between atoms: C_29  and  C_32 
ROOT
ATOM      1  C   LIG d   1       4.882  -0.719  -4.955  0.00  0.00     0.033 C 
ATOM      2  C   LIG d   1       4.333  -0.334  -6.362  0.00  0.00    -0.032 A 
ATOM      3  C   LIG d   1       3.070   0.103  -6.592  0.00  0.00    -0.057 A 
ATOM      4  C   LIG d   1       2.725   0.470  -7.889  0.00  0.00    -0.061 A 
ATOM      5  C   LIG d   1       3.666   0.392  -8.900  0.00  0.00    -0.061 A 
ATOM      6  C   LIG d   1       4.947  -0.077  -8.651  0.00  0.00    -0.058 A 
ATOM      7  C   LIG d   1       5.277  -0.472  -7.376  0.00  0.00    -0.035 A 
ATOM      8  C   LIG d   1       6.593  -1.158  -7.045  0.00  0.00     0.022 C 
ATOM      9  C   LIG d   1       6.098  -2.433  -6.336  0.00  0.00    -0.035 A 
ATOM     10  C   LIG d   1       5.252  -2.182  -5.240  0.00  0.00    -0.032 A 
ATOM     11  C   LIG d   1       4.790  -3.214  -4.462  0.00  0.00    -0.057 A 
ATOM     12  C   LIG d   1       5.119  -4.517  -4.810  0.00  0.00    -0.061 A 
ATOM     13  C   LIG d   1       5.896  -4.780  -5.922  0.00  0.00    -0.061 A 
ATOM     14  C   LIG d   1       6.430  -3.700  -6.707  0.00  0.00    -0.058 A 
ATOM     15  C   LIG d   1       7.256  -0.516  -5.826  0.00  0.00     0.059 C 
ATOM     16  H   LIG d   1       7.733  -1.275  -5.208  0.00  0.00     0.041 H 
ATOM     17  C   LIG d   1       6.112   0.143  -5.044  0.00  0.00     0.062 C 
ATOM     18  H   LIG d   1       5.834   0.890  -5.787  0.00  0.00     0.041 H 
ATOM     19  C   LIG d   1       6.838   0.949  -4.067  0.00  0.00     0.231 C 
ATOM     20  O   LIG d   1       6.527   1.209  -2.925  0.00  0.00    -0.275 OA
ATOM     21  N   LIG d   1       7.963   1.344  -4.756  0.00  0.00    -0.210 N 
ATOM     22  C   LIG d   1       8.141   0.687  -5.962  0.00  0.00     0.231 C 
ATOM     23  O   LIG d   1       8.872   0.964  -6.889  0.00  0.00    -0.275 OA
ATOM     24  H   LIG d   1       2.349   0.163  -5.789  0.00  0.00     0.062 H 
ATOM     25  H   LIG d   1       1.726   0.816  -8.107  0.00  0.00     0.062 H 
ATOM     26  H   LIG d   1       3.398   0.700  -9.899  0.00  0.00     0.062 H 
ATOM     27  H   LIG d   1       5.675  -0.131  -9.446  0.00  0.00     0.062 H 
ATOM     28  H   LIG d   1       7.249  -1.320  -7.901  0.00  0.00     0.041 H 
ATOM     29  H   LIG d   1       4.180  -3.016  -3.593  0.00  0.00     0.062 H 
ATOM     30  H   LIG d   1       4.764  -5.336  -4.202  0.00  0.00     0.062 H 
ATOM     31  H   LIG d   1       6.126  -5.800  -6.191  0.00  0.00     0.062 H 
ATOM     32  H   LIG d   1       7.045  -3.878  -7.576  0.00  0.00     0.062 H 
ENDROOT
BRANCH  21  33
ATOM     33  C   LIG d   1       8.831   2.350  -4.306  0.00  0.00     0.044 A 
ATOM     34  C   LIG d   1       8.691   3.649  -4.774  0.00  0.00    -0.040 A 
ATOM     35  C   LIG d   1       9.542   4.639  -4.324  0.00  0.00    -0.057 A 
ATOM     36  H   LIG d   1       7.914   3.886  -5.486  0.00  0.00     0.064 H 
ATOM     37  C   LIG d   1      10.539   4.335  -3.416  0.00  0.00    -0.050 A 
ATOM     38  H   LIG d   1       9.431   5.652  -4.684  0.00  0.00     0.062 H 
ATOM     39  C   LIG d   1      10.685   3.040  -2.952  0.00  0.00    -0.057 A 
ATOM     40  C   LIG d   1       9.833   2.047  -3.394  0.00  0.00    -0.040 A 
ATOM     41  H   LIG d   1      11.465   2.806  -2.243  0.00  0.00     0.062 H 
ATOM     42  H   LIG d   1       9.946   1.037  -3.031  0.00  0.00     0.064 H 
BRANCH  37  43
ATOM     43  C   LIG d   1      11.470   5.416  -2.931  0.00  0.00    -0.040 C 
ATOM     44  H   LIG d   1      12.503   5.084  -3.044  0.00  0.00     0.028 H 
ATOM     45  H   LIG d   1      11.313   6.321  -3.519  0.00  0.00     0.028 H 
ATOM     46  H   LIG d   1      11.269   5.625  -1.881  0.00  0.00     0.028 H 
ENDBRANCH  37  43
ENDBRANCH  21  33
BRANCH   1  47
ATOM     47  C   LIG d   1       3.971  -0.479  -3.749  0.00  0.00    -0.041 C 
ATOM     48  H   LIG d   1       2.966  -0.833  -3.977  0.00  0.00     0.027 H 
ATOM     49  H   LIG d   1       3.939   0.587  -3.525  0.00  0.00     0.027 H 
BRANCH  47  50
ATOM     50  C   LIG d   1       4.517  -1.239  -2.539  0.00  0.00    -0.064 C 
ATOM     51  H   LIG d   1       5.606  -1.264  -2.587  0.00  0.00     0.023 H 
ATOM     52  H   LIG d   1       4.205  -0.738  -1.623  0.00  0.00     0.023 H 
ATOM     53  H   LIG d   1       4.131  -2.258  -2.546  0.00  0.00     0.023 H 
ENDBRANCH  47  50
ENDBRANCH   1  47
TORSDOF 4
ENDMDL
MODEL 10
REMARK VINA RESULT:      -6.3      2.408      6.348
REMARK  4 active torsions:
REMARK  status: ('A' for Active; 'I' for Inactive)
REMARK    1  A    between atoms: C_1  and  C_2 
REMARK    2  A    between atoms: C_2  and  C_3 
REMARK    3  A    between atoms: N_23  and  C_26 
REMARK    4  A    between atoms: C_29  and  C_32 
ROOT
ATOM      1  C   LIG d   1       6.703  -0.514  -5.061  0.00  0.00     0.033 C 
ATOM      2  C   LIG d   1       5.820  -0.460  -6.345  0.00  0.00    -0.032 A 
ATOM      3  C   LIG d   1       6.024   0.401  -7.372  0.00  0.00    -0.057 A 
ATOM      4  C   LIG d   1       5.198   0.304  -8.488  0.00  0.00    -0.061 A 
ATOM      5  C   LIG d   1       4.206  -0.658  -8.529  0.00  0.00    -0.061 A 
ATOM      6  C   LIG d   1       3.998  -1.517  -7.460  0.00  0.00    -0.058 A 
ATOM      7  C   LIG d   1       4.792  -1.400  -6.344  0.00  0.00    -0.035 A 
ATOM      8  C   LIG d   1       4.527  -2.175  -5.063  0.00  0.00     0.022 C 
ATOM      9  C   LIG d   1       4.470  -1.035  -4.028  0.00  0.00    -0.035 A 
ATOM     10  C   LIG d   1       5.616  -0.219  -4.017  0.00  0.00    -0.032 A 
ATOM     11  C   LIG d   1       5.746   0.792  -3.098  0.00  0.00    -0.057 A 
ATOM     12  C   LIG d   1       4.701   1.040  -2.219  0.00  0.00    -0.061 A 
ATOM     13  C   LIG d   1       3.543   0.286  -2.263  0.00  0.00    -0.061 A 
ATOM     14  C   LIG d   1       3.425  -0.812  -3.185  0.00  0.00    -0.058 A 
ATOM     15  C   LIG d   1       5.807  -2.830  -4.544  0.00  0.00     0.059 C 
ATOM     16  H   LIG d   1       5.841  -2.790  -3.456  0.00  0.00     0.041 H 
ATOM     17  C   LIG d   1       6.955  -1.996  -5.127  0.00  0.00     0.062 C 
ATOM     18  H   LIG d   1       6.787  -2.226  -6.180  0.00  0.00     0.041 H 
ATOM     19  C   LIG d   1       8.117  -2.825  -4.822  0.00  0.00     0.231 C 
ATOM     20  O   LIG d   1       9.241  -2.471  -4.538  0.00  0.00    -0.275 OA
ATOM     21  N   LIG d   1       7.629  -4.108  -4.934  0.00  0.00    -0.210 N 
ATOM     22  C   LIG d   1       6.250  -4.176  -5.036  0.00  0.00     0.231 C 
ATOM     23  O   LIG d   1       5.549  -5.103  -5.381  0.00  0.00    -0.275 OA
ATOM     24  H   LIG d   1       6.808   1.144  -7.326  0.00  0.00     0.062 H 
ATOM     25  H   LIG d   1       5.330   0.980  -9.320  0.00  0.00     0.062 H 
ATOM     26  H   LIG d   1       3.583  -0.742  -9.406  0.00  0.00     0.062 H 
ATOM     27  H   LIG d   1       3.223  -2.268  -7.503  0.00  0.00     0.062 H 
ATOM     28  H   LIG d   1       3.652  -2.824  -5.098  0.00  0.00     0.041 H 
ATOM     29  H   LIG d   1       6.646   1.387  -3.060  0.00  0.00     0.062 H 
ATOM     30  H   LIG d   1       4.794   1.831  -1.490  0.00  0.00     0.062 H 
ATOM     31  H   LIG d   1       2.731   0.504  -1.586  0.00  0.00     0.062 H 
ATOM     32  H   LIG d   1       2.535  -1.420  -3.234  0.00  0.00     0.062 H 
ENDROOT
BRANCH  21  33
ATOM     33  C   LIG d   1       8.450  -5.244  -4.983  0.00  0.00     0.044 A 
ATOM     34  C   LIG d   1       8.917  -5.711  -6.204  0.00  0.00    -0.040 A 
ATOM     35  C   LIG d   1       9.731  -6.826  -6.249  0.00  0.00    -0.057 A 
ATOM     36  H   LIG d   1       8.650  -5.200  -7.117  0.00  0.00     0.064 H 
ATOM     37  C   LIG d   1      10.071  -7.483  -5.081  0.00  0.00    -0.050 A 
ATOM     38  H   LIG d   1      10.100  -7.187  -7.198  0.00  0.00     0.062 H 
ATOM     39  C   LIG d   1       9.602  -7.024  -3.864  0.00  0.00    -0.057 A 
ATOM     40  C   LIG d   1       8.793  -5.906  -3.812  0.00  0.00    -0.040 A 
ATOM     41  H   LIG d   1       9.870  -7.540  -2.953  0.00  0.00     0.062 H 
ATOM     42  H   LIG d   1       8.428  -5.547  -2.862  0.00  0.00     0.064 H 
BRANCH  37  43
ATOM     43  C   LIG d   1      10.955  -8.703  -5.134  0.00  0.00    -0.040 C 
ATOM     44  H   LIG d   1      10.388  -9.577  -4.810  0.00  0.00     0.028 H 
ATOM     45  H   LIG d   1      11.303  -8.855  -6.156  0.00  0.00     0.028 H 
ATOM     46  H   LIG d   1      11.810  -8.561  -4.475  0.00  0.00     0.028 H 
ENDBRANCH  37  43
ENDBRANCH  21  33
BRANCH   1  47
ATOM     47  C   LIG d   1       7.941   0.383  -5.015  0.00  0.00    -0.041 C 
ATOM     48  H   LIG d   1       8.583   0.073  -4.191  0.00  0.00     0.027 H 
ATOM     49  H   LIG d   1       7.634   1.418  -4.866  0.00  0.00     0.027 H 
BRANCH  47  50
ATOM     50  C   LIG d   1       8.708   0.262  -6.333  0.00  0.00    -0.064 C 
ATOM     51  H   LIG d   1       8.274  -0.537  -6.934  0.00  0.00     0.023 H 
ATOM     52  H   LIG d   1       8.644   1.204  -6.879  0.00  0.00     0.023 H 
ATOM     53  H   LIG d   1       9.753   0.033  -6.125  0.00  0.00     0.023 H 
ENDBRANCH  47  50
ENDBRANCH   1  47
TORSDOF 4
ENDMDL
