MODEL 1
REMARK VINA RESULT:      -6.0      0.000      0.000
REMARK  11 active torsions:
REMARK  status: ('A' for Active; 'I' for Inactive)
REMARK    1  A    between atoms: C_1  and  O_2 
REMARK    2  A    between atoms: O_2  and  C_3 
REMARK    3  A    between atoms: C_5  and  C_10 
REMARK    4  A    between atoms: C_8  and  O_9 
REMARK    5  A    between atoms: C_12  and  C_27 
REMARK    6  A    between atoms: C_16  and  C_23 
REMARK    7  A    between atoms: C_18  and  O_21 
REMARK    8  A    between atoms: O_21  and  C_22 
REMARK    9  A    between atoms: C_24  and  C_25 
REMARK   10  A    between atoms: C_25  and  O_26 
REMARK   11  A    between atoms: C_27  and  O_28 
ROOT
ATOM      1  C   LIG d   1       5.791  -2.939  -4.797  0.00  0.00     0.134 C 
ATOM      2  H   LIG d   1       6.132  -3.816  -4.246  0.00  0.00     0.079 H 
ATOM      3  C   LIG d   1       4.550  -3.275  -5.657  0.00  0.00     0.052 C 
ATOM      4  H   LIG d   1       3.633  -2.974  -5.152  0.00  0.00     0.041 H 
ATOM      5  C   LIG d   1       4.789  -2.432  -6.895  0.00  0.00     0.008 A 
ATOM      6  C   LIG d   1       3.955  -2.040  -7.918  0.00  0.00    -0.047 A 
ATOM      7  C   LIG d   1       4.443  -1.228  -8.943  0.00  0.00    -0.021 A 
ATOM      8  C   LIG d   1       5.777  -0.820  -8.922  0.00  0.00    -0.009 A 
ATOM      9  C   LIG d   1       6.608  -1.220  -7.894  0.00  0.00     0.162 A 
ATOM     10  C   LIG d   1       6.120  -2.037  -6.869  0.00  0.00     0.167 A 
ATOM     11  O   LIG d   1       6.763  -2.546  -5.780  0.00  0.00    -0.480 OA
ATOM     12  H   LIG d   1       2.923  -2.361  -7.926  0.00  0.00     0.063 H 
ATOM     13  H   LIG d   1       6.161  -0.190  -9.710  0.00  0.00     0.066 H 
ENDROOT
BRANCH   1  14
ATOM     14  C   LIG d   1       5.495  -1.801  -3.854  0.00  0.00    -0.003 A 
ATOM     15  C   LIG d   1       6.155  -0.595  -4.000  0.00  0.00    -0.010 A 
ATOM     16  C   LIG d   1       5.884   0.452  -3.135  0.00  0.00     0.162 A 
ATOM     17  H   LIG d   1       6.882  -0.469  -4.789  0.00  0.00     0.066 H 
ATOM     18  C   LIG d   1       4.950   0.286  -2.116  0.00  0.00     0.159 A 
ATOM     19  C   LIG d   1       4.287  -0.924  -1.979  0.00  0.00    -0.016 A 
ATOM     20  C   LIG d   1       4.563  -1.965  -2.847  0.00  0.00    -0.051 A 
ATOM     21  H   LIG d   1       3.558  -1.055  -1.193  0.00  0.00     0.066 H 
ATOM     22  H   LIG d   1       4.049  -2.908  -2.735  0.00  0.00     0.062 H 
BRANCH  16  23
ATOM     23  O   LIG d   1       6.532   1.639  -3.276  0.00  0.00    -0.491 OA
BRANCH  23  24
ATOM     24  C   LIG d   1       7.858   1.595  -3.808  0.00  0.00     0.079 C 
ATOM     25  H   LIG d   1       8.255   0.584  -3.711  0.00  0.00     0.066 H 
ATOM     26  H   LIG d   1       8.494   2.288  -3.257  0.00  0.00     0.066 H 
ATOM     27  H   LIG d   1       7.838   1.878  -4.860  0.00  0.00     0.066 H 
ENDBRANCH  23  24
ENDBRANCH  16  23
BRANCH  18  28
ATOM     28  O   LIG d   1       4.684   1.308  -1.261  0.00  0.00    -0.503 OA
ATOM     29  H   LIG d   1       5.466   1.660  -0.812  0.00  0.00     0.292 HD
ENDBRANCH  18  28
ENDBRANCH   1  14
BRANCH   3  30
ATOM     30  C   LIG d   1       4.516  -4.764  -6.008  0.00  0.00     0.055 C 
ATOM     31  H   LIG d   1       5.162  -4.949  -6.866  0.00  0.00     0.056 H 
ATOM     32  H   LIG d   1       4.866  -5.347  -5.156  0.00  0.00     0.056 H 
BRANCH  30  33
ATOM     33  O   LIG d   1       3.177  -5.146  -6.330  0.00  0.00    -0.394 OA
ATOM     34  H   LIG d   1       3.004  -5.214  -7.279  0.00  0.00     0.209 HD
ENDBRANCH  30  33
ENDBRANCH   3  30
BRANCH   9  35
ATOM     35  O   LIG d   1       7.907  -0.818  -7.878  0.00  0.00    -0.491 OA
BRANCH  35  36
ATOM     36  C   LIG d   1       8.174   0.494  -7.381  0.00  0.00     0.079 C 
ATOM     37  H   LIG d   1       8.230   0.466  -6.292  0.00  0.00     0.066 H 
ATOM     38  H   LIG d   1       9.124   0.849  -7.783  0.00  0.00     0.066 H 
ATOM     39  H   LIG d   1       7.375   1.169  -7.687  0.00  0.00     0.066 H 
ENDBRANCH  35  36
ENDBRANCH   9  35
BRANCH   7  40
ATOM     40  C   LIG d   1       3.553  -0.806 -10.044  0.00  0.00    -0.056 C 
ATOM     41  C   LIG d   1       2.697  -1.669 -10.574  0.00  0.00    -0.058 C 
ATOM     42  H   LIG d   1       2.651  -2.681 -10.199  0.00  0.00     0.059 H 
ATOM     43  H   LIG d   1       3.600   0.207 -10.418  0.00  0.00     0.062 H 
BRANCH  41  44
ATOM     44  C   LIG d   1       1.790  -1.238 -11.697  0.00  0.00     0.063 C 
ATOM     45  H   LIG d   1       2.194  -0.342 -12.168  0.00  0.00     0.060 H 
ATOM     46  H   LIG d   1       1.721  -2.037 -12.435  0.00  0.00     0.060 H 
BRANCH  44  47
ATOM     47  O   LIG d   1       0.489  -0.957 -11.177  0.00  0.00    -0.391 OA
ATOM     48  H   LIG d   1      -0.218  -1.476 -11.585  0.00  0.00     0.210 HD
ENDBRANCH  44  47
ENDBRANCH  41  44
ENDBRANCH   7  40
TORSDOF 11
ENDMDL
MODEL 2
REMARK VINA RESULT:      -5.7      3.351      6.921
REMARK  11 active torsions:
REMARK  status: ('A' for Active; 'I' for Inactive)
REMARK    1  A    between atoms: C_1  and  O_2 
REMARK    2  A    between atoms: O_2  and  C_3 
REMARK    3  A    between atoms: C_5  and  C_10 
REMARK    4  A    between atoms: C_8  and  O_9 
REMARK    5  A    between atoms: C_12  and  C_27 
REMARK    6  A    between atoms: C_16  and  C_23 
REMARK    7  A    between atoms: C_18  and  O_21 
REMARK    8  A    between atoms: O_21  and  C_22 
REMARK    9  A    between atoms: C_24  and  C_25 
REMARK   10  A    between atoms: C_25  and  O_26 
REMARK   11  A    between atoms: C_27  and  O_28 
ROOT
ATOM      1  C   LIG d   1       5.859  -5.893  -6.558  0.00  0.00     0.134 C 
ATOM      2  H   LIG d   1       5.774  -6.205  -7.599  0.00  0.00     0.079 H 
ATOM      3  C   LIG d   1       4.627  -5.063  -6.126  0.00  0.00     0.052 C 
ATOM      4  H   LIG d   1       3.906  -5.684  -5.595  0.00  0.00     0.041 H 
ATOM      5  C   LIG d   1       5.249  -4.039  -5.197  0.00  0.00     0.008 A 
ATOM      6  C   LIG d   1       4.700  -3.190  -4.262  0.00  0.00    -0.047 A 
ATOM      7  C   LIG d   1       5.526  -2.348  -3.516  0.00  0.00    -0.021 A 
ATOM      8  C   LIG d   1       6.905  -2.373  -3.726  0.00  0.00    -0.009 A 
ATOM      9  C   LIG d   1       7.447  -3.225  -4.668  0.00  0.00     0.162 A 
ATOM     10  C   LIG d   1       6.619  -4.066  -5.419  0.00  0.00     0.167 A 
ATOM     11  O   LIG d   1       6.943  -4.964  -6.392  0.00  0.00    -0.480 OA
ATOM     12  H   LIG d   1       3.631  -3.177  -4.106  0.00  0.00     0.063 H 
ATOM     13  H   LIG d   1       7.550  -1.726  -3.150  0.00  0.00     0.066 H 
ENDROOT
BRANCH   1  14
ATOM     14  C   LIG d   1       6.039  -7.089  -5.657  0.00  0.00    -0.003 A 
ATOM     15  C   LIG d   1       7.279  -7.360  -5.110  0.00  0.00    -0.010 A 
ATOM     16  C   LIG d   1       7.446  -8.459  -4.283  0.00  0.00     0.162 A 
ATOM     17  H   LIG d   1       8.118  -6.716  -5.328  0.00  0.00     0.066 H 
ATOM     18  C   LIG d   1       6.364  -9.290  -4.008  0.00  0.00     0.159 A 
ATOM     19  C   LIG d   1       5.122  -9.009  -4.555  0.00  0.00    -0.016 A 
ATOM     20  C   LIG d   1       4.963  -7.911  -5.380  0.00  0.00    -0.051 A 
ATOM     21  H   LIG d   1       4.280  -9.650  -4.340  0.00  0.00     0.066 H 
ATOM     22  H   LIG d   1       3.996  -7.697  -5.809  0.00  0.00     0.062 H 
BRANCH  16  23
ATOM     23  O   LIG d   1       8.665  -8.727  -3.744  0.00  0.00    -0.491 OA
BRANCH  23  24
ATOM     24  C   LIG d   1       9.126  -7.850  -2.714  0.00  0.00     0.079 C 
ATOM     25  H   LIG d   1       9.811  -7.117  -3.140  0.00  0.00     0.066 H 
ATOM     26  H   LIG d   1       9.644  -8.428  -1.948  0.00  0.00     0.066 H 
ATOM     27  H   LIG d   1       8.275  -7.336  -2.267  0.00  0.00     0.066 H 
ENDBRANCH  23  24
ENDBRANCH  16  23
BRANCH  18  28
ATOM     28  O   LIG d   1       6.524 -10.372  -3.201  0.00  0.00    -0.503 OA
ATOM     29  H   LIG d   1       7.294 -10.318  -2.618  0.00  0.00     0.292 HD
ENDBRANCH  18  28
ENDBRANCH   1  14
BRANCH   3  30
ATOM     30  C   LIG d   1       3.977  -4.384  -7.333  0.00  0.00     0.055 C 
ATOM     31  H   LIG d   1       3.519  -3.446  -7.019  0.00  0.00     0.056 H 
ATOM     32  H   LIG d   1       4.735  -4.183  -8.090  0.00  0.00     0.056 H 
BRANCH  30  33
ATOM     33  O   LIG d   1       2.974  -5.244  -7.880  0.00  0.00    -0.394 OA
ATOM     34  H   LIG d   1       3.053  -6.166  -7.602  0.00  0.00     0.209 HD
ENDBRANCH  30  33
ENDBRANCH   3  30
BRANCH   9  35
ATOM     35  O   LIG d   1       8.792  -3.245  -4.868  0.00  0.00    -0.491 OA
BRANCH  35  36
ATOM     36  C   LIG d   1       9.563  -4.083  -4.004  0.00  0.00     0.079 C 
ATOM     37  H   LIG d   1       8.918  -4.843  -3.563  0.00  0.00     0.066 H 
ATOM     38  H   LIG d   1      10.354  -4.567  -4.579  0.00  0.00     0.066 H 
ATOM     39  H   LIG d   1      10.007  -3.478  -3.212  0.00  0.00     0.066 H 
ENDBRANCH  35  36
ENDBRANCH   9  35
BRANCH   7  40
ATOM     40  C   LIG d   1       4.943  -1.434  -2.512  0.00  0.00    -0.056 C 
ATOM     41  C   LIG d   1       5.156  -0.128  -2.600  0.00  0.00    -0.058 C 
ATOM     42  H   LIG d   1       5.756   0.267  -3.407  0.00  0.00     0.059 H 
ATOM     43  H   LIG d   1       4.343  -1.830  -1.705  0.00  0.00     0.062 H 
BRANCH  41  44
ATOM     44  C   LIG d   1       4.562   0.804  -1.575  0.00  0.00     0.063 C 
ATOM     45  H   LIG d   1       4.319   0.244  -0.672  0.00  0.00     0.060 H 
ATOM     46  H   LIG d   1       5.282   1.586  -1.336  0.00  0.00     0.060 H 
BRANCH  44  47
ATOM     47  O   LIG d   1       3.374   1.395  -2.103  0.00  0.00    -0.391 OA
ATOM     48  H   LIG d   1       2.989   2.077  -1.536  0.00  0.00     0.210 HD
ENDBRANCH  44  47
ENDBRANCH  41  44
ENDBRANCH   7  40
TORSDOF 11
ENDMDL
MODEL 3
REMARK VINA RESULT:      -5.5      8.514     11.544
REMARK  11 active torsions:
REMARK  status: ('A' for Active; 'I' for Inactive)
REMARK    1  A    between atoms: C_1  and  O_2 
REMARK    2  A    between atoms: O_2  and  C_3 
REMARK    3  A    between atoms: C_5  and  C_10 
REMARK    4  A    between atoms: C_8  and  O_9 
REMARK    5  A    between atoms: C_12  and  C_27 
REMARK    6  A    between atoms: C_16  and  C_23 
REMARK    7  A    between atoms: C_18  and  O_21 
REMARK    8  A    between atoms: O_21  and  C_22 
REMARK    9  A    between atoms: C_24  and  C_25 
REMARK   10  A    between atoms: C_25  and  O_26 
REMARK   11  A    between atoms: C_27  and  O_28 
ROOT
ATOM      1  C   LIG d   1      10.683   7.257  -0.520  0.00  0.00     0.134 C 
ATOM      2  H   LIG d   1      10.308   7.566   0.456  0.00  0.00     0.079 H 
ATOM      3  C   LIG d   1      10.268   8.267  -1.617  0.00  0.00     0.052 C 
ATOM      4  H   LIG d   1      11.078   8.963  -1.831  0.00  0.00     0.041 H 
ATOM      5  C   LIG d   1      10.009   7.355  -2.800  0.00  0.00     0.008 A 
ATOM      6  C   LIG d   1       9.886   7.608  -4.148  0.00  0.00    -0.047 A 
ATOM      7  C   LIG d   1       9.665   6.555  -5.038  0.00  0.00    -0.021 A 
ATOM      8  C   LIG d   1       9.569   5.251  -4.550  0.00  0.00    -0.009 A 
ATOM      9  C   LIG d   1       9.690   5.006  -3.197  0.00  0.00     0.162 A 
ATOM     10  C   LIG d   1       9.907   6.062  -2.305  0.00  0.00     0.167 A 
ATOM     11  O   LIG d   1      10.046   6.042  -0.949  0.00  0.00    -0.480 OA
ATOM     12  H   LIG d   1       9.961   8.621  -4.517  0.00  0.00     0.063 H 
ATOM     13  H   LIG d   1       9.401   4.431  -5.232  0.00  0.00     0.066 H 
ENDROOT
BRANCH   1  14
ATOM     14  C   LIG d   1      12.181   7.091  -0.487  0.00  0.00    -0.003 A 
ATOM     15  C   LIG d   1      12.995   8.200  -0.353  0.00  0.00    -0.010 A 
ATOM     16  C   LIG d   1      14.371   8.051  -0.323  0.00  0.00     0.162 A 
ATOM     17  H   LIG d   1      12.557   9.185  -0.272  0.00  0.00     0.066 H 
ATOM     18  C   LIG d   1      14.932   6.781  -0.431  0.00  0.00     0.159 A 
ATOM     19  C   LIG d   1      14.111   5.673  -0.559  0.00  0.00    -0.016 A 
ATOM     20  C   LIG d   1      12.737   5.830  -0.589  0.00  0.00    -0.051 A 
ATOM     21  H   LIG d   1      14.543   4.686  -0.639  0.00  0.00     0.066 H 
ATOM     22  H   LIG d   1      12.099   4.966  -0.693  0.00  0.00     0.062 H 
BRANCH  16  23
ATOM     23  O   LIG d   1      15.174   9.140  -0.192  0.00  0.00    -0.491 OA
BRANCH  23  24
ATOM     24  C   LIG d   1      14.563  10.420  -0.369  0.00  0.00     0.079 C 
ATOM     25  H   LIG d   1      13.587  10.428   0.116  0.00  0.00     0.066 H 
ATOM     26  H   LIG d   1      14.440  10.620  -1.434  0.00  0.00     0.066 H 
ATOM     27  H   LIG d   1      15.195  11.190   0.074  0.00  0.00     0.066 H 
ENDBRANCH  23  24
ENDBRANCH  16  23
BRANCH  18  28
ATOM     28  O   LIG d   1      16.283   6.629  -0.407  0.00  0.00    -0.503 OA
ATOM     29  H   LIG d   1      16.576   5.769  -0.075  0.00  0.00     0.292 HD
ENDBRANCH  18  28
ENDBRANCH   1  14
BRANCH   3  30
ATOM     30  C   LIG d   1       8.996   9.016  -1.215  0.00  0.00     0.055 C 
ATOM     31  H   LIG d   1       9.201   9.638  -0.344  0.00  0.00     0.056 H 
ATOM     32  H   LIG d   1       8.668   9.645  -2.042  0.00  0.00     0.056 H 
BRANCH  30  33
ATOM     33  O   LIG d   1       7.969   8.074  -0.896  0.00  0.00    -0.394 OA
ATOM     34  H   LIG d   1       7.592   7.629  -1.667  0.00  0.00     0.209 HD
ENDBRANCH  30  33
ENDBRANCH   3  30
BRANCH   9  35
ATOM     35  O   LIG d   1       9.596   3.733  -2.728  0.00  0.00    -0.491 OA
BRANCH  35  36
ATOM     36  C   LIG d   1      10.787   2.944  -2.753  0.00  0.00     0.079 C 
ATOM     37  H   LIG d   1      11.392   3.171  -1.875  0.00  0.00     0.066 H 
ATOM     38  H   LIG d   1      10.522   1.886  -2.746  0.00  0.00     0.066 H 
ATOM     39  H   LIG d   1      11.355   3.170  -3.655  0.00  0.00     0.066 H 
ENDBRANCH  35  36
ENDBRANCH   9  35
BRANCH   7  40
ATOM     40  C   LIG d   1       9.531   6.820  -6.484  0.00  0.00    -0.056 C 
ATOM     41  C   LIG d   1       9.479   8.069  -6.928  0.00  0.00    -0.058 C 
ATOM     42  H   LIG d   1       9.535   8.892  -6.231  0.00  0.00     0.059 H 
ATOM     43  H   LIG d   1       9.474   5.997  -7.182  0.00  0.00     0.062 H 
BRANCH  41  44
ATOM     44  C   LIG d   1       9.342   8.339  -8.405  0.00  0.00     0.063 C 
ATOM     45  H   LIG d   1      10.237   8.845  -8.766  0.00  0.00     0.060 H 
ATOM     46  H   LIG d   1       9.217   7.396  -8.936  0.00  0.00     0.060 H 
BRANCH  44  47
ATOM     47  O   LIG d   1       8.202   9.169  -8.632  0.00  0.00    -0.391 OA
ATOM     48  H   LIG d   1       7.378   8.679  -8.760  0.00  0.00     0.210 HD
ENDBRANCH  44  47
ENDBRANCH  41  44
ENDBRANCH   7  40
TORSDOF 11
ENDMDL
MODEL 4
REMARK VINA RESULT:      -5.5      3.308      7.299
REMARK  11 active torsions:
REMARK  status: ('A' for Active; 'I' for Inactive)
REMARK    1  A    between atoms: C_1  and  O_2 
REMARK    2  A    between atoms: O_2  and  C_3 
REMARK    3  A    between atoms: C_5  and  C_10 
REMARK    4  A    between atoms: C_8  and  O_9 
REMARK    5  A    between atoms: C_12  and  C_27 
REMARK    6  A    between atoms: C_16  and  C_23 
REMARK    7  A    between atoms: C_18  and  O_21 
REMARK    8  A    between atoms: O_21  and  C_22 
REMARK    9  A    between atoms: C_24  and  C_25 
REMARK   10  A    between atoms: C_25  and  O_26 
REMARK   11  A    between atoms: C_27  and  O_28 
ROOT
ATOM      1  C   LIG d   1       5.853  -6.083  -6.569  0.00  0.00     0.134 C 
ATOM      2  H   LIG d   1       5.771  -6.426  -7.601  0.00  0.00     0.079 H 
ATOM      3  C   LIG d   1       4.655  -5.181  -6.189  0.00  0.00     0.052 C 
ATOM      4  H   LIG d   1       3.895  -5.749  -5.652  0.00  0.00     0.041 H 
ATOM      5  C   LIG d   1       5.309  -4.157  -5.283  0.00  0.00     0.008 A 
ATOM      6  C   LIG d   1       4.785  -3.252  -4.387  0.00  0.00    -0.047 A 
ATOM      7  C   LIG d   1       5.636  -2.425  -3.653  0.00  0.00    -0.021 A 
ATOM      8  C   LIG d   1       7.016  -2.523  -3.835  0.00  0.00    -0.009 A 
ATOM      9  C   LIG d   1       7.534  -3.431  -4.737  0.00  0.00     0.162 A 
ATOM     10  C   LIG d   1       6.680  -4.257  -5.477  0.00  0.00     0.167 A 
ATOM     11  O   LIG d   1       6.977  -5.202  -6.413  0.00  0.00    -0.480 OA
ATOM     12  H   LIG d   1       3.715  -3.182  -4.253  0.00  0.00     0.063 H 
ATOM     13  H   LIG d   1       7.681  -1.889  -3.268  0.00  0.00     0.066 H 
ENDROOT
BRANCH   1  14
ATOM     14  C   LIG d   1       5.958  -7.255  -5.627  0.00  0.00    -0.003 A 
ATOM     15  C   LIG d   1       4.837  -8.010  -5.336  0.00  0.00    -0.010 A 
ATOM     16  C   LIG d   1       4.932  -9.086  -4.470  0.00  0.00     0.162 A 
ATOM     17  H   LIG d   1       3.887  -7.760  -5.786  0.00  0.00     0.066 H 
ATOM     18  C   LIG d   1       6.156  -9.403  -3.889  0.00  0.00     0.159 A 
ATOM     19  C   LIG d   1       7.278  -8.646  -4.189  0.00  0.00    -0.016 A 
ATOM     20  C   LIG d   1       7.176  -7.573  -5.055  0.00  0.00    -0.051 A 
ATOM     21  H   LIG d   1       8.231  -8.892  -3.743  0.00  0.00     0.066 H 
ATOM     22  H   LIG d   1       8.050  -6.981  -5.283  0.00  0.00     0.062 H 
BRANCH  16  23
ATOM     23  O   LIG d   1       3.830  -9.830  -4.183  0.00  0.00    -0.491 OA
BRANCH  23  24
ATOM     24  C   LIG d   1       3.720 -11.101  -4.829  0.00  0.00     0.079 C 
ATOM     25  H   LIG d   1       4.706 -11.560  -4.898  0.00  0.00     0.066 H 
ATOM     26  H   LIG d   1       3.312 -10.965  -5.831  0.00  0.00     0.066 H 
ATOM     27  H   LIG d   1       3.058 -11.746  -4.252  0.00  0.00     0.066 H 
ENDBRANCH  23  24
ENDBRANCH  16  23
BRANCH  18  28
ATOM     28  O   LIG d   1       6.254 -10.455  -3.034  0.00  0.00    -0.503 OA
ATOM     29  H   LIG d   1       6.125 -11.317  -3.454  0.00  0.00     0.292 HD
ENDBRANCH  18  28
ENDBRANCH   1  14
BRANCH   3  30
ATOM     30  C   LIG d   1       4.060  -4.513  -7.431  0.00  0.00     0.055 C 
ATOM     31  H   LIG d   1       3.721  -3.509  -7.176  0.00  0.00     0.056 H 
ATOM     32  H   LIG d   1       4.819  -4.453  -8.211  0.00  0.00     0.056 H 
BRANCH  30  33
ATOM     33  O   LIG d   1       2.953  -5.284  -7.902  0.00  0.00    -0.394 OA
ATOM     34  H   LIG d   1       3.005  -6.224  -7.680  0.00  0.00     0.209 HD
ENDBRANCH  30  33
ENDBRANCH   3  30
BRANCH   9  35
ATOM     35  O   LIG d   1       8.880  -3.522  -4.910  0.00  0.00    -0.491 OA
BRANCH  35  36
ATOM     36  C   LIG d   1       9.596  -4.350  -3.992  0.00  0.00     0.079 C 
ATOM     37  H   LIG d   1       9.571  -5.383  -4.337  0.00  0.00     0.066 H 
ATOM     38  H   LIG d   1      10.631  -4.013  -3.931  0.00  0.00     0.066 H 
ATOM     39  H   LIG d   1       9.134  -4.285  -3.006  0.00  0.00     0.066 H 
ENDBRANCH  35  36
ENDBRANCH   9  35
BRANCH   7  40
ATOM     40  C   LIG d   1       5.080  -1.451  -2.691  0.00  0.00    -0.056 C 
ATOM     41  C   LIG d   1       4.330  -0.446  -3.123  0.00  0.00    -0.058 C 
ATOM     42  H   LIG d   1       4.125  -0.341  -4.179  0.00  0.00     0.059 H 
ATOM     43  H   LIG d   1       5.285  -1.556  -1.636  0.00  0.00     0.062 H 
BRANCH  41  44
ATOM     44  C   LIG d   1       3.763   0.547  -2.142  0.00  0.00     0.063 C 
ATOM     45  H   LIG d   1       3.235   1.332  -2.684  0.00  0.00     0.060 H 
ATOM     46  H   LIG d   1       3.070   0.040  -1.472  0.00  0.00     0.060 H 
BRANCH  44  47
ATOM     47  O   LIG d   1       4.826   1.125  -1.383  0.00  0.00    -0.391 OA
ATOM     48  H   LIG d   1       5.585   1.400  -1.915  0.00  0.00     0.210 HD
ENDBRANCH  44  47
ENDBRANCH  41  44
ENDBRANCH   7  40
TORSDOF 11
ENDMDL
MODEL 5
REMARK VINA RESULT:      -5.5      4.713      7.507
REMARK  11 active torsions:
REMARK  status: ('A' for Active; 'I' for Inactive)
REMARK    1  A    between atoms: C_1  and  O_2 
REMARK    2  A    between atoms: O_2  and  C_3 
REMARK    3  A    between atoms: C_5  and  C_10 
REMARK    4  A    between atoms: C_8  and  O_9 
REMARK    5  A    between atoms: C_12  and  C_27 
REMARK    6  A    between atoms: C_16  and  C_23 
REMARK    7  A    between atoms: C_18  and  O_21 
REMARK    8  A    between atoms: O_21  and  C_22 
REMARK    9  A    between atoms: C_24  and  C_25 
REMARK   10  A    between atoms: C_25  and  O_26 
REMARK   11  A    between atoms: C_27  and  O_28 
ROOT
ATOM      1  C   LIG d   1       6.045  -8.578  -5.891  0.00  0.00     0.134 C 
ATOM      2  H   LIG d   1       6.135  -9.346  -6.660  0.00  0.00     0.079 H 
ATOM      3  C   LIG d   1       4.801  -7.692  -6.137  0.00  0.00     0.052 C 
ATOM      4  H   LIG d   1       3.962  -8.019  -5.522  0.00  0.00     0.041 H 
ATOM      5  C   LIG d   1       5.296  -6.328  -5.699  0.00  0.00     0.008 A 
ATOM      6  C   LIG d   1       4.631  -5.162  -5.391  0.00  0.00    -0.047 A 
ATOM      7  C   LIG d   1       5.349  -4.036  -4.986  0.00  0.00    -0.021 A 
ATOM      8  C   LIG d   1       6.741  -4.102  -4.898  0.00  0.00    -0.009 A 
ATOM      9  C   LIG d   1       7.400  -5.274  -5.211  0.00  0.00     0.162 A 
ATOM     10  C   LIG d   1       6.680  -6.402  -5.621  0.00  0.00     0.167 A 
ATOM     11  O   LIG d   1       7.128  -7.638  -5.980  0.00  0.00    -0.480 OA
ATOM     12  H   LIG d   1       3.554  -5.119  -5.462  0.00  0.00     0.063 H 
ATOM     13  H   LIG d   1       7.303  -3.236  -4.583  0.00  0.00     0.066 H 
ENDROOT
BRANCH   1  14
ATOM     14  C   LIG d   1       5.992  -9.203  -4.520  0.00  0.00    -0.003 A 
ATOM     15  C   LIG d   1       7.113  -9.188  -3.711  0.00  0.00    -0.010 A 
ATOM     16  C   LIG d   1       7.066  -9.761  -2.451  0.00  0.00     0.162 A 
ATOM     17  H   LIG d   1       8.025  -8.728  -4.061  0.00  0.00     0.066 H 
ATOM     18  C   LIG d   1       5.890 -10.356  -2.004  0.00  0.00     0.159 A 
ATOM     19  C   LIG d   1       4.768 -10.364  -2.817  0.00  0.00    -0.016 A 
ATOM     20  C   LIG d   1       4.822  -9.789  -4.074  0.00  0.00    -0.051 A 
ATOM     21  H   LIG d   1       3.853 -10.821  -2.471  0.00  0.00     0.066 H 
ATOM     22  H   LIG d   1       3.948  -9.800  -4.708  0.00  0.00     0.062 H 
BRANCH  16  23
ATOM     23  O   LIG d   1       8.167  -9.747  -1.653  0.00  0.00    -0.491 OA
BRANCH  23  24
ATOM     24  C   LIG d   1       9.439  -9.720  -2.305  0.00  0.00     0.079 C 
ATOM     25  H   LIG d   1       9.313  -9.972  -3.358  0.00  0.00     0.066 H 
ATOM     26  H   LIG d   1      10.104 -10.445  -1.835  0.00  0.00     0.066 H 
ATOM     27  H   LIG d   1       9.871  -8.723  -2.219  0.00  0.00     0.066 H 
ENDBRANCH  23  24
ENDBRANCH  16  23
BRANCH  18  28
ATOM     28  O   LIG d   1       5.840 -10.925  -0.770  0.00  0.00    -0.503 OA
ATOM     29  H   LIG d   1       4.944 -11.120  -0.462  0.00  0.00     0.292 HD
ENDBRANCH  18  28
ENDBRANCH   1  14
BRANCH   3  30
ATOM     30  C   LIG d   1       4.420  -7.686  -7.619  0.00  0.00     0.055 C 
ATOM     31  H   LIG d   1       3.489  -8.234  -7.757  0.00  0.00     0.056 H 
ATOM     32  H   LIG d   1       4.292  -6.657  -7.957  0.00  0.00     0.056 H 
BRANCH  30  33
ATOM     33  O   LIG d   1       5.458  -8.310  -8.379  0.00  0.00    -0.394 OA
ATOM     34  H   LIG d   1       5.863  -7.733  -9.041  0.00  0.00     0.209 HD
ENDBRANCH  30  33
ENDBRANCH   3  30
BRANCH   9  35
ATOM     35  O   LIG d   1       8.756  -5.333  -5.122  0.00  0.00    -0.491 OA
BRANCH  35  36
ATOM     36  C   LIG d   1       9.305  -5.787  -3.885  0.00  0.00     0.079 C 
ATOM     37  H   LIG d   1       9.033  -6.831  -3.727  0.00  0.00     0.066 H 
ATOM     38  H   LIG d   1      10.392  -5.697  -3.915  0.00  0.00     0.066 H 
ATOM     39  H   LIG d   1       8.913  -5.181  -3.068  0.00  0.00     0.066 H 
ENDBRANCH  35  36
ENDBRANCH   9  35
BRANCH   7  40
ATOM     40  C   LIG d   1       4.642  -2.782  -4.656  0.00  0.00    -0.056 C 
ATOM     41  C   LIG d   1       4.263  -2.542  -3.408  0.00  0.00    -0.058 C 
ATOM     42  H   LIG d   1       4.473  -3.265  -2.632  0.00  0.00     0.059 H 
ATOM     43  H   LIG d   1       4.433  -2.059  -5.431  0.00  0.00     0.062 H 
BRANCH  41  44
ATOM     44  C   LIG d   1       3.541  -1.263  -3.071  0.00  0.00     0.063 C 
ATOM     45  H   LIG d   1       3.024  -1.378  -2.118  0.00  0.00     0.060 H 
ATOM     46  H   LIG d   1       4.262  -0.448  -2.998  0.00  0.00     0.060 H 
BRANCH  44  47
ATOM     47  O   LIG d   1       2.591  -0.969  -4.095  0.00  0.00    -0.391 OA
ATOM     48  H   LIG d   1       2.668  -0.076  -4.459  0.00  0.00     0.210 HD
ENDBRANCH  44  47
ENDBRANCH  41  44
ENDBRANCH   7  40
TORSDOF 11
ENDMDL
MODEL 6
REMARK VINA RESULT:      -5.4      2.701      6.735
REMARK  11 active torsions:
REMARK  status: ('A' for Active; 'I' for Inactive)
REMARK    1  A    between atoms: C_1  and  O_2 
REMARK    2  A    between atoms: O_2  and  C_3 
REMARK    3  A    between atoms: C_5  and  C_10 
REMARK    4  A    between atoms: C_8  and  O_9 
REMARK    5  A    between atoms: C_12  and  C_27 
REMARK    6  A    between atoms: C_16  and  C_23 
REMARK    7  A    between atoms: C_18  and  O_21 
REMARK    8  A    between atoms: O_21  and  C_22 
REMARK    9  A    between atoms: C_24  and  C_25 
REMARK   10  A    between atoms: C_25  and  O_26 
REMARK   11  A    between atoms: C_27  and  O_28 
ROOT
ATOM      1  C   LIG d   1       3.896  -0.305  -5.196  0.00  0.00     0.134 C 
ATOM      2  H   LIG d   1       3.045   0.262  -4.818  0.00  0.00     0.079 H 
ATOM      3  C   LIG d   1       4.052  -1.642  -4.433  0.00  0.00     0.052 C 
ATOM      4  H   LIG d   1       3.607  -2.463  -4.993  0.00  0.00     0.041 H 
ATOM      5  C   LIG d   1       5.560  -1.788  -4.363  0.00  0.00     0.008 A 
ATOM      6  C   LIG d   1       6.368  -2.866  -4.078  0.00  0.00    -0.047 A 
ATOM      7  C   LIG d   1       7.756  -2.723  -4.105  0.00  0.00    -0.021 A 
ATOM      8  C   LIG d   1       8.314  -1.483  -4.421  0.00  0.00    -0.009 A 
ATOM      9  C   LIG d   1       7.496  -0.407  -4.703  0.00  0.00     0.162 A 
ATOM     10  C   LIG d   1       6.105  -0.549  -4.671  0.00  0.00     0.167 A 
ATOM     11  O   LIG d   1       5.130   0.374  -4.905  0.00  0.00    -0.480 OA
ATOM     12  H   LIG d   1       5.928  -3.822  -3.834  0.00  0.00     0.063 H 
ATOM     13  H   LIG d   1       9.387  -1.366  -4.447  0.00  0.00     0.066 H 
ENDROOT
BRANCH   1  14
ATOM     14  C   LIG d   1       3.758  -0.548  -6.677  0.00  0.00    -0.003 A 
ATOM     15  C   LIG d   1       3.482   0.506  -7.527  0.00  0.00    -0.010 A 
ATOM     16  C   LIG d   1       3.354   0.284  -8.888  0.00  0.00     0.162 A 
ATOM     17  H   LIG d   1       3.366   1.504  -7.130  0.00  0.00     0.066 H 
ATOM     18  C   LIG d   1       3.500  -1.003  -9.397  0.00  0.00     0.159 A 
ATOM     19  C   LIG d   1       3.783  -2.055  -8.540  0.00  0.00    -0.016 A 
ATOM     20  C   LIG d   1       3.909  -1.826  -7.182  0.00  0.00    -0.051 A 
ATOM     21  H   LIG d   1       3.901  -3.055  -8.933  0.00  0.00     0.066 H 
ATOM     22  H   LIG d   1       4.124  -2.648  -6.516  0.00  0.00     0.062 H 
BRANCH  16  23
ATOM     23  O   LIG d   1       3.082   1.320  -9.726  0.00  0.00    -0.491 OA
BRANCH  23  24
ATOM     24  C   LIG d   1       3.834   2.521  -9.537  0.00  0.00     0.079 C 
ATOM     25  H   LIG d   1       4.718   2.501 -10.174  0.00  0.00     0.066 H 
ATOM     26  H   LIG d   1       4.140   2.598  -8.493  0.00  0.00     0.066 H 
ATOM     27  H   LIG d   1       3.217   3.381  -9.799  0.00  0.00     0.066 H 
ENDBRANCH  23  24
ENDBRANCH  16  23
BRANCH  18  28
ATOM     28  O   LIG d   1       3.370  -1.228 -10.731  0.00  0.00    -0.503 OA
ATOM     29  H   LIG d   1       2.889  -2.038 -10.949  0.00  0.00     0.292 HD
ENDBRANCH  18  28
ENDBRANCH   1  14
BRANCH   3  30
ATOM     30  C   LIG d   1       3.446  -1.544  -3.032  0.00  0.00     0.055 C 
ATOM     31  H   LIG d   1       2.623  -2.252  -2.942  0.00  0.00     0.056 H 
ATOM     32  H   LIG d   1       4.209  -1.777  -2.289  0.00  0.00     0.056 H 
BRANCH  30  33
ATOM     33  O   LIG d   1       2.960  -0.218  -2.815  0.00  0.00    -0.394 OA
ATOM     34  H   LIG d   1       2.070  -0.063  -3.162  0.00  0.00     0.209 HD
ENDBRANCH  30  33
ENDBRANCH   3  30
BRANCH   9  35
ATOM     35  O   LIG d   1       8.046   0.798  -5.010  0.00  0.00    -0.491 OA
BRANCH  35  36
ATOM     36  C   LIG d   1       8.250   1.712  -3.931  0.00  0.00     0.079 C 
ATOM     37  H   LIG d   1       8.980   1.297  -3.236  0.00  0.00     0.066 H 
ATOM     38  H   LIG d   1       8.621   2.660  -4.323  0.00  0.00     0.066 H 
ATOM     39  H   LIG d   1       7.306   1.878  -3.411  0.00  0.00     0.066 H 
ENDBRANCH  35  36
ENDBRANCH   9  35
BRANCH   7  40
ATOM     40  C   LIG d   1       8.629  -3.875  -3.799  0.00  0.00    -0.056 C 
ATOM     41  C   LIG d   1       9.203  -3.974  -2.608  0.00  0.00    -0.058 C 
ATOM     42  H   LIG d   1       9.032  -3.212  -1.861  0.00  0.00     0.059 H 
ATOM     43  H   LIG d   1       8.800  -4.637  -4.546  0.00  0.00     0.062 H 
BRANCH  41  44
ATOM     44  C   LIG d   1      10.094  -5.149  -2.296  0.00  0.00     0.063 C 
ATOM     45  H   LIG d   1      10.110  -5.829  -3.148  0.00  0.00     0.060 H 
ATOM     46  H   LIG d   1      11.104  -4.795  -2.093  0.00  0.00     0.060 H 
BRANCH  44  47
ATOM     47  O   LIG d   1       9.590  -5.836  -1.149  0.00  0.00    -0.391 OA
ATOM     48  H   LIG d   1      10.061  -6.655  -0.943  0.00  0.00     0.210 HD
ENDBRANCH  44  47
ENDBRANCH  41  44
ENDBRANCH   7  40
TORSDOF 11
ENDMDL
MODEL 7
REMARK VINA RESULT:      -5.4      9.117     12.197
REMARK  11 active torsions:
REMARK  status: ('A' for Active; 'I' for Inactive)
REMARK    1  A    between atoms: C_1  and  O_2 
REMARK    2  A    between atoms: O_2  and  C_3 
REMARK    3  A    between atoms: C_5  and  C_10 
REMARK    4  A    between atoms: C_8  and  O_9 
REMARK    5  A    between atoms: C_12  and  C_27 
REMARK    6  A    between atoms: C_16  and  C_23 
REMARK    7  A    between atoms: C_18  and  O_21 
REMARK    8  A    between atoms: O_21  and  C_22 
REMARK    9  A    between atoms: C_24  and  C_25 
REMARK   10  A    between atoms: C_25  and  O_26 
REMARK   11  A    between atoms: C_27  and  O_28 
ROOT
ATOM      1  C   LIG d   1      10.218   7.076  -1.199  0.00  0.00     0.134 C 
ATOM      2  H   LIG d   1       9.701   6.787  -0.284  0.00  0.00     0.079 H 
ATOM      3  C   LIG d   1      10.061   8.591  -1.468  0.00  0.00     0.052 C 
ATOM      4  H   LIG d   1      10.937   9.140  -1.126  0.00  0.00     0.041 H 
ATOM      5  C   LIG d   1       9.952   8.632  -2.980  0.00  0.00     0.008 A 
ATOM      6  C   LIG d   1      10.078   9.662  -3.885  0.00  0.00    -0.047 A 
ATOM      7  C   LIG d   1       9.947   9.408  -5.252  0.00  0.00    -0.021 A 
ATOM      8  C   LIG d   1       9.688   8.108  -5.689  0.00  0.00    -0.009 A 
ATOM      9  C   LIG d   1       9.561   7.082  -4.774  0.00  0.00     0.162 A 
ATOM     10  C   LIG d   1       9.687   7.337  -3.405  0.00  0.00     0.167 A 
ATOM     11  O   LIG d   1       9.589   6.482  -2.348  0.00  0.00    -0.480 OA
ATOM     12  H   LIG d   1      10.278  10.665  -3.538  0.00  0.00     0.063 H 
ATOM     13  H   LIG d   1       9.589   7.904  -6.745  0.00  0.00     0.066 H 
ENDROOT
BRANCH   1  14
ATOM     14  C   LIG d   1      11.674   6.695  -1.131  0.00  0.00    -0.003 A 
ATOM     15  C   LIG d   1      12.573   7.517  -0.476  0.00  0.00    -0.010 A 
ATOM     16  C   LIG d   1      13.912   7.169  -0.413  0.00  0.00     0.162 A 
ATOM     17  H   LIG d   1      12.230   8.431  -0.014  0.00  0.00     0.066 H 
ATOM     18  C   LIG d   1      14.351   5.992  -1.013  0.00  0.00     0.159 A 
ATOM     19  C   LIG d   1      13.444   5.169  -1.663  0.00  0.00    -0.016 A 
ATOM     20  C   LIG d   1      12.109   5.523  -1.722  0.00  0.00    -0.051 A 
ATOM     21  H   LIG d   1      13.781   4.253  -2.126  0.00  0.00     0.066 H 
ATOM     22  H   LIG d   1      11.405   4.883  -2.233  0.00  0.00     0.062 H 
BRANCH  16  23
ATOM     23  O   LIG d   1      14.797   7.975   0.231  0.00  0.00    -0.491 OA
BRANCH  23  24
ATOM     24  C   LIG d   1      15.206   9.163  -0.452  0.00  0.00     0.079 C 
ATOM     25  H   LIG d   1      16.294   9.197  -0.502  0.00  0.00     0.066 H 
ATOM     26  H   LIG d   1      14.840  10.037   0.088  0.00  0.00     0.066 H 
ATOM     27  H   LIG d   1      14.796   9.161  -1.462  0.00  0.00     0.066 H 
ENDBRANCH  23  24
ENDBRANCH  16  23
BRANCH  18  28
ATOM     28  O   LIG d   1      15.665   5.648  -0.958  0.00  0.00    -0.503 OA
ATOM     29  H   LIG d   1      16.118   5.688  -1.812  0.00  0.00     0.292 HD
ENDBRANCH  18  28
ENDBRANCH   1  14
BRANCH   3  30
ATOM     30  C   LIG d   1       8.788   9.133  -0.814  0.00  0.00     0.055 C 
ATOM     31  H   LIG d   1       8.991   9.377   0.228  0.00  0.00     0.056 H 
ATOM     32  H   LIG d   1       8.460  10.029  -1.341  0.00  0.00     0.056 H 
BRANCH  30  33
ATOM     33  O   LIG d   1       7.761   8.140  -0.879  0.00  0.00    -0.394 OA
ATOM     34  H   LIG d   1       8.025   7.330  -1.335  0.00  0.00     0.209 HD
ENDBRANCH  30  33
ENDBRANCH   3  30
BRANCH   9  35
ATOM     35  O   LIG d   1       9.309   5.817  -5.207  0.00  0.00    -0.491 OA
BRANCH  35  36
ATOM     36  C   LIG d   1      10.440   4.986  -5.473  0.00  0.00     0.079 C 
ATOM     37  H   LIG d   1      11.325   5.608  -5.610  0.00  0.00     0.066 H 
ATOM     38  H   LIG d   1      10.599   4.309  -4.633  0.00  0.00     0.066 H 
ATOM     39  H   LIG d   1      10.261   4.405  -6.378  0.00  0.00     0.066 H 
ENDBRANCH  35  36
ENDBRANCH   9  35
BRANCH   7  40
ATOM     40  C   LIG d   1      10.080  10.509  -6.228  0.00  0.00    -0.056 C 
ATOM     41  C   LIG d   1       9.647  11.724  -5.921  0.00  0.00    -0.058 C 
ATOM     42  H   LIG d   1       9.198  11.909  -4.956  0.00  0.00     0.059 H 
ATOM     43  H   LIG d   1      10.530  10.324  -7.193  0.00  0.00     0.062 H 
BRANCH  41  44
ATOM     44  C   LIG d   1       9.782  12.847  -6.917  0.00  0.00     0.063 C 
ATOM     45  H   LIG d   1       9.622  13.801  -6.413  0.00  0.00     0.060 H 
ATOM     46  H   LIG d   1      10.782  12.829  -7.351  0.00  0.00     0.060 H 
BRANCH  44  47
ATOM     47  O   LIG d   1       8.810  12.685  -7.951  0.00  0.00    -0.391 OA
ATOM     48  H   LIG d   1       9.000  11.957  -8.559  0.00  0.00     0.210 HD
ENDBRANCH  44  47
ENDBRANCH  41  44
ENDBRANCH   7  40
TORSDOF 11
ENDMDL
MODEL 8
REMARK VINA RESULT:      -5.3      2.853      6.706
REMARK  11 active torsions:
REMARK  status: ('A' for Active; 'I' for Inactive)
REMARK    1  A    between atoms: C_1  and  O_2 
REMARK    2  A    between atoms: O_2  and  C_3 
REMARK    3  A    between atoms: C_5  and  C_10 
REMARK    4  A    between atoms: C_8  and  O_9 
REMARK    5  A    between atoms: C_12  and  C_27 
REMARK    6  A    between atoms: C_16  and  C_23 
REMARK    7  A    between atoms: C_18  and  O_21 
REMARK    8  A    between atoms: O_21  and  C_22 
REMARK    9  A    between atoms: C_24  and  C_25 
REMARK   10  A    between atoms: C_25  and  O_26 
REMARK   11  A    between atoms: C_27  and  O_28 
ROOT
ATOM      1  C   LIG d   1       4.284  -2.751  -6.365  0.00  0.00     0.134 C 
ATOM      2  H   LIG d   1       3.262  -3.079  -6.557  0.00  0.00     0.079 H 
ATOM      3  C   LIG d   1       5.250  -3.959  -6.307  0.00  0.00     0.052 C 
ATOM      4  H   LIG d   1       5.763  -4.093  -7.259  0.00  0.00     0.041 H 
ATOM      5  C   LIG d   1       6.220  -3.532  -5.223  0.00  0.00     0.008 A 
ATOM      6  C   LIG d   1       7.467  -3.995  -4.869  0.00  0.00    -0.047 A 
ATOM      7  C   LIG d   1       8.164  -3.391  -3.821  0.00  0.00    -0.021 A 
ATOM      8  C   LIG d   1       7.586  -2.320  -3.138  0.00  0.00    -0.009 A 
ATOM      9  C   LIG d   1       6.334  -1.863  -3.498  0.00  0.00     0.162 A 
ATOM     10  C   LIG d   1       5.634  -2.472  -4.545  0.00  0.00     0.167 A 
ATOM     11  O   LIG d   1       4.399  -2.187  -5.048  0.00  0.00    -0.480 OA
ATOM     12  H   LIG d   1       7.907  -4.826  -5.403  0.00  0.00     0.063 H 
ATOM     13  H   LIG d   1       8.120  -1.846  -2.328  0.00  0.00     0.066 H 
ENDROOT
BRANCH   1  14
ATOM     14  C   LIG d   1       4.731  -1.761  -7.411  0.00  0.00    -0.003 A 
ATOM     15  C   LIG d   1       4.288  -0.453  -7.356  0.00  0.00    -0.010 A 
ATOM     16  C   LIG d   1       4.697   0.458  -8.316  0.00  0.00     0.162 A 
ATOM     17  H   LIG d   1       3.623  -0.141  -6.564  0.00  0.00     0.066 H 
ATOM     18  C   LIG d   1       5.551   0.051  -9.337  0.00  0.00     0.159 A 
ATOM     19  C   LIG d   1       5.996  -1.260  -9.383  0.00  0.00    -0.016 A 
ATOM     20  C   LIG d   1       5.583  -2.164  -8.422  0.00  0.00    -0.051 A 
ATOM     21  H   LIG d   1       6.662  -1.577 -10.172  0.00  0.00     0.066 H 
ATOM     22  H   LIG d   1       5.927  -3.187  -8.462  0.00  0.00     0.062 H 
BRANCH  16  23
ATOM     23  O   LIG d   1       4.263   1.746  -8.264  0.00  0.00    -0.491 OA
BRANCH  23  24
ATOM     24  C   LIG d   1       2.898   1.983  -8.613  0.00  0.00     0.079 C 
ATOM     25  H   LIG d   1       2.278   1.924  -7.718  0.00  0.00     0.066 H 
ATOM     26  H   LIG d   1       2.570   1.232  -9.332  0.00  0.00     0.066 H 
ATOM     27  H   LIG d   1       2.803   2.975  -9.055  0.00  0.00     0.066 H 
ENDBRANCH  23  24
ENDBRANCH  16  23
BRANCH  18  28
ATOM     28  O   LIG d   1       5.952   0.940 -10.285  0.00  0.00    -0.503 OA
ATOM     29  H   LIG d   1       6.830   0.759 -10.649  0.00  0.00     0.292 HD
ENDBRANCH  18  28
ENDBRANCH   1  14
BRANCH   3  30
ATOM     30  C   LIG d   1       4.505  -5.233  -5.904  0.00  0.00     0.055 C 
ATOM     31  H   LIG d   1       4.965  -6.092  -6.391  0.00  0.00     0.056 H 
ATOM     32  H   LIG d   1       4.556  -5.358  -4.822  0.00  0.00     0.056 H 
BRANCH  30  33
ATOM     33  O   LIG d   1       3.137  -5.134  -6.308  0.00  0.00    -0.394 OA
ATOM     34  H   LIG d   1       2.707  -5.987  -6.452  0.00  0.00     0.209 HD
ENDBRANCH  30  33
ENDBRANCH   3  30
BRANCH   9  35
ATOM     35  O   LIG d   1       5.776  -0.819  -2.829  0.00  0.00    -0.491 OA
BRANCH  35  36
ATOM     36  C   LIG d   1       6.164   0.494  -3.239  0.00  0.00     0.079 C 
ATOM     37  H   LIG d   1       5.794   0.684  -4.247  0.00  0.00     0.066 H 
ATOM     38  H   LIG d   1       5.740   1.229  -2.553  0.00  0.00     0.066 H 
ATOM     39  H   LIG d   1       7.251   0.572  -3.229  0.00  0.00     0.066 H 
ENDBRANCH  35  36
ENDBRANCH   9  35
BRANCH   7  40
ATOM     40  C   LIG d   1       9.502  -3.885  -3.436  0.00  0.00    -0.056 C 
ATOM     41  C   LIG d   1       9.832  -5.150  -3.657  0.00  0.00    -0.058 C 
ATOM     42  H   LIG d   1       9.121  -5.820  -4.120  0.00  0.00     0.059 H 
ATOM     43  H   LIG d   1      10.212  -3.215  -2.973  0.00  0.00     0.062 H 
BRANCH  41  44
ATOM     44  C   LIG d   1      11.197  -5.653  -3.263  0.00  0.00     0.063 C 
ATOM     45  H   LIG d   1      11.521  -6.415  -3.972  0.00  0.00     0.060 H 
ATOM     46  H   LIG d   1      11.905  -4.825  -3.271  0.00  0.00     0.060 H 
BRANCH  44  47
ATOM     47  O   LIG d   1      11.136  -6.218  -1.953  0.00  0.00    -0.391 OA
ATOM     48  H   LIG d   1      11.343  -7.162  -1.921  0.00  0.00     0.210 HD
ENDBRANCH  44  47
ENDBRANCH  41  44
ENDBRANCH   7  40
TORSDOF 11
ENDMDL
MODEL 9
REMARK VINA RESULT:      -5.3      2.118      3.400
REMARK  11 active torsions:
REMARK  status: ('A' for Active; 'I' for Inactive)
REMARK    1  A    between atoms: C_1  and  O_2 
REMARK    2  A    between atoms: O_2  and  C_3 
REMARK    3  A    between atoms: C_5  and  C_10 
REMARK    4  A    between atoms: C_8  and  O_9 
REMARK    5  A    between atoms: C_12  and  C_27 
REMARK    6  A    between atoms: C_16  and  C_23 
REMARK    7  A    between atoms: C_18  and  O_21 
REMARK    8  A    between atoms: O_21  and  C_22 
REMARK    9  A    between atoms: C_24  and  C_25 
REMARK   10  A    between atoms: C_25  and  O_26 
REMARK   11  A    between atoms: C_27  and  O_28 
ROOT
ATOM      1  C   LIG d   1       5.971  -0.955  -6.911  0.00  0.00     0.134 C 
ATOM      2  H   LIG d   1       7.052  -0.864  -6.806  0.00  0.00     0.079 H 
ATOM      3  C   LIG d   1       5.606  -1.986  -8.005  0.00  0.00     0.052 C 
ATOM      4  H   LIG d   1       5.369  -2.954  -7.564  0.00  0.00     0.041 H 
ATOM      5  C   LIG d   1       4.375  -1.358  -8.630  0.00  0.00     0.008 A 
ATOM      6  C   LIG d   1       3.396  -1.870  -9.452  0.00  0.00    -0.047 A 
ATOM      7  C   LIG d   1       2.342  -1.057  -9.870  0.00  0.00    -0.021 A 
ATOM      8  C   LIG d   1       2.290   0.273  -9.451  0.00  0.00    -0.009 A 
ATOM      9  C   LIG d   1       3.277   0.779  -8.629  0.00  0.00     0.162 A 
ATOM     10  C   LIG d   1       4.336  -0.034  -8.213  0.00  0.00     0.167 A 
ATOM     11  O   LIG d   1       5.404   0.264  -7.421  0.00  0.00    -0.480 OA
ATOM     12  H   LIG d   1       3.445  -2.901  -9.772  0.00  0.00     0.063 H 
ATOM     13  H   LIG d   1       1.476   0.907  -9.768  0.00  0.00     0.066 H 
ENDROOT
BRANCH   1  14
ATOM     14  C   LIG d   1       5.338  -1.328  -5.595  0.00  0.00    -0.003 A 
ATOM     15  C   LIG d   1       4.817  -0.343  -4.775  0.00  0.00    -0.010 A 
ATOM     16  C   LIG d   1       4.235  -0.684  -3.566  0.00  0.00     0.162 A 
ATOM     17  H   LIG d   1       4.864   0.692  -5.079  0.00  0.00     0.066 H 
ATOM     18  C   LIG d   1       4.181  -2.019  -3.175  0.00  0.00     0.159 A 
ATOM     19  C   LIG d   1       4.699  -3.002  -4.003  0.00  0.00    -0.016 A 
ATOM     20  C   LIG d   1       5.278  -2.654  -5.210  0.00  0.00    -0.051 A 
ATOM     21  H   LIG d   1       4.653  -4.039  -3.705  0.00  0.00     0.066 H 
ATOM     22  H   LIG d   1       5.686  -3.421  -5.851  0.00  0.00     0.062 H 
BRANCH  16  23
ATOM     23  O   LIG d   1       3.723   0.283  -2.758  0.00  0.00    -0.491 OA
BRANCH  23  24
ATOM     24  C   LIG d   1       4.634   0.938  -1.873  0.00  0.00     0.079 C 
ATOM     25  H   LIG d   1       4.243   0.901  -0.856  0.00  0.00     0.066 H 
ATOM     26  H   LIG d   1       4.754   1.978  -2.178  0.00  0.00     0.066 H 
ATOM     27  H   LIG d   1       5.600   0.436  -1.909  0.00  0.00     0.066 H 
ENDBRANCH  23  24
ENDBRANCH  16  23
BRANCH  18  28
ATOM     28  O   LIG d   1       3.615  -2.358  -1.986  0.00  0.00    -0.503 OA
ATOM     29  H   LIG d   1       4.240  -2.719  -1.342  0.00  0.00     0.292 HD
ENDBRANCH  18  28
ENDBRANCH   1  14
BRANCH   3  30
ATOM     30  C   LIG d   1       6.734  -2.115  -9.031  0.00  0.00     0.055 C 
ATOM     31  H   LIG d   1       7.208  -3.090  -8.928  0.00  0.00     0.056 H 
ATOM     32  H   LIG d   1       6.326  -2.012 -10.036  0.00  0.00     0.056 H 
BRANCH  30  33
ATOM     33  O   LIG d   1       7.703  -1.088  -8.804  0.00  0.00    -0.394 OA
ATOM     34  H   LIG d   1       8.576  -1.283  -9.171  0.00  0.00     0.209 HD
ENDBRANCH  30  33
ENDBRANCH   3  30
BRANCH   9  35
ATOM     35  O   LIG d   1       3.220   2.076  -8.223  0.00  0.00    -0.491 OA
BRANCH  35  36
ATOM     36  C   LIG d   1       3.831   3.048  -9.073  0.00  0.00     0.079 C 
ATOM     37  H   LIG d   1       4.730   2.625  -9.523  0.00  0.00     0.066 H 
ATOM     38  H   LIG d   1       3.132   3.334  -9.860  0.00  0.00     0.066 H 
ATOM     39  H   LIG d   1       4.098   3.928  -8.487  0.00  0.00     0.066 H 
ENDBRANCH  35  36
ENDBRANCH   9  35
BRANCH   7  40
ATOM     40  C   LIG d   1       1.289  -1.600 -10.753  0.00  0.00    -0.056 C 
ATOM     41  C   LIG d   1       1.424  -1.525 -12.070  0.00  0.00    -0.058 C 
ATOM     42  H   LIG d   1       2.304  -1.066 -12.497  0.00  0.00     0.059 H 
ATOM     43  H   LIG d   1       0.409  -2.059 -10.326  0.00  0.00     0.062 H 
BRANCH  41  44
ATOM     44  C   LIG d   1       0.350  -2.079 -12.971  0.00  0.00     0.063 C 
ATOM     45  H   LIG d   1      -0.025  -3.014 -12.556  0.00  0.00     0.060 H 
ATOM     46  H   LIG d   1      -0.467  -1.361 -13.046  0.00  0.00     0.060 H 
BRANCH  44  47
ATOM     47  O   LIG d   1       0.895  -2.318 -14.269  0.00  0.00    -0.391 OA
ATOM     48  H   LIG d   1       0.621  -1.673 -14.935  0.00  0.00     0.210 HD
ENDBRANCH  44  47
ENDBRANCH  41  44
ENDBRANCH   7  40
TORSDOF 11
ENDMDL
MODEL 10
REMARK VINA RESULT:      -5.3      9.233     11.937
REMARK  11 active torsions:
REMARK  status: ('A' for Active; 'I' for Inactive)
REMARK    1  A    between atoms: C_1  and  O_2 
REMARK    2  A    between atoms: O_2  and  C_3 
REMARK    3  A    between atoms: C_5  and  C_10 
REMARK    4  A    between atoms: C_8  and  O_9 
REMARK    5  A    between atoms: C_12  and  C_27 
REMARK    6  A    between atoms: C_16  and  C_23 
REMARK    7  A    between atoms: C_18  and  O_21 
REMARK    8  A    between atoms: O_21  and  C_22 
REMARK    9  A    between atoms: C_24  and  C_25 
REMARK   10  A    between atoms: C_25  and  O_26 
REMARK   11  A    between atoms: C_27  and  O_28 
ROOT
ATOM      1  C   LIG d   1      10.310   6.876  -1.410  0.00  0.00     0.134 C 
ATOM      2  H   LIG d   1       9.772   6.539  -0.524  0.00  0.00     0.079 H 
ATOM      3  C   LIG d   1      10.240   8.415  -1.548  0.00  0.00     0.052 C 
ATOM      4  H   LIG d   1      11.144   8.882  -1.157  0.00  0.00     0.041 H 
ATOM      5  C   LIG d   1      10.143   8.592  -3.050  0.00  0.00     0.008 A 
ATOM      6  C   LIG d   1      10.333   9.687  -3.863  0.00  0.00    -0.047 A 
ATOM      7  C   LIG d   1      10.197   9.560  -5.247  0.00  0.00    -0.021 A 
ATOM      8  C   LIG d   1       9.868   8.319  -5.795  0.00  0.00    -0.009 A 
ATOM      9  C   LIG d   1       9.677   7.227  -4.972  0.00  0.00     0.162 A 
ATOM     10  C   LIG d   1       9.809   7.355  -3.586  0.00  0.00     0.167 A 
ATOM     11  O   LIG d   1       9.656   6.419  -2.606  0.00  0.00    -0.480 OA
ATOM     12  H   LIG d   1      10.587  10.644  -3.430  0.00  0.00     0.063 H 
ATOM     13  H   LIG d   1       9.765   8.213  -6.864  0.00  0.00     0.066 H 
ENDROOT
BRANCH   1  14
ATOM     14  C   LIG d   1      11.742   6.408  -1.373  0.00  0.00    -0.003 A 
ATOM     15  C   LIG d   1      12.143   5.348  -2.164  0.00  0.00    -0.010 A 
ATOM     16  C   LIG d   1      13.459   4.917  -2.131  0.00  0.00     0.162 A 
ATOM     17  H   LIG d   1      11.430   4.856  -2.809  0.00  0.00     0.066 H 
ATOM     18  C   LIG d   1      14.375   5.550  -1.296  0.00  0.00     0.159 A 
ATOM     19  C   LIG d   1      13.968   6.616  -0.509  0.00  0.00    -0.016 A 
ATOM     20  C   LIG d   1      12.653   7.041  -0.547  0.00  0.00    -0.051 A 
ATOM     21  H   LIG d   1      14.678   7.112   0.137  0.00  0.00     0.066 H 
ATOM     22  H   LIG d   1      12.337   7.868   0.070  0.00  0.00     0.062 H 
BRANCH  16  23
ATOM     23  O   LIG d   1      13.855   3.874  -2.909  0.00  0.00    -0.491 OA
BRANCH  23  24
ATOM     24  C   LIG d   1      12.865   3.283  -3.753  0.00  0.00     0.079 C 
ATOM     25  H   LIG d   1      12.439   2.410  -3.258  0.00  0.00     0.066 H 
ATOM     26  H   LIG d   1      13.324   2.977  -4.694  0.00  0.00     0.066 H 
ATOM     27  H   LIG d   1      12.077   4.008  -3.953  0.00  0.00     0.066 H 
ENDBRANCH  23  24
ENDBRANCH  16  23
BRANCH  18  28
ATOM     28  O   LIG d   1      15.666   5.128  -1.255  0.00  0.00    -0.503 OA
ATOM     29  H   LIG d   1      16.288   5.721  -1.699  0.00  0.00     0.292 HD
ENDBRANCH  18  28
ENDBRANCH   1  14
BRANCH   3  30
ATOM     30  C   LIG d   1       8.995   8.969  -0.851  0.00  0.00     0.055 C 
ATOM     31  H   LIG d   1       9.237   9.216   0.183  0.00  0.00     0.056 H 
ATOM     32  H   LIG d   1       8.657   9.866  -1.369  0.00  0.00     0.056 H 
BRANCH  30  33
ATOM     33  O   LIG d   1       7.959   7.985  -0.875  0.00  0.00    -0.394 OA
ATOM     34  H   LIG d   1       7.547   7.826  -0.015  0.00  0.00     0.209 HD
ENDBRANCH  30  33
ENDBRANCH   3  30
BRANCH   9  35
ATOM     35  O   LIG d   1       9.358   6.020  -5.513  0.00  0.00    -0.491 OA
BRANCH  35  36
ATOM     36  C   LIG d   1      10.443   5.187  -5.925  0.00  0.00     0.079 C 
ATOM     37  H   LIG d   1      10.521   4.332  -5.253  0.00  0.00     0.066 H 
ATOM     38  H   LIG d   1      10.264   4.834  -6.941  0.00  0.00     0.066 H 
ATOM     39  H   LIG d   1      11.371   5.758  -5.897  0.00  0.00     0.066 H 
ENDBRANCH  35  36
ENDBRANCH   9  35
BRANCH   7  40
ATOM     40  C   LIG d   1      10.398  10.731  -6.124  0.00  0.00    -0.056 C 
ATOM     41  C   LIG d   1       9.573  11.767  -6.047  0.00  0.00    -0.058 C 
ATOM     42  H   LIG d   1       8.754  11.753  -5.342  0.00  0.00     0.059 H 
ATOM     43  H   LIG d   1      11.217  10.745  -6.829  0.00  0.00     0.062 H 
BRANCH  41  44
ATOM     44  C   LIG d   1       9.777  12.962  -6.942  0.00  0.00     0.063 C 
ATOM     45  H   LIG d   1       9.624  13.876  -6.369  0.00  0.00     0.060 H 
ATOM     46  H   LIG d   1      10.792  12.948  -7.340  0.00  0.00     0.060 H 
BRANCH  44  47
ATOM     47  O   LIG d   1       8.842  12.914  -8.021  0.00  0.00    -0.391 OA
ATOM     48  H   LIG d   1       7.930  12.748  -7.743  0.00  0.00     0.210 HD
ENDBRANCH  44  47
ENDBRANCH  41  44
ENDBRANCH   7  40
TORSDOF 11
ENDMDL
