MODEL 1
REMARK VINA RESULT:      -6.4      0.000      0.000
REMARK  4 active torsions:
REMARK  status: ('A' for Active; 'I' for Inactive)
REMARK    1  A    between atoms: C_3  and  C_6 
REMARK    2  A    between atoms: C_13  and  O_17 
REMARK    3  A    between atoms: O_17  and  C_18 
REMARK    4  A    between atoms: C_18  and  C_20 
ROOT
ATOM      1  C   LIG d   1       3.942   0.337 -11.082  0.00  0.00     0.027 C 
ATOM      2  C   LIG d   1       4.510   0.064  -9.872  0.00  0.00     0.179 A 
ATOM      3  C   LIG d   1       5.563   0.801  -9.264  0.00  0.00     0.232 A 
ATOM      4  O   LIG d   1       6.131   1.785  -9.707  0.00  0.00    -0.283 OA
ATOM      5  C   LIG d   1       5.820   0.119  -7.983  0.00  0.00     0.068 A 
ATOM      6  C   LIG d   1       6.717   0.344  -6.938  0.00  0.00    -0.044 A 
ATOM      7  C   LIG d   1       6.716  -0.484  -5.852  0.00  0.00    -0.018 A 
ATOM      8  C   LIG d   1       5.825  -1.552  -5.784  0.00  0.00     0.136 A 
ATOM      9  C   LIG d   1       4.933  -1.791  -6.817  0.00  0.00     0.024 A 
ATOM     10  C   LIG d   1       4.916  -0.955  -7.926  0.00  0.00     0.143 A 
ATOM     11  O   LIG d   1       4.168  -0.954  -9.049  0.00  0.00    -0.451 OA
ATOM     12  H   LIG d   1       4.290   1.178 -11.666  0.00  0.00     0.069 H 
ATOM     13  H   LIG d   1       7.409   1.172  -6.988  0.00  0.00     0.063 H 
ATOM     14  H   LIG d   1       7.410  -0.310  -5.042  0.00  0.00     0.065 H 
ATOM     15  H   LIG d   1       4.247  -2.623  -6.759  0.00  0.00     0.069 H 
ENDROOT
BRANCH   8  16
ATOM     16  O   LIG d   1       5.833  -2.368  -4.700  0.00  0.00    -0.422 OA
BRANCH  16  17
ATOM     17  C   LIG d   1       4.793  -2.297  -3.845  0.00  0.00     0.351 C 
ATOM     18  O   LIG d   1       4.146  -3.296  -3.590  0.00  0.00    -0.244 OA
BRANCH  17  19
ATOM     19  C   LIG d   1       4.442  -1.020  -3.222  0.00  0.00     0.097 A 
ATOM     20  S   LIG d   1       3.181   0.151  -3.692  0.00  0.00    -0.090 SA
ATOM     21  C   LIG d   1       3.450   1.334  -2.453  0.00  0.00    -0.024 A 
ATOM     22  C   LIG d   1       4.480   0.808  -1.740  0.00  0.00    -0.054 A 
ATOM     23  H   LIG d   1       2.928   2.265  -2.290  0.00  0.00     0.069 H 
ATOM     24  C   LIG d   1       5.008  -0.401  -2.117  0.00  0.00    -0.041 A 
ATOM     25  H   LIG d   1       4.880   1.336  -0.886  0.00  0.00     0.062 H 
ATOM     26  H   LIG d   1       5.827  -0.852  -1.576  0.00  0.00     0.063 H 
ENDBRANCH  17  19
ENDBRANCH  16  17
ENDBRANCH   8  16
BRANCH   1  27
ATOM     27  C   LIG d   1       2.898  -0.479 -11.572  0.00  0.00     0.131 A 
ATOM     28  C   LIG d   1       1.635  -0.600 -11.026  0.00  0.00    -0.016 A 
ATOM     29  C   LIG d   1       0.937  -1.511 -11.834  0.00  0.00    -0.023 A 
ATOM     30  H   LIG d   1       1.257  -0.094 -10.149  0.00  0.00     0.066 H 
ATOM     31  C   LIG d   1       1.780  -1.899 -12.817  0.00  0.00     0.092 A 
ATOM     32  H   LIG d   1      -0.082  -1.839 -11.696  0.00  0.00     0.065 H 
ATOM     33  O   LIG d   1       2.955  -1.275 -12.660  0.00  0.00    -0.463 OA
ATOM     34  H   LIG d   1       1.543  -2.599 -13.606  0.00  0.00     0.103 H 
ENDBRANCH   1  27
TORSDOF 4
ENDMDL
MODEL 2
REMARK VINA RESULT:      -6.2      3.792      5.313
REMARK  4 active torsions:
REMARK  status: ('A' for Active; 'I' for Inactive)
REMARK    1  A    between atoms: C_3  and  C_6 
REMARK    2  A    between atoms: C_13  and  O_17 
REMARK    3  A    between atoms: O_17  and  C_18 
REMARK    4  A    between atoms: C_18  and  C_20 
ROOT
ATOM      1  C   LIG d   1       2.780   0.592  -6.659  0.00  0.00     0.027 C 
ATOM      2  C   LIG d   1       3.787  -0.011  -5.964  0.00  0.00     0.179 A 
ATOM      3  C   LIG d   1       3.693  -0.520  -4.639  0.00  0.00     0.232 A 
ATOM      4  O   LIG d   1       2.716  -0.506  -3.908  0.00  0.00    -0.283 OA
ATOM      5  C   LIG d   1       5.028  -1.066  -4.340  0.00  0.00     0.068 A 
ATOM      6  C   LIG d   1       5.580  -1.695  -3.224  0.00  0.00    -0.044 A 
ATOM      7  C   LIG d   1       6.885  -2.100  -3.249  0.00  0.00    -0.018 A 
ATOM      8  C   LIG d   1       7.665  -1.886  -4.383  0.00  0.00     0.136 A 
ATOM      9  C   LIG d   1       7.130  -1.258  -5.496  0.00  0.00     0.024 A 
ATOM     10  C   LIG d   1       5.805  -0.846  -5.490  0.00  0.00     0.143 A 
ATOM     11  O   LIG d   1       5.044  -0.226  -6.417  0.00  0.00    -0.451 OA
ATOM     12  H   LIG d   1       1.808   0.717  -6.204  0.00  0.00     0.069 H 
ATOM     13  H   LIG d   1       4.978  -1.862  -2.343  0.00  0.00     0.063 H 
ATOM     14  H   LIG d   1       7.314  -2.587  -2.385  0.00  0.00     0.065 H 
ATOM     15  H   LIG d   1       7.743  -1.093  -6.370  0.00  0.00     0.069 H 
ENDROOT
BRANCH   8  16
ATOM     16  O   LIG d   1       8.959  -2.293  -4.396  0.00  0.00    -0.422 OA
BRANCH  16  17
ATOM     17  C   LIG d   1       9.218  -3.576  -4.722  0.00  0.00     0.351 C 
ATOM     18  O   LIG d   1       9.286  -3.904  -5.892  0.00  0.00    -0.244 OA
BRANCH  17  19
ATOM     19  C   LIG d   1       9.417  -4.573  -3.670  0.00  0.00     0.097 A 
ATOM     20  S   LIG d   1       9.529  -6.348  -3.810  0.00  0.00    -0.090 SA
ATOM     21  C   LIG d   1       9.762  -6.727  -2.134  0.00  0.00    -0.024 A 
ATOM     22  C   LIG d   1       9.739  -5.508  -1.534  0.00  0.00    -0.054 A 
ATOM     23  H   LIG d   1       9.890  -7.697  -1.677  0.00  0.00     0.069 H 
ATOM     24  C   LIG d   1       9.562  -4.386  -2.303  0.00  0.00    -0.041 A 
ATOM     25  H   LIG d   1       9.858  -5.424  -0.463  0.00  0.00     0.062 H 
ATOM     26  H   LIG d   1       9.537  -3.399  -1.863  0.00  0.00     0.063 H 
ENDBRANCH  17  19
ENDBRANCH  16  17
ENDBRANCH   8  16
BRANCH   1  27
ATOM     27  C   LIG d   1       3.009   1.054  -7.974  0.00  0.00     0.131 A 
ATOM     28  C   LIG d   1       2.793   0.340  -9.137  0.00  0.00    -0.016 A 
ATOM     29  C   LIG d   1       3.154   1.186 -10.197  0.00  0.00    -0.023 A 
ATOM     30  H   LIG d   1       2.420  -0.671  -9.216  0.00  0.00     0.066 H 
ATOM     31  C   LIG d   1       3.565   2.353  -9.655  0.00  0.00     0.092 A 
ATOM     32  H   LIG d   1       3.111   0.947 -11.249  0.00  0.00     0.065 H 
ATOM     33  O   LIG d   1       3.473   2.273  -8.320  0.00  0.00    -0.463 OA
ATOM     34  H   LIG d   1       3.909   3.215 -10.208  0.00  0.00     0.103 H 
ENDBRANCH   1  27
TORSDOF 4
ENDMDL
MODEL 3
REMARK VINA RESULT:      -6.2      5.504      7.791
REMARK  4 active torsions:
REMARK  status: ('A' for Active; 'I' for Inactive)
REMARK    1  A    between atoms: C_3  and  C_6 
REMARK    2  A    between atoms: C_13  and  O_17 
REMARK    3  A    between atoms: O_17  and  C_18 
REMARK    4  A    between atoms: C_18  and  C_20 
ROOT
ATOM      1  C   LIG d   1       6.596  -0.557  -3.587  0.00  0.00     0.027 C 
ATOM      2  C   LIG d   1       6.489  -1.825  -4.079  0.00  0.00     0.179 A 
ATOM      3  C   LIG d   1       7.571  -2.642  -4.510  0.00  0.00     0.232 A 
ATOM      4  O   LIG d   1       8.757  -2.358  -4.514  0.00  0.00    -0.283 OA
ATOM      5  C   LIG d   1       6.949  -3.903  -4.949  0.00  0.00     0.068 A 
ATOM      6  C   LIG d   1       7.457  -5.093  -5.472  0.00  0.00    -0.044 A 
ATOM      7  C   LIG d   1       6.605  -6.112  -5.793  0.00  0.00    -0.018 A 
ATOM      8  C   LIG d   1       5.233  -5.967  -5.601  0.00  0.00     0.136 A 
ATOM      9  C   LIG d   1       4.715  -4.789  -5.088  0.00  0.00     0.024 A 
ATOM     10  C   LIG d   1       5.568  -3.746  -4.751  0.00  0.00     0.143 A 
ATOM     11  O   LIG d   1       5.338  -2.517  -4.241  0.00  0.00    -0.451 OA
ATOM     12  H   LIG d   1       7.566  -0.091  -3.498  0.00  0.00     0.069 H 
ATOM     13  H   LIG d   1       8.520  -5.208  -5.621  0.00  0.00     0.063 H 
ATOM     14  H   LIG d   1       6.998  -7.034  -6.197  0.00  0.00     0.065 H 
ATOM     15  H   LIG d   1       3.650  -4.683  -4.946  0.00  0.00     0.069 H 
ENDROOT
BRANCH   8  16
ATOM     16  O   LIG d   1       4.398  -6.986  -5.923  0.00  0.00    -0.422 OA
BRANCH  16  17
ATOM     17  C   LIG d   1       4.917  -8.228  -6.012  0.00  0.00     0.351 C 
ATOM     18  O   LIG d   1       5.158  -8.710  -7.103  0.00  0.00    -0.244 OA
BRANCH  17  19
ATOM     19  C   LIG d   1       5.190  -8.996  -4.797  0.00  0.00     0.097 A 
ATOM     20  S   LIG d   1       4.052  -9.883  -3.747  0.00  0.00    -0.090 SA
ATOM     21  C   LIG d   1       5.187 -10.481  -2.581  0.00  0.00    -0.024 A 
ATOM     22  C   LIG d   1       6.373  -9.986  -3.019  0.00  0.00    -0.054 A 
ATOM     23  H   LIG d   1       4.996 -11.096  -1.713  0.00  0.00     0.069 H 
ATOM     24  C   LIG d   1       6.401  -9.218  -4.156  0.00  0.00    -0.041 A 
ATOM     25  H   LIG d   1       7.286 -10.194  -2.478  0.00  0.00     0.062 H 
ATOM     26  H   LIG d   1       7.323  -8.806  -4.536  0.00  0.00     0.063 H 
ENDBRANCH  17  19
ENDBRANCH  16  17
ENDBRANCH   8  16
BRANCH   1  27
ATOM     27  C   LIG d   1       5.436   0.147  -3.194  0.00  0.00     0.131 A 
ATOM     28  C   LIG d   1       4.825   0.083  -1.956  0.00  0.00    -0.016 A 
ATOM     29  C   LIG d   1       3.715   0.940  -2.014  0.00  0.00    -0.023 A 
ATOM     30  H   LIG d   1       5.138  -0.510  -1.109  0.00  0.00     0.066 H 
ATOM     31  C   LIG d   1       3.693   1.481  -3.253  0.00  0.00     0.092 A 
ATOM     32  H   LIG d   1       3.011   1.131  -1.218  0.00  0.00     0.065 H 
ATOM     33  O   LIG d   1       4.729   1.006  -3.957  0.00  0.00    -0.463 OA
ATOM     34  H   LIG d   1       2.958   2.185  -3.616  0.00  0.00     0.103 H 
ENDBRANCH   1  27
TORSDOF 4
ENDMDL
MODEL 4
REMARK VINA RESULT:      -6.2      6.406      9.043
REMARK  4 active torsions:
REMARK  status: ('A' for Active; 'I' for Inactive)
REMARK    1  A    between atoms: C_3  and  C_6 
REMARK    2  A    between atoms: C_13  and  O_17 
REMARK    3  A    between atoms: O_17  and  C_18 
REMARK    4  A    between atoms: C_18  and  C_20 
ROOT
ATOM      1  C   LIG d   1       7.151   0.058  -4.112  0.00  0.00     0.027 C 
ATOM      2  C   LIG d   1       8.110   1.028  -4.142  0.00  0.00     0.179 A 
ATOM      3  C   LIG d   1       9.229   1.063  -5.019  0.00  0.00     0.232 A 
ATOM      4  O   LIG d   1       9.521   0.250  -5.879  0.00  0.00    -0.283 OA
ATOM      5  C   LIG d   1       9.958   2.293  -4.664  0.00  0.00     0.068 A 
ATOM      6  C   LIG d   1      11.123   2.892  -5.144  0.00  0.00    -0.044 A 
ATOM      7  C   LIG d   1      11.560   4.065  -4.596  0.00  0.00    -0.018 A 
ATOM      8  C   LIG d   1      10.848   4.663  -3.560  0.00  0.00     0.136 A 
ATOM      9  C   LIG d   1       9.692   4.077  -3.069  0.00  0.00     0.024 A 
ATOM     10  C   LIG d   1       9.232   2.888  -3.619  0.00  0.00     0.143 A 
ATOM     11  O   LIG d   1       8.158   2.118  -3.342  0.00  0.00    -0.451 OA
ATOM     12  H   LIG d   1       7.205  -0.777  -4.796  0.00  0.00     0.069 H 
ATOM     13  H   LIG d   1      11.677   2.429  -5.948  0.00  0.00     0.063 H 
ATOM     14  H   LIG d   1      12.462   4.529  -4.968  0.00  0.00     0.065 H 
ATOM     15  H   LIG d   1       9.148   4.546  -2.263  0.00  0.00     0.069 H 
ENDROOT
BRANCH   8  16
ATOM     16  O   LIG d   1      11.292   5.828  -3.024  0.00  0.00    -0.422 OA
BRANCH  16  17
ATOM     17  C   LIG d   1      10.419   6.851  -2.916  0.00  0.00     0.351 C 
ATOM     18  O   LIG d   1       9.915   7.110  -1.839  0.00  0.00    -0.244 OA
BRANCH  17  19
ATOM     19  C   LIG d   1      10.077   7.649  -4.094  0.00  0.00     0.097 A 
ATOM     20  S   LIG d   1      10.453   9.357  -4.443  0.00  0.00    -0.090 SA
ATOM     21  C   LIG d   1       9.701   9.477  -6.001  0.00  0.00    -0.024 A 
ATOM     22  C   LIG d   1       9.190   8.233  -6.195  0.00  0.00    -0.054 A 
ATOM     23  H   LIG d   1       9.647  10.334  -6.656  0.00  0.00     0.069 H 
ATOM     24  C   LIG d   1       9.369   7.276  -5.229  0.00  0.00    -0.041 A 
ATOM     25  H   LIG d   1       8.648   8.000  -7.100  0.00  0.00     0.062 H 
ATOM     26  H   LIG d   1       8.978   6.276  -5.345  0.00  0.00     0.063 H 
ENDBRANCH  17  19
ENDBRANCH  16  17
ENDBRANCH   8  16
BRANCH   1  27
ATOM     27  C   LIG d   1       6.088   0.144  -3.186  0.00  0.00     0.131 A 
ATOM     28  C   LIG d   1       5.334  -0.912  -2.711  0.00  0.00    -0.016 A 
ATOM     29  C   LIG d   1       4.399  -0.365  -1.819  0.00  0.00    -0.023 A 
ATOM     30  H   LIG d   1       5.443  -1.954  -2.973  0.00  0.00     0.066 H 
ATOM     31  C   LIG d   1       4.613   0.970  -1.785  0.00  0.00     0.092 A 
ATOM     32  H   LIG d   1       3.649  -0.908  -1.265  0.00  0.00     0.065 H 
ATOM     33  O   LIG d   1       5.630   1.272  -2.603  0.00  0.00    -0.463 OA
ATOM     34  H   LIG d   1       4.055   1.679  -1.190  0.00  0.00     0.103 H 
ENDBRANCH   1  27
TORSDOF 4
ENDMDL
MODEL 5
REMARK VINA RESULT:      -6.1      5.570      9.007
REMARK  4 active torsions:
REMARK  status: ('A' for Active; 'I' for Inactive)
REMARK    1  A    between atoms: C_3  and  C_6 
REMARK    2  A    between atoms: C_13  and  O_17 
REMARK    3  A    between atoms: O_17  and  C_18 
REMARK    4  A    between atoms: C_18  and  C_20 
ROOT
ATOM      1  C   LIG d   1      10.586   6.047  -3.009  0.00  0.00     0.027 C 
ATOM      2  C   LIG d   1      10.034   4.954  -3.610  0.00  0.00     0.179 A 
ATOM      3  C   LIG d   1       9.711   4.839  -4.990  0.00  0.00     0.232 A 
ATOM      4  O   LIG d   1       9.868   5.680  -5.860  0.00  0.00    -0.283 OA
ATOM      5  C   LIG d   1       9.148   3.487  -5.144  0.00  0.00     0.068 A 
ATOM      6  C   LIG d   1       8.647   2.773  -6.232  0.00  0.00    -0.044 A 
ATOM      7  C   LIG d   1       8.181   1.500  -6.054  0.00  0.00    -0.018 A 
ATOM      8  C   LIG d   1       8.204   0.915  -4.790  0.00  0.00     0.136 A 
ATOM      9  C   LIG d   1       8.694   1.615  -3.699  0.00  0.00     0.024 A 
ATOM     10  C   LIG d   1       9.176   2.907  -3.864  0.00  0.00     0.143 A 
ATOM     11  O   LIG d   1       9.701   3.796  -2.995  0.00  0.00    -0.451 OA
ATOM     12  H   LIG d   1      10.815   6.927  -3.592  0.00  0.00     0.069 H 
ATOM     13  H   LIG d   1       8.628   3.224  -7.213  0.00  0.00     0.063 H 
ATOM     14  H   LIG d   1       7.793   0.946  -6.897  0.00  0.00     0.065 H 
ATOM     15  H   LIG d   1       8.705   1.155  -2.722  0.00  0.00     0.069 H 
ENDROOT
BRANCH   8  16
ATOM     16  O   LIG d   1       7.739  -0.349  -4.626  0.00  0.00    -0.422 OA
BRANCH  16  17
ATOM     17  C   LIG d   1       6.434  -0.582  -4.873  0.00  0.00     0.351 C 
ATOM     18  O   LIG d   1       6.101  -1.158  -5.892  0.00  0.00    -0.244 OA
BRANCH  17  19
ATOM     19  C   LIG d   1       5.417  -0.143  -3.916  0.00  0.00     0.097 A 
ATOM     20  S   LIG d   1       3.661   0.060  -4.155  0.00  0.00    -0.090 SA
ATOM     21  C   LIG d   1       3.241   0.591  -2.559  0.00  0.00    -0.024 A 
ATOM     22  C   LIG d   1       4.435   0.604  -1.912  0.00  0.00    -0.054 A 
ATOM     23  H   LIG d   1       2.266   0.853  -2.174  0.00  0.00     0.069 H 
ATOM     24  C   LIG d   1       5.569   0.231  -2.588  0.00  0.00    -0.041 A 
ATOM     25  H   LIG d   1       4.492   0.903  -0.875  0.00  0.00     0.062 H 
ATOM     26  H   LIG d   1       6.537   0.228  -2.109  0.00  0.00     0.063 H 
ENDBRANCH  17  19
ENDBRANCH  16  17
ENDBRANCH   8  16
BRANCH   1  27
ATOM     27  C   LIG d   1      10.857   6.029  -1.623  0.00  0.00     0.131 A 
ATOM     28  C   LIG d   1      11.975   5.486  -1.019  0.00  0.00    -0.016 A 
ATOM     29  C   LIG d   1      11.824   5.693   0.360  0.00  0.00    -0.023 A 
ATOM     30  H   LIG d   1      12.804   4.998  -1.512  0.00  0.00     0.066 H 
ATOM     31  C   LIG d   1      10.650   6.338   0.541  0.00  0.00     0.092 A 
ATOM     32  H   LIG d   1      12.516   5.393   1.132  0.00  0.00     0.065 H 
ATOM     33  O   LIG d   1      10.074   6.542  -0.652  0.00  0.00    -0.463 OA
ATOM     34  H   LIG d   1      10.243   6.643   1.494  0.00  0.00     0.103 H 
ENDBRANCH   1  27
TORSDOF 4
ENDMDL
MODEL 6
REMARK VINA RESULT:      -6.1      4.982      7.611
REMARK  4 active torsions:
REMARK  status: ('A' for Active; 'I' for Inactive)
REMARK    1  A    between atoms: C_3  and  C_6 
REMARK    2  A    between atoms: C_13  and  O_17 
REMARK    3  A    between atoms: O_17  and  C_18 
REMARK    4  A    between atoms: C_18  and  C_20 
ROOT
ATOM      1  C   LIG d   1       4.683  -9.474  -6.317  0.00  0.00     0.027 C 
ATOM      2  C   LIG d   1       4.662  -8.150  -6.643  0.00  0.00     0.179 A 
ATOM      3  C   LIG d   1       4.767  -7.616  -7.956  0.00  0.00     0.232 A 
ATOM      4  O   LIG d   1       4.893  -8.235  -9.000  0.00  0.00    -0.283 OA
ATOM      5  C   LIG d   1       4.692  -6.154  -7.786  0.00  0.00     0.068 A 
ATOM      6  C   LIG d   1       4.736  -5.080  -8.674  0.00  0.00    -0.044 A 
ATOM      7  C   LIG d   1       4.639  -3.802  -8.200  0.00  0.00    -0.018 A 
ATOM      8  C   LIG d   1       4.499  -3.569  -6.834  0.00  0.00     0.136 A 
ATOM      9  C   LIG d   1       4.460  -4.626  -5.940  0.00  0.00     0.024 A 
ATOM     10  C   LIG d   1       4.551  -5.931  -6.406  0.00  0.00     0.143 A 
ATOM     11  O   LIG d   1       4.537  -7.122  -5.771  0.00  0.00    -0.451 OA
ATOM     12  H   LIG d   1       4.789 -10.220  -7.092  0.00  0.00     0.069 H 
ATOM     13  H   LIG d   1       4.844  -5.258  -9.734  0.00  0.00     0.063 H 
ATOM     14  H   LIG d   1       4.672  -2.969  -8.888  0.00  0.00     0.065 H 
ATOM     15  H   LIG d   1       4.354  -4.436  -4.882  0.00  0.00     0.069 H 
ENDROOT
BRANCH   8  16
ATOM     16  O   LIG d   1       4.404  -2.295  -6.376  0.00  0.00    -0.422 OA
BRANCH  16  17
ATOM     17  C   LIG d   1       5.354  -1.854  -5.526  0.00  0.00     0.351 C 
ATOM     18  O   LIG d   1       6.516  -1.811  -5.882  0.00  0.00    -0.244 OA
BRANCH  17  19
ATOM     19  C   LIG d   1       4.987  -1.426  -4.176  0.00  0.00     0.097 A 
ATOM     20  S   LIG d   1       5.062   0.203  -3.453  0.00  0.00    -0.090 SA
ATOM     21  C   LIG d   1       4.458  -0.184  -1.875  0.00  0.00    -0.024 A 
ATOM     22  C   LIG d   1       4.231  -1.521  -1.948  0.00  0.00    -0.054 A 
ATOM     23  H   LIG d   1       4.303   0.478  -1.035  0.00  0.00     0.069 H 
ATOM     24  C   LIG d   1       4.496  -2.183  -3.121  0.00  0.00    -0.041 A 
ATOM     25  H   LIG d   1       3.846  -2.058  -1.093  0.00  0.00     0.062 H 
ATOM     26  H   LIG d   1       4.330  -3.245  -3.219  0.00  0.00     0.063 H 
ENDBRANCH  17  19
ENDBRANCH  16  17
ENDBRANCH   8  16
BRANCH   1  27
ATOM     27  C   LIG d   1       4.569  -9.871  -4.966  0.00  0.00     0.131 A 
ATOM     28  C   LIG d   1       5.593 -10.343  -4.167  0.00  0.00    -0.016 A 
ATOM     29  C   LIG d   1       5.027 -10.611  -2.911  0.00  0.00    -0.023 A 
ATOM     30  H   LIG d   1       6.626 -10.479  -4.452  0.00  0.00     0.066 H 
ATOM     31  C   LIG d   1       3.714 -10.300  -2.990  0.00  0.00     0.092 A 
ATOM     32  H   LIG d   1       5.544 -10.994  -2.045  0.00  0.00     0.065 H 
ATOM     33  O   LIG d   1       3.443  -9.852  -4.224  0.00  0.00    -0.463 OA
ATOM     34  H   LIG d   1       2.998 -10.395  -2.187  0.00  0.00     0.103 H 
ENDBRANCH   1  27
TORSDOF 4
ENDMDL
MODEL 7
REMARK VINA RESULT:      -6.0      5.087      7.361
REMARK  4 active torsions:
REMARK  status: ('A' for Active; 'I' for Inactive)
REMARK    1  A    between atoms: C_3  and  C_6 
REMARK    2  A    between atoms: C_13  and  O_17 
REMARK    3  A    between atoms: O_17  and  C_18 
REMARK    4  A    between atoms: C_18  and  C_20 
ROOT
ATOM      1  C   LIG d   1       5.216  -0.970  -5.536  0.00  0.00     0.027 C 
ATOM      2  C   LIG d   1       6.251  -0.081  -5.528  0.00  0.00     0.179 A 
ATOM      3  C   LIG d   1       7.070   0.251  -6.642  0.00  0.00     0.232 A 
ATOM      4  O   LIG d   1       6.992  -0.192  -7.776  0.00  0.00    -0.283 OA
ATOM      5  C   LIG d   1       8.032   1.243  -6.132  0.00  0.00     0.068 A 
ATOM      6  C   LIG d   1       9.083   1.950  -6.716  0.00  0.00    -0.044 A 
ATOM      7  C   LIG d   1       9.815   2.825  -5.962  0.00  0.00    -0.018 A 
ATOM      8  C   LIG d   1       9.514   3.013  -4.616  0.00  0.00     0.136 A 
ATOM      9  C   LIG d   1       8.476   2.313  -4.022  0.00  0.00     0.024 A 
ATOM     10  C   LIG d   1       7.719   1.425  -4.774  0.00  0.00     0.143 A 
ATOM     11  O   LIG d   1       6.673   0.633  -4.459  0.00  0.00    -0.451 OA
ATOM     12  H   LIG d   1       4.959  -1.492  -6.446  0.00  0.00     0.069 H 
ATOM     13  H   LIG d   1       9.318   1.806  -7.760  0.00  0.00     0.063 H 
ATOM     14  H   LIG d   1      10.629   3.373  -6.414  0.00  0.00     0.065 H 
ATOM     15  H   LIG d   1       8.252   2.462  -2.976  0.00  0.00     0.069 H 
ENDROOT
BRANCH   8  16
ATOM     16  O   LIG d   1      10.248   3.884  -3.878  0.00  0.00    -0.422 OA
BRANCH  16  17
ATOM     17  C   LIG d   1       9.756   5.126  -3.690  0.00  0.00     0.351 C 
ATOM     18  O   LIG d   1       9.093   5.657  -4.561  0.00  0.00    -0.244 OA
BRANCH  17  19
ATOM     19  C   LIG d   1      10.019   5.835  -2.437  0.00  0.00     0.097 A 
ATOM     20  S   LIG d   1      11.129   5.401  -1.110  0.00  0.00    -0.090 SA
ATOM     21  C   LIG d   1      10.823   6.748  -0.063  0.00  0.00    -0.024 A 
ATOM     22  C   LIG d   1       9.894   7.467  -0.745  0.00  0.00    -0.054 A 
ATOM     23  H   LIG d   1      11.262   6.962   0.901  0.00  0.00     0.069 H 
ATOM     24  C   LIG d   1       9.464   7.018  -1.968  0.00  0.00    -0.041 A 
ATOM     25  H   LIG d   1       9.499   8.383  -0.329  0.00  0.00     0.062 H 
ATOM     26  H   LIG d   1       8.727   7.560  -2.541  0.00  0.00     0.063 H 
ENDBRANCH  17  19
ENDBRANCH  16  17
ENDBRANCH   8  16
BRANCH   1  27
ATOM     27  C   LIG d   1       4.481  -1.208  -4.353  0.00  0.00     0.131 A 
ATOM     28  C   LIG d   1       4.728  -2.205  -3.428  0.00  0.00    -0.016 A 
ATOM     29  C   LIG d   1       3.758  -2.066  -2.424  0.00  0.00    -0.023 A 
ATOM     30  H   LIG d   1       5.513  -2.946  -3.469  0.00  0.00     0.066 H 
ATOM     31  C   LIG d   1       2.977  -1.016  -2.765  0.00  0.00     0.092 A 
ATOM     32  H   LIG d   1       3.655  -2.682  -1.544  0.00  0.00     0.065 H 
ATOM     33  O   LIG d   1       3.417  -0.501  -3.922  0.00  0.00    -0.463 OA
ATOM     34  H   LIG d   1       2.136  -0.650  -2.196  0.00  0.00     0.103 H 
ENDBRANCH   1  27
TORSDOF 4
ENDMDL
MODEL 8
REMARK VINA RESULT:      -6.0      4.536      7.718
REMARK  4 active torsions:
REMARK  status: ('A' for Active; 'I' for Inactive)
REMARK    1  A    between atoms: C_3  and  C_6 
REMARK    2  A    between atoms: C_13  and  O_17 
REMARK    3  A    between atoms: O_17  and  C_18 
REMARK    4  A    between atoms: C_18  and  C_20 
ROOT
ATOM      1  C   LIG d   1      10.341   3.842  -4.402  0.00  0.00     0.027 C 
ATOM      2  C   LIG d   1       9.594   2.701  -4.362  0.00  0.00     0.179 A 
ATOM      3  C   LIG d   1       9.757   1.572  -5.211  0.00  0.00     0.232 A 
ATOM      4  O   LIG d   1      10.575   1.428  -6.104  0.00  0.00    -0.283 OA
ATOM      5  C   LIG d   1       8.724   0.613  -4.780  0.00  0.00     0.068 A 
ATOM      6  C   LIG d   1       8.363  -0.665  -5.204  0.00  0.00    -0.044 A 
ATOM      7  C   LIG d   1       7.332  -1.319  -4.590  0.00  0.00    -0.018 A 
ATOM      8  C   LIG d   1       6.642  -0.714  -3.543  0.00  0.00     0.136 A 
ATOM      9  C   LIG d   1       6.986   0.558  -3.115  0.00  0.00     0.024 A 
ATOM     10  C   LIG d   1       8.035   1.234  -3.724  0.00  0.00     0.143 A 
ATOM     11  O   LIG d   1       8.573   2.453  -3.510  0.00  0.00    -0.451 OA
ATOM     12  H   LIG d   1      11.138   3.942  -5.125  0.00  0.00     0.069 H 
ATOM     13  H   LIG d   1       8.897  -1.137  -6.016  0.00  0.00     0.063 H 
ATOM     14  H   LIG d   1       7.052  -2.310  -4.918  0.00  0.00     0.065 H 
ATOM     15  H   LIG d   1       6.443   1.021  -2.304  0.00  0.00     0.069 H 
ENDROOT
BRANCH   8  16
ATOM     16  O   LIG d   1       5.620  -1.374  -2.941  0.00  0.00    -0.422 OA
BRANCH  16  17
ATOM     17  C   LIG d   1       4.637  -1.868  -3.721  0.00  0.00     0.351 C 
ATOM     18  O   LIG d   1       4.369  -3.054  -3.684  0.00  0.00    -0.244 OA
BRANCH  17  19
ATOM     19  C   LIG d   1       3.891  -0.978  -4.611  0.00  0.00     0.097 A 
ATOM     20  S   LIG d   1       4.050  -0.759  -6.374  0.00  0.00    -0.090 SA
ATOM     21  C   LIG d   1       2.822   0.444  -6.600  0.00  0.00    -0.024 A 
ATOM     22  C   LIG d   1       2.346   0.641  -5.343  0.00  0.00    -0.054 A 
ATOM     23  H   LIG d   1       2.513   0.924  -7.517  0.00  0.00     0.069 H 
ATOM     24  C   LIG d   1       2.880  -0.078  -4.303  0.00  0.00    -0.041 A 
ATOM     25  H   LIG d   1       1.555   1.355  -5.163  0.00  0.00     0.062 H 
ATOM     26  H   LIG d   1       2.529   0.050  -3.290  0.00  0.00     0.063 H 
ENDBRANCH  17  19
ENDBRANCH  16  17
ENDBRANCH   8  16
BRANCH   1  27
ATOM     27  C   LIG d   1      10.072   4.893  -3.498  0.00  0.00     0.131 A 
ATOM     28  C   LIG d   1       9.490   6.107  -3.810  0.00  0.00    -0.016 A 
ATOM     29  C   LIG d   1       9.419   6.834  -2.612  0.00  0.00    -0.023 A 
ATOM     30  H   LIG d   1       9.155   6.432  -4.784  0.00  0.00     0.066 H 
ATOM     31  C   LIG d   1       9.946   6.057  -1.641  0.00  0.00     0.092 A 
ATOM     32  H   LIG d   1       9.017   7.829  -2.491  0.00  0.00     0.065 H 
ATOM     33  O   LIG d   1      10.334   4.891  -2.174  0.00  0.00    -0.463 OA
ATOM     34  H   LIG d   1      10.037   6.331  -0.599  0.00  0.00     0.103 H 
ENDBRANCH   1  27
TORSDOF 4
ENDMDL
MODEL 9
REMARK VINA RESULT:      -5.8      5.423      8.076
REMARK  4 active torsions:
REMARK  status: ('A' for Active; 'I' for Inactive)
REMARK    1  A    between atoms: C_3  and  C_6 
REMARK    2  A    between atoms: C_13  and  O_17 
REMARK    3  A    between atoms: O_17  and  C_18 
REMARK    4  A    between atoms: C_18  and  C_20 
ROOT
ATOM      1  C   LIG d   1       4.165  -1.853  -3.984  0.00  0.00     0.027 C 
ATOM      2  C   LIG d   1       5.209  -2.660  -4.330  0.00  0.00     0.179 A 
ATOM      3  C   LIG d   1       5.111  -3.881  -5.052  0.00  0.00     0.232 A 
ATOM      4  O   LIG d   1       4.098  -4.409  -5.480  0.00  0.00    -0.283 OA
ATOM      5  C   LIG d   1       6.496  -4.370  -5.173  0.00  0.00     0.068 A 
ATOM      6  C   LIG d   1       7.068  -5.498  -5.761  0.00  0.00    -0.044 A 
ATOM      7  C   LIG d   1       8.421  -5.681  -5.705  0.00  0.00    -0.018 A 
ATOM      8  C   LIG d   1       9.229  -4.746  -5.064  0.00  0.00     0.136 A 
ATOM      9  C   LIG d   1       8.674  -3.624  -4.471  0.00  0.00     0.024 A 
ATOM     10  C   LIG d   1       7.301  -3.420  -4.523  0.00  0.00     0.143 A 
ATOM     11  O   LIG d   1       6.512  -2.436  -4.043  0.00  0.00    -0.451 OA
ATOM     12  H   LIG d   1       3.157  -2.124  -4.261  0.00  0.00     0.069 H 
ATOM     13  H   LIG d   1       6.443  -6.225  -6.259  0.00  0.00     0.063 H 
ATOM     14  H   LIG d   1       8.865  -6.554  -6.161  0.00  0.00     0.065 H 
ATOM     15  H   LIG d   1       9.308  -2.905  -3.973  0.00  0.00     0.069 H 
ENDROOT
BRANCH   8  16
ATOM     16  O   LIG d   1      10.572  -4.938  -5.016  0.00  0.00    -0.422 OA
BRANCH  16  17
ATOM     17  C   LIG d   1      11.131  -5.212  -3.820  0.00  0.00     0.351 C 
ATOM     18  O   LIG d   1      11.853  -4.393  -3.283  0.00  0.00    -0.244 OA
BRANCH  17  19
ATOM     19  C   LIG d   1      10.869  -6.495  -3.166  0.00  0.00     0.097 A 
ATOM     20  S   LIG d   1      10.307  -6.817  -1.504  0.00  0.00    -0.090 SA
ATOM     21  C   LIG d   1      10.265  -8.549  -1.573  0.00  0.00    -0.024 A 
ATOM     22  C   LIG d   1      10.682  -8.819  -2.838  0.00  0.00    -0.054 A 
ATOM     23  H   LIG d   1       9.981  -9.244  -0.798  0.00  0.00     0.069 H 
ATOM     24  C   LIG d   1      10.999  -7.780  -3.676  0.00  0.00    -0.041 A 
ATOM     25  H   LIG d   1      10.763  -9.841  -3.180  0.00  0.00     0.062 H 
ATOM     26  H   LIG d   1      11.335  -7.953  -4.688  0.00  0.00     0.063 H 
ENDBRANCH  17  19
ENDBRANCH  16  17
ENDBRANCH   8  16
BRANCH   1  27
ATOM     27  C   LIG d   1       4.403  -0.662  -3.262  0.00  0.00     0.131 A 
ATOM     28  C   LIG d   1       4.295  -0.504  -1.893  0.00  0.00    -0.016 A 
ATOM     29  C   LIG d   1       4.621   0.832  -1.619  0.00  0.00    -0.023 A 
ATOM     30  H   LIG d   1       4.013  -1.261  -1.175  0.00  0.00     0.066 H 
ATOM     31  C   LIG d   1       4.910   1.423  -2.800  0.00  0.00     0.092 A 
ATOM     32  H   LIG d   1       4.638   1.300  -0.646  0.00  0.00     0.065 H 
ATOM     33  O   LIG d   1       4.782   0.523  -3.784  0.00  0.00    -0.463 OA
ATOM     34  H   LIG d   1       5.200   2.456  -2.929  0.00  0.00     0.103 H 
ENDBRANCH   1  27
TORSDOF 4
ENDMDL
MODEL 10
REMARK VINA RESULT:      -5.8      4.263      7.528
REMARK  4 active torsions:
REMARK  status: ('A' for Active; 'I' for Inactive)
REMARK    1  A    between atoms: C_3  and  C_6 
REMARK    2  A    between atoms: C_13  and  O_17 
REMARK    3  A    between atoms: O_17  and  C_18 
REMARK    4  A    between atoms: C_18  and  C_20 
ROOT
ATOM      1  C   LIG d   1       6.459  -0.763  -3.414  0.00  0.00     0.027 C 
ATOM      2  C   LIG d   1       6.330  -1.997  -3.981  0.00  0.00     0.179 A 
ATOM      3  C   LIG d   1       7.397  -2.886  -4.287  0.00  0.00     0.232 A 
ATOM      4  O   LIG d   1       8.589  -2.704  -4.101  0.00  0.00    -0.283 OA
ATOM      5  C   LIG d   1       6.754  -4.072  -4.878  0.00  0.00     0.068 A 
ATOM      6  C   LIG d   1       7.240  -5.279  -5.380  0.00  0.00    -0.044 A 
ATOM      7  C   LIG d   1       6.370  -6.209  -5.875  0.00  0.00    -0.018 A 
ATOM      8  C   LIG d   1       5.001  -5.956  -5.882  0.00  0.00     0.136 A 
ATOM      9  C   LIG d   1       4.505  -4.759  -5.392  0.00  0.00     0.024 A 
ATOM     10  C   LIG d   1       5.374  -3.805  -4.880  0.00  0.00     0.143 A 
ATOM     11  O   LIG d   1       5.167  -2.583  -4.347  0.00  0.00    -0.451 OA
ATOM     12  H   LIG d   1       7.438  -0.385  -3.158  0.00  0.00     0.069 H 
ATOM     13  H   LIG d   1       8.302  -5.478  -5.375  0.00  0.00     0.063 H 
ATOM     14  H   LIG d   1       6.747  -7.145  -6.264  0.00  0.00     0.065 H 
ATOM     15  H   LIG d   1       3.442  -4.569  -5.404  0.00  0.00     0.069 H 
ENDROOT
BRANCH   8  16
ATOM     16  O   LIG d   1       4.147  -6.887  -6.377  0.00  0.00    -0.422 OA
BRANCH  16  17
ATOM     17  C   LIG d   1       4.266  -7.231  -7.676  0.00  0.00     0.351 C 
ATOM     18  O   LIG d   1       4.444  -8.394  -7.983  0.00  0.00    -0.244 OA
BRANCH  17  19
ATOM     19  C   LIG d   1       4.181  -6.205  -8.715  0.00  0.00     0.097 A 
ATOM     20  S   LIG d   1       5.435  -5.653  -9.857  0.00  0.00    -0.090 SA
ATOM     21  C   LIG d   1       4.510  -4.456 -10.704  0.00  0.00    -0.024 A 
ATOM     22  C   LIG d   1       3.298  -4.511 -10.092  0.00  0.00    -0.054 A 
ATOM     23  H   LIG d   1       4.822  -3.819 -11.518  0.00  0.00     0.069 H 
ATOM     24  C   LIG d   1       3.104  -5.401  -9.066  0.00  0.00    -0.041 A 
ATOM     25  H   LIG d   1       2.496  -3.861 -10.409  0.00  0.00     0.062 H 
ATOM     26  H   LIG d   1       2.156  -5.475  -8.554  0.00  0.00     0.063 H 
ENDBRANCH  17  19
ENDBRANCH  16  17
ENDBRANCH   8  16
BRANCH   1  27
ATOM     27  C   LIG d   1       5.311   0.021  -3.162  0.00  0.00     0.131 A 
ATOM     28  C   LIG d   1       4.869   0.441  -1.923  0.00  0.00    -0.016 A 
ATOM     29  C   LIG d   1       3.703   1.189  -2.148  0.00  0.00    -0.023 A 
ATOM     30  H   LIG d   1       5.329   0.236  -0.967  0.00  0.00     0.066 H 
ATOM     31  C   LIG d   1       3.485   1.196  -3.482  0.00  0.00     0.092 A 
ATOM     32  H   LIG d   1       3.094   1.668  -1.396  0.00  0.00     0.065 H 
ATOM     33  O   LIG d   1       4.454   0.498  -4.088  0.00  0.00    -0.463 OA
ATOM     34  H   LIG d   1       2.662   1.689  -3.980  0.00  0.00     0.103 H 
ENDBRANCH   1  27
TORSDOF 4
ENDMDL
