MODEL 1
REMARK VINA RESULT:      -6.1      0.000      0.000
REMARK  4 active torsions:
REMARK  status: ('A' for Active; 'I' for Inactive)
REMARK    1  A    between atoms: C_1  and  C_2 
REMARK    2  A    between atoms: C_5  and  C_8 
REMARK       I    between atoms: C_8  and  N_10 
REMARK    3  A    between atoms: C_14  and  C_25 
REMARK    4  A    between atoms: C_24  and  N_48 
ROOT
ATOM      1  C   LIG d   1       4.573  -4.346  -5.890  0.00  0.00     0.251 C 
ATOM      2  O   LIG d   1       4.260  -4.956  -4.886  0.00  0.00    -0.270 OA
ATOM      3  N   LIG d   1       4.770  -3.014  -5.835  0.00  0.00    -0.263 N 
ATOM      4  C   LIG d   1       4.637  -2.222  -4.702  0.00  0.00     0.041 A 
ATOM      5  C   LIG d   1       4.376  -2.630  -3.390  0.00  0.00    -0.040 A 
ATOM      6  C   LIG d   1       4.320  -1.643  -2.420  0.00  0.00    -0.057 A 
ATOM      7  C   LIG d   1       4.511  -0.310  -2.721  0.00  0.00    -0.050 A 
ATOM      8  C   LIG d   1       4.766   0.108  -4.022  0.00  0.00    -0.053 A 
ATOM      9  C   LIG d   1       4.820  -0.870  -4.995  0.00  0.00    -0.016 A 
ATOM     10  C   LIG d   1       5.064  -0.731  -6.480  0.00  0.00     0.045 C 
ATOM     11  H   LIG d   1       6.013  -0.223  -6.649  0.00  0.00     0.042 H 
ATOM     12  C   LIG d   1       5.159  -2.164  -6.961  0.00  0.00     0.048 C 
ATOM     13  H   LIG d   1       6.221  -2.355  -7.116  0.00  0.00     0.051 H 
ATOM     14  C   LIG d   1       4.479  -2.535  -8.243  0.00  0.00     0.007 C 
ATOM     15  C   LIG d   1       3.247  -1.694  -8.531  0.00  0.00    -0.030 C 
ATOM     16  C   LIG d   1       3.934   0.085  -7.077  0.00  0.00    -0.023 C 
ATOM     17  H   LIG d   1       4.223  -3.671  -3.145  0.00  0.00     0.064 H 
ATOM     18  H   LIG d   1       4.121  -1.927  -1.396  0.00  0.00     0.062 H 
ATOM     19  H   LIG d   1       4.916   1.150  -4.261  0.00  0.00     0.062 H 
ATOM     20  H   LIG d   1       5.186  -2.411  -9.063  0.00  0.00     0.034 H 
ATOM     21  H   LIG d   1       4.183  -3.583  -8.192  0.00  0.00     0.034 H 
ATOM     22  H   LIG d   1       2.483  -1.903  -7.782  0.00  0.00     0.082 H 
ATOM     23  H   LIG d   1       2.863  -1.923  -9.525  0.00  0.00     0.082 H 
ATOM     24  H   LIG d   1       3.036  -0.066  -6.478  0.00  0.00     0.082 H 
ATOM     25  H   LIG d   1       4.205   1.140  -7.040  0.00  0.00     0.082 H 
ATOM     26  N   LIG d   1       3.661  -0.277  -8.470  0.00  0.00     0.234 N 
ATOM     27  H   LIG d   1       4.515  -0.151  -9.026  0.00  0.00     0.203 HD
ENDROOT
BRANCH   1  28
ATOM     28  C   LIG d   1       4.738  -5.067  -7.170  0.00  0.00     0.037 A 
ATOM     29  C   LIG d   1       6.013  -5.404  -7.626  0.00  0.00    -0.049 A 
ATOM     30  C   LIG d   1       6.160  -6.076  -8.821  0.00  0.00    -0.058 A 
ATOM     31  H   LIG d   1       6.883  -5.139  -7.043  0.00  0.00     0.062 H 
ATOM     32  C   LIG d   1       5.046  -6.416  -9.567  0.00  0.00    -0.050 A 
ATOM     33  H   LIG d   1       7.147  -6.338  -9.175  0.00  0.00     0.062 H 
ATOM     34  C   LIG d   1       3.779  -6.085  -9.122  0.00  0.00    -0.058 A 
ATOM     35  C   LIG d   1       3.618  -5.418  -7.926  0.00  0.00    -0.049 A 
ATOM     36  H   LIG d   1       2.913  -6.353  -9.709  0.00  0.00     0.062 H 
ATOM     37  H   LIG d   1       2.628  -5.164  -7.576  0.00  0.00     0.062 H 
BRANCH  32  38
ATOM     38  C   LIG d   1       5.213  -7.151 -10.873  0.00  0.00    -0.040 C 
ATOM     39  H   LIG d   1       4.904  -6.507 -11.696  0.00  0.00     0.028 H 
ATOM     40  H   LIG d   1       6.259  -7.428 -11.002  0.00  0.00     0.028 H 
ATOM     41  H   LIG d   1       4.598  -8.051 -10.864  0.00  0.00     0.028 H 
ENDBRANCH  32  38
ENDBRANCH   1  28
BRANCH  26  42
ATOM     42  C   LIG d   1       2.594   0.589  -9.021  0.00  0.00    -0.043 C 
ATOM     43  H   LIG d   1       2.498   0.399 -10.090  0.00  0.00     0.078 H 
ATOM     44  H   LIG d   1       1.652   0.356  -8.525  0.00  0.00     0.078 H 
ATOM     45  H   LIG d   1       2.841   1.638  -8.859  0.00  0.00     0.078 H 
ENDBRANCH  26  42
BRANCH   7  46
ATOM     46  C   LIG d   1       4.443   0.713  -1.617  0.00  0.00    -0.040 C 
ATOM     47  H   LIG d   1       3.455   1.175  -1.611  0.00  0.00     0.028 H 
ATOM     48  H   LIG d   1       4.621   0.226  -0.658  0.00  0.00     0.028 H 
ATOM     49  H   LIG d   1       5.201   1.478  -1.782  0.00  0.00     0.028 H 
ENDBRANCH   7  46
TORSDOF 4
ENDMDL
MODEL 2
REMARK VINA RESULT:      -6.0      2.142      6.497
REMARK  4 active torsions:
REMARK  status: ('A' for Active; 'I' for Inactive)
REMARK    1  A    between atoms: C_1  and  C_2 
REMARK    2  A    between atoms: C_5  and  C_8 
REMARK       I    between atoms: C_8  and  N_10 
REMARK    3  A    between atoms: C_14  and  C_25 
REMARK    4  A    between atoms: C_24  and  N_48 
ROOT
ATOM      1  C   LIG d   1       6.994  -2.871  -3.932  0.00  0.00     0.251 C 
ATOM      2  O   LIG d   1       8.167  -2.983  -3.633  0.00  0.00    -0.270 OA
ATOM      3  N   LIG d   1       6.413  -3.785  -4.734  0.00  0.00    -0.263 N 
ATOM      4  C   LIG d   1       7.043  -4.890  -5.291  0.00  0.00     0.041 A 
ATOM      5  C   LIG d   1       8.349  -5.339  -5.072  0.00  0.00    -0.040 A 
ATOM      6  C   LIG d   1       8.738  -6.497  -5.728  0.00  0.00    -0.057 A 
ATOM      7  C   LIG d   1       7.884  -7.185  -6.565  0.00  0.00    -0.050 A 
ATOM      8  C   LIG d   1       6.585  -6.744  -6.795  0.00  0.00    -0.053 A 
ATOM      9  C   LIG d   1       6.192  -5.590  -6.148  0.00  0.00    -0.016 A 
ATOM     10  C   LIG d   1       4.867  -4.865  -6.203  0.00  0.00     0.045 C 
ATOM     11  H   LIG d   1       4.065  -5.545  -5.913  0.00  0.00     0.042 H 
ATOM     12  C   LIG d   1       5.013  -3.775  -5.161  0.00  0.00     0.048 C 
ATOM     13  H   LIG d   1       4.443  -4.113  -4.296  0.00  0.00     0.051 H 
ATOM     14  C   LIG d   1       4.504  -2.404  -5.485  0.00  0.00     0.007 C 
ATOM     15  C   LIG d   1       4.559  -2.081  -6.968  0.00  0.00    -0.030 C 
ATOM     16  C   LIG d   1       4.642  -4.386  -7.624  0.00  0.00    -0.023 C 
ATOM     17  H   LIG d   1       9.025  -4.807  -4.421  0.00  0.00     0.064 H 
ATOM     18  H   LIG d   1       9.741  -6.871  -5.578  0.00  0.00     0.062 H 
ATOM     19  H   LIG d   1       5.915  -7.280  -7.449  0.00  0.00     0.062 H 
ATOM     20  H   LIG d   1       3.470  -2.326  -5.149  0.00  0.00     0.034 H 
ATOM     21  H   LIG d   1       5.104  -1.671  -4.945  0.00  0.00     0.034 H 
ATOM     22  H   LIG d   1       5.600  -2.035  -7.290  0.00  0.00     0.082 H 
ATOM     23  H   LIG d   1       4.070  -1.125  -7.160  0.00  0.00     0.082 H 
ATOM     24  H   LIG d   1       5.610  -4.211  -8.093  0.00  0.00     0.082 H 
ATOM     25  H   LIG d   1       4.119  -5.165  -8.179  0.00  0.00     0.082 H 
ATOM     26  N   LIG d   1       3.842  -3.160  -7.678  0.00  0.00     0.234 N 
ATOM     27  H   LIG d   1       2.939  -3.324  -7.217  0.00  0.00     0.203 HD
ENDROOT
BRANCH   1  28
ATOM     28  C   LIG d   1       6.206  -1.731  -3.416  0.00  0.00     0.037 A 
ATOM     29  C   LIG d   1       6.519  -0.428  -3.807  0.00  0.00    -0.049 A 
ATOM     30  C   LIG d   1       5.779   0.630  -3.322  0.00  0.00    -0.058 A 
ATOM     31  H   LIG d   1       7.338  -0.250  -4.488  0.00  0.00     0.062 H 
ATOM     32  C   LIG d   1       4.730   0.402  -2.450  0.00  0.00    -0.050 A 
ATOM     33  H   LIG d   1       6.021   1.639  -3.624  0.00  0.00     0.062 H 
ATOM     34  C   LIG d   1       4.414  -0.887  -2.059  0.00  0.00    -0.058 A 
ATOM     35  C   LIG d   1       5.142  -1.955  -2.541  0.00  0.00    -0.049 A 
ATOM     36  H   LIG d   1       3.594  -1.058  -1.378  0.00  0.00     0.062 H 
ATOM     37  H   LIG d   1       4.892  -2.961  -2.238  0.00  0.00     0.062 H 
BRANCH  32  38
ATOM     38  C   LIG d   1       3.926   1.563  -1.924  0.00  0.00    -0.040 C 
ATOM     39  H   LIG d   1       4.296   2.490  -2.362  0.00  0.00     0.028 H 
ATOM     40  H   LIG d   1       2.877   1.430  -2.189  0.00  0.00     0.028 H 
ATOM     41  H   LIG d   1       4.023   1.610  -0.839  0.00  0.00     0.028 H 
ENDBRANCH  32  38
ENDBRANCH   1  28
BRANCH  26  42
ATOM     42  C   LIG d   1       3.601  -2.771  -9.086  0.00  0.00    -0.043 C 
ATOM     43  H   LIG d   1       3.478  -1.689  -9.141  0.00  0.00     0.078 H 
ATOM     44  H   LIG d   1       4.457  -3.071  -9.691  0.00  0.00     0.078 H 
ATOM     45  H   LIG d   1       2.702  -3.259  -9.461  0.00  0.00     0.078 H 
ENDBRANCH  26  42
BRANCH   7  46
ATOM     46  C   LIG d   1       8.368  -8.440  -7.243  0.00  0.00    -0.040 C 
ATOM     47  H   LIG d   1       7.517  -9.086  -7.462  0.00  0.00     0.028 H 
ATOM     48  H   LIG d   1       8.873  -8.180  -8.173  0.00  0.00     0.028 H 
ATOM     49  H   LIG d   1       9.062  -8.964  -6.586  0.00  0.00     0.028 H 
ENDBRANCH   7  46
TORSDOF 4
ENDMDL
MODEL 3
REMARK VINA RESULT:      -5.9      3.291      4.487
REMARK  4 active torsions:
REMARK  status: ('A' for Active; 'I' for Inactive)
REMARK    1  A    between atoms: C_1  and  C_2 
REMARK    2  A    between atoms: C_5  and  C_8 
REMARK       I    between atoms: C_8  and  N_10 
REMARK    3  A    between atoms: C_14  and  C_25 
REMARK    4  A    between atoms: C_24  and  N_48 
ROOT
ATOM      1  C   LIG d   1       3.330  -0.270  -8.087  0.00  0.00     0.251 C 
ATOM      2  O   LIG d   1       2.195  -0.069  -7.704  0.00  0.00    -0.270 OA
ATOM      3  N   LIG d   1       4.332  -0.389  -7.194  0.00  0.00    -0.263 N 
ATOM      4  C   LIG d   1       4.203  -0.291  -5.815  0.00  0.00     0.041 A 
ATOM      5  C   LIG d   1       3.030  -0.151  -5.067  0.00  0.00    -0.040 A 
ATOM      6  C   LIG d   1       3.160  -0.106  -3.688  0.00  0.00    -0.057 A 
ATOM      7  C   LIG d   1       4.389  -0.193  -3.066  0.00  0.00    -0.050 A 
ATOM      8  C   LIG d   1       5.562  -0.327  -3.800  0.00  0.00    -0.053 A 
ATOM      9  C   LIG d   1       5.440  -0.368  -5.175  0.00  0.00    -0.016 A 
ATOM     10  C   LIG d   1       6.516  -0.495  -6.228  0.00  0.00     0.045 C 
ATOM     11  H   LIG d   1       7.102  -1.396  -6.048  0.00  0.00     0.042 H 
ATOM     12  C   LIG d   1       5.737  -0.642  -7.519  0.00  0.00     0.048 C 
ATOM     13  H   LIG d   1       5.789  -1.699  -7.778  0.00  0.00     0.051 H 
ATOM     14  C   LIG d   1       6.207   0.106  -8.728  0.00  0.00     0.007 C 
ATOM     15  C   LIG d   1       6.918   1.405  -8.388  0.00  0.00    -0.030 C 
ATOM     16  C   LIG d   1       7.416   0.724  -6.144  0.00  0.00    -0.023 C 
ATOM     17  H   LIG d   1       2.063  -0.081  -5.543  0.00  0.00     0.064 H 
ATOM     18  H   LIG d   1       2.272  -0.000  -3.082  0.00  0.00     0.062 H 
ATOM     19  H   LIG d   1       6.525  -0.395  -3.317  0.00  0.00     0.062 H 
ATOM     20  H   LIG d   1       6.891  -0.530  -9.289  0.00  0.00     0.034 H 
ATOM     21  H   LIG d   1       5.346   0.333  -9.357  0.00  0.00     0.034 H 
ATOM     22  H   LIG d   1       6.209   2.098  -7.935  0.00  0.00     0.082 H 
ATOM     23  H   LIG d   1       7.342   1.846  -9.291  0.00  0.00     0.082 H 
ATOM     24  H   LIG d   1       6.834   1.564  -5.766  0.00  0.00     0.082 H 
ATOM     25  H   LIG d   1       8.224   0.515  -5.443  0.00  0.00     0.082 H 
ATOM     26  N   LIG d   1       8.001   1.075  -7.439  0.00  0.00     0.234 N 
ATOM     27  H   LIG d   1       8.532   0.273  -7.799  0.00  0.00     0.203 HD
ENDROOT
BRANCH   1  28
ATOM     28  C   LIG d   1       3.612  -0.384  -9.534  0.00  0.00     0.037 A 
ATOM     29  C   LIG d   1       3.794  -1.640 -10.116  0.00  0.00    -0.049 A 
ATOM     30  C   LIG d   1       4.056  -1.739 -11.466  0.00  0.00    -0.058 A 
ATOM     31  H   LIG d   1       3.730  -2.531  -9.510  0.00  0.00     0.062 H 
ATOM     32  C   LIG d   1       4.138  -0.598 -12.244  0.00  0.00    -0.050 A 
ATOM     33  H   LIG d   1       4.197  -2.711 -11.918  0.00  0.00     0.062 H 
ATOM     34  C   LIG d   1       3.958   0.649 -11.674  0.00  0.00    -0.058 A 
ATOM     35  C   LIG d   1       3.690   0.763 -10.326  0.00  0.00    -0.049 A 
ATOM     36  H   LIG d   1       4.024   1.537 -12.286  0.00  0.00     0.062 H 
ATOM     37  H   LIG d   1       3.545   1.737  -9.883  0.00  0.00     0.062 H 
BRANCH  32  38
ATOM     38  C   LIG d   1       4.424  -0.714 -13.719  0.00  0.00    -0.040 C 
ATOM     39  H   LIG d   1       4.357   0.270 -14.182  0.00  0.00     0.028 H 
ATOM     40  H   LIG d   1       5.426  -1.116 -13.865  0.00  0.00     0.028 H 
ATOM     41  H   LIG d   1       3.695  -1.382 -14.179  0.00  0.00     0.028 H 
ENDBRANCH  32  38
ENDBRANCH   1  28
BRANCH  26  42
ATOM     42  C   LIG d   1       8.915   2.230  -7.288  0.00  0.00    -0.043 C 
ATOM     43  H   LIG d   1       8.567   3.046  -7.921  0.00  0.00     0.078 H 
ATOM     44  H   LIG d   1       8.915   2.553  -6.246  0.00  0.00     0.078 H 
ATOM     45  H   LIG d   1       9.927   1.948  -7.581  0.00  0.00     0.078 H 
ENDBRANCH  26  42
BRANCH   7  46
ATOM     46  C   LIG d   1       4.461  -0.144  -1.563  0.00  0.00    -0.040 C 
ATOM     47  H   LIG d   1       4.017   0.788  -1.209  0.00  0.00     0.028 H 
ATOM     48  H   LIG d   1       3.912  -0.988  -1.144  0.00  0.00     0.028 H 
ATOM     49  H   LIG d   1       5.502  -0.194  -1.246  0.00  0.00     0.028 H 
ENDBRANCH   7  46
TORSDOF 4
ENDMDL
MODEL 4
REMARK VINA RESULT:      -5.9      3.039      5.370
REMARK  4 active torsions:
REMARK  status: ('A' for Active; 'I' for Inactive)
REMARK    1  A    between atoms: C_1  and  C_2 
REMARK    2  A    between atoms: C_5  and  C_8 
REMARK       I    between atoms: C_8  and  N_10 
REMARK    3  A    between atoms: C_14  and  C_25 
REMARK    4  A    between atoms: C_24  and  N_48 
ROOT
ATOM      1  C   LIG d   1       7.134  -2.226  -6.527  0.00  0.00     0.251 C 
ATOM      2  O   LIG d   1       7.697  -1.922  -7.560  0.00  0.00    -0.270 OA
ATOM      3  N   LIG d   1       5.926  -1.701  -6.238  0.00  0.00    -0.263 N 
ATOM      4  C   LIG d   1       5.227  -0.798  -7.027  0.00  0.00     0.041 A 
ATOM      5  C   LIG d   1       5.562  -0.325  -8.299  0.00  0.00    -0.040 A 
ATOM      6  C   LIG d   1       4.677   0.556  -8.900  0.00  0.00    -0.057 A 
ATOM      7  C   LIG d   1       3.512   0.960  -8.279  0.00  0.00    -0.050 A 
ATOM      8  C   LIG d   1       3.172   0.500  -7.012  0.00  0.00    -0.053 A 
ATOM      9  C   LIG d   1       4.051  -0.376  -6.406  0.00  0.00    -0.016 A 
ATOM     10  C   LIG d   1       3.965  -1.031  -5.047  0.00  0.00     0.045 C 
ATOM     11  H   LIG d   1       3.033  -1.590  -4.968  0.00  0.00     0.042 H 
ATOM     12  C   LIG d   1       5.138  -1.990  -5.039  0.00  0.00     0.048 C 
ATOM     13  H   LIG d   1       4.713  -2.979  -5.202  0.00  0.00     0.051 H 
ATOM     14  C   LIG d   1       5.968  -2.094  -3.797  0.00  0.00     0.007 C 
ATOM     15  C   LIG d   1       6.007  -0.805  -2.994  0.00  0.00    -0.030 C 
ATOM     16  C   LIG d   1       4.002   0.055  -3.988  0.00  0.00    -0.023 C 
ATOM     17  H   LIG d   1       6.472  -0.632  -8.793  0.00  0.00     0.064 H 
ATOM     18  H   LIG d   1       4.907   0.939  -9.884  0.00  0.00     0.062 H 
ATOM     19  H   LIG d   1       2.261   0.814  -6.524  0.00  0.00     0.062 H 
ATOM     20  H   LIG d   1       5.560  -2.884  -3.168  0.00  0.00     0.034 H 
ATOM     21  H   LIG d   1       6.987  -2.362  -4.078  0.00  0.00     0.034 H 
ATOM     22  H   LIG d   1       6.525  -0.036  -3.568  0.00  0.00     0.082 H 
ATOM     23  H   LIG d   1       6.522  -0.970  -2.047  0.00  0.00     0.082 H 
ATOM     24  H   LIG d   1       4.564   0.904  -4.375  0.00  0.00     0.082 H 
ATOM     25  H   LIG d   1       2.981   0.377  -3.781  0.00  0.00     0.082 H 
ATOM     26  N   LIG d   1       4.607  -0.407  -2.738  0.00  0.00     0.234 N 
ATOM     27  H   LIG d   1       4.085  -1.219  -2.388  0.00  0.00     0.203 HD
ENDROOT
BRANCH   1  28
ATOM     28  C   LIG d   1       7.773  -3.172  -5.588  0.00  0.00     0.037 A 
ATOM     29  C   LIG d   1       7.410  -4.519  -5.593  0.00  0.00    -0.049 A 
ATOM     30  C   LIG d   1       8.011  -5.396  -4.715  0.00  0.00    -0.058 A 
ATOM     31  H   LIG d   1       6.660  -4.874  -6.284  0.00  0.00     0.062 H 
ATOM     32  C   LIG d   1       8.972  -4.942  -3.829  0.00  0.00    -0.050 A 
ATOM     33  H   LIG d   1       7.730  -6.440  -4.718  0.00  0.00     0.062 H 
ATOM     34  C   LIG d   1       9.337  -3.608  -3.818  0.00  0.00    -0.058 A 
ATOM     35  C   LIG d   1       8.748  -2.722  -4.695  0.00  0.00    -0.049 A 
ATOM     36  H   LIG d   1      10.088  -3.260  -3.124  0.00  0.00     0.062 H 
ATOM     37  H   LIG d   1       9.037  -1.681  -4.689  0.00  0.00     0.062 H 
BRANCH  32  38
ATOM     38  C   LIG d   1       9.625  -5.906  -2.872  0.00  0.00    -0.040 C 
ATOM     39  H   LIG d   1       9.825  -6.848  -3.383  0.00  0.00     0.028 H 
ATOM     40  H   LIG d   1      10.562  -5.483  -2.512  0.00  0.00     0.028 H 
ATOM     41  H   LIG d   1       8.959  -6.086  -2.027  0.00  0.00     0.028 H 
ENDBRANCH  32  38
ENDBRANCH   1  28
BRANCH  26  42
ATOM     42  C   LIG d   1       4.562   0.670  -1.722  0.00  0.00    -0.043 C 
ATOM     43  H   LIG d   1       4.536   0.222  -0.729  0.00  0.00     0.078 H 
ATOM     44  H   LIG d   1       5.454   1.290  -1.818  0.00  0.00     0.078 H 
ATOM     45  H   LIG d   1       3.674   1.285  -1.867  0.00  0.00     0.078 H 
ENDBRANCH  26  42
BRANCH   7  46
ATOM     46  C   LIG d   1       2.590   1.916  -8.990  0.00  0.00    -0.040 C 
ATOM     47  H   LIG d   1       2.309   1.497  -9.957  0.00  0.00     0.028 H 
ATOM     48  H   LIG d   1       1.695   2.073  -8.389  0.00  0.00     0.028 H 
ATOM     49  H   LIG d   1       3.099   2.868  -9.140  0.00  0.00     0.028 H 
ENDBRANCH   7  46
TORSDOF 4
ENDMDL
MODEL 5
REMARK VINA RESULT:      -5.9      2.832      4.539
REMARK  4 active torsions:
REMARK  status: ('A' for Active; 'I' for Inactive)
REMARK    1  A    between atoms: C_1  and  C_2 
REMARK    2  A    between atoms: C_5  and  C_8 
REMARK       I    between atoms: C_8  and  N_10 
REMARK    3  A    between atoms: C_14  and  C_25 
REMARK    4  A    between atoms: C_24  and  N_48 
ROOT
ATOM      1  C   LIG d   1       3.120   0.051  -8.148  0.00  0.00     0.251 C 
ATOM      2  O   LIG d   1       2.622   1.095  -7.775  0.00  0.00    -0.270 OA
ATOM      3  N   LIG d   1       3.698  -0.777  -7.256  0.00  0.00    -0.263 N 
ATOM      4  C   LIG d   1       3.801  -0.550  -5.890  0.00  0.00     0.041 A 
ATOM      5  C   LIG d   1       3.259   0.504  -5.148  0.00  0.00    -0.040 A 
ATOM      6  C   LIG d   1       3.477   0.492  -3.779  0.00  0.00    -0.057 A 
ATOM      7  C   LIG d   1       4.198  -0.510  -3.163  0.00  0.00    -0.050 A 
ATOM      8  C   LIG d   1       4.746  -1.560  -3.891  0.00  0.00    -0.053 A 
ATOM      9  C   LIG d   1       4.536  -1.553  -5.256  0.00  0.00    -0.016 A 
ATOM     10  C   LIG d   1       5.007  -2.535  -6.303  0.00  0.00     0.045 C 
ATOM     11  H   LIG d   1       4.659  -3.536  -6.048  0.00  0.00     0.042 H 
ATOM     12  C   LIG d   1       4.322  -2.064  -7.568  0.00  0.00     0.048 C 
ATOM     13  H   LIG d   1       3.496  -2.754  -7.734  0.00  0.00     0.051 H 
ATOM     14  C   LIG d   1       5.109  -2.044  -8.843  0.00  0.00     0.007 C 
ATOM     15  C   LIG d   1       6.594  -1.812  -8.625  0.00  0.00    -0.030 C 
ATOM     16  C   LIG d   1       6.523  -2.513  -6.333  0.00  0.00    -0.023 C 
ATOM     17  H   LIG d   1       2.695   1.294  -5.621  0.00  0.00     0.064 H 
ATOM     18  H   LIG d   1       3.070   1.292  -3.178  0.00  0.00     0.062 H 
ATOM     19  H   LIG d   1       5.311  -2.345  -3.412  0.00  0.00     0.062 H 
ATOM     20  H   LIG d   1       4.976  -2.999  -9.351  0.00  0.00     0.034 H 
ATOM     21  H   LIG d   1       4.721  -1.251  -9.482  0.00  0.00     0.034 H 
ATOM     22  H   LIG d   1       6.750  -0.808  -8.229  0.00  0.00     0.082 H 
ATOM     23  H   LIG d   1       7.132  -1.926  -9.566  0.00  0.00     0.082 H 
ATOM     24  H   LIG d   1       6.866  -1.526  -6.026  0.00  0.00     0.082 H 
ATOM     25  H   LIG d   1       6.899  -3.250  -5.623  0.00  0.00     0.082 H 
ATOM     26  N   LIG d   1       7.059  -2.829  -7.659  0.00  0.00     0.234 N 
ATOM     27  H   LIG d   1       6.717  -3.752  -7.951  0.00  0.00     0.203 HD
ENDROOT
BRANCH   1  28
ATOM     28  C   LIG d   1       3.090  -0.310  -9.582  0.00  0.00     0.037 A 
ATOM     29  C   LIG d   1       2.161  -1.239 -10.052  0.00  0.00    -0.049 A 
ATOM     30  C   LIG d   1       2.138  -1.571 -11.390  0.00  0.00    -0.058 A 
ATOM     31  H   LIG d   1       1.460  -1.696  -9.369  0.00  0.00     0.062 H 
ATOM     32  C   LIG d   1       3.035  -0.985 -12.266  0.00  0.00    -0.050 A 
ATOM     33  H   LIG d   1       1.419  -2.290 -11.756  0.00  0.00     0.062 H 
ATOM     34  C   LIG d   1       3.959  -0.064 -11.807  0.00  0.00    -0.058 A 
ATOM     35  C   LIG d   1       3.989   0.281 -10.472  0.00  0.00    -0.049 A 
ATOM     36  H   LIG d   1       4.657   0.389 -12.496  0.00  0.00     0.062 H 
ATOM     37  H   LIG d   1       4.707   1.004 -10.115  0.00  0.00     0.062 H 
BRANCH  32  38
ATOM     38  C   LIG d   1       3.005  -1.353 -13.728  0.00  0.00    -0.040 C 
ATOM     39  H   LIG d   1       2.104  -0.945 -14.187  0.00  0.00     0.028 H 
ATOM     40  H   LIG d   1       3.883  -0.941 -14.224  0.00  0.00     0.028 H 
ATOM     41  H   LIG d   1       3.005  -2.438 -13.829  0.00  0.00     0.028 H 
ENDBRANCH  32  38
ENDBRANCH   1  28
BRANCH  26  42
ATOM     42  C   LIG d   1       8.538  -2.854  -7.618  0.00  0.00    -0.043 C 
ATOM     43  H   LIG d   1       8.872  -3.869  -7.402  0.00  0.00     0.078 H 
ATOM     44  H   LIG d   1       8.928  -2.542  -8.587  0.00  0.00     0.078 H 
ATOM     45  H   LIG d   1       8.904  -2.179  -6.844  0.00  0.00     0.078 H 
ENDBRANCH  26  42
BRANCH   7  46
ATOM     46  C   LIG d   1       4.393  -0.467  -1.670  0.00  0.00    -0.040 C 
ATOM     47  H   LIG d   1       4.905  -1.374  -1.344  0.00  0.00     0.028 H 
ATOM     48  H   LIG d   1       4.996   0.403  -1.406  0.00  0.00     0.028 H 
ATOM     49  H   LIG d   1       3.424  -0.400  -1.177  0.00  0.00     0.028 H 
ENDBRANCH   7  46
TORSDOF 4
ENDMDL
MODEL 6
REMARK VINA RESULT:      -5.9      2.670      2.989
REMARK  4 active torsions:
REMARK  status: ('A' for Active; 'I' for Inactive)
REMARK    1  A    between atoms: C_1  and  C_2 
REMARK    2  A    between atoms: C_5  and  C_8 
REMARK       I    between atoms: C_8  and  N_10 
REMARK    3  A    between atoms: C_14  and  C_25 
REMARK    4  A    between atoms: C_24  and  N_48 
ROOT
ATOM      1  C   LIG d   1       5.388  -4.585  -5.216  0.00  0.00     0.251 C 
ATOM      2  O   LIG d   1       4.230  -4.761  -4.888  0.00  0.00    -0.270 OA
ATOM      3  N   LIG d   1       6.048  -3.488  -4.794  0.00  0.00    -0.263 N 
ATOM      4  C   LIG d   1       5.519  -2.483  -3.996  0.00  0.00     0.041 A 
ATOM      5  C   LIG d   1       4.260  -2.435  -3.390  0.00  0.00    -0.040 A 
ATOM      6  C   LIG d   1       3.976  -1.328  -2.607  0.00  0.00    -0.057 A 
ATOM      7  C   LIG d   1       4.887  -0.307  -2.425  0.00  0.00    -0.050 A 
ATOM      8  C   LIG d   1       6.140  -0.342  -3.027  0.00  0.00    -0.053 A 
ATOM      9  C   LIG d   1       6.429  -1.440  -3.811  0.00  0.00    -0.016 A 
ATOM     10  C   LIG d   1       7.682  -1.755  -4.594  0.00  0.00     0.045 C 
ATOM     11  H   LIG d   1       8.543  -1.751  -3.924  0.00  0.00     0.042 H 
ATOM     12  C   LIG d   1       7.440  -3.161  -5.104  0.00  0.00     0.048 C 
ATOM     13  H   LIG d   1       8.040  -3.814  -4.471  0.00  0.00     0.051 H 
ATOM     14  C   LIG d   1       7.823  -3.485  -6.515  0.00  0.00     0.007 C 
ATOM     15  C   LIG d   1       7.736  -2.288  -7.448  0.00  0.00    -0.030 C 
ATOM     16  C   LIG d   1       7.861  -0.694  -5.662  0.00  0.00    -0.023 C 
ATOM     17  H   LIG d   1       3.539  -3.227  -3.527  0.00  0.00     0.064 H 
ATOM     18  H   LIG d   1       3.011  -1.262  -2.124  0.00  0.00     0.062 H 
ATOM     19  H   LIG d   1       6.855   0.455  -2.887  0.00  0.00     0.062 H 
ATOM     20  H   LIG d   1       8.845  -3.860  -6.524  0.00  0.00     0.034 H 
ATOM     21  H   LIG d   1       7.160  -4.266  -6.888  0.00  0.00     0.034 H 
ATOM     22  H   LIG d   1       6.695  -1.979  -7.544  0.00  0.00     0.082 H 
ATOM     23  H   LIG d   1       8.136  -2.549  -8.428  0.00  0.00     0.082 H 
ATOM     24  H   LIG d   1       6.880  -0.310  -5.943  0.00  0.00     0.082 H 
ATOM     25  H   LIG d   1       8.450   0.125  -5.248  0.00  0.00     0.082 H 
ATOM     26  N   LIG d   1       8.546  -1.207  -6.849  0.00  0.00     0.234 N 
ATOM     27  H   LIG d   1       9.461  -1.585  -6.575  0.00  0.00     0.203 HD
ENDROOT
BRANCH   1  28
ATOM     28  C   LIG d   1       6.071  -5.574  -6.077  0.00  0.00     0.037 A 
ATOM     29  C   LIG d   1       6.961  -6.492  -5.519  0.00  0.00    -0.049 A 
ATOM     30  C   LIG d   1       7.594  -7.413  -6.328  0.00  0.00    -0.058 A 
ATOM     31  H   LIG d   1       7.153  -6.482  -4.457  0.00  0.00     0.062 H 
ATOM     32  C   LIG d   1       7.348  -7.426  -7.689  0.00  0.00    -0.050 A 
ATOM     33  H   LIG d   1       8.284  -8.124  -5.897  0.00  0.00     0.062 H 
ATOM     34  C   LIG d   1       6.467  -6.519  -8.249  0.00  0.00    -0.058 A 
ATOM     35  C   LIG d   1       5.823  -5.597  -7.450  0.00  0.00    -0.049 A 
ATOM     36  H   LIG d   1       6.279  -6.535  -9.312  0.00  0.00     0.062 H 
ATOM     37  H   LIG d   1       5.131  -4.892  -7.888  0.00  0.00     0.062 H 
BRANCH  32  38
ATOM     38  C   LIG d   1       8.044  -8.435  -8.567  0.00  0.00    -0.040 C 
ATOM     39  H   LIG d   1       7.313  -9.144  -8.956  0.00  0.00     0.028 H 
ATOM     40  H   LIG d   1       8.529  -7.922  -9.397  0.00  0.00     0.028 H 
ATOM     41  H   LIG d   1       8.793  -8.969  -7.982  0.00  0.00     0.028 H 
ENDBRANCH  32  38
ENDBRANCH   1  28
BRANCH  26  42
ATOM     42  C   LIG d   1       8.749  -0.118  -7.832  0.00  0.00    -0.043 C 
ATOM     43  H   LIG d   1       9.747   0.299  -7.700  0.00  0.00     0.078 H 
ATOM     44  H   LIG d   1       8.654  -0.524  -8.840  0.00  0.00     0.078 H 
ATOM     45  H   LIG d   1       8.004   0.664  -7.683  0.00  0.00     0.078 H 
ENDBRANCH  26  42
BRANCH   7  46
ATOM     46  C   LIG d   1       4.517   0.866  -1.556  0.00  0.00    -0.040 C 
ATOM     47  H   LIG d   1       4.108   1.664  -2.178  0.00  0.00     0.028 H 
ATOM     48  H   LIG d   1       3.770   0.557  -0.825  0.00  0.00     0.028 H 
ATOM     49  H   LIG d   1       5.404   1.229  -1.038  0.00  0.00     0.028 H 
ENDBRANCH   7  46
TORSDOF 4
ENDMDL
MODEL 7
REMARK VINA RESULT:      -5.6      1.355      6.241
REMARK  4 active torsions:
REMARK  status: ('A' for Active; 'I' for Inactive)
REMARK    1  A    between atoms: C_1  and  C_2 
REMARK    2  A    between atoms: C_5  and  C_8 
REMARK       I    between atoms: C_8  and  N_10 
REMARK    3  A    between atoms: C_14  and  C_25 
REMARK    4  A    between atoms: C_24  and  N_48 
ROOT
ATOM      1  C   LIG d   1       6.181  -3.383  -4.911  0.00  0.00     0.251 C 
ATOM      2  O   LIG d   1       7.102  -4.098  -4.566  0.00  0.00    -0.270 OA
ATOM      3  N   LIG d   1       5.552  -3.613  -6.081  0.00  0.00    -0.263 N 
ATOM      4  C   LIG d   1       5.865  -4.620  -6.984  0.00  0.00     0.041 A 
ATOM      5  C   LIG d   1       6.804  -5.646  -6.840  0.00  0.00    -0.040 A 
ATOM      6  C   LIG d   1       6.911  -6.557  -7.879  0.00  0.00    -0.057 A 
ATOM      7  C   LIG d   1       6.131  -6.466  -9.013  0.00  0.00    -0.050 A 
ATOM      8  C   LIG d   1       5.198  -5.448  -9.170  0.00  0.00    -0.053 A 
ATOM      9  C   LIG d   1       5.089  -4.534  -8.140  0.00  0.00    -0.016 A 
ATOM     10  C   LIG d   1       4.187  -3.327  -8.022  0.00  0.00     0.045 C 
ATOM     11  H   LIG d   1       3.147  -3.634  -8.134  0.00  0.00     0.042 H 
ATOM     12  C   LIG d   1       4.427  -2.840  -6.608  0.00  0.00     0.048 C 
ATOM     13  H   LIG d   1       3.559  -3.161  -6.033  0.00  0.00     0.051 H 
ATOM     14  C   LIG d   1       4.560  -1.367  -6.372  0.00  0.00     0.007 C 
ATOM     15  C   LIG d   1       5.134  -0.621  -7.564  0.00  0.00    -0.030 C 
ATOM     16  C   LIG d   1       4.551  -2.348  -9.121  0.00  0.00    -0.023 C 
ATOM     17  H   LIG d   1       7.421  -5.725  -5.957  0.00  0.00     0.064 H 
ATOM     18  H   LIG d   1       7.627  -7.362  -7.797  0.00  0.00     0.062 H 
ATOM     19  H   LIG d   1       4.587  -5.374 -10.057  0.00  0.00     0.062 H 
ATOM     20  H   LIG d   1       3.576  -0.958  -6.146  0.00  0.00     0.034 H 
ATOM     21  H   LIG d   1       5.211  -1.207  -5.513  0.00  0.00     0.034 H 
ATOM     22  H   LIG d   1       6.166  -0.934  -7.725  0.00  0.00     0.082 H 
ATOM     23  H   LIG d   1       5.098   0.455  -7.384  0.00  0.00     0.082 H 
ATOM     24  H   LIG d   1       5.605  -2.473  -9.368  0.00  0.00     0.082 H 
ATOM     25  H   LIG d   1       3.956  -2.575 -10.006  0.00  0.00     0.082 H 
ATOM     26  N   LIG d   1       4.299  -0.958  -8.735  0.00  0.00     0.234 N 
ATOM     27  H   LIG d   1       3.309  -0.851  -8.485  0.00  0.00     0.203 HD
ENDROOT
BRANCH   1  28
ATOM     28  C   LIG d   1       5.751  -2.264  -4.047  0.00  0.00     0.037 A 
ATOM     29  C   LIG d   1       4.589  -2.375  -3.281  0.00  0.00    -0.049 A 
ATOM     30  C   LIG d   1       4.194  -1.327  -2.477  0.00  0.00    -0.058 A 
ATOM     31  H   LIG d   1       4.002  -3.280  -3.318  0.00  0.00     0.062 H 
ATOM     32  C   LIG d   1       4.946  -0.166  -2.429  0.00  0.00    -0.050 A 
ATOM     33  H   LIG d   1       3.294  -1.411  -1.884  0.00  0.00     0.062 H 
ATOM     34  C   LIG d   1       6.098  -0.049  -3.185  0.00  0.00    -0.058 A 
ATOM     35  C   LIG d   1       6.508  -1.092  -3.989  0.00  0.00    -0.049 A 
ATOM     36  H   LIG d   1       6.681   0.859  -3.143  0.00  0.00     0.062 H 
ATOM     37  H   LIG d   1       7.410  -1.002  -4.576  0.00  0.00     0.062 H 
BRANCH  32  38
ATOM     38  C   LIG d   1       4.508   0.976  -1.548  0.00  0.00    -0.040 C 
ATOM     39  H   LIG d   1       5.202   1.078  -0.713  0.00  0.00     0.028 H 
ATOM     40  H   LIG d   1       4.498   1.898  -2.127  0.00  0.00     0.028 H 
ATOM     41  H   LIG d   1       3.507   0.775  -1.165  0.00  0.00     0.028 H 
ENDBRANCH  32  38
ENDBRANCH   1  28
BRANCH  26  42
ATOM     42  C   LIG d   1       4.613  -0.051  -9.863  0.00  0.00    -0.043 C 
ATOM     43  H   LIG d   1       3.683   0.262 -10.338  0.00  0.00     0.078 H 
ATOM     44  H   LIG d   1       5.139   0.825  -9.481  0.00  0.00     0.078 H 
ATOM     45  H   LIG d   1       5.240  -0.563 -10.592  0.00  0.00     0.078 H 
ENDBRANCH  26  42
BRANCH   7  46
ATOM     46  C   LIG d   1       6.293  -7.493 -10.104  0.00  0.00    -0.040 C 
ATOM     47  H   LIG d   1       5.646  -7.236 -10.943  0.00  0.00     0.028 H 
ATOM     48  H   LIG d   1       7.331  -7.508 -10.438  0.00  0.00     0.028 H 
ATOM     49  H   LIG d   1       6.020  -8.476  -9.722  0.00  0.00     0.028 H 
ENDBRANCH   7  46
TORSDOF 4
ENDMDL
MODEL 8
REMARK VINA RESULT:      -5.6      2.613      7.110
REMARK  4 active torsions:
REMARK  status: ('A' for Active; 'I' for Inactive)
REMARK    1  A    between atoms: C_1  and  C_2 
REMARK    2  A    between atoms: C_5  and  C_8 
REMARK       I    between atoms: C_8  and  N_10 
REMARK    3  A    between atoms: C_14  and  C_25 
REMARK    4  A    between atoms: C_24  and  N_48 
ROOT
ATOM      1  C   LIG d   1       4.900  -3.675  -5.174  0.00  0.00     0.251 C 
ATOM      2  O   LIG d   1       3.991  -4.453  -5.390  0.00  0.00    -0.270 OA
ATOM      3  N   LIG d   1       6.125  -3.912  -5.684  0.00  0.00    -0.263 N 
ATOM      4  C   LIG d   1       6.481  -5.008  -6.458  0.00  0.00     0.041 A 
ATOM      5  C   LIG d   1       5.653  -6.024  -6.947  0.00  0.00    -0.040 A 
ATOM      6  C   LIG d   1       6.246  -7.001  -7.731  0.00  0.00    -0.057 A 
ATOM      7  C   LIG d   1       7.595  -6.986  -8.022  0.00  0.00    -0.050 A 
ATOM      8  C   LIG d   1       8.428  -5.985  -7.537  0.00  0.00    -0.053 A 
ATOM      9  C   LIG d   1       7.845  -5.009  -6.752  0.00  0.00    -0.016 A 
ATOM     10  C   LIG d   1       8.480  -3.815  -6.080  0.00  0.00     0.045 C 
ATOM     11  H   LIG d   1       8.987  -3.201  -6.825  0.00  0.00     0.042 H 
ATOM     12  C   LIG d   1       7.299  -3.056  -5.511  0.00  0.00     0.048 C 
ATOM     13  H   LIG d   1       7.142  -2.209  -6.178  0.00  0.00     0.051 H 
ATOM     14  C   LIG d   1       7.414  -2.482  -4.133  0.00  0.00     0.007 C 
ATOM     15  C   LIG d   1       8.339  -3.279  -3.229  0.00  0.00    -0.030 C 
ATOM     16  C   LIG d   1       9.486  -4.316  -5.062  0.00  0.00    -0.023 C 
ATOM     17  H   LIG d   1       4.597  -6.046  -6.723  0.00  0.00     0.064 H 
ATOM     18  H   LIG d   1       5.633  -7.799  -8.125  0.00  0.00     0.062 H 
ATOM     19  H   LIG d   1       9.483  -5.970  -7.763  0.00  0.00     0.062 H 
ATOM     20  H   LIG d   1       7.792  -1.463  -4.207  0.00  0.00     0.034 H 
ATOM     21  H   LIG d   1       6.423  -2.455  -3.680  0.00  0.00     0.034 H 
ATOM     22  H   LIG d   1       7.908  -4.264  -3.046  0.00  0.00     0.082 H 
ATOM     23  H   LIG d   1       8.479  -2.756  -2.282  0.00  0.00     0.082 H 
ATOM     24  H   LIG d   1       9.164  -5.294  -4.702  0.00  0.00     0.082 H 
ATOM     25  H   LIG d   1      10.455  -4.425  -5.549  0.00  0.00     0.082 H 
ATOM     26  N   LIG d   1       9.635  -3.402  -3.928  0.00  0.00     0.234 N 
ATOM     27  H   LIG d   1       9.919  -2.478  -4.274  0.00  0.00     0.203 HD
ENDROOT
BRANCH   1  28
ATOM     28  C   LIG d   1       4.661  -2.469  -4.353  0.00  0.00     0.037 A 
ATOM     29  C   LIG d   1       4.609  -1.211  -4.954  0.00  0.00    -0.049 A 
ATOM     30  C   LIG d   1       4.385  -0.090  -4.182  0.00  0.00    -0.058 A 
ATOM     31  H   LIG d   1       4.742  -1.115  -6.021  0.00  0.00     0.062 H 
ATOM     32  C   LIG d   1       4.213  -0.212  -2.814  0.00  0.00    -0.050 A 
ATOM     33  H   LIG d   1       4.344   0.885  -4.646  0.00  0.00     0.062 H 
ATOM     34  C   LIG d   1       4.264  -1.456  -2.212  0.00  0.00    -0.058 A 
ATOM     35  C   LIG d   1       4.481  -2.585  -2.973  0.00  0.00    -0.049 A 
ATOM     36  H   LIG d   1       4.129  -1.544  -1.144  0.00  0.00     0.062 H 
ATOM     37  H   LIG d   1       4.516  -3.557  -2.503  0.00  0.00     0.062 H 
BRANCH  32  38
ATOM     38  C   LIG d   1       3.969   1.018  -1.977  0.00  0.00    -0.040 C 
ATOM     39  H   LIG d   1       4.234   0.810  -0.940  0.00  0.00     0.028 H 
ATOM     40  H   LIG d   1       4.579   1.839  -2.350  0.00  0.00     0.028 H 
ATOM     41  H   LIG d   1       2.916   1.293  -2.034  0.00  0.00     0.028 H 
ENDBRANCH  32  38
ENDBRANCH   1  28
BRANCH  26  42
ATOM     42  C   LIG d   1      10.670  -3.907  -2.998  0.00  0.00    -0.043 C 
ATOM     43  H   LIG d   1      10.305  -4.815  -2.518  0.00  0.00     0.078 H 
ATOM     44  H   LIG d   1      11.577  -4.133  -3.560  0.00  0.00     0.078 H 
ATOM     45  H   LIG d   1      10.890  -3.157  -2.238  0.00  0.00     0.078 H 
ENDBRANCH  26  42
BRANCH   7  46
ATOM     46  C   LIG d   1       8.175  -8.076  -8.885  0.00  0.00    -0.040 C 
ATOM     47  H   LIG d   1       7.970  -9.046  -8.432  0.00  0.00     0.028 H 
ATOM     48  H   LIG d   1       7.722  -8.036  -9.876  0.00  0.00     0.028 H 
ATOM     49  H   LIG d   1       9.252  -7.936  -8.972  0.00  0.00     0.028 H 
ENDBRANCH   7  46
TORSDOF 4
ENDMDL
MODEL 9
REMARK VINA RESULT:      -5.4     10.168     12.697
REMARK  4 active torsions:
REMARK  status: ('A' for Active; 'I' for Inactive)
REMARK    1  A    between atoms: C_1  and  C_2 
REMARK    2  A    between atoms: C_5  and  C_8 
REMARK       I    between atoms: C_8  and  N_10 
REMARK    3  A    between atoms: C_14  and  C_25 
REMARK    4  A    between atoms: C_24  and  N_48 
ROOT
ATOM      1  C   LIG d   1      10.904   8.662  -4.923  0.00  0.00     0.251 C 
ATOM      2  O   LIG d   1      11.659   9.613  -4.873  0.00  0.00    -0.270 OA
ATOM      3  N   LIG d   1      10.482   8.075  -3.785  0.00  0.00    -0.263 N 
ATOM      4  C   LIG d   1      10.843   8.453  -2.499  0.00  0.00     0.041 A 
ATOM      5  C   LIG d   1      11.618   9.548  -2.107  0.00  0.00    -0.040 A 
ATOM      6  C   LIG d   1      11.814   9.731  -0.747  0.00  0.00    -0.057 A 
ATOM      7  C   LIG d   1      11.274   8.876   0.191  0.00  0.00    -0.050 A 
ATOM      8  C   LIG d   1      10.506   7.780  -0.187  0.00  0.00    -0.053 A 
ATOM      9  C   LIG d   1      10.310   7.589  -1.541  0.00  0.00    -0.016 A 
ATOM     10  C   LIG d   1       9.543   6.499  -2.253  0.00  0.00     0.045 C 
ATOM     11  H   LIG d   1       8.515   6.480  -1.893  0.00  0.00     0.042 H 
ATOM     12  C   LIG d   1       9.568   6.935  -3.703  0.00  0.00     0.048 C 
ATOM     13  H   LIG d   1       8.578   7.341  -3.908  0.00  0.00     0.051 H 
ATOM     14  C   LIG d   1       9.819   5.901  -4.757  0.00  0.00     0.007 C 
ATOM     15  C   LIG d   1      10.685   4.751  -4.271  0.00  0.00    -0.030 C 
ATOM     16  C   LIG d   1      10.213   5.171  -1.958  0.00  0.00    -0.023 C 
ATOM     17  H   LIG d   1      12.047  10.223  -2.833  0.00  0.00     0.064 H 
ATOM     18  H   LIG d   1      12.408  10.570  -0.412  0.00  0.00     0.062 H 
ATOM     19  H   LIG d   1      10.083   7.108   0.544  0.00  0.00     0.062 H 
ATOM     20  H   LIG d   1       8.862   5.500  -5.089  0.00  0.00     0.034 H 
ATOM     21  H   LIG d   1      10.313   6.376  -5.604  0.00  0.00     0.034 H 
ATOM     22  H   LIG d   1      11.687   5.120  -4.051  0.00  0.00     0.082 H 
ATOM     23  H   LIG d   1      10.737   3.974  -5.034  0.00  0.00     0.082 H 
ATOM     24  H   LIG d   1      11.274   5.344  -1.779  0.00  0.00     0.082 H 
ATOM     25  H   LIG d   1       9.771   4.748  -1.056  0.00  0.00     0.082 H 
ATOM     26  N   LIG d   1      10.050   4.210  -3.051  0.00  0.00     0.234 N 
ATOM     27  H   LIG d   1       9.049   4.065  -3.228  0.00  0.00     0.203 HD
ENDROOT
BRANCH   1  28
ATOM     28  C   LIG d   1      10.448   8.149  -6.232  0.00  0.00     0.037 A 
ATOM     29  C   LIG d   1       9.212   8.540  -6.747  0.00  0.00    -0.049 A 
ATOM     30  C   LIG d   1       8.793   8.058  -7.970  0.00  0.00    -0.058 A 
ATOM     31  H   LIG d   1       8.584   9.219  -6.190  0.00  0.00     0.062 H 
ATOM     32  C   LIG d   1       9.596   7.188  -8.685  0.00  0.00    -0.050 A 
ATOM     33  H   LIG d   1       7.835   8.360  -8.369  0.00  0.00     0.062 H 
ATOM     34  C   LIG d   1      10.823   6.796  -8.181  0.00  0.00    -0.058 A 
ATOM     35  C   LIG d   1      11.256   7.275  -6.962  0.00  0.00    -0.049 A 
ATOM     36  H   LIG d   1      11.446   6.116  -8.744  0.00  0.00     0.062 H 
ATOM     37  H   LIG d   1      12.217   6.972  -6.572  0.00  0.00     0.062 H 
BRANCH  32  38
ATOM     38  C   LIG d   1       9.133   6.665 -10.021  0.00  0.00    -0.040 C 
ATOM     39  H   LIG d   1       9.126   5.575 -10.002  0.00  0.00     0.028 H 
ATOM     40  H   LIG d   1       8.127   7.030 -10.225  0.00  0.00     0.028 H 
ATOM     41  H   LIG d   1       9.810   7.011 -10.801  0.00  0.00     0.028 H 
ENDBRANCH  32  38
ENDBRANCH   1  28
BRANCH  26  42
ATOM     42  C   LIG d   1      10.668   2.915  -2.687  0.00  0.00    -0.043 C 
ATOM     43  H   LIG d   1      10.085   2.454  -1.890  0.00  0.00     0.078 H 
ATOM     44  H   LIG d   1      10.670   2.262  -3.561  0.00  0.00     0.078 H 
ATOM     45  H   LIG d   1      11.692   3.070  -2.346  0.00  0.00     0.078 H 
ENDBRANCH  26  42
BRANCH   7  46
ATOM     46  C   LIG d   1      11.520   9.135   1.654  0.00  0.00    -0.040 C 
ATOM     47  H   LIG d   1      12.554   8.886   1.898  0.00  0.00     0.028 H 
ATOM     48  H   LIG d   1      11.340  10.187   1.873  0.00  0.00     0.028 H 
ATOM     49  H   LIG d   1      10.848   8.519   2.251  0.00  0.00     0.028 H 
ENDBRANCH   7  46
TORSDOF 4
ENDMDL
MODEL 10
REMARK VINA RESULT:      -5.4      9.421     13.219
REMARK  4 active torsions:
REMARK  status: ('A' for Active; 'I' for Inactive)
REMARK    1  A    between atoms: C_1  and  C_2 
REMARK    2  A    between atoms: C_5  and  C_8 
REMARK       I    between atoms: C_8  and  N_10 
REMARK    3  A    between atoms: C_14  and  C_25 
REMARK    4  A    between atoms: C_24  and  N_48 
ROOT
ATOM      1  C   LIG d   1      10.233   6.439  -1.552  0.00  0.00     0.251 C 
ATOM      2  O   LIG d   1      10.465   5.524  -0.786  0.00  0.00    -0.270 OA
ATOM      3  N   LIG d   1       9.938   6.180  -2.842  0.00  0.00    -0.263 N 
ATOM      4  C   LIG d   1       9.879   4.919  -3.420  0.00  0.00     0.041 A 
ATOM      5  C   LIG d   1      10.010   3.675  -2.794  0.00  0.00    -0.040 A 
ATOM      6  C   LIG d   1       9.880   2.549  -3.590  0.00  0.00    -0.057 A 
ATOM      7  C   LIG d   1       9.634   2.635  -4.945  0.00  0.00    -0.050 A 
ATOM      8  C   LIG d   1       9.508   3.866  -5.580  0.00  0.00    -0.053 A 
ATOM      9  C   LIG d   1       9.640   4.993  -4.793  0.00  0.00    -0.016 A 
ATOM     10  C   LIG d   1       9.566   6.450  -5.187  0.00  0.00     0.045 C 
ATOM     11  H   LIG d   1       8.611   6.650  -5.672  0.00  0.00     0.042 H 
ATOM     12  C   LIG d   1       9.629   7.181  -3.862  0.00  0.00     0.048 C 
ATOM     13  H   LIG d   1       8.610   7.504  -3.653  0.00  0.00     0.051 H 
ATOM     14  C   LIG d   1      10.482   8.408  -3.763  0.00  0.00     0.007 C 
ATOM     15  C   LIG d   1      11.678   8.383  -4.699  0.00  0.00    -0.030 C 
ATOM     16  C   LIG d   1      10.700   6.744  -6.151  0.00  0.00    -0.023 C 
ATOM     17  H   LIG d   1      10.204   3.596  -1.735  0.00  0.00     0.064 H 
ATOM     18  H   LIG d   1       9.974   1.573  -3.135  0.00  0.00     0.062 H 
ATOM     19  H   LIG d   1       9.316   3.937  -6.640  0.00  0.00     0.062 H 
ATOM     20  H   LIG d   1       9.872   9.280  -4.000  0.00  0.00     0.034 H 
ATOM     21  H   LIG d   1      10.842   8.503  -2.738  0.00  0.00     0.034 H 
ATOM     22  H   LIG d   1      12.360   7.589  -4.394  0.00  0.00     0.082 H 
ATOM     23  H   LIG d   1      12.194   9.343  -4.672  0.00  0.00     0.082 H 
ATOM     24  H   LIG d   1      11.528   6.068  -5.936  0.00  0.00     0.082 H 
ATOM     25  H   LIG d   1      10.354   6.559  -7.167  0.00  0.00     0.082 H 
ATOM     26  N   LIG d   1      11.162   8.130  -6.060  0.00  0.00     0.234 N 
ATOM     27  H   LIG d   1      10.375   8.762  -6.245  0.00  0.00     0.203 HD
ENDROOT
BRANCH   1  28
ATOM     28  C   LIG d   1      10.273   7.835  -1.069  0.00  0.00     0.037 A 
ATOM     29  C   LIG d   1       9.088   8.551  -0.892  0.00  0.00    -0.049 A 
ATOM     30  C   LIG d   1       9.132   9.853  -0.441  0.00  0.00    -0.058 A 
ATOM     31  H   LIG d   1       8.138   8.085  -1.108  0.00  0.00     0.062 H 
ATOM     32  C   LIG d   1      10.349  10.450  -0.164  0.00  0.00    -0.050 A 
ATOM     33  H   LIG d   1       8.215  10.408  -0.304  0.00  0.00     0.062 H 
ATOM     34  C   LIG d   1      11.528   9.747  -0.337  0.00  0.00    -0.058 A 
ATOM     35  C   LIG d   1      11.497   8.443  -0.782  0.00  0.00    -0.049 A 
ATOM     36  H   LIG d   1      12.474  10.220  -0.119  0.00  0.00     0.062 H 
ATOM     37  H   LIG d   1      12.417   7.893  -0.912  0.00  0.00     0.062 H 
BRANCH  32  38
ATOM     38  C   LIG d   1      10.390  11.874   0.330  0.00  0.00    -0.040 C 
ATOM     39  H   LIG d   1      11.410  12.130   0.618  0.00  0.00     0.028 H 
ATOM     40  H   LIG d   1      10.059  12.544  -0.463  0.00  0.00     0.028 H 
ATOM     41  H   LIG d   1       9.732  11.979   1.192  0.00  0.00     0.028 H 
ENDBRANCH  32  38
ENDBRANCH   1  28
BRANCH  26  42
ATOM     42  C   LIG d   1      12.225   8.379  -7.061  0.00  0.00    -0.043 C 
ATOM     43  H   LIG d   1      13.105   8.776  -6.556  0.00  0.00     0.078 H 
ATOM     44  H   LIG d   1      12.480   7.440  -7.553  0.00  0.00     0.078 H 
ATOM     45  H   LIG d   1      11.878   9.096  -7.805  0.00  0.00     0.078 H 
ENDBRANCH  26  42
BRANCH   7  46
ATOM     46  C   LIG d   1       9.498   1.371  -5.753  0.00  0.00    -0.040 C 
ATOM     47  H   LIG d   1       9.585   1.607  -6.814  0.00  0.00     0.028 H 
ATOM     48  H   LIG d   1      10.286   0.673  -5.471  0.00  0.00     0.028 H 
ATOM     49  H   LIG d   1       8.526   0.919  -5.560  0.00  0.00     0.028 H 
ENDBRANCH   7  46
TORSDOF 4
ENDMDL
