MODEL 1
REMARK VINA RESULT:      -6.3      0.000      0.000
REMARK  7 active torsions:
REMARK  status: ('A' for Active; 'I' for Inactive)
REMARK    1  A    between atoms: C_1  and  O_2 
REMARK    2  A    between atoms: O_2  and  C_3 
REMARK    3  A    between atoms: C_3  and  C_5 
REMARK    4  A    between atoms: N_10  and  C_13 
REMARK    5  A    between atoms: C_13  and  C_14 
REMARK       I    between atoms: N_22  and  C_23 
REMARK    6  A    between atoms: C_23  and  C_25 
REMARK    7  A    between atoms: C_25  and  C_26 
ROOT
ATOM      1  C   LIG d   1       7.176  -1.949  -6.482  0.00  0.00     0.129 C 
ATOM      2  H   LIG d   1       7.184  -2.605  -7.353  0.00  0.00     0.062 H 
ATOM      3  C   LIG d   1       7.308  -0.496  -6.941  0.00  0.00     0.020 C 
ATOM      4  C   LIG d   1       5.992  -0.050  -7.529  0.00  0.00     0.066 A 
ATOM      5  C   LIG d   1       4.813  -0.675  -7.322  0.00  0.00     0.059 A 
ATOM      6  N   LIG d   1       3.863   0.021  -8.001  0.00  0.00    -0.328 N 
ATOM      7  C   LIG d   1       4.489   1.054  -8.610  0.00  0.00     0.097 A 
ATOM      8  N   LIG d   1       5.763   1.002  -8.322  0.00  0.00    -0.240 NA
ATOM      9  C   LIG d   1       4.648  -1.916  -6.480  0.00  0.00     0.058 C 
ATOM     10  N   LIG d   1       5.913  -2.119  -5.750  0.00  0.00    -0.282 N 
ATOM     11  C   LIG d   1       5.911  -2.447  -4.442  0.00  0.00     0.221 C 
ATOM     12  O   LIG d   1       6.953  -2.715  -3.882  0.00  0.00    -0.275 OA
ATOM     13  H   LIG d   1       8.090  -0.419  -7.696  0.00  0.00     0.035 H 
ATOM     14  H   LIG d   1       7.558   0.132  -6.087  0.00  0.00     0.035 H 
ATOM     15  H   LIG d   1       4.016   1.800  -9.231  0.00  0.00     0.103 H 
ATOM     16  H   LIG d   1       4.447  -2.774  -7.120  0.00  0.00     0.053 H 
ATOM     17  H   LIG d   1       3.829  -1.780  -5.773  0.00  0.00     0.053 H 
ENDROOT
BRANCH   6  18
ATOM     18  C   LIG d   1       2.432  -0.289  -8.063  0.00  0.00     0.050 C 
ATOM     19  H   LIG d   1       2.156  -0.903  -7.205  0.00  0.00     0.054 H 
ATOM     20  H   LIG d   1       1.859   0.637  -8.047  0.00  0.00     0.054 H 
BRANCH  18  21
ATOM     21  C   LIG d   1       2.136  -1.041  -9.335  0.00  0.00    -0.028 A 
ATOM     22  C   LIG d   1       2.542  -2.355  -9.471  0.00  0.00    -0.056 A 
ATOM     23  C   LIG d   1       2.271  -3.046 -10.638  0.00  0.00    -0.043 A 
ATOM     24  H   LIG d   1       3.072  -2.843  -8.666  0.00  0.00     0.062 H 
ATOM     25  C   LIG d   1       1.593  -2.421 -11.668  0.00  0.00     0.041 A 
ATOM     26  H   LIG d   1       2.589  -4.073 -10.744  0.00  0.00     0.063 H 
ATOM     27  C   LIG d   1       1.186  -1.106 -11.532  0.00  0.00    -0.043 A 
ATOM     28 CL   LIG d   1       1.252  -3.288 -13.134  0.00  0.00    -0.084 Cl
ATOM     29  C   LIG d   1       1.453  -0.419 -10.363  0.00  0.00    -0.056 A 
ATOM     30  H   LIG d   1       0.657  -0.618 -12.337  0.00  0.00     0.063 H 
ATOM     31  H   LIG d   1       1.132   0.608 -10.254  0.00  0.00     0.062 H 
ENDBRANCH  18  21
ENDBRANCH   6  18
BRANCH   1  32
ATOM     32  C   LIG d   1       8.332  -2.294  -5.579  0.00  0.00     0.328 C 
ATOM     33  O   LIG d   1       8.852  -1.435  -4.907  0.00  0.00    -0.249 OA
BRANCH  32  34
ATOM     34  O   LIG d   1       8.785  -3.557  -5.522  0.00  0.00    -0.467 OA
BRANCH  34  35
ATOM     35  C   LIG d   1       8.511  -4.408  -6.666  0.00  0.00     0.082 C 
ATOM     36  H   LIG d   1       9.269  -4.244  -7.431  0.00  0.00     0.066 H 
ATOM     37  H   LIG d   1       8.528  -5.452  -6.354  0.00  0.00     0.066 H 
ATOM     38  H   LIG d   1       7.527  -4.166  -7.072  0.00  0.00     0.066 H 
ENDBRANCH  34  35
ENDBRANCH  32  34
ENDBRANCH   1  32
BRANCH  11  39
ATOM     39  C   LIG d   1       4.615  -2.475  -3.674  0.00  0.00     0.056 C 
ATOM     40  H   LIG d   1       3.804  -2.770  -4.341  0.00  0.00     0.041 H 
ATOM     41  H   LIG d   1       4.691  -3.192  -2.857  0.00  0.00     0.041 H 
BRANCH  39  42
ATOM     42  C   LIG d   1       4.331  -1.104  -3.115  0.00  0.00    -0.002 A 
ATOM     43  S   LIG d   1       3.286   0.184  -3.774  0.00  0.00    -0.101 SA
ATOM     44  C   LIG d   1       3.548   1.401  -2.494  0.00  0.00    -0.024 A 
ATOM     45  C   LIG d   1       4.402   0.754  -1.664  0.00  0.00    -0.054 A 
ATOM     46  H   LIG d   1       3.134   2.394  -2.405  0.00  0.00     0.069 H 
ATOM     47  C   LIG d   1       4.799  -0.532  -1.979  0.00  0.00    -0.051 A 
ATOM     48  H   LIG d   1       4.763   1.234  -0.766  0.00  0.00     0.062 H 
ATOM     49  H   LIG d   1       5.474  -1.072  -1.332  0.00  0.00     0.063 H 
ENDBRANCH  39  42
ENDBRANCH  11  39
TORSDOF 7
ENDMDL
MODEL 2
REMARK VINA RESULT:      -6.2      4.347      7.667
REMARK  7 active torsions:
REMARK  status: ('A' for Active; 'I' for Inactive)
REMARK    1  A    between atoms: C_1  and  O_2 
REMARK    2  A    between atoms: O_2  and  C_3 
REMARK    3  A    between atoms: C_3  and  C_5 
REMARK    4  A    between atoms: N_10  and  C_13 
REMARK    5  A    between atoms: C_13  and  C_14 
REMARK       I    between atoms: N_22  and  C_23 
REMARK    6  A    between atoms: C_23  and  C_25 
REMARK    7  A    between atoms: C_25  and  C_26 
ROOT
ATOM      1  C   LIG d   1       5.267  -0.082  -3.447  0.00  0.00     0.129 C 
ATOM      2  H   LIG d   1       5.706  -0.844  -2.803  0.00  0.00     0.062 H 
ATOM      3  C   LIG d   1       5.927   1.266  -3.159  0.00  0.00     0.020 C 
ATOM      4  C   LIG d   1       7.307   1.273  -3.766  0.00  0.00     0.066 A 
ATOM      5  C   LIG d   1       7.725   0.416  -4.721  0.00  0.00     0.059 A 
ATOM      6  N   LIG d   1       9.012   0.738  -5.019  0.00  0.00    -0.328 N 
ATOM      7  C   LIG d   1       9.349   1.785  -4.231  0.00  0.00     0.097 A 
ATOM      8  N   LIG d   1       8.322   2.098  -3.485  0.00  0.00    -0.240 NA
ATOM      9  C   LIG d   1       6.870  -0.679  -5.310  0.00  0.00     0.058 C 
ATOM     10  N   LIG d   1       5.487  -0.444  -4.855  0.00  0.00    -0.282 N 
ATOM     11  C   LIG d   1       4.451  -0.553  -5.711  0.00  0.00     0.221 C 
ATOM     12  O   LIG d   1       3.313  -0.462  -5.300  0.00  0.00    -0.275 OA
ATOM     13  H   LIG d   1       6.001   1.416  -2.082  0.00  0.00     0.035 H 
ATOM     14  H   LIG d   1       5.329   2.064  -3.601  0.00  0.00     0.035 H 
ATOM     15  H   LIG d   1      10.307   2.283  -4.221  0.00  0.00     0.103 H 
ATOM     16  H   LIG d   1       7.216  -1.650  -4.958  0.00  0.00     0.053 H 
ATOM     17  H   LIG d   1       6.914  -0.642  -6.399  0.00  0.00     0.053 H 
ENDROOT
BRANCH   6  18
ATOM     18  C   LIG d   1       9.872   0.077  -6.004  0.00  0.00     0.050 C 
ATOM     19  H   LIG d   1       9.253  -0.440  -6.738  0.00  0.00     0.054 H 
ATOM     20  H   LIG d   1      10.487   0.821  -6.507  0.00  0.00     0.054 H 
BRANCH  18  21
ATOM     21  C   LIG d   1      10.760  -0.921  -5.305  0.00  0.00    -0.028 A 
ATOM     22  C   LIG d   1      10.341  -2.229  -5.149  0.00  0.00    -0.056 A 
ATOM     23  C   LIG d   1      11.155  -3.144  -4.508  0.00  0.00    -0.043 A 
ATOM     24  H   LIG d   1       9.377  -2.536  -5.527  0.00  0.00     0.062 H 
ATOM     25  C   LIG d   1      12.389  -2.750  -4.023  0.00  0.00     0.041 A 
ATOM     26  H   LIG d   1      10.827  -4.166  -4.386  0.00  0.00     0.063 H 
ATOM     27  C   LIG d   1      12.808  -1.441  -4.180  0.00  0.00    -0.043 A 
ATOM     28 CL   LIG d   1      13.413  -3.899  -3.218  0.00  0.00    -0.084 Cl
ATOM     29  C   LIG d   1      11.996  -0.529  -4.826  0.00  0.00    -0.056 A 
ATOM     30  H   LIG d   1      13.772  -1.134  -3.802  0.00  0.00     0.063 H 
ATOM     31  H   LIG d   1      12.324   0.493  -4.952  0.00  0.00     0.062 H 
ENDBRANCH  18  21
ENDBRANCH   6  18
BRANCH   1  32
ATOM     32  C   LIG d   1       3.788   0.017  -3.178  0.00  0.00     0.328 C 
ATOM     33  O   LIG d   1       3.223   1.078  -3.292  0.00  0.00    -0.249 OA
BRANCH  32  34
ATOM     34  O   LIG d   1       3.098  -1.075  -2.811  0.00  0.00    -0.467 OA
BRANCH  34  35
ATOM     35  C   LIG d   1       3.865  -2.200  -2.305  0.00  0.00     0.082 C 
ATOM     36  H   LIG d   1       4.789  -2.295  -2.875  0.00  0.00     0.066 H 
ATOM     37  H   LIG d   1       4.100  -2.036  -1.254  0.00  0.00     0.066 H 
ATOM     38  H   LIG d   1       3.279  -3.115  -2.407  0.00  0.00     0.066 H 
ENDBRANCH  34  35
ENDBRANCH  32  34
ENDBRANCH   1  32
BRANCH  11  39
ATOM     39  C   LIG d   1       4.706  -0.781  -7.178  0.00  0.00     0.056 C 
ATOM     40  H   LIG d   1       5.769  -0.963  -7.339  0.00  0.00     0.041 H 
ATOM     41  H   LIG d   1       4.135  -1.646  -7.517  0.00  0.00     0.041 H 
BRANCH  39  42
ATOM     42  C   LIG d   1       4.282   0.437  -7.958  0.00  0.00    -0.002 A 
ATOM     43  S   LIG d   1       5.268   1.513  -8.985  0.00  0.00    -0.101 SA
ATOM     44  C   LIG d   1       3.976   2.639  -9.484  0.00  0.00    -0.024 A 
ATOM     45  C   LIG d   1       2.896   2.128  -8.845  0.00  0.00    -0.054 A 
ATOM     46  H   LIG d   1       4.039   3.504 -10.129  0.00  0.00     0.069 H 
ATOM     47  C   LIG d   1       3.052   0.996  -8.067  0.00  0.00    -0.051 A 
ATOM     48  H   LIG d   1       1.928   2.595  -8.945  0.00  0.00     0.062 H 
ATOM     49  H   LIG d   1       2.207   0.565  -7.551  0.00  0.00     0.063 H 
ENDBRANCH  39  42
ENDBRANCH  11  39
TORSDOF 7
ENDMDL
MODEL 3
REMARK VINA RESULT:      -6.1      3.926      6.955
REMARK  7 active torsions:
REMARK  status: ('A' for Active; 'I' for Inactive)
REMARK    1  A    between atoms: C_1  and  O_2 
REMARK    2  A    between atoms: O_2  and  C_3 
REMARK    3  A    between atoms: C_3  and  C_5 
REMARK    4  A    between atoms: N_10  and  C_13 
REMARK    5  A    between atoms: C_13  and  C_14 
REMARK       I    between atoms: N_22  and  C_23 
REMARK    6  A    between atoms: C_23  and  C_25 
REMARK    7  A    between atoms: C_25  and  C_26 
ROOT
ATOM      1  C   LIG d   1       5.408  -1.526  -3.674  0.00  0.00     0.129 C 
ATOM      2  H   LIG d   1       4.899  -2.208  -2.993  0.00  0.00     0.062 H 
ATOM      3  C   LIG d   1       6.920  -1.677  -3.505  0.00  0.00     0.020 C 
ATOM      4  C   LIG d   1       7.358  -2.963  -4.159  0.00  0.00     0.066 A 
ATOM      5  C   LIG d   1       6.626  -3.645  -5.066  0.00  0.00     0.059 A 
ATOM      6  N   LIG d   1       7.350  -4.737  -5.430  0.00  0.00    -0.328 N 
ATOM      7  C   LIG d   1       8.507  -4.695  -4.731  0.00  0.00     0.097 A 
ATOM      8  N   LIG d   1       8.502  -3.629  -3.974  0.00  0.00    -0.240 NA
ATOM      9  C   LIG d   1       5.260  -3.220  -5.545  0.00  0.00     0.058 C 
ATOM     10  N   LIG d   1       5.036  -1.846  -5.060  0.00  0.00    -0.282 N 
ATOM     11  C   LIG d   1       4.507  -0.906  -5.869  0.00  0.00     0.221 C 
ATOM     12  O   LIG d   1       4.230   0.189  -5.425  0.00  0.00    -0.275 OA
ATOM     13  H   LIG d   1       7.170  -1.703  -2.445  0.00  0.00     0.035 H 
ATOM     14  H   LIG d   1       7.423  -0.835  -3.981  0.00  0.00     0.035 H 
ATOM     15  H   LIG d   1       9.305  -5.420  -4.790  0.00  0.00     0.103 H 
ATOM     16  H   LIG d   1       4.500  -3.887  -5.137  0.00  0.00     0.053 H 
ATOM     17  H   LIG d   1       5.224  -3.240  -6.634  0.00  0.00     0.053 H 
ENDROOT
BRANCH   6  18
ATOM     18  C   LIG d   1       6.952  -5.765  -6.396  0.00  0.00     0.050 C 
ATOM     19  H   LIG d   1       6.124  -5.395  -7.001  0.00  0.00     0.054 H 
ATOM     20  H   LIG d   1       7.796  -6.004  -7.041  0.00  0.00     0.054 H 
BRANCH  18  21
ATOM     21  C   LIG d   1       6.518  -7.005  -5.657  0.00  0.00    -0.028 A 
ATOM     22  C   LIG d   1       7.457  -7.797  -5.024  0.00  0.00    -0.056 A 
ATOM     23  C   LIG d   1       7.060  -8.935  -4.347  0.00  0.00    -0.043 A 
ATOM     24  H   LIG d   1       8.502  -7.528  -5.058  0.00  0.00     0.062 H 
ATOM     25  C   LIG d   1       5.721  -9.280  -4.303  0.00  0.00     0.041 A 
ATOM     26  H   LIG d   1       7.794  -9.554  -3.852  0.00  0.00     0.063 H 
ATOM     27  C   LIG d   1       4.781  -8.488  -4.936  0.00  0.00    -0.043 A 
ATOM     28 CL   LIG d   1       5.221 -10.710  -3.452  0.00  0.00    -0.084 Cl
ATOM     29  C   LIG d   1       5.180  -7.348  -5.609  0.00  0.00    -0.056 A 
ATOM     30  H   LIG d   1       3.736  -8.758  -4.902  0.00  0.00     0.063 H 
ATOM     31  H   LIG d   1       4.445  -6.726  -6.100  0.00  0.00     0.062 H 
ENDBRANCH  18  21
ENDBRANCH   6  18
BRANCH   1  32
ATOM     32  C   LIG d   1       5.009  -0.107  -3.361  0.00  0.00     0.328 C 
ATOM     33  O   LIG d   1       5.777   0.799  -3.581  0.00  0.00    -0.249 OA
BRANCH  32  34
ATOM     34  O   LIG d   1       3.800   0.149  -2.836  0.00  0.00    -0.467 OA
BRANCH  34  35
ATOM     35  C   LIG d   1       3.600   1.464  -2.253  0.00  0.00     0.082 C 
ATOM     36  H   LIG d   1       2.582   1.542  -1.873  0.00  0.00     0.066 H 
ATOM     37  H   LIG d   1       4.305   1.609  -1.435  0.00  0.00     0.066 H 
ATOM     38  H   LIG d   1       3.764   2.228  -3.014  0.00  0.00     0.066 H 
ENDBRANCH  34  35
ENDBRANCH  32  34
ENDBRANCH   1  32
BRANCH  11  39
ATOM     39  C   LIG d   1       4.267  -1.212  -7.324  0.00  0.00     0.056 C 
ATOM     40  H   LIG d   1       5.138  -1.720  -7.738  0.00  0.00     0.041 H 
ATOM     41  H   LIG d   1       3.392  -1.856  -7.421  0.00  0.00     0.041 H 
BRANCH  39  42
ATOM     42  C   LIG d   1       4.030   0.072  -8.076  0.00  0.00    -0.002 A 
ATOM     43  S   LIG d   1       5.220   1.158  -8.847  0.00  0.00    -0.101 SA
ATOM     44  C   LIG d   1       4.077   2.379  -9.473  0.00  0.00    -0.024 A 
ATOM     45  C   LIG d   1       2.885   1.885  -9.060  0.00  0.00    -0.054 A 
ATOM     46  H   LIG d   1       4.283   3.277 -10.036  0.00  0.00     0.069 H 
ATOM     47  C   LIG d   1       2.861   0.700  -8.349  0.00  0.00    -0.051 A 
ATOM     48  H   LIG d   1       1.967   2.407  -9.287  0.00  0.00     0.062 H 
ATOM     49  H   LIG d   1       1.923   0.282  -8.012  0.00  0.00     0.063 H 
ENDBRANCH  39  42
ENDBRANCH  11  39
TORSDOF 7
ENDMDL
MODEL 4
REMARK VINA RESULT:      -6.1      4.061      7.002
REMARK  7 active torsions:
REMARK  status: ('A' for Active; 'I' for Inactive)
REMARK    1  A    between atoms: C_1  and  O_2 
REMARK    2  A    between atoms: O_2  and  C_3 
REMARK    3  A    between atoms: C_3  and  C_5 
REMARK    4  A    between atoms: N_10  and  C_13 
REMARK    5  A    between atoms: C_13  and  C_14 
REMARK       I    between atoms: N_22  and  C_23 
REMARK    6  A    between atoms: C_23  and  C_25 
REMARK    7  A    between atoms: C_25  and  C_26 
ROOT
ATOM      1  C   LIG d   1       4.616  -4.104  -9.763  0.00  0.00     0.129 C 
ATOM      2  H   LIG d   1       5.324  -4.916  -9.927  0.00  0.00     0.062 H 
ATOM      3  C   LIG d   1       3.503  -4.582  -8.831  0.00  0.00     0.020 C 
ATOM      4  C   LIG d   1       4.042  -4.653  -7.424  0.00  0.00     0.066 A 
ATOM      5  C   LIG d   1       5.164  -4.030  -7.005  0.00  0.00     0.059 A 
ATOM      6  N   LIG d   1       5.318  -4.318  -5.686  0.00  0.00    -0.328 N 
ATOM      7  C   LIG d   1       4.284  -5.116  -5.333  0.00  0.00     0.097 A 
ATOM      8  N   LIG d   1       3.526  -5.310  -6.380  0.00  0.00    -0.240 NA
ATOM      9  C   LIG d   1       6.044  -3.183  -7.891  0.00  0.00     0.058 C 
ATOM     10  N   LIG d   1       5.310  -2.962  -9.151  0.00  0.00    -0.282 N 
ATOM     11  C   LIG d   1       5.273  -1.742  -9.724  0.00  0.00     0.221 C 
ATOM     12  O   LIG d   1       4.758  -1.599 -10.813  0.00  0.00    -0.275 OA
ATOM     13  H   LIG d   1       3.163  -5.570  -9.141  0.00  0.00     0.035 H 
ATOM     14  H   LIG d   1       2.671  -3.879  -8.869  0.00  0.00     0.035 H 
ATOM     15  H   LIG d   1       4.111  -5.525  -4.348  0.00  0.00     0.103 H 
ATOM     16  H   LIG d   1       6.980  -3.704  -8.093  0.00  0.00     0.053 H 
ATOM     17  H   LIG d   1       6.248  -2.226  -7.408  0.00  0.00     0.053 H 
ENDROOT
BRANCH   6  18
ATOM     18  C   LIG d   1       6.399  -3.855  -4.811  0.00  0.00     0.050 C 
ATOM     19  H   LIG d   1       6.682  -4.656  -4.128  0.00  0.00     0.054 H 
ATOM     20  H   LIG d   1       7.260  -3.573  -5.416  0.00  0.00     0.054 H 
BRANCH  18  21
ATOM     21  C   LIG d   1       5.928  -2.662  -4.020  0.00  0.00    -0.028 A 
ATOM     22  C   LIG d   1       4.685  -2.680  -3.416  0.00  0.00    -0.056 A 
ATOM     23  C   LIG d   1       4.252  -1.586  -2.691  0.00  0.00    -0.043 A 
ATOM     24  H   LIG d   1       4.050  -3.549  -3.512  0.00  0.00     0.062 H 
ATOM     25  C   LIG d   1       5.064  -0.473  -2.568  0.00  0.00     0.041 A 
ATOM     26  H   LIG d   1       3.280  -1.600  -2.219  0.00  0.00     0.063 H 
ATOM     27  C   LIG d   1       6.308  -0.455  -3.172  0.00  0.00    -0.043 A 
ATOM     28 CL   LIG d   1       4.521   0.902  -1.656  0.00  0.00    -0.084 Cl
ATOM     29  C   LIG d   1       6.742  -1.552  -3.893  0.00  0.00    -0.056 A 
ATOM     30  H   LIG d   1       6.943   0.414  -3.077  0.00  0.00     0.063 H 
ATOM     31  H   LIG d   1       7.716  -1.540  -4.362  0.00  0.00     0.062 H 
ENDBRANCH  18  21
ENDBRANCH   6  18
BRANCH   1  32
ATOM     32  C   LIG d   1       4.017  -3.682 -11.080  0.00  0.00     0.328 C 
ATOM     33  O   LIG d   1       2.875  -3.292 -11.128  0.00  0.00    -0.249 OA
BRANCH  32  34
ATOM     34  O   LIG d   1       4.754  -3.740 -12.201  0.00  0.00    -0.467 OA
BRANCH  34  35
ATOM     35  C   LIG d   1       5.306  -5.034 -12.560  0.00  0.00     0.082 C 
ATOM     36  H   LIG d   1       4.563  -5.605 -13.117  0.00  0.00     0.066 H 
ATOM     37  H   LIG d   1       6.193  -4.892 -13.178  0.00  0.00     0.066 H 
ATOM     38  H   LIG d   1       5.579  -5.578 -11.655  0.00  0.00     0.066 H 
ENDBRANCH  34  35
ENDBRANCH  32  34
ENDBRANCH   1  32
BRANCH  11  39
ATOM     39  C   LIG d   1       5.867  -0.556  -9.011  0.00  0.00     0.056 C 
ATOM     40  H   LIG d   1       6.179  -0.852  -8.009  0.00  0.00     0.041 H 
ATOM     41  H   LIG d   1       6.731  -0.191  -9.566  0.00  0.00     0.041 H 
BRANCH  39  42
ATOM     42  C   LIG d   1       4.836   0.539  -8.911  0.00  0.00    -0.002 A 
ATOM     43  S   LIG d   1       3.265   0.530  -8.064  0.00  0.00    -0.101 SA
ATOM     44  C   LIG d   1       2.748   2.189  -8.473  0.00  0.00    -0.024 A 
ATOM     45  C   LIG d   1       3.791   2.632  -9.215  0.00  0.00    -0.054 A 
ATOM     46  H   LIG d   1       1.840   2.705  -8.199  0.00  0.00     0.069 H 
ATOM     47  C   LIG d   1       4.864   1.789  -9.435  0.00  0.00    -0.051 A 
ATOM     48  H   LIG d   1       3.787   3.631  -9.626  0.00  0.00     0.062 H 
ATOM     49  H   LIG d   1       5.710   2.119 -10.020  0.00  0.00     0.063 H 
ENDBRANCH  39  42
ENDBRANCH  11  39
TORSDOF 7
ENDMDL
MODEL 5
REMARK VINA RESULT:      -6.0      4.039      6.813
REMARK  7 active torsions:
REMARK  status: ('A' for Active; 'I' for Inactive)
REMARK    1  A    between atoms: C_1  and  O_2 
REMARK    2  A    between atoms: O_2  and  C_3 
REMARK    3  A    between atoms: C_3  and  C_5 
REMARK    4  A    between atoms: N_10  and  C_13 
REMARK    5  A    between atoms: C_13  and  C_14 
REMARK       I    between atoms: N_22  and  C_23 
REMARK    6  A    between atoms: C_23  and  C_25 
REMARK    7  A    between atoms: C_25  and  C_26 
ROOT
ATOM      1  C   LIG d   1       5.972  -1.148  -4.335  0.00  0.00     0.129 C 
ATOM      2  H   LIG d   1       6.704  -1.828  -3.899  0.00  0.00     0.062 H 
ATOM      3  C   LIG d   1       6.014   0.187  -3.590  0.00  0.00     0.020 C 
ATOM      4  C   LIG d   1       7.251   0.940  -4.011  0.00  0.00     0.066 A 
ATOM      5  C   LIG d   1       7.965   0.672  -5.124  0.00  0.00     0.059 A 
ATOM      6  N   LIG d   1       8.993   1.562  -5.169  0.00  0.00    -0.328 N 
ATOM      7  C   LIG d   1       8.880   2.350  -4.075  0.00  0.00     0.097 A 
ATOM      8  N   LIG d   1       7.835   1.970  -3.389  0.00  0.00    -0.240 NA
ATOM      9  C   LIG d   1       7.632  -0.429  -6.100  0.00  0.00     0.058 C 
ATOM     10  N   LIG d   1       6.289  -0.927  -5.754  0.00  0.00    -0.282 N 
ATOM     11  C   LIG d   1       5.373  -1.170  -6.713  0.00  0.00     0.221 C 
ATOM     12  O   LIG d   1       4.311  -1.681  -6.422  0.00  0.00    -0.275 OA
ATOM     13  H   LIG d   1       6.044   0.006  -2.515  0.00  0.00     0.035 H 
ATOM     14  H   LIG d   1       5.128   0.769  -3.840  0.00  0.00     0.035 H 
ATOM     15  H   LIG d   1       9.543   3.161  -3.812  0.00  0.00     0.103 H 
ATOM     16  H   LIG d   1       8.361  -1.234  -6.015  0.00  0.00     0.053 H 
ATOM     17  H   LIG d   1       7.631  -0.037  -7.118  0.00  0.00     0.053 H 
ENDROOT
BRANCH   6  18
ATOM     18  C   LIG d   1      10.027   1.650  -6.204  0.00  0.00     0.050 C 
ATOM     19  H   LIG d   1      10.985   1.887  -5.741  0.00  0.00     0.054 H 
ATOM     20  H   LIG d   1      10.101   0.696  -6.725  0.00  0.00     0.054 H 
BRANCH  18  21
ATOM     21  C   LIG d   1       9.662   2.732  -7.186  0.00  0.00    -0.028 A 
ATOM     22  C   LIG d   1       8.849   2.441  -8.266  0.00  0.00    -0.056 A 
ATOM     23  C   LIG d   1       8.514   3.434  -9.168  0.00  0.00    -0.043 A 
ATOM     24  H   LIG d   1       8.475   1.438  -8.405  0.00  0.00     0.062 H 
ATOM     25  C   LIG d   1       8.993   4.720  -8.989  0.00  0.00     0.041 A 
ATOM     26  H   LIG d   1       7.879   3.207 -10.011  0.00  0.00     0.063 H 
ATOM     27  C   LIG d   1       9.806   5.011  -7.909  0.00  0.00    -0.043 A 
ATOM     28 CL   LIG d   1       8.573   5.968 -10.121  0.00  0.00    -0.084 Cl
ATOM     29  C   LIG d   1      10.136   4.019  -7.005  0.00  0.00    -0.056 A 
ATOM     30  H   LIG d   1      10.181   6.015  -7.769  0.00  0.00     0.063 H 
ATOM     31  H   LIG d   1      10.768   4.246  -6.158  0.00  0.00     0.062 H 
ENDBRANCH  18  21
ENDBRANCH   6  18
BRANCH   1  32
ATOM     32  C   LIG d   1       4.593  -1.744  -4.214  0.00  0.00     0.328 C 
ATOM     33  O   LIG d   1       4.456  -2.943  -4.152  0.00  0.00    -0.249 OA
BRANCH  32  34
ATOM     34  O   LIG d   1       3.517  -0.942  -4.174  0.00  0.00    -0.467 OA
BRANCH  34  35
ATOM     35  C   LIG d   1       2.704  -0.989  -2.972  0.00  0.00     0.082 C 
ATOM     36  H   LIG d   1       1.982  -1.801  -3.052  0.00  0.00     0.066 H 
ATOM     37  H   LIG d   1       3.346  -1.157  -2.107  0.00  0.00     0.066 H 
ATOM     38  H   LIG d   1       2.176  -0.042  -2.853  0.00  0.00     0.066 H 
ENDBRANCH  34  35
ENDBRANCH  32  34
ENDBRANCH   1  32
BRANCH  11  39
ATOM     39  C   LIG d   1       5.665  -0.802  -8.144  0.00  0.00     0.056 C 
ATOM     40  H   LIG d   1       6.725  -0.569  -8.250  0.00  0.00     0.041 H 
ATOM     41  H   LIG d   1       5.411  -1.639  -8.794  0.00  0.00     0.041 H 
BRANCH  39  42
ATOM     42  C   LIG d   1       4.845   0.401  -8.532  0.00  0.00    -0.002 A 
ATOM     43  S   LIG d   1       3.070   0.599  -8.534  0.00  0.00    -0.101 SA
ATOM     44  C   LIG d   1       3.006   2.286  -9.116  0.00  0.00    -0.024 A 
ATOM     45  C   LIG d   1       4.319   2.580  -9.267  0.00  0.00    -0.054 A 
ATOM     46  H   LIG d   1       2.143   2.909  -9.299  0.00  0.00     0.069 H 
ATOM     47  C   LIG d   1       5.262   1.617  -8.962  0.00  0.00    -0.051 A 
ATOM     48  H   LIG d   1       4.626   3.556  -9.616  0.00  0.00     0.062 H 
ATOM     49  H   LIG d   1       6.316   1.827  -9.069  0.00  0.00     0.063 H 
ENDBRANCH  39  42
ENDBRANCH  11  39
TORSDOF 7
ENDMDL
MODEL 6
REMARK VINA RESULT:      -5.8      6.224      8.837
REMARK  7 active torsions:
REMARK  status: ('A' for Active; 'I' for Inactive)
REMARK    1  A    between atoms: C_1  and  O_2 
REMARK    2  A    between atoms: O_2  and  C_3 
REMARK    3  A    between atoms: C_3  and  C_5 
REMARK    4  A    between atoms: N_10  and  C_13 
REMARK    5  A    between atoms: C_13  and  C_14 
REMARK       I    between atoms: N_22  and  C_23 
REMARK    6  A    between atoms: C_23  and  C_25 
REMARK    7  A    between atoms: C_25  and  C_26 
ROOT
ATOM      1  C   LIG d   1       8.054   1.682  -6.564  0.00  0.00     0.129 C 
ATOM      2  H   LIG d   1       7.770   2.727  -6.690  0.00  0.00     0.062 H 
ATOM      3  C   LIG d   1       9.538   1.518  -6.893  0.00  0.00     0.020 C 
ATOM      4  C   LIG d   1      10.354   2.077  -5.756  0.00  0.00     0.066 A 
ATOM      5  C   LIG d   1       9.876   2.308  -4.514  0.00  0.00     0.059 A 
ATOM      6  N   LIG d   1      10.902   2.798  -3.770  0.00  0.00    -0.328 N 
ATOM      7  C   LIG d   1      11.984   2.859  -4.580  0.00  0.00     0.097 A 
ATOM      8  N   LIG d   1      11.645   2.425  -5.766  0.00  0.00    -0.240 NA
ATOM      9  C   LIG d   1       8.450   2.047  -4.094  0.00  0.00     0.058 C 
ATOM     10  N   LIG d   1       7.812   1.271  -5.174  0.00  0.00    -0.282 N 
ATOM     11  C   LIG d   1       7.031   0.209  -4.892  0.00  0.00     0.221 C 
ATOM     12  O   LIG d   1       6.427  -0.352  -5.783  0.00  0.00    -0.275 OA
ATOM     13  H   LIG d   1       9.773   2.057  -7.811  0.00  0.00     0.035 H 
ATOM     14  H   LIG d   1       9.765   0.459  -7.021  0.00  0.00     0.035 H 
ATOM     15  H   LIG d   1      12.965   3.206  -4.295  0.00  0.00     0.103 H 
ATOM     16  H   LIG d   1       7.925   2.992  -3.955  0.00  0.00     0.053 H 
ATOM     17  H   LIG d   1       8.434   1.474  -3.166  0.00  0.00     0.053 H 
ENDROOT
BRANCH   6  18
ATOM     18  C   LIG d   1      10.847   3.189  -2.359  0.00  0.00     0.050 C 
ATOM     19  H   LIG d   1       9.951   2.770  -1.900  0.00  0.00     0.054 H 
ATOM     20  H   LIG d   1      11.730   2.813  -1.843  0.00  0.00     0.054 H 
BRANCH  18  21
ATOM     21  C   LIG d   1      10.807   4.693  -2.256  0.00  0.00    -0.028 A 
ATOM     22  C   LIG d   1      11.767   5.361  -1.519  0.00  0.00    -0.056 A 
ATOM     23  C   LIG d   1      11.731   6.740  -1.424  0.00  0.00    -0.043 A 
ATOM     24  H   LIG d   1      12.545   4.806  -1.017  0.00  0.00     0.062 H 
ATOM     25  C   LIG d   1      10.733   7.450  -2.068  0.00  0.00     0.041 A 
ATOM     26  H   LIG d   1      12.481   7.262  -0.848  0.00  0.00     0.063 H 
ATOM     27  C   LIG d   1       9.773   6.781  -2.806  0.00  0.00    -0.043 A 
ATOM     28 CL   LIG d   1      10.687   9.182  -1.950  0.00  0.00    -0.084 Cl
ATOM     29  C   LIG d   1       9.814   5.403  -2.903  0.00  0.00    -0.056 A 
ATOM     30  H   LIG d   1       8.994   7.336  -3.308  0.00  0.00     0.063 H 
ATOM     31  H   LIG d   1       9.066   4.880  -3.483  0.00  0.00     0.062 H 
ENDBRANCH  18  21
ENDBRANCH   6  18
BRANCH   1  32
ATOM     32  C   LIG d   1       7.238   0.821  -7.493  0.00  0.00     0.328 C 
ATOM     33  O   LIG d   1       7.719  -0.178  -7.970  0.00  0.00    -0.249 OA
BRANCH  32  34
ATOM     34  O   LIG d   1       5.974   1.165  -7.790  0.00  0.00    -0.467 OA
BRANCH  34  35
ATOM     35  C   LIG d   1       5.758   1.853  -9.051  0.00  0.00     0.082 C 
ATOM     36  H   LIG d   1       6.541   1.575  -9.756  0.00  0.00     0.066 H 
ATOM     37  H   LIG d   1       4.787   1.570  -9.456  0.00  0.00     0.066 H 
ATOM     38  H   LIG d   1       5.782   2.931  -8.886  0.00  0.00     0.066 H 
ENDBRANCH  34  35
ENDBRANCH  32  34
ENDBRANCH   1  32
BRANCH  11  39
ATOM     39  C   LIG d   1       6.911  -0.284  -3.474  0.00  0.00     0.056 C 
ATOM     40  H   LIG d   1       7.531  -1.170  -3.344  0.00  0.00     0.041 H 
ATOM     41  H   LIG d   1       7.243   0.496  -2.788  0.00  0.00     0.041 H 
BRANCH  39  42
ATOM     42  C   LIG d   1       5.473  -0.630  -3.182  0.00  0.00    -0.002 A 
ATOM     43  S   LIG d   1       4.023   0.406  -3.291  0.00  0.00    -0.101 SA
ATOM     44  C   LIG d   1       2.812  -0.802  -2.780  0.00  0.00    -0.024 A 
ATOM     45  C   LIG d   1       3.581  -1.896  -2.563  0.00  0.00    -0.054 A 
ATOM     46  H   LIG d   1       1.743  -0.689  -2.671  0.00  0.00     0.069 H 
ATOM     47  C   LIG d   1       4.944  -1.810  -2.775  0.00  0.00    -0.051 A 
ATOM     48  H   LIG d   1       3.136  -2.824  -2.235  0.00  0.00     0.062 H 
ATOM     49  H   LIG d   1       5.580  -2.668  -2.615  0.00  0.00     0.063 H 
ENDBRANCH  39  42
ENDBRANCH  11  39
TORSDOF 7
ENDMDL
MODEL 7
REMARK VINA RESULT:      -5.8      2.451      4.365
REMARK  7 active torsions:
REMARK  status: ('A' for Active; 'I' for Inactive)
REMARK    1  A    between atoms: C_1  and  O_2 
REMARK    2  A    between atoms: O_2  and  C_3 
REMARK    3  A    between atoms: C_3  and  C_5 
REMARK    4  A    between atoms: N_10  and  C_13 
REMARK    5  A    between atoms: C_13  and  C_14 
REMARK       I    between atoms: N_22  and  C_23 
REMARK    6  A    between atoms: C_23  and  C_25 
REMARK    7  A    between atoms: C_25  and  C_26 
ROOT
ATOM      1  C   LIG d   1       3.960  -0.153  -4.454  0.00  0.00     0.129 C 
ATOM      2  H   LIG d   1       4.722   0.613  -4.308  0.00  0.00     0.062 H 
ATOM      3  C   LIG d   1       2.800   0.434  -5.259  0.00  0.00     0.020 C 
ATOM      4  C   LIG d   1       3.223   0.561  -6.701  0.00  0.00     0.066 A 
ATOM      5  C   LIG d   1       4.271  -0.090  -7.248  0.00  0.00     0.059 A 
ATOM      6  N   LIG d   1       4.330   0.268  -8.558  0.00  0.00    -0.328 N 
ATOM      7  C   LIG d   1       3.315   1.135  -8.777  0.00  0.00     0.097 A 
ATOM      8  N   LIG d   1       2.659   1.304  -7.659  0.00  0.00    -0.240 NA
ATOM      9  C   LIG d   1       5.175  -1.031  -6.490  0.00  0.00     0.058 C 
ATOM     10  N   LIG d   1       4.538  -1.290  -5.185  0.00  0.00    -0.282 N 
ATOM     11  C   LIG d   1       4.483  -2.538  -4.679  0.00  0.00     0.221 C 
ATOM     12  O   LIG d   1       4.053  -2.719  -3.558  0.00  0.00    -0.275 OA
ATOM     13  H   LIG d   1       2.541   1.417  -4.866  0.00  0.00     0.035 H 
ATOM     14  H   LIG d   1       1.938  -0.229  -5.188  0.00  0.00     0.035 H 
ATOM     15  H   LIG d   1       3.082   1.609  -9.719  0.00  0.00     0.103 H 
ATOM     16  H   LIG d   1       6.151  -0.569  -6.341  0.00  0.00     0.053 H 
ATOM     17  H   LIG d   1       5.286  -1.965  -7.040  0.00  0.00     0.053 H 
ENDROOT
BRANCH   6  18
ATOM     18  C   LIG d   1       5.308  -0.195  -9.547  0.00  0.00     0.050 C 
ATOM     19  H   LIG d   1       5.933   0.642  -9.860  0.00  0.00     0.054 H 
ATOM     20  H   LIG d   1       5.932  -0.971  -9.105  0.00  0.00     0.054 H 
BRANCH  18  21
ATOM     21  C   LIG d   1       4.584  -0.755 -10.744  0.00  0.00    -0.028 A 
ATOM     22  C   LIG d   1       4.652  -0.103 -11.961  0.00  0.00    -0.056 A 
ATOM     23  C   LIG d   1       3.988  -0.616 -13.060  0.00  0.00    -0.043 A 
ATOM     24  H   LIG d   1       5.224   0.808 -12.054  0.00  0.00     0.062 H 
ATOM     25  C   LIG d   1       3.255  -1.784 -12.940  0.00  0.00     0.041 A 
ATOM     26  H   LIG d   1       4.041  -0.106 -14.010  0.00  0.00     0.063 H 
ATOM     27  C   LIG d   1       3.187  -2.436 -11.723  0.00  0.00    -0.043 A 
ATOM     28 CL   LIG d   1       2.420  -2.429 -14.320  0.00  0.00    -0.084 Cl
ATOM     29  C   LIG d   1       3.856  -1.925 -10.627  0.00  0.00    -0.056 A 
ATOM     30  H   LIG d   1       2.614  -3.348 -11.630  0.00  0.00     0.063 H 
ATOM     31  H   LIG d   1       3.806  -2.437  -9.676  0.00  0.00     0.062 H 
ENDBRANCH  18  21
ENDBRANCH   6  18
BRANCH   1  32
ATOM     32  C   LIG d   1       3.451  -0.622  -3.115  0.00  0.00     0.328 C 
ATOM     33  O   LIG d   1       2.331  -1.063  -3.014  0.00  0.00    -0.249 OA
BRANCH  32  34
ATOM     34  O   LIG d   1       4.244  -0.550  -2.034  0.00  0.00    -0.467 OA
BRANCH  34  35
ATOM     35  C   LIG d   1       4.691   0.772  -1.631  0.00  0.00     0.082 C 
ATOM     36  H   LIG d   1       4.290   1.516  -2.319  0.00  0.00     0.066 H 
ATOM     37  H   LIG d   1       4.339   0.982  -0.622  0.00  0.00     0.066 H 
ATOM     38  H   LIG d   1       5.781   0.809  -1.650  0.00  0.00     0.066 H 
ENDBRANCH  34  35
ENDBRANCH  32  34
ENDBRANCH   1  32
BRANCH  11  39
ATOM     39  C   LIG d   1       4.951  -3.708  -5.505  0.00  0.00     0.056 C 
ATOM     40  H   LIG d   1       4.295  -4.561  -5.330  0.00  0.00     0.041 H 
ATOM     41  H   LIG d   1       4.925  -3.441  -6.561  0.00  0.00     0.041 H 
BRANCH  39  42
ATOM     42  C   LIG d   1       6.361  -4.069  -5.112  0.00  0.00    -0.002 A 
ATOM     43  S   LIG d   1       7.577  -3.082  -4.256  0.00  0.00    -0.101 SA
ATOM     44  C   LIG d   1       8.900  -4.280  -4.228  0.00  0.00    -0.024 A 
ATOM     45  C   LIG d   1       8.335  -5.336  -4.864  0.00  0.00    -0.054 A 
ATOM     46  H   LIG d   1       9.892  -4.188  -3.813  0.00  0.00     0.069 H 
ATOM     47  C   LIG d   1       7.032  -5.229  -5.312  0.00  0.00    -0.051 A 
ATOM     48  H   LIG d   1       8.893  -6.248  -5.014  0.00  0.00     0.062 H 
ATOM     49  H   LIG d   1       6.556  -6.058  -5.817  0.00  0.00     0.063 H 
ENDBRANCH  39  42
ENDBRANCH  11  39
TORSDOF 7
ENDMDL
MODEL 8
REMARK VINA RESULT:      -5.8      2.605      4.211
REMARK  7 active torsions:
REMARK  status: ('A' for Active; 'I' for Inactive)
REMARK    1  A    between atoms: C_1  and  O_2 
REMARK    2  A    between atoms: O_2  and  C_3 
REMARK    3  A    between atoms: C_3  and  C_5 
REMARK    4  A    between atoms: N_10  and  C_13 
REMARK    5  A    between atoms: C_13  and  C_14 
REMARK       I    between atoms: N_22  and  C_23 
REMARK    6  A    between atoms: C_23  and  C_25 
REMARK    7  A    between atoms: C_25  and  C_26 
ROOT
ATOM      1  C   LIG d   1       4.719  -1.041  -4.845  0.00  0.00     0.129 C 
ATOM      2  H   LIG d   1       5.648  -0.487  -4.985  0.00  0.00     0.062 H 
ATOM      3  C   LIG d   1       3.533  -0.116  -5.119  0.00  0.00     0.020 C 
ATOM      4  C   LIG d   1       3.411   0.092  -6.608  0.00  0.00     0.066 A 
ATOM      5  C   LIG d   1       3.981  -0.703  -7.538  0.00  0.00     0.059 A 
ATOM      6  N   LIG d   1       3.640  -0.207  -8.757  0.00  0.00    -0.328 N 
ATOM      7  C   LIG d   1       2.871   0.884  -8.539  0.00  0.00     0.097 A 
ATOM      8  N   LIG d   1       2.739   1.054  -7.249  0.00  0.00    -0.240 NA
ATOM      9  C   LIG d   1       4.832  -1.907  -7.217  0.00  0.00     0.058 C 
ATOM     10  N   LIG d   1       4.679  -2.178  -5.776  0.00  0.00    -0.282 N 
ATOM     11  C   LIG d   1       4.502  -3.435  -5.324  0.00  0.00     0.221 C 
ATOM     12  O   LIG d   1       4.485  -3.654  -4.131  0.00  0.00    -0.275 OA
ATOM     13  H   LIG d   1       3.695   0.844  -4.629  0.00  0.00     0.035 H 
ATOM     14  H   LIG d   1       2.620  -0.574  -4.738  0.00  0.00     0.035 H 
ATOM     15  H   LIG d   1       2.435   1.510  -9.303  0.00  0.00     0.103 H 
ATOM     16  H   LIG d   1       5.876  -1.696  -7.447  0.00  0.00     0.053 H 
ATOM     17  H   LIG d   1       4.493  -2.768  -7.795  0.00  0.00     0.053 H 
ENDROOT
BRANCH   6  18
ATOM     18  C   LIG d   1       4.033  -0.750 -10.061  0.00  0.00     0.050 C 
ATOM     19  H   LIG d   1       4.352   0.064 -10.712  0.00  0.00     0.054 H 
ATOM     20  H   LIG d   1       4.854  -1.453  -9.929  0.00  0.00     0.054 H 
BRANCH  18  21
ATOM     21  C   LIG d   1       2.858  -1.459 -10.683  0.00  0.00    -0.028 A 
ATOM     22  C   LIG d   1       2.260  -2.517 -10.024  0.00  0.00    -0.056 A 
ATOM     23  C   LIG d   1       1.182  -3.168 -10.594  0.00  0.00    -0.043 A 
ATOM     24  H   LIG d   1       2.635  -2.835  -9.063  0.00  0.00     0.062 H 
ATOM     25  C   LIG d   1       0.702  -2.760 -11.826  0.00  0.00     0.041 A 
ATOM     26  H   LIG d   1       0.715  -3.994 -10.079  0.00  0.00     0.063 H 
ATOM     27  C   LIG d   1       1.300  -1.702 -12.486  0.00  0.00    -0.043 A 
ATOM     28 CL   LIG d   1      -0.652  -3.578 -12.543  0.00  0.00    -0.084 Cl
ATOM     29  C   LIG d   1       2.374  -1.049 -11.912  0.00  0.00    -0.056 A 
ATOM     30  H   LIG d   1       0.925  -1.384 -13.448  0.00  0.00     0.063 H 
ATOM     31  H   LIG d   1       2.839  -0.219 -12.425  0.00  0.00     0.062 H 
ENDBRANCH  18  21
ENDBRANCH   6  18
BRANCH   1  32
ATOM     32  C   LIG d   1       4.640  -1.547  -3.428  0.00  0.00     0.328 C 
ATOM     33  O   LIG d   1       3.566  -1.688  -2.895  0.00  0.00    -0.249 OA
BRANCH  32  34
ATOM     34  O   LIG d   1       5.766  -1.842  -2.758  0.00  0.00    -0.467 OA
BRANCH  34  35
ATOM     35  C   LIG d   1       7.009  -1.316  -3.292  0.00  0.00     0.082 C 
ATOM     36  H   LIG d   1       7.624  -0.936  -2.477  0.00  0.00     0.066 H 
ATOM     37  H   LIG d   1       7.544  -2.109  -3.813  0.00  0.00     0.066 H 
ATOM     38  H   LIG d   1       6.791  -0.506  -3.991  0.00  0.00     0.066 H 
ENDBRANCH  34  35
ENDBRANCH  32  34
ENDBRANCH   1  32
BRANCH  11  39
ATOM     39  C   LIG d   1       4.320  -4.568  -6.301  0.00  0.00     0.056 C 
ATOM     40  H   LIG d   1       3.280  -4.897  -6.286  0.00  0.00     0.041 H 
ATOM     41  H   LIG d   1       4.579  -4.230  -7.304  0.00  0.00     0.041 H 
BRANCH  39  42
ATOM     42  C   LIG d   1       5.215  -5.717  -5.911  0.00  0.00    -0.002 A 
ATOM     43  S   LIG d   1       6.997  -5.772  -5.821  0.00  0.00    -0.101 SA
ATOM     44  C   LIG d   1       7.170  -7.468  -5.291  0.00  0.00    -0.024 A 
ATOM     45  C   LIG d   1       5.879  -7.872  -5.220  0.00  0.00    -0.054 A 
ATOM     46  H   LIG d   1       8.070  -8.027  -5.082  0.00  0.00     0.069 H 
ATOM     47  C   LIG d   1       4.876  -6.973  -5.532  0.00  0.00    -0.051 A 
ATOM     48  H   LIG d   1       5.635  -8.881  -4.919  0.00  0.00     0.062 H 
ATOM     49  H   LIG d   1       3.838  -7.268  -5.478  0.00  0.00     0.063 H 
ENDBRANCH  39  42
ENDBRANCH  11  39
TORSDOF 7
ENDMDL
MODEL 9
REMARK VINA RESULT:      -5.7      3.632      5.740
REMARK  7 active torsions:
REMARK  status: ('A' for Active; 'I' for Inactive)
REMARK    1  A    between atoms: C_1  and  O_2 
REMARK    2  A    between atoms: O_2  and  C_3 
REMARK    3  A    between atoms: C_3  and  C_5 
REMARK    4  A    between atoms: N_10  and  C_13 
REMARK    5  A    between atoms: C_13  and  C_14 
REMARK       I    between atoms: N_22  and  C_23 
REMARK    6  A    between atoms: C_23  and  C_25 
REMARK    7  A    between atoms: C_25  and  C_26 
ROOT
ATOM      1  C   LIG d   1       3.865  -0.135  -4.475  0.00  0.00     0.129 C 
ATOM      2  H   LIG d   1       4.558   0.693  -4.328  0.00  0.00     0.062 H 
ATOM      3  C   LIG d   1       2.723   0.317  -5.386  0.00  0.00     0.020 C 
ATOM      4  C   LIG d   1       3.233   0.395  -6.803  0.00  0.00     0.066 A 
ATOM      5  C   LIG d   1       4.360  -0.204  -7.243  0.00  0.00     0.059 A 
ATOM      6  N   LIG d   1       4.481   0.084  -8.566  0.00  0.00    -0.328 N 
ATOM      7  C   LIG d   1       3.422   0.858  -8.901  0.00  0.00     0.097 A 
ATOM      8  N   LIG d   1       2.682   1.038  -7.838  0.00  0.00    -0.240 NA
ATOM      9  C   LIG d   1       5.275  -1.029  -6.373  0.00  0.00     0.058 C 
ATOM     10  N   LIG d   1       4.572  -1.263  -5.099  0.00  0.00    -0.282 N 
ATOM     11  C   LIG d   1       4.574  -2.482  -4.522  0.00  0.00     0.221 C 
ATOM     12  O   LIG d   1       4.083  -2.633  -3.423  0.00  0.00    -0.275 OA
ATOM     13  H   LIG d   1       2.368   1.298  -5.071  0.00  0.00     0.035 H 
ATOM     14  H   LIG d   1       1.908  -0.405  -5.330  0.00  0.00     0.035 H 
ATOM     15  H   LIG d   1       3.221   1.260  -9.882  0.00  0.00     0.103 H 
ATOM     16  H   LIG d   1       6.203  -0.488  -6.192  0.00  0.00     0.053 H 
ATOM     17  H   LIG d   1       5.491  -1.982  -6.858  0.00  0.00     0.053 H 
ENDROOT
BRANCH   6  18
ATOM     18  C   LIG d   1       5.554  -0.358  -9.461  0.00  0.00     0.050 C 
ATOM     19  H   LIG d   1       5.724  -1.426  -9.325  0.00  0.00     0.054 H 
ATOM     20  H   LIG d   1       5.268  -0.164 -10.494  0.00  0.00     0.054 H 
BRANCH  18  21
ATOM     21  C   LIG d   1       6.818   0.397  -9.139  0.00  0.00    -0.028 A 
ATOM     22  C   LIG d   1       6.801   1.778  -9.073  0.00  0.00    -0.056 A 
ATOM     23  C   LIG d   1       7.961   2.471  -8.779  0.00  0.00    -0.043 A 
ATOM     24  H   LIG d   1       5.883   2.316  -9.253  0.00  0.00     0.062 H 
ATOM     25  C   LIG d   1       9.138   1.781  -8.549  0.00  0.00     0.041 A 
ATOM     26  H   LIG d   1       7.948   3.550  -8.727  0.00  0.00     0.063 H 
ATOM     27  C   LIG d   1       9.154   0.400  -8.614  0.00  0.00    -0.043 A 
ATOM     28 CL   LIG d   1      10.595   2.651  -8.178  0.00  0.00    -0.084 Cl
ATOM     29  C   LIG d   1       7.993  -0.292  -8.904  0.00  0.00    -0.056 A 
ATOM     30  H   LIG d   1      10.074  -0.139  -8.435  0.00  0.00     0.063 H 
ATOM     31  H   LIG d   1       8.005  -1.371  -8.952  0.00  0.00     0.062 H 
ENDBRANCH  18  21
ENDBRANCH   6  18
BRANCH   1  32
ATOM     32  C   LIG d   1       3.303  -0.566  -3.146  0.00  0.00     0.328 C 
ATOM     33  O   LIG d   1       2.175  -0.993  -3.076  0.00  0.00    -0.249 OA
BRANCH  32  34
ATOM     34  O   LIG d   1       4.055  -0.475  -2.038  0.00  0.00    -0.467 OA
BRANCH  34  35
ATOM     35  C   LIG d   1       4.608   0.829  -1.722  0.00  0.00     0.082 C 
ATOM     36  H   LIG d   1       5.155   0.775  -0.781  0.00  0.00     0.066 H 
ATOM     37  H   LIG d   1       5.285   1.139  -2.518  0.00  0.00     0.066 H 
ATOM     38  H   LIG d   1       3.799   1.555  -1.630  0.00  0.00     0.066 H 
ENDBRANCH  34  35
ENDBRANCH  32  34
ENDBRANCH   1  32
BRANCH  11  39
ATOM     39  C   LIG d   1       5.179  -3.657  -5.245  0.00  0.00     0.056 C 
ATOM     40  H   LIG d   1       4.616  -4.559  -5.007  0.00  0.00     0.041 H 
ATOM     41  H   LIG d   1       5.145  -3.480  -6.320  0.00  0.00     0.041 H 
BRANCH  39  42
ATOM     42  C   LIG d   1       6.612  -3.831  -4.810  0.00  0.00    -0.002 A 
ATOM     43  S   LIG d   1       7.754  -5.145  -5.203  0.00  0.00    -0.101 SA
ATOM     44  C   LIG d   1       9.162  -4.538  -4.288  0.00  0.00    -0.024 A 
ATOM     45  C   LIG d   1       8.675  -3.393  -3.752  0.00  0.00    -0.054 A 
ATOM     46  H   LIG d   1      10.146  -4.972  -4.188  0.00  0.00     0.069 H 
ATOM     47  C   LIG d   1       7.370  -3.028  -4.024  0.00  0.00    -0.051 A 
ATOM     48  H   LIG d   1       9.298  -2.772  -3.126  0.00  0.00     0.062 H 
ATOM     49  H   LIG d   1       6.958  -2.117  -3.614  0.00  0.00     0.063 H 
ENDBRANCH  39  42
ENDBRANCH  11  39
TORSDOF 7
ENDMDL
MODEL 10
REMARK VINA RESULT:      -5.6      2.994      5.013
REMARK  7 active torsions:
REMARK  status: ('A' for Active; 'I' for Inactive)
REMARK    1  A    between atoms: C_1  and  O_2 
REMARK    2  A    between atoms: O_2  and  C_3 
REMARK    3  A    between atoms: C_3  and  C_5 
REMARK    4  A    between atoms: N_10  and  C_13 
REMARK    5  A    between atoms: C_13  and  C_14 
REMARK       I    between atoms: N_22  and  C_23 
REMARK    6  A    between atoms: C_23  and  C_25 
REMARK    7  A    between atoms: C_25  and  C_26 
ROOT
ATOM      1  C   LIG d   1       3.976  -0.064  -4.320  0.00  0.00     0.129 C 
ATOM      2  H   LIG d   1       4.433   0.917  -4.188  0.00  0.00     0.062 H 
ATOM      3  C   LIG d   1       2.841   0.039  -5.339  0.00  0.00     0.020 C 
ATOM      4  C   LIG d   1       3.436   0.161  -6.719  0.00  0.00     0.066 A 
ATOM      5  C   LIG d   1       4.708  -0.166  -7.034  0.00  0.00     0.059 A 
ATOM      6  N   LIG d   1       4.868   0.068  -8.363  0.00  0.00    -0.328 N 
ATOM      7  C   LIG d   1       3.687   0.537  -8.827  0.00  0.00     0.097 A 
ATOM      8  N   LIG d   1       2.836   0.588  -7.836  0.00  0.00    -0.240 NA
ATOM      9  C   LIG d   1       5.717  -0.689  -6.042  0.00  0.00     0.058 C 
ATOM     10  N   LIG d   1       4.985  -1.016  -4.805  0.00  0.00    -0.282 N 
ATOM     11  C   LIG d   1       5.232  -2.162  -4.140  0.00  0.00     0.221 C 
ATOM     12  O   LIG d   1       4.700  -2.367  -3.068  0.00  0.00    -0.275 OA
ATOM     13  H   LIG d   1       2.234   0.918  -5.124  0.00  0.00     0.035 H 
ATOM     14  H   LIG d   1       2.223  -0.857  -5.285  0.00  0.00     0.035 H 
ATOM     15  H   LIG d   1       3.479   0.820  -9.848  0.00  0.00     0.103 H 
ATOM     16  H   LIG d   1       6.468   0.075  -5.839  0.00  0.00     0.053 H 
ATOM     17  H   LIG d   1       6.198  -1.584  -6.438  0.00  0.00     0.053 H 
ENDROOT
BRANCH   6  18
ATOM     18  C   LIG d   1       6.089  -0.145  -9.146  0.00  0.00     0.050 C 
ATOM     19  H   LIG d   1       5.979   0.324 -10.124  0.00  0.00     0.054 H 
ATOM     20  H   LIG d   1       6.937   0.297  -8.624  0.00  0.00     0.054 H 
BRANCH  18  21
ATOM     21  C   LIG d   1       6.321  -1.623  -9.320  0.00  0.00    -0.028 A 
ATOM     22  C   LIG d   1       7.384  -2.236  -8.684  0.00  0.00    -0.056 A 
ATOM     23  C   LIG d   1       7.598  -3.593  -8.844  0.00  0.00    -0.043 A 
ATOM     24  H   LIG d   1       8.049  -1.656  -8.062  0.00  0.00     0.062 H 
ATOM     25  C   LIG d   1       6.746  -4.337  -9.641  0.00  0.00     0.041 A 
ATOM     26  H   LIG d   1       8.429  -4.072  -8.347  0.00  0.00     0.063 H 
ATOM     27  C   LIG d   1       5.682  -3.723 -10.278  0.00  0.00    -0.043 A 
ATOM     28 CL   LIG d   1       7.014  -6.041  -9.843  0.00  0.00    -0.084 Cl
ATOM     29  C   LIG d   1       5.467  -2.368 -10.113  0.00  0.00    -0.056 A 
ATOM     30  H   LIG d   1       5.018  -4.304 -10.901  0.00  0.00     0.063 H 
ATOM     31  H   LIG d   1       4.633  -1.889 -10.606  0.00  0.00     0.062 H 
ENDBRANCH  18  21
ENDBRANCH   6  18
BRANCH   1  32
ATOM     32  C   LIG d   1       3.422  -0.545  -3.003  0.00  0.00     0.328 C 
ATOM     33  O   LIG d   1       2.388  -1.168  -2.973  0.00  0.00    -0.249 OA
BRANCH  32  34
ATOM     34  O   LIG d   1       4.080  -0.281  -1.863  0.00  0.00    -0.467 OA
BRANCH  34  35
ATOM     35  C   LIG d   1       4.645   1.049  -1.720  0.00  0.00     0.082 C 
ATOM     36  H   LIG d   1       5.701   1.026  -1.986  0.00  0.00     0.066 H 
ATOM     37  H   LIG d   1       4.119   1.739  -2.380  0.00  0.00     0.066 H 
ATOM     38  H   LIG d   1       4.537   1.382  -0.687  0.00  0.00     0.066 H 
ENDBRANCH  34  35
ENDBRANCH  32  34
ENDBRANCH   1  32
BRANCH  11  39
ATOM     39  C   LIG d   1       6.163  -3.190  -4.727  0.00  0.00     0.056 C 
ATOM     40  H   LIG d   1       6.929  -2.690  -5.321  0.00  0.00     0.041 H 
ATOM     41  H   LIG d   1       6.637  -3.754  -3.924  0.00  0.00     0.041 H 
BRANCH  39  42
ATOM     42  C   LIG d   1       5.382  -4.131  -5.608  0.00  0.00    -0.002 A 
ATOM     43  S   LIG d   1       5.450  -5.914  -5.687  0.00  0.00    -0.101 SA
ATOM     44  C   LIG d   1       4.225  -6.156  -6.963  0.00  0.00    -0.024 A 
ATOM     45  C   LIG d   1       3.852  -4.883  -7.239  0.00  0.00    -0.054 A 
ATOM     46  H   LIG d   1       3.872  -7.078  -7.401  0.00  0.00     0.069 H 
ATOM     47  C   LIG d   1       4.441  -3.846  -6.541  0.00  0.00    -0.051 A 
ATOM     48  H   LIG d   1       3.103  -4.682  -7.991  0.00  0.00     0.062 H 
ATOM     49  H   LIG d   1       4.159  -2.821  -6.738  0.00  0.00     0.063 H 
ENDBRANCH  39  42
ENDBRANCH  11  39
TORSDOF 7
ENDMDL
