MODEL 1
REMARK VINA RESULT:      -6.4      0.000      0.000
REMARK  5 active torsions:
REMARK  status: ('A' for Active; 'I' for Inactive)
REMARK    1  A    between atoms: C_4  and  O_7 
REMARK    2  A    between atoms: O_7  and  C_8 
REMARK       I    between atoms: C_8  and  N_10 
REMARK    3  A    between atoms: N_10  and  N_11 
REMARK       I    between atoms: N_11  and  C_12 
REMARK    4  A    between atoms: C_12  and  O_14 
REMARK    5  A    between atoms: O_14  and  C_15 
ROOT
ATOM      1  C   LIG d   1       4.166  -1.106  -7.307  0.00  0.00     0.422 C 
ATOM      2  O   LIG d   1       4.238  -2.280  -7.612  0.00  0.00    -0.224 OA
ATOM      3  N   LIG d   1       2.996  -0.592  -6.879  0.00  0.00    -0.197 N 
ATOM      4  H   LIG d   1       2.213  -1.160  -6.809  0.00  0.00     0.176 HD
ENDROOT
BRANCH   3   5
ATOM      5  N   LIG d   1       2.913   0.762  -6.527  0.00  0.00    -0.197 N 
ATOM      6  C   LIG d   1       2.433   1.116  -5.318  0.00  0.00     0.422 C 
ATOM      7  O   LIG d   1       2.361   2.290  -5.014  0.00  0.00    -0.224 OA
ATOM      8  H   LIG d   1       3.200   1.444  -7.154  0.00  0.00     0.176 HD
BRANCH   6   9
ATOM      9  O   LIG d   1       2.035   0.168  -4.449  0.00  0.00    -0.411 OA
BRANCH   9  10
ATOM     10  C   LIG d   1       2.918  -0.188  -3.478  0.00  0.00     0.133 A 
ATOM     11  C   LIG d   1       3.191  -1.528  -3.245  0.00  0.00    -0.019 A 
ATOM     12  C   LIG d   1       4.088  -1.889  -2.258  0.00  0.00    -0.058 A 
ATOM     13  H   LIG d   1       2.702  -2.290  -3.835  0.00  0.00     0.065 H 
ATOM     14  C   LIG d   1       4.714  -0.914  -1.503  0.00  0.00    -0.061 A 
ATOM     15  H   LIG d   1       4.300  -2.932  -2.077  0.00  0.00     0.062 H 
ATOM     16  C   LIG d   1       4.444   0.423  -1.733  0.00  0.00    -0.058 A 
ATOM     17  H   LIG d   1       5.415  -1.196  -0.732  0.00  0.00     0.062 H 
ATOM     18  C   LIG d   1       3.552   0.788  -2.723  0.00  0.00    -0.019 A 
ATOM     19  H   LIG d   1       4.935   1.183  -1.143  0.00  0.00     0.062 H 
ATOM     20  H   LIG d   1       3.344   1.832  -2.905  0.00  0.00     0.065 H 
ENDBRANCH   9  10
ENDBRANCH   6   9
ENDBRANCH   3   5
BRANCH   1  21
ATOM     21  O   LIG d   1       5.255  -0.319  -7.397  0.00  0.00    -0.411 OA
BRANCH  21  22
ATOM     22  C   LIG d   1       6.290  -0.599  -6.562  0.00  0.00     0.133 A 
ATOM     23  C   LIG d   1       6.151  -0.403  -5.195  0.00  0.00    -0.019 A 
ATOM     24  C   LIG d   1       7.204  -0.689  -4.348  0.00  0.00    -0.058 A 
ATOM     25  H   LIG d   1       5.220  -0.029  -4.794  0.00  0.00     0.065 H 
ATOM     26  C   LIG d   1       8.395  -1.168  -4.860  0.00  0.00    -0.061 A 
ATOM     27  H   LIG d   1       7.097  -0.536  -3.284  0.00  0.00     0.062 H 
ATOM     28  C   LIG d   1       8.536  -1.365  -6.221  0.00  0.00    -0.058 A 
ATOM     29  H   LIG d   1       9.217  -1.391  -4.195  0.00  0.00     0.062 H 
ATOM     30  C   LIG d   1       7.483  -1.086  -7.073  0.00  0.00    -0.019 A 
ATOM     31  H   LIG d   1       9.467  -1.740  -6.619  0.00  0.00     0.062 H 
ATOM     32  H   LIG d   1       7.592  -1.243  -8.136  0.00  0.00     0.065 H 
ENDBRANCH  21  22
ENDBRANCH   1  21
TORSDOF 5
ENDMDL
MODEL 2
REMARK VINA RESULT:      -6.3      2.658      4.439
REMARK  5 active torsions:
REMARK  status: ('A' for Active; 'I' for Inactive)
REMARK    1  A    between atoms: C_4  and  O_7 
REMARK    2  A    between atoms: O_7  and  C_8 
REMARK       I    between atoms: C_8  and  N_10 
REMARK    3  A    between atoms: N_10  and  N_11 
REMARK       I    between atoms: N_11  and  C_12 
REMARK    4  A    between atoms: C_12  and  O_14 
REMARK    5  A    between atoms: O_14  and  C_15 
ROOT
ATOM      1  C   LIG d   1       3.470  -1.134  -8.055  0.00  0.00     0.422 C 
ATOM      2  O   LIG d   1       3.641  -2.317  -8.278  0.00  0.00    -0.224 OA
ATOM      3  N   LIG d   1       3.268  -0.711  -6.791  0.00  0.00    -0.197 N 
ATOM      4  H   LIG d   1       3.264  -1.348  -6.060  0.00  0.00     0.176 HD
ENDROOT
BRANCH   3   5
ATOM      5  N   LIG d   1       3.072   0.652  -6.533  0.00  0.00    -0.197 N 
ATOM      6  C   LIG d   1       2.474   1.042  -5.389  0.00  0.00     0.422 C 
ATOM      7  O   LIG d   1       2.304   2.224  -5.166  0.00  0.00    -0.224 OA
ATOM      8  H   LIG d   1       3.364   1.316  -7.178  0.00  0.00     0.176 HD
BRANCH   6   9
ATOM      9  O   LIG d   1       2.069   0.122  -4.494  0.00  0.00    -0.411 OA
BRANCH   9  10
ATOM     10  C   LIG d   1       2.938  -0.195  -3.497  0.00  0.00     0.133 A 
ATOM     11  C   LIG d   1       3.235  -1.522  -3.229  0.00  0.00    -0.019 A 
ATOM     12  C   LIG d   1       4.119  -1.842  -2.216  0.00  0.00    -0.058 A 
ATOM     13  H   LIG d   1       2.776  -2.308  -3.813  0.00  0.00     0.065 H 
ATOM     14  C   LIG d   1       4.708  -0.837  -1.469  0.00  0.00    -0.061 A 
ATOM     15  H   LIG d   1       4.349  -2.876  -2.008  0.00  0.00     0.062 H 
ATOM     16  C   LIG d   1       4.414   0.488  -1.735  0.00  0.00    -0.058 A 
ATOM     17  H   LIG d   1       5.397  -1.088  -0.678  0.00  0.00     0.062 H 
ATOM     18  C   LIG d   1       3.535   0.811  -2.751  0.00  0.00    -0.019 A 
ATOM     19  H   LIG d   1       4.875   1.270  -1.151  0.00  0.00     0.062 H 
ATOM     20  H   LIG d   1       3.309   1.846  -2.960  0.00  0.00     0.065 H 
ENDBRANCH   9  10
ENDBRANCH   6   9
ENDBRANCH   3   5
BRANCH   1  21
ATOM     21  O   LIG d   1       3.482  -0.249  -9.068  0.00  0.00    -0.411 OA
BRANCH  21  22
ATOM     22  C   LIG d   1       2.946  -0.655 -10.249  0.00  0.00     0.133 A 
ATOM     23  C   LIG d   1       3.775  -0.967 -11.318  0.00  0.00    -0.019 A 
ATOM     24  C   LIG d   1       3.228  -1.380 -12.517  0.00  0.00    -0.058 A 
ATOM     25  H   LIG d   1       4.847  -0.887 -11.212  0.00  0.00     0.065 H 
ATOM     26  C   LIG d   1       1.856  -1.482 -12.654  0.00  0.00    -0.061 A 
ATOM     27  H   LIG d   1       3.872  -1.621 -13.349  0.00  0.00     0.062 H 
ATOM     28  C   LIG d   1       1.028  -1.174 -11.591  0.00  0.00    -0.058 A 
ATOM     29  H   LIG d   1       1.431  -1.806 -13.593  0.00  0.00     0.062 H 
ATOM     30  C   LIG d   1       1.571  -0.765 -10.386  0.00  0.00    -0.019 A 
ATOM     31  H   LIG d   1      -0.043  -1.256 -11.700  0.00  0.00     0.062 H 
ATOM     32  H   LIG d   1       0.924  -0.528  -9.555  0.00  0.00     0.065 H 
ENDBRANCH  21  22
ENDBRANCH   1  21
TORSDOF 5
ENDMDL
MODEL 3
REMARK VINA RESULT:      -6.2      2.721      5.550
REMARK  5 active torsions:
REMARK  status: ('A' for Active; 'I' for Inactive)
REMARK    1  A    between atoms: C_4  and  O_7 
REMARK    2  A    between atoms: O_7  and  C_8 
REMARK       I    between atoms: C_8  and  N_10 
REMARK    3  A    between atoms: N_10  and  N_11 
REMARK       I    between atoms: N_11  and  C_12 
REMARK    4  A    between atoms: C_12  and  O_14 
REMARK    5  A    between atoms: O_14  and  C_15 
ROOT
ATOM      1  C   LIG d   1       5.302  -2.928  -5.361  0.00  0.00     0.422 C 
ATOM      2  O   LIG d   1       6.383  -2.845  -4.811  0.00  0.00    -0.224 OA
ATOM      3  N   LIG d   1       5.239  -3.137  -6.691  0.00  0.00    -0.197 N 
ATOM      4  H   LIG d   1       6.054  -3.226  -7.208  0.00  0.00     0.176 HD
ENDROOT
BRANCH   3   5
ATOM      5  N   LIG d   1       3.993  -3.232  -7.326  0.00  0.00    -0.197 N 
ATOM      6  C   LIG d   1       3.715  -2.446  -8.386  0.00  0.00     0.422 C 
ATOM      7  O   LIG d   1       2.635  -2.529  -8.935  0.00  0.00    -0.224 OA
ATOM      8  H   LIG d   1       3.330  -3.862  -7.002  0.00  0.00     0.176 HD
BRANCH   6   9
ATOM      9  O   LIG d   1       4.635  -1.572  -8.834  0.00  0.00    -0.411 OA
BRANCH   9  10
ATOM     10  C   LIG d   1       4.211  -0.304  -9.084  0.00  0.00     0.133 A 
ATOM     11  C   LIG d   1       3.615   0.440  -8.076  0.00  0.00    -0.019 A 
ATOM     12  C   LIG d   1       3.184   1.728  -8.331  0.00  0.00    -0.058 A 
ATOM     13  H   LIG d   1       3.487   0.013  -7.092  0.00  0.00     0.065 H 
ATOM     14  C   LIG d   1       3.348   2.276  -9.591  0.00  0.00    -0.061 A 
ATOM     15  H   LIG d   1       2.720   2.307  -7.547  0.00  0.00     0.062 H 
ATOM     16  C   LIG d   1       3.943   1.536 -10.597  0.00  0.00    -0.058 A 
ATOM     17  H   LIG d   1       3.011   3.281  -9.789  0.00  0.00     0.062 H 
ATOM     18  C   LIG d   1       4.379   0.249 -10.345  0.00  0.00    -0.019 A 
ATOM     19  H   LIG d   1       4.070   1.965 -11.580  0.00  0.00     0.062 H 
ATOM     20  H   LIG d   1       4.847  -0.326 -11.130  0.00  0.00     0.065 H 
ENDBRANCH   9  10
ENDBRANCH   6   9
ENDBRANCH   3   5
BRANCH   1  21
ATOM     21  O   LIG d   1       4.170  -2.810  -4.643  0.00  0.00    -0.411 OA
BRANCH  21  22
ATOM     22  C   LIG d   1       4.035  -1.692  -3.882  0.00  0.00     0.133 A 
ATOM     23  C   LIG d   1       4.411  -1.711  -2.546  0.00  0.00    -0.019 A 
ATOM     24  C   LIG d   1       4.273  -0.573  -1.776  0.00  0.00    -0.058 A 
ATOM     25  H   LIG d   1       4.813  -2.614  -2.110  0.00  0.00     0.065 H 
ATOM     26  C   LIG d   1       3.759   0.584  -2.333  0.00  0.00    -0.061 A 
ATOM     27  H   LIG d   1       4.565  -0.586  -0.736  0.00  0.00     0.062 H 
ATOM     28  C   LIG d   1       3.385   0.605  -3.664  0.00  0.00    -0.058 A 
ATOM     29  H   LIG d   1       3.653   1.472  -1.728  0.00  0.00     0.062 H 
ATOM     30  C   LIG d   1       3.526  -0.529  -4.441  0.00  0.00    -0.019 A 
ATOM     31  H   LIG d   1       2.985   1.510  -4.097  0.00  0.00     0.062 H 
ATOM     32  H   LIG d   1       3.237  -0.511  -5.482  0.00  0.00     0.065 H 
ENDBRANCH  21  22
ENDBRANCH   1  21
TORSDOF 5
ENDMDL
MODEL 4
REMARK VINA RESULT:      -6.2      2.972      5.803
REMARK  5 active torsions:
REMARK  status: ('A' for Active; 'I' for Inactive)
REMARK    1  A    between atoms: C_4  and  O_7 
REMARK    2  A    between atoms: O_7  and  C_8 
REMARK       I    between atoms: C_8  and  N_10 
REMARK    3  A    between atoms: N_10  and  N_11 
REMARK       I    between atoms: N_11  and  C_12 
REMARK    4  A    between atoms: C_12  and  O_14 
REMARK    5  A    between atoms: O_14  and  C_15 
ROOT
ATOM      1  C   LIG d   1       5.822  -2.613  -4.051  0.00  0.00     0.422 C 
ATOM      2  O   LIG d   1       6.784  -1.883  -3.912  0.00  0.00    -0.224 OA
ATOM      3  N   LIG d   1       5.860  -3.612  -4.954  0.00  0.00    -0.197 N 
ATOM      4  H   LIG d   1       6.657  -3.752  -5.490  0.00  0.00     0.176 HD
ENDROOT
BRANCH   3   5
ATOM      5  N   LIG d   1       4.752  -4.454  -5.114  0.00  0.00    -0.197 N 
ATOM      6  C   LIG d   1       4.213  -4.632  -6.337  0.00  0.00     0.422 C 
ATOM      7  O   LIG d   1       3.251  -5.362  -6.476  0.00  0.00    -0.224 OA
ATOM      8  H   LIG d   1       4.371  -4.907  -4.346  0.00  0.00     0.176 HD
BRANCH   6   9
ATOM      9  O   LIG d   1       4.742  -4.004  -7.404  0.00  0.00    -0.411 OA
BRANCH   9  10
ATOM     10  C   LIG d   1       4.006  -3.002  -7.957  0.00  0.00     0.133 A 
ATOM     11  C   LIG d   1       4.047  -1.727  -7.411  0.00  0.00    -0.019 A 
ATOM     12  C   LIG d   1       3.300  -0.711  -7.973  0.00  0.00    -0.058 A 
ATOM     13  H   LIG d   1       4.664  -1.529  -6.546  0.00  0.00     0.065 H 
ATOM     14  C   LIG d   1       2.510  -0.964  -9.081  0.00  0.00    -0.061 A 
ATOM     15  H   LIG d   1       3.331   0.281  -7.548  0.00  0.00     0.062 H 
ATOM     16  C   LIG d   1       2.468  -2.233  -9.628  0.00  0.00    -0.058 A 
ATOM     17  H   LIG d   1       1.927  -0.169  -9.520  0.00  0.00     0.062 H 
ATOM     18  C   LIG d   1       3.219  -3.252  -9.071  0.00  0.00    -0.019 A 
ATOM     19  H   LIG d   1       1.852  -2.429 -10.492  0.00  0.00     0.062 H 
ATOM     20  H   LIG d   1       3.188  -4.242  -9.501  0.00  0.00     0.065 H 
ENDBRANCH   9  10
ENDBRANCH   6   9
ENDBRANCH   3   5
BRANCH   1  21
ATOM     21  O   LIG d   1       4.719  -2.423  -3.302  0.00  0.00    -0.411 OA
BRANCH  21  22
ATOM     22  C   LIG d   1       4.334  -1.138  -3.085  0.00  0.00     0.133 A 
ATOM     23  C   LIG d   1       3.539  -0.484  -4.016  0.00  0.00    -0.019 A 
ATOM     24  C   LIG d   1       3.149   0.822  -3.793  0.00  0.00    -0.058 A 
ATOM     25  H   LIG d   1       3.225  -0.997  -4.914  0.00  0.00     0.065 H 
ATOM     26  C   LIG d   1       3.550   1.479  -2.644  0.00  0.00    -0.061 A 
ATOM     27  H   LIG d   1       2.531   1.332  -4.518  0.00  0.00     0.062 H 
ATOM     28  C   LIG d   1       4.341   0.829  -1.715  0.00  0.00    -0.058 A 
ATOM     29  H   LIG d   1       3.243   2.500  -2.473  0.00  0.00     0.062 H 
ATOM     30  C   LIG d   1       4.730  -0.480  -1.931  0.00  0.00    -0.019 A 
ATOM     31  H   LIG d   1       4.653   1.344  -0.818  0.00  0.00     0.062 H 
ATOM     32  H   LIG d   1       5.345  -0.988  -1.202  0.00  0.00     0.065 H 
ENDBRANCH  21  22
ENDBRANCH   1  21
TORSDOF 5
ENDMDL
MODEL 5
REMARK VINA RESULT:      -6.1      2.311      4.119
REMARK  5 active torsions:
REMARK  status: ('A' for Active; 'I' for Inactive)
REMARK    1  A    between atoms: C_4  and  O_7 
REMARK    2  A    between atoms: O_7  and  C_8 
REMARK       I    between atoms: C_8  and  N_10 
REMARK    3  A    between atoms: N_10  and  N_11 
REMARK       I    between atoms: N_11  and  C_12 
REMARK    4  A    between atoms: C_12  and  O_14 
REMARK    5  A    between atoms: O_14  and  C_15 
ROOT
ATOM      1  C   LIG d   1       2.459   0.533  -4.714  0.00  0.00     0.422 C 
ATOM      2  O   LIG d   1       1.400  -0.064  -4.718  0.00  0.00    -0.224 OA
ATOM      3  N   LIG d   1       3.118   0.728  -3.554  0.00  0.00    -0.197 N 
ATOM      4  H   LIG d   1       2.749   0.389  -2.724  0.00  0.00     0.176 HD
ENDROOT
BRANCH   3   5
ATOM      5  N   LIG d   1       4.338   1.416  -3.550  0.00  0.00    -0.197 N 
ATOM      6  C   LIG d   1       5.421   0.862  -2.968  0.00  0.00     0.422 C 
ATOM      7  O   LIG d   1       6.480   1.458  -2.964  0.00  0.00    -0.224 OA
ATOM      8  H   LIG d   1       4.404   2.290  -3.964  0.00  0.00     0.176 HD
BRANCH   6   9
ATOM      9  O   LIG d   1       5.329  -0.352  -2.393  0.00  0.00    -0.411 OA
BRANCH   9  10
ATOM     10  C   LIG d   1       5.609  -1.428  -3.177  0.00  0.00     0.133 A 
ATOM     11  C   LIG d   1       6.902  -1.640  -3.631  0.00  0.00    -0.019 A 
ATOM     12  C   LIG d   1       7.185  -2.733  -4.427  0.00  0.00    -0.058 A 
ATOM     13  H   LIG d   1       7.689  -0.950  -3.363  0.00  0.00     0.065 H 
ATOM     14  C   LIG d   1       6.178  -3.617  -4.771  0.00  0.00    -0.061 A 
ATOM     15  H   LIG d   1       8.191  -2.897  -4.781  0.00  0.00     0.062 H 
ATOM     16  C   LIG d   1       4.888  -3.409  -4.318  0.00  0.00    -0.058 A 
ATOM     17  H   LIG d   1       6.399  -4.471  -5.393  0.00  0.00     0.062 H 
ATOM     18  C   LIG d   1       4.602  -2.320  -3.518  0.00  0.00    -0.019 A 
ATOM     19  H   LIG d   1       4.103  -4.101  -4.587  0.00  0.00     0.062 H 
ATOM     20  H   LIG d   1       3.595  -2.160  -3.162  0.00  0.00     0.065 H 
ENDBRANCH   9  10
ENDBRANCH   6   9
ENDBRANCH   3   5
BRANCH   1  21
ATOM     21  O   LIG d   1       2.974   0.998  -5.868  0.00  0.00    -0.411 OA
BRANCH  21  22
ATOM     22  C   LIG d   1       3.311   0.078  -6.809  0.00  0.00     0.133 A 
ATOM     23  C   LIG d   1       2.481  -0.136  -7.901  0.00  0.00    -0.019 A 
ATOM     24  C   LIG d   1       2.827  -1.072  -8.856  0.00  0.00    -0.058 A 
ATOM     25  H   LIG d   1       1.567   0.430  -8.003  0.00  0.00     0.065 H 
ATOM     26  C   LIG d   1       3.997  -1.796  -8.725  0.00  0.00    -0.061 A 
ATOM     27  H   LIG d   1       2.181  -1.240  -9.705  0.00  0.00     0.062 H 
ATOM     28  C   LIG d   1       4.826  -1.585  -7.640  0.00  0.00    -0.058 A 
ATOM     29  H   LIG d   1       4.265  -2.528  -9.474  0.00  0.00     0.062 H 
ATOM     30  C   LIG d   1       4.489  -0.645  -6.683  0.00  0.00    -0.019 A 
ATOM     31  H   LIG d   1       5.740  -2.151  -7.540  0.00  0.00     0.062 H 
ATOM     32  H   LIG d   1       5.139  -0.477  -5.837  0.00  0.00     0.065 H 
ENDBRANCH  21  22
ENDBRANCH   1  21
TORSDOF 5
ENDMDL
MODEL 6
REMARK VINA RESULT:      -6.1      2.524      5.201
REMARK  5 active torsions:
REMARK  status: ('A' for Active; 'I' for Inactive)
REMARK    1  A    between atoms: C_4  and  O_7 
REMARK    2  A    between atoms: O_7  and  C_8 
REMARK       I    between atoms: C_8  and  N_10 
REMARK    3  A    between atoms: N_10  and  N_11 
REMARK       I    between atoms: N_11  and  C_12 
REMARK    4  A    between atoms: C_12  and  O_14 
REMARK    5  A    between atoms: O_14  and  C_15 
ROOT
ATOM      1  C   LIG d   1       4.016  -0.813  -6.123  0.00  0.00     0.422 C 
ATOM      2  O   LIG d   1       4.429   0.184  -6.683  0.00  0.00    -0.224 OA
ATOM      3  N   LIG d   1       4.464  -2.028  -6.496  0.00  0.00    -0.197 N 
ATOM      4  H   LIG d   1       5.119  -2.107  -7.207  0.00  0.00     0.176 HD
ENDROOT
BRANCH   3   5
ATOM      5  N   LIG d   1       3.988  -3.177  -5.851  0.00  0.00    -0.197 N 
ATOM      6  C   LIG d   1       4.795  -4.246  -5.694  0.00  0.00     0.422 C 
ATOM      7  O   LIG d   1       4.383  -5.242  -5.135  0.00  0.00    -0.224 OA
ATOM      8  H   LIG d   1       3.077  -3.205  -5.518  0.00  0.00     0.176 HD
BRANCH   6   9
ATOM      9  O   LIG d   1       6.059  -4.207  -6.157  0.00  0.00    -0.411 OA
BRANCH   9  10
ATOM     10  C   LIG d   1       7.055  -4.196  -5.231  0.00  0.00     0.133 A 
ATOM     11  C   LIG d   1       7.219  -3.099  -4.399  0.00  0.00    -0.019 A 
ATOM     12  C   LIG d   1       8.231  -3.089  -3.459  0.00  0.00    -0.058 A 
ATOM     13  H   LIG d   1       6.555  -2.250  -4.486  0.00  0.00     0.065 H 
ATOM     14  C   LIG d   1       9.081  -4.175  -3.346  0.00  0.00    -0.061 A 
ATOM     15  H   LIG d   1       8.358  -2.234  -2.812  0.00  0.00     0.062 H 
ATOM     16  C   LIG d   1       8.919  -5.271  -4.174  0.00  0.00    -0.058 A 
ATOM     17  H   LIG d   1       9.871  -4.166  -2.611  0.00  0.00     0.062 H 
ATOM     18  C   LIG d   1       7.905  -5.286  -5.112  0.00  0.00    -0.019 A 
ATOM     19  H   LIG d   1       9.584  -6.117  -4.084  0.00  0.00     0.062 H 
ATOM     20  H   LIG d   1       7.778  -6.144  -5.755  0.00  0.00     0.065 H 
ENDBRANCH   9  10
ENDBRANCH   6   9
ENDBRANCH   3   5
BRANCH   1  21
ATOM     21  O   LIG d   1       3.112  -0.703  -5.132  0.00  0.00    -0.411 OA
BRANCH  21  22
ATOM     22  C   LIG d   1       3.568  -0.276  -3.925  0.00  0.00     0.133 A 
ATOM     23  C   LIG d   1       3.422   1.054  -3.558  0.00  0.00    -0.019 A 
ATOM     24  C   LIG d   1       3.887   1.484  -2.330  0.00  0.00    -0.058 A 
ATOM     25  H   LIG d   1       2.946   1.752  -4.231  0.00  0.00     0.065 H 
ATOM     26  C   LIG d   1       4.496   0.592  -1.468  0.00  0.00    -0.061 A 
ATOM     27  H   LIG d   1       3.775   2.520  -2.044  0.00  0.00     0.062 H 
ATOM     28  C   LIG d   1       4.641  -0.734  -1.831  0.00  0.00    -0.058 A 
ATOM     29  H   LIG d   1       4.858   0.931  -0.508  0.00  0.00     0.062 H 
ATOM     30  C   LIG d   1       4.174  -1.172  -3.056  0.00  0.00    -0.019 A 
ATOM     31  H   LIG d   1       5.117  -1.430  -1.156  0.00  0.00     0.062 H 
ATOM     32  H   LIG d   1       4.284  -2.209  -3.338  0.00  0.00     0.065 H 
ENDBRANCH  21  22
ENDBRANCH   1  21
TORSDOF 5
ENDMDL
MODEL 7
REMARK VINA RESULT:      -6.0      2.761      4.107
REMARK  5 active torsions:
REMARK  status: ('A' for Active; 'I' for Inactive)
REMARK    1  A    between atoms: C_4  and  O_7 
REMARK    2  A    between atoms: O_7  and  C_8 
REMARK       I    between atoms: C_8  and  N_10 
REMARK    3  A    between atoms: N_10  and  N_11 
REMARK       I    between atoms: N_11  and  C_12 
REMARK    4  A    between atoms: C_12  and  O_14 
REMARK    5  A    between atoms: O_14  and  C_15 
ROOT
ATOM      1  C   LIG d   1       5.623  -0.741  -6.449  0.00  0.00     0.422 C 
ATOM      2  O   LIG d   1       5.357  -1.830  -6.920  0.00  0.00    -0.224 OA
ATOM      3  N   LIG d   1       6.827  -0.530  -5.881  0.00  0.00    -0.197 N 
ATOM      4  H   LIG d   1       7.482  -1.244  -5.852  0.00  0.00     0.176 HD
ENDROOT
BRANCH   3   5
ATOM      5  N   LIG d   1       7.134   0.725  -5.339  0.00  0.00    -0.197 N 
ATOM      6  C   LIG d   1       7.180   0.887  -4.001  0.00  0.00     0.422 C 
ATOM      7  O   LIG d   1       7.446   1.975  -3.531  0.00  0.00    -0.224 OA
ATOM      8  H   LIG d   1       7.313   1.477  -5.925  0.00  0.00     0.176 HD
BRANCH   6   9
ATOM      9  O   LIG d   1       6.932  -0.156  -3.187  0.00  0.00    -0.411 OA
BRANCH   9  10
ATOM     10  C   LIG d   1       5.628  -0.467  -2.963  0.00  0.00     0.133 A 
ATOM     11  C   LIG d   1       5.232  -1.795  -2.891  0.00  0.00    -0.019 A 
ATOM     12  C   LIG d   1       3.906  -2.109  -2.663  0.00  0.00    -0.058 A 
ATOM     13  H   LIG d   1       5.960  -2.583  -3.014  0.00  0.00     0.065 H 
ATOM     14  C   LIG d   1       2.973  -1.099  -2.506  0.00  0.00    -0.061 A 
ATOM     15  H   LIG d   1       3.598  -3.142  -2.608  0.00  0.00     0.062 H 
ATOM     16  C   LIG d   1       3.365   0.225  -2.575  0.00  0.00    -0.058 A 
ATOM     17  H   LIG d   1       1.938  -1.346  -2.327  0.00  0.00     0.062 H 
ATOM     18  C   LIG d   1       4.692   0.543  -2.798  0.00  0.00    -0.019 A 
ATOM     19  H   LIG d   1       2.636   1.011  -2.451  0.00  0.00     0.062 H 
ATOM     20  H   LIG d   1       4.997   1.577  -2.849  0.00  0.00     0.065 H 
ENDBRANCH   9  10
ENDBRANCH   6   9
ENDBRANCH   3   5
BRANCH   1  21
ATOM     21  O   LIG d   1       4.716   0.252  -6.495  0.00  0.00    -0.411 OA
BRANCH  21  22
ATOM     22  C   LIG d   1       4.329   0.678  -7.727  0.00  0.00     0.133 A 
ATOM     23  C   LIG d   1       5.281   1.076  -8.655  0.00  0.00    -0.019 A 
ATOM     24  C   LIG d   1       4.885   1.507  -9.906  0.00  0.00    -0.058 A 
ATOM     25  H   LIG d   1       6.330   1.047  -8.400  0.00  0.00     0.065 H 
ATOM     26  C   LIG d   1       3.542   1.544 -10.234  0.00  0.00    -0.061 A 
ATOM     27  H   LIG d   1       5.625   1.818 -10.629  0.00  0.00     0.062 H 
ATOM     28  C   LIG d   1       2.593   1.147  -9.311  0.00  0.00    -0.058 A 
ATOM     29  H   LIG d   1       3.235   1.882 -11.213  0.00  0.00     0.062 H 
ATOM     30  C   LIG d   1       2.983   0.709  -8.060  0.00  0.00    -0.019 A 
ATOM     31  H   LIG d   1       1.544   1.175  -9.570  0.00  0.00     0.062 H 
ATOM     32  H   LIG d   1       2.241   0.394  -7.341  0.00  0.00     0.065 H 
ENDBRANCH  21  22
ENDBRANCH   1  21
TORSDOF 5
ENDMDL
MODEL 8
REMARK VINA RESULT:      -5.9      3.005      6.126
REMARK  5 active torsions:
REMARK  status: ('A' for Active; 'I' for Inactive)
REMARK    1  A    between atoms: C_4  and  O_7 
REMARK    2  A    between atoms: O_7  and  C_8 
REMARK       I    between atoms: C_8  and  N_10 
REMARK    3  A    between atoms: N_10  and  N_11 
REMARK       I    between atoms: N_11  and  C_12 
REMARK    4  A    between atoms: C_12  and  O_14 
REMARK    5  A    between atoms: O_14  and  C_15 
ROOT
ATOM      1  C   LIG d   1       3.328   0.246  -6.229  0.00  0.00     0.422 C 
ATOM      2  O   LIG d   1       2.223   0.166  -5.728  0.00  0.00    -0.224 OA
ATOM      3  N   LIG d   1       3.529   1.051  -7.291  0.00  0.00    -0.197 N 
ATOM      4  H   LIG d   1       2.794   1.569  -7.653  0.00  0.00     0.176 HD
ENDROOT
BRANCH   3   5
ATOM      5  N   LIG d   1       4.802   1.142  -7.869  0.00  0.00    -0.197 N 
ATOM      6  C   LIG d   1       4.929   1.441  -9.177  0.00  0.00     0.422 C 
ATOM      7  O   LIG d   1       6.033   1.520  -9.678  0.00  0.00    -0.224 OA
ATOM      8  H   LIG d   1       5.593   0.990  -7.328  0.00  0.00     0.176 HD
BRANCH   6   9
ATOM      9  O   LIG d   1       3.831   1.652  -9.928  0.00  0.00    -0.411 OA
BRANCH   9  10
ATOM     10  C   LIG d   1       3.401   0.616 -10.697  0.00  0.00     0.133 A 
ATOM     11  C   LIG d   1       4.090   0.275 -11.852  0.00  0.00    -0.019 A 
ATOM     12  C   LIG d   1       3.652  -0.778 -12.632  0.00  0.00    -0.058 A 
ATOM     13  H   LIG d   1       4.970   0.832 -12.141  0.00  0.00     0.065 H 
ATOM     14  C   LIG d   1       2.526  -1.492 -12.262  0.00  0.00    -0.061 A 
ATOM     15  H   LIG d   1       4.188  -1.043 -13.531  0.00  0.00     0.062 H 
ATOM     16  C   LIG d   1       1.838  -1.154 -11.111  0.00  0.00    -0.058 A 
ATOM     17  H   LIG d   1       2.185  -2.314 -12.872  0.00  0.00     0.062 H 
ATOM     18  C   LIG d   1       2.276  -0.105 -10.325  0.00  0.00    -0.019 A 
ATOM     19  H   LIG d   1       0.960  -1.713 -10.823  0.00  0.00     0.062 H 
ATOM     20  H   LIG d   1       1.740   0.156  -9.425  0.00  0.00     0.065 H 
ENDBRANCH   9  10
ENDBRANCH   6   9
ENDBRANCH   3   5
BRANCH   1  21
ATOM     21  O   LIG d   1       4.350  -0.469  -5.723  0.00  0.00    -0.411 OA
BRANCH  21  22
ATOM     22  C   LIG d   1       4.360  -0.663  -4.377  0.00  0.00     0.133 A 
ATOM     23  C   LIG d   1       4.699   0.381  -3.528  0.00  0.00    -0.019 A 
ATOM     24  C   LIG d   1       4.708   0.181  -2.161  0.00  0.00    -0.058 A 
ATOM     25  H   LIG d   1       4.953   1.348  -3.935  0.00  0.00     0.065 H 
ATOM     26  C   LIG d   1       4.383  -1.057  -1.639  0.00  0.00    -0.061 A 
ATOM     27  H   LIG d   1       4.972   0.993  -1.499  0.00  0.00     0.062 H 
ATOM     28  C   LIG d   1       4.045  -2.098  -2.483  0.00  0.00    -0.058 A 
ATOM     29  H   LIG d   1       4.391  -1.210  -0.570  0.00  0.00     0.062 H 
ATOM     30  C   LIG d   1       4.028  -1.903  -3.852  0.00  0.00    -0.019 A 
ATOM     31  H   LIG d   1       3.790  -3.064  -2.073  0.00  0.00     0.062 H 
ATOM     32  H   LIG d   1       3.759  -2.715  -4.511  0.00  0.00     0.065 H 
ENDBRANCH  21  22
ENDBRANCH   1  21
TORSDOF 5
ENDMDL
MODEL 9
REMARK VINA RESULT:      -5.8      3.040      6.433
REMARK  5 active torsions:
REMARK  status: ('A' for Active; 'I' for Inactive)
REMARK    1  A    between atoms: C_4  and  O_7 
REMARK    2  A    between atoms: O_7  and  C_8 
REMARK       I    between atoms: C_8  and  N_10 
REMARK    3  A    between atoms: N_10  and  N_11 
REMARK       I    between atoms: N_11  and  C_12 
REMARK    4  A    between atoms: C_12  and  O_14 
REMARK    5  A    between atoms: O_14  and  C_15 
ROOT
ATOM      1  C   LIG d   1       3.235   0.304  -6.130  0.00  0.00     0.422 C 
ATOM      2  O   LIG d   1       2.555   1.248  -5.778  0.00  0.00    -0.224 OA
ATOM      3  N   LIG d   1       2.800  -0.510  -7.112  0.00  0.00    -0.197 N 
ATOM      4  H   LIG d   1       1.947  -0.340  -7.541  0.00  0.00     0.176 HD
ENDROOT
BRANCH   3   5
ATOM      5  N   LIG d   1       3.584  -1.598  -7.518  0.00  0.00    -0.197 N 
ATOM      6  C   LIG d   1       4.059  -1.654  -8.778  0.00  0.00     0.422 C 
ATOM      7  O   LIG d   1       4.738  -2.598  -9.130  0.00  0.00    -0.224 OA
ATOM      8  H   LIG d   1       3.784  -2.312  -6.892  0.00  0.00     0.176 HD
BRANCH   6   9
ATOM      9  O   LIG d   1       3.780  -0.663  -9.647  0.00  0.00    -0.411 OA
BRANCH   9  10
ATOM     10  C   LIG d   1       3.019  -0.985 -10.726  0.00  0.00     0.133 A 
ATOM     11  C   LIG d   1       1.642  -1.095 -10.598  0.00  0.00    -0.019 A 
ATOM     12  C   LIG d   1       0.870  -1.423 -11.696  0.00  0.00    -0.058 A 
ATOM     13  H   LIG d   1       1.173  -0.926  -9.639  0.00  0.00     0.065 H 
ATOM     14  C   LIG d   1       1.470  -1.639 -12.924  0.00  0.00    -0.061 A 
ATOM     15  H   LIG d   1      -0.201  -1.509 -11.596  0.00  0.00     0.062 H 
ATOM     16  C   LIG d   1       2.842  -1.529 -13.055  0.00  0.00    -0.058 A 
ATOM     17  H   LIG d   1       0.866  -1.895 -13.781  0.00  0.00     0.062 H 
ATOM     18  C   LIG d   1       3.618  -1.197 -11.960  0.00  0.00    -0.019 A 
ATOM     19  H   LIG d   1       3.308  -1.698 -14.014  0.00  0.00     0.062 H 
ATOM     20  H   LIG d   1       4.689  -1.107 -12.064  0.00  0.00     0.065 H 
ENDBRANCH   9  10
ENDBRANCH   6   9
ENDBRANCH   3   5
BRANCH   1  21
ATOM     21  O   LIG d   1       4.422   0.072  -5.539  0.00  0.00    -0.411 OA
BRANCH  21  22
ATOM     22  C   LIG d   1       4.396  -0.356  -4.249  0.00  0.00     0.133 A 
ATOM     23  C   LIG d   1       4.085  -1.677  -3.961  0.00  0.00    -0.019 A 
ATOM     24  C   LIG d   1       4.060  -2.109  -2.649  0.00  0.00    -0.058 A 
ATOM     25  H   LIG d   1       3.864  -2.367  -4.762  0.00  0.00     0.065 H 
ATOM     26  C   LIG d   1       4.343  -1.226  -1.623  0.00  0.00    -0.061 A 
ATOM     27  H   LIG d   1       3.817  -3.137  -2.424  0.00  0.00     0.062 H 
ATOM     28  C   LIG d   1       4.653   0.090  -1.907  0.00  0.00    -0.058 A 
ATOM     29  H   LIG d   1       4.322  -1.567  -0.598  0.00  0.00     0.062 H 
ATOM     30  C   LIG d   1       4.686   0.527  -3.219  0.00  0.00    -0.019 A 
ATOM     31  H   LIG d   1       4.875   0.778  -1.104  0.00  0.00     0.062 H 
ATOM     32  H   LIG d   1       4.933   1.555  -3.440  0.00  0.00     0.065 H 
ENDBRANCH  21  22
ENDBRANCH   1  21
TORSDOF 5
ENDMDL
