MODEL 1
REMARK VINA RESULT:      -6.0      0.000      0.000
REMARK  6 active torsions:
REMARK  status: ('A' for Active; 'I' for Inactive)
REMARK    1  A    between atoms: C_1  and  O_2 
REMARK    2  A    between atoms: O_2  and  C_3 
REMARK    3  A    between atoms: C_8  and  O_9 
REMARK    4  A    between atoms: O_9  and  C_10 
REMARK    5  A    between atoms: C_13  and  C_18 
REMARK    6  A    between atoms: C_13  and  O_25 
ROOT
ATOM      1  C   LIG d   1       7.647   1.203  -3.812  0.00  0.00     0.162 A 
ATOM      2  C   LIG d   1       8.434   0.247  -4.430  0.00  0.00    -0.013 A 
ATOM      3  C   LIG d   1       7.985  -1.058  -4.568  0.00  0.00    -0.030 A 
ATOM      4  C   LIG d   1       6.740  -1.402  -4.064  0.00  0.00     0.010 A 
ATOM      5  C   LIG d   1       5.946  -0.450  -3.452  0.00  0.00    -0.007 A 
ATOM      6  C   LIG d   1       6.392   0.855  -3.322  0.00  0.00     0.162 A 
ATOM      7  C   LIG d   1       6.265  -2.813  -4.187  0.00  0.00     0.039 C 
ATOM      8  H   LIG d   1       6.570  -3.383  -3.310  0.00  0.00     0.094 H 
ATOM      9  C   LIG d   1       4.764  -2.984  -4.422  0.00  0.00     0.142 C 
ATOM     10  C   LIG d   1       4.668  -4.246  -5.322  0.00  0.00     0.026 C 
ATOM     11  C   LIG d   1       6.142  -4.654  -5.594  0.00  0.00    -0.028 C 
ATOM     12  C   LIG d   1       8.318  -3.471  -5.212  0.00  0.00    -0.027 C 
ATOM     13  C   LIG d   1       8.871  -2.043  -5.286  0.00  0.00     0.013 C 
ATOM     14  H   LIG d   1       9.408   0.521  -4.808  0.00  0.00     0.066 H 
ATOM     15  H   LIG d   1       4.973  -0.725  -3.072  0.00  0.00     0.066 H 
ATOM     16  H   LIG d   1       4.144  -5.045  -4.797  0.00  0.00     0.035 H 
ATOM     17  H   LIG d   1       4.161  -4.008  -6.257  0.00  0.00     0.035 H 
ATOM     18  H   LIG d   1       6.258  -5.021  -6.614  0.00  0.00     0.082 H 
ATOM     19  H   LIG d   1       6.472  -5.405  -4.876  0.00  0.00     0.082 H 
ATOM     20  H   LIG d   1       8.768  -4.085  -5.992  0.00  0.00     0.082 H 
ATOM     21  H   LIG d   1       8.535  -3.902  -4.234  0.00  0.00     0.082 H 
ATOM     22  H   LIG d   1       8.952  -1.748  -6.333  0.00  0.00     0.036 H 
ATOM     23  H   LIG d   1       9.863  -2.021  -4.836  0.00  0.00     0.036 H 
ATOM     24  N   LIG d   1       6.835  -3.358  -5.382  0.00  0.00     0.243 N 
ATOM     25  H   LIG d   1       6.645  -2.741  -6.179  0.00  0.00     0.204 HD
ENDROOT
BRANCH   9  26
ATOM     26  C   LIG d   1       4.201  -1.783  -5.137  0.00  0.00    -0.010 A 
ATOM     27  C   LIG d   1       3.309  -0.948  -4.489  0.00  0.00    -0.053 A 
ATOM     28  C   LIG d   1       2.796   0.156  -5.143  0.00  0.00    -0.026 A 
ATOM     29  H   LIG d   1       3.016  -1.158  -3.471  0.00  0.00     0.062 H 
ATOM     30  C   LIG d   1       3.168   0.421  -6.450  0.00  0.00     0.123 A 
ATOM     31  H   LIG d   1       2.101   0.810  -4.635  0.00  0.00     0.065 H 
ATOM     32  C   LIG d   1       4.061  -0.415  -7.097  0.00  0.00    -0.026 A 
ATOM     33  F   LIG d   1       2.663   1.498  -7.091  0.00  0.00    -0.205 F 
ATOM     34  C   LIG d   1       4.577  -1.516  -6.440  0.00  0.00    -0.053 A 
ATOM     35  H   LIG d   1       4.355  -0.206  -8.116  0.00  0.00     0.065 H 
ATOM     36  H   LIG d   1       5.274  -2.168  -6.945  0.00  0.00     0.062 H 
ENDBRANCH   9  26
BRANCH   9  37
ATOM     37  O   LIG d   1       4.083  -3.194  -3.184  0.00  0.00    -0.378 OA
ATOM     38  H   LIG d   1       3.278  -2.667  -3.083  0.00  0.00     0.211 HD
ENDBRANCH   9  37
BRANCH   6  39
ATOM     39  O   LIG d   1       5.609   1.790  -2.720  0.00  0.00    -0.491 OA
BRANCH  39  40
ATOM     40  C   LIG d   1       4.513   1.311  -1.937  0.00  0.00     0.079 C 
ATOM     41  H   LIG d   1       4.894   0.802  -1.052  0.00  0.00     0.066 H 
ATOM     42  H   LIG d   1       3.890   2.152  -1.632  0.00  0.00     0.066 H 
ATOM     43  H   LIG d   1       3.920   0.615  -2.530  0.00  0.00     0.066 H 
ENDBRANCH  39  40
ENDBRANCH   6  39
BRANCH   1  44
ATOM     44  O   LIG d   1       8.099   2.478  -3.684  0.00  0.00    -0.491 OA
BRANCH  44  45
ATOM     45  C   LIG d   1       9.496   2.651  -3.437  0.00  0.00     0.079 C 
ATOM     46  H   LIG d   1       9.768   2.138  -2.514  0.00  0.00     0.066 H 
ATOM     47  H   LIG d   1      10.066   2.233  -4.267  0.00  0.00     0.066 H 
ATOM     48  H   LIG d   1       9.719   3.713  -3.342  0.00  0.00     0.066 H 
ENDBRANCH  44  45
ENDBRANCH   1  44
TORSDOF 6
ENDMDL
MODEL 2
REMARK VINA RESULT:      -5.8      2.647      5.829
REMARK  6 active torsions:
REMARK  status: ('A' for Active; 'I' for Inactive)
REMARK    1  A    between atoms: C_1  and  O_2 
REMARK    2  A    between atoms: O_2  and  C_3 
REMARK    3  A    between atoms: C_8  and  O_9 
REMARK    4  A    between atoms: O_9  and  C_10 
REMARK    5  A    between atoms: C_13  and  C_18 
REMARK    6  A    between atoms: C_13  and  O_25 
ROOT
ATOM      1  C   LIG d   1       4.361  -2.239  -7.654  0.00  0.00     0.162 A 
ATOM      2  C   LIG d   1       3.685  -1.037  -7.538  0.00  0.00    -0.013 A 
ATOM      3  C   LIG d   1       3.476  -0.460  -6.294  0.00  0.00    -0.030 A 
ATOM      4  C   LIG d   1       3.938  -1.110  -5.160  0.00  0.00     0.010 A 
ATOM      5  C   LIG d   1       4.620  -2.307  -5.270  0.00  0.00    -0.007 A 
ATOM      6  C   LIG d   1       4.836  -2.878  -6.513  0.00  0.00     0.162 A 
ATOM      7  C   LIG d   1       3.690  -0.504  -3.817  0.00  0.00     0.039 C 
ATOM      8  H   LIG d   1       2.747  -0.872  -3.415  0.00  0.00     0.094 H 
ATOM      9  C   LIG d   1       4.806  -0.702  -2.790  0.00  0.00     0.142 C 
ATOM     10  C   LIG d   1       4.767   0.597  -1.941  0.00  0.00     0.026 C 
ATOM     11  C   LIG d   1       3.672   1.476  -2.606  0.00  0.00    -0.028 C 
ATOM     12  C   LIG d   1       2.464   1.296  -4.795  0.00  0.00    -0.027 C 
ATOM     13  C   LIG d   1       2.769   0.870  -6.237  0.00  0.00     0.013 C 
ATOM     14  H   LIG d   1       3.317  -0.544  -8.426  0.00  0.00     0.066 H 
ATOM     15  H   LIG d   1       4.986  -2.800  -4.381  0.00  0.00     0.066 H 
ATOM     16  H   LIG d   1       4.495   0.368  -0.911  0.00  0.00     0.035 H 
ATOM     17  H   LIG d   1       5.732   1.102  -1.977  0.00  0.00     0.035 H 
ATOM     18  H   LIG d   1       3.959   2.527  -2.590  0.00  0.00     0.082 H 
ATOM     19  H   LIG d   1       2.711   1.331  -2.112  0.00  0.00     0.082 H 
ATOM     20  H   LIG d   1       2.273   2.368  -4.757  0.00  0.00     0.082 H 
ATOM     21  H   LIG d   1       1.595   0.752  -4.425  0.00  0.00     0.082 H 
ATOM     22  H   LIG d   1       3.400   1.626  -6.704  0.00  0.00     0.036 H 
ATOM     23  H   LIG d   1       1.834   0.799  -6.792  0.00  0.00     0.036 H 
ATOM     24  N   LIG d   1       3.664   0.917  -3.983  0.00  0.00     0.243 N 
ATOM     25  H   LIG d   1       4.505   1.233  -4.478  0.00  0.00     0.204 HD
ENDROOT
BRANCH   9  26
ATOM     26  C   LIG d   1       6.139  -0.843  -3.478  0.00  0.00    -0.010 A 
ATOM     27  C   LIG d   1       6.684   0.232  -4.156  0.00  0.00    -0.053 A 
ATOM     28  C   LIG d   1       7.909   0.105  -4.783  0.00  0.00    -0.026 A 
ATOM     29  H   LIG d   1       6.154   1.172  -4.192  0.00  0.00     0.062 H 
ATOM     30  C   LIG d   1       8.586  -1.102  -4.740  0.00  0.00     0.123 A 
ATOM     31  H   LIG d   1       8.336   0.946  -5.310  0.00  0.00     0.065 H 
ATOM     32  C   LIG d   1       8.040  -2.177  -4.061  0.00  0.00    -0.026 A 
ATOM     33  F   LIG d   1       9.781  -1.228  -5.358  0.00  0.00    -0.205 F 
ATOM     34  C   LIG d   1       6.817  -2.047  -3.431  0.00  0.00    -0.053 A 
ATOM     35  H   LIG d   1       8.570  -3.118  -4.024  0.00  0.00     0.065 H 
ATOM     36  H   LIG d   1       6.391  -2.885  -2.901  0.00  0.00     0.062 H 
ENDBRANCH   9  26
BRANCH   9  37
ATOM     37  O   LIG d   1       4.540  -1.845  -1.975  0.00  0.00    -0.378 OA
ATOM     38  H   LIG d   1       3.776  -2.364  -2.262  0.00  0.00     0.211 HD
ENDBRANCH   9  37
BRANCH   6  39
ATOM     39  O   LIG d   1       5.507  -4.056  -6.619  0.00  0.00    -0.491 OA
BRANCH  39  40
ATOM     40  C   LIG d   1       5.341  -4.995  -5.553  0.00  0.00     0.079 C 
ATOM     41  H   LIG d   1       4.768  -4.534  -4.750  0.00  0.00     0.066 H 
ATOM     42  H   LIG d   1       4.810  -5.872  -5.922  0.00  0.00     0.066 H 
ATOM     43  H   LIG d   1       6.319  -5.294  -5.177  0.00  0.00     0.066 H 
ENDBRANCH  39  40
ENDBRANCH   6  39
BRANCH   1  44
ATOM     44  O   LIG d   1       4.559  -2.793  -8.879  0.00  0.00    -0.491 OA
BRANCH  44  45
ATOM     45  C   LIG d   1       3.426  -3.388  -9.514  0.00  0.00     0.079 C 
ATOM     46  H   LIG d   1       3.208  -4.347  -9.045  0.00  0.00     0.066 H 
ATOM     47  H   LIG d   1       2.564  -2.729  -9.412  0.00  0.00     0.066 H 
ATOM     48  H   LIG d   1       3.643  -3.542 -10.571  0.00  0.00     0.066 H 
ENDBRANCH  44  45
ENDBRANCH   1  44
TORSDOF 6
ENDMDL
MODEL 3
REMARK VINA RESULT:      -5.6      2.636      4.561
REMARK  6 active torsions:
REMARK  status: ('A' for Active; 'I' for Inactive)
REMARK    1  A    between atoms: C_1  and  O_2 
REMARK    2  A    between atoms: O_2  and  C_3 
REMARK    3  A    between atoms: C_8  and  O_9 
REMARK    4  A    between atoms: O_9  and  C_10 
REMARK    5  A    between atoms: C_13  and  C_18 
REMARK    6  A    between atoms: C_13  and  O_25 
ROOT
ATOM      1  C   LIG d   1       4.692   0.135  -7.731  0.00  0.00     0.162 A 
ATOM      2  C   LIG d   1       3.959  -0.921  -8.243  0.00  0.00    -0.013 A 
ATOM      3  C   LIG d   1       4.344  -2.232  -8.000  0.00  0.00    -0.030 A 
ATOM      4  C   LIG d   1       5.484  -2.475  -7.250  0.00  0.00     0.010 A 
ATOM      5  C   LIG d   1       6.217  -1.423  -6.731  0.00  0.00    -0.007 A 
ATOM      6  C   LIG d   1       5.827  -0.115  -6.966  0.00  0.00     0.162 A 
ATOM      7  C   LIG d   1       5.916  -3.885  -7.010  0.00  0.00     0.039 C 
ATOM      8  H   LIG d   1       6.595  -4.203  -7.801  0.00  0.00     0.094 H 
ATOM      9  C   LIG d   1       6.545  -4.157  -5.643  0.00  0.00     0.142 C 
ATOM     10  C   LIG d   1       6.106  -5.608  -5.312  0.00  0.00     0.026 C 
ATOM     11  C   LIG d   1       5.187  -6.027  -6.493  0.00  0.00    -0.028 C 
ATOM     12  C   LIG d   1       4.121  -4.718  -8.346  0.00  0.00    -0.027 C 
ATOM     13  C   LIG d   1       3.482  -3.339  -8.550  0.00  0.00     0.013 C 
ATOM     14  H   LIG d   1       3.079  -0.722  -8.837  0.00  0.00     0.066 H 
ATOM     15  H   LIG d   1       7.098  -1.623  -6.139  0.00  0.00     0.066 H 
ATOM     16  H   LIG d   1       6.976  -6.264  -5.258  0.00  0.00     0.035 H 
ATOM     17  H   LIG d   1       5.552  -5.632  -4.374  0.00  0.00     0.035 H 
ATOM     18  H   LIG d   1       4.357  -6.637  -6.137  0.00  0.00     0.082 H 
ATOM     19  H   LIG d   1       5.758  -6.558  -7.254  0.00  0.00     0.082 H 
ATOM     20  H   LIG d   1       3.362  -5.495  -8.433  0.00  0.00     0.082 H 
ATOM     21  H   LIG d   1       4.901  -4.878  -9.090  0.00  0.00     0.082 H 
ATOM     22  H   LIG d   1       2.515  -3.318  -8.046  0.00  0.00     0.036 H 
ATOM     23  H   LIG d   1       3.327  -3.173  -9.616  0.00  0.00     0.036 H 
ATOM     24  N   LIG d   1       4.738  -4.697  -6.981  0.00  0.00     0.243 N 
ATOM     25  H   LIG d   1       4.055  -4.310  -6.321  0.00  0.00     0.204 HD
ENDROOT
BRANCH   9  26
ATOM     26  C   LIG d   1       6.010  -3.195  -4.614  0.00  0.00    -0.010 A 
ATOM     27  C   LIG d   1       6.860  -2.292  -4.003  0.00  0.00    -0.053 A 
ATOM     28  C   LIG d   1       6.369  -1.407  -3.062  0.00  0.00    -0.026 A 
ATOM     29  H   LIG d   1       7.908  -2.277  -4.264  0.00  0.00     0.062 H 
ATOM     30  C   LIG d   1       5.026  -1.431  -2.725  0.00  0.00     0.123 A 
ATOM     31  H   LIG d   1       7.033  -0.700  -2.587  0.00  0.00     0.065 H 
ATOM     32  C   LIG d   1       4.175  -2.335  -3.338  0.00  0.00    -0.026 A 
ATOM     33  F   LIG d   1       4.546  -0.569  -1.802  0.00  0.00    -0.205 F 
ATOM     34  C   LIG d   1       4.668  -3.216  -4.282  0.00  0.00    -0.053 A 
ATOM     35  H   LIG d   1       3.127  -2.351  -3.078  0.00  0.00     0.065 H 
ATOM     36  H   LIG d   1       4.005  -3.921  -4.760  0.00  0.00     0.062 H 
ENDBRANCH   9  26
BRANCH   9  37
ATOM     37  O   LIG d   1       7.969  -4.066  -5.720  0.00  0.00    -0.378 OA
ATOM     38  H   LIG d   1       8.343  -4.422  -6.538  0.00  0.00     0.211 HD
ENDBRANCH   9  37
BRANCH   6  39
ATOM     39  O   LIG d   1       6.549   0.917  -6.455  0.00  0.00    -0.491 OA
BRANCH  39  40
ATOM     40  C   LIG d   1       7.912   0.650  -6.114  0.00  0.00     0.079 C 
ATOM     41  H   LIG d   1       7.991   0.482  -5.040  0.00  0.00     0.066 H 
ATOM     42  H   LIG d   1       8.251  -0.237  -6.647  0.00  0.00     0.066 H 
ATOM     43  H   LIG d   1       8.530   1.503  -6.395  0.00  0.00     0.066 H 
ENDBRANCH  39  40
ENDBRANCH   6  39
BRANCH   1  44
ATOM     44  O   LIG d   1       4.304   1.415  -7.976  0.00  0.00    -0.491 OA
BRANCH  44  45
ATOM     45  C   LIG d   1       2.953   1.615  -8.396  0.00  0.00     0.079 C 
ATOM     46  H   LIG d   1       2.942   2.000  -9.416  0.00  0.00     0.066 H 
ATOM     47  H   LIG d   1       2.417   0.666  -8.360  0.00  0.00     0.066 H 
ATOM     48  H   LIG d   1       2.469   2.331  -7.732  0.00  0.00     0.066 H 
ENDBRANCH  44  45
ENDBRANCH   1  44
TORSDOF 6
ENDMDL
MODEL 4
REMARK VINA RESULT:      -5.5      3.278      4.647
REMARK  6 active torsions:
REMARK  status: ('A' for Active; 'I' for Inactive)
REMARK    1  A    between atoms: C_1  and  O_2 
REMARK    2  A    between atoms: O_2  and  C_3 
REMARK    3  A    between atoms: C_8  and  O_9 
REMARK    4  A    between atoms: O_9  and  C_10 
REMARK    5  A    between atoms: C_13  and  C_18 
REMARK    6  A    between atoms: C_13  and  O_25 
ROOT
ATOM      1  C   LIG d   1       5.453  -0.794  -5.503  0.00  0.00     0.162 A 
ATOM      2  C   LIG d   1       6.181  -1.693  -6.263  0.00  0.00    -0.013 A 
ATOM      3  C   LIG d   1       5.654  -2.218  -7.434  0.00  0.00    -0.030 A 
ATOM      4  C   LIG d   1       4.378  -1.845  -7.829  0.00  0.00     0.010 A 
ATOM      5  C   LIG d   1       3.649  -0.942  -7.077  0.00  0.00    -0.007 A 
ATOM      6  C   LIG d   1       4.179  -0.412  -5.913  0.00  0.00     0.162 A 
ATOM      7  C   LIG d   1       3.798  -2.430  -9.075  0.00  0.00     0.039 C 
ATOM      8  H   LIG d   1       3.254  -3.343  -8.836  0.00  0.00     0.094 H 
ATOM      9  C   LIG d   1       2.906  -1.492  -9.890  0.00  0.00     0.142 C 
ATOM     10  C   LIG d   1       3.159  -1.919 -11.360  0.00  0.00     0.026 C 
ATOM     11  C   LIG d   1       4.244  -3.028 -11.273  0.00  0.00    -0.028 C 
ATOM     12  C   LIG d   1       5.737  -3.783  -9.406  0.00  0.00    -0.027 C 
ATOM     13  C   LIG d   1       6.511  -3.160  -8.239  0.00  0.00     0.013 C 
ATOM     14  H   LIG d   1       7.169  -1.987  -5.940  0.00  0.00     0.066 H 
ATOM     15  H   LIG d   1       2.661  -0.650  -7.400  0.00  0.00     0.066 H 
ATOM     16  H   LIG d   1       2.245  -2.318 -11.801  0.00  0.00     0.035 H 
ATOM     17  H   LIG d   1       3.526  -1.075 -11.943  0.00  0.00     0.035 H 
ATOM     18  H   LIG d   1       4.942  -2.950 -12.106  0.00  0.00     0.082 H 
ATOM     19  H   LIG d   1       3.783  -4.015 -11.247  0.00  0.00     0.082 H 
ATOM     20  H   LIG d   1       6.433  -4.176 -10.147  0.00  0.00     0.082 H 
ATOM     21  H   LIG d   1       5.097  -4.587  -9.039  0.00  0.00     0.082 H 
ATOM     22  H   LIG d   1       7.366  -2.610  -8.633  0.00  0.00     0.036 H 
ATOM     23  H   LIG d   1       6.873  -3.955  -7.587  0.00  0.00     0.036 H 
ATOM     24  N   LIG d   1       4.881  -2.693  -9.973  0.00  0.00     0.243 N 
ATOM     25  H   LIG d   1       5.459  -1.853 -10.089  0.00  0.00     0.204 HD
ENDROOT
BRANCH   9  26
ATOM     26  C   LIG d   1       3.317  -0.057  -9.679  0.00  0.00    -0.010 A 
ATOM     27  C   LIG d   1       2.439   0.835  -9.092  0.00  0.00    -0.053 A 
ATOM     28  C   LIG d   1       2.817   2.149  -8.895  0.00  0.00    -0.026 A 
ATOM     29  H   LIG d   1       1.458   0.503  -8.785  0.00  0.00     0.062 H 
ATOM     30  C   LIG d   1       4.073   2.575  -9.294  0.00  0.00     0.123 A 
ATOM     31  H   LIG d   1       2.131   2.845  -8.433  0.00  0.00     0.065 H 
ATOM     32  C   LIG d   1       4.952   1.681  -9.881  0.00  0.00    -0.026 A 
ATOM     33  F   LIG d   1       4.441   3.861  -9.106  0.00  0.00    -0.205 F 
ATOM     34  C   LIG d   1       4.573   0.366 -10.073  0.00  0.00    -0.053 A 
ATOM     35  H   LIG d   1       5.933   2.012 -10.189  0.00  0.00     0.065 H 
ATOM     36  H   LIG d   1       5.259  -0.331 -10.531  0.00  0.00     0.062 H 
ENDBRANCH   9  26
BRANCH   9  37
ATOM     37  O   LIG d   1       1.533  -1.675  -9.539  0.00  0.00    -0.378 OA
ATOM     38  H   LIG d   1       1.317  -2.573  -9.253  0.00  0.00     0.211 HD
ENDBRANCH   9  37
BRANCH   6  39
ATOM     39  O   LIG d   1       3.460   0.476  -5.175  0.00  0.00    -0.491 OA
BRANCH  39  40
ATOM     40  C   LIG d   1       2.523  -0.065  -4.242  0.00  0.00     0.079 C 
ATOM     41  H   LIG d   1       1.954   0.745  -3.788  0.00  0.00     0.066 H 
ATOM     42  H   LIG d   1       1.842  -0.740  -4.761  0.00  0.00     0.066 H 
ATOM     43  H   LIG d   1       3.057  -0.613  -3.467  0.00  0.00     0.066 H 
ENDBRANCH  39  40
ENDBRANCH   6  39
BRANCH   1  44
ATOM     44  O   LIG d   1       5.981  -0.286  -4.358  0.00  0.00    -0.491 OA
BRANCH  44  45
ATOM     45  C   LIG d   1       6.019  -1.151  -3.220  0.00  0.00     0.079 C 
ATOM     46  H   LIG d   1       5.641  -2.135  -3.499  0.00  0.00     0.066 H 
ATOM     47  H   LIG d   1       7.046  -1.242  -2.867  0.00  0.00     0.066 H 
ATOM     48  H   LIG d   1       5.397  -0.735  -2.428  0.00  0.00     0.066 H 
ENDBRANCH  44  45
ENDBRANCH   1  44
TORSDOF 6
ENDMDL
MODEL 5
REMARK VINA RESULT:      -5.4      3.052      4.840
REMARK  6 active torsions:
REMARK  status: ('A' for Active; 'I' for Inactive)
REMARK    1  A    between atoms: C_1  and  O_2 
REMARK    2  A    between atoms: O_2  and  C_3 
REMARK    3  A    between atoms: C_8  and  O_9 
REMARK    4  A    between atoms: O_9  and  C_10 
REMARK    5  A    between atoms: C_13  and  C_18 
REMARK    6  A    between atoms: C_13  and  O_25 
ROOT
ATOM      1  C   LIG d   1       8.469   0.368  -6.655  0.00  0.00     0.162 A 
ATOM      2  C   LIG d   1       8.172   1.097  -5.517  0.00  0.00    -0.013 A 
ATOM      3  C   LIG d   1       7.092   0.752  -4.718  0.00  0.00    -0.030 A 
ATOM      4  C   LIG d   1       6.298  -0.325  -5.082  0.00  0.00     0.010 A 
ATOM      5  C   LIG d   1       6.594  -1.061  -6.214  0.00  0.00    -0.007 A 
ATOM      6  C   LIG d   1       7.678  -0.722  -7.006  0.00  0.00     0.162 A 
ATOM      7  C   LIG d   1       5.118  -0.682  -4.238  0.00  0.00     0.039 C 
ATOM      8  H   LIG d   1       4.235  -0.151  -4.595  0.00  0.00     0.094 H 
ATOM      9  C   LIG d   1       4.816  -2.177  -4.127  0.00  0.00     0.142 C 
ATOM     10  C   LIG d   1       4.251  -2.338  -2.690  0.00  0.00     0.026 C 
ATOM     11  C   LIG d   1       4.347  -0.920  -2.062  0.00  0.00    -0.028 C 
ATOM     12  C   LIG d   1       5.528   1.169  -2.787  0.00  0.00    -0.027 C 
ATOM     13  C   LIG d   1       6.844   1.559  -3.470  0.00  0.00     0.013 C 
ATOM     14  H   LIG d   1       8.789   1.942  -5.248  0.00  0.00     0.066 H 
ATOM     15  H   LIG d   1       5.976  -1.906  -6.483  0.00  0.00     0.066 H 
ATOM     16  H   LIG d   1       3.212  -2.666  -2.727  0.00  0.00     0.035 H 
ATOM     17  H   LIG d   1       4.854  -3.046  -2.122  0.00  0.00     0.035 H 
ATOM     18  H   LIG d   1       4.620  -0.983  -1.009  0.00  0.00     0.082 H 
ATOM     19  H   LIG d   1       3.407  -0.381  -2.185  0.00  0.00     0.082 H 
ATOM     20  H   LIG d   1       5.534   1.503  -1.750  0.00  0.00     0.082 H 
ATOM     21  H   LIG d   1       4.688   1.621  -3.316  0.00  0.00     0.082 H 
ATOM     22  H   LIG d   1       7.667   1.395  -2.774  0.00  0.00     0.036 H 
ATOM     23  H   LIG d   1       6.809   2.616  -3.732  0.00  0.00     0.036 H 
ATOM     24  N   LIG d   1       5.427  -0.322  -2.888  0.00  0.00     0.243 N 
ATOM     25  H   LIG d   1       6.327  -0.728  -2.609  0.00  0.00     0.204 HD
ENDROOT
BRANCH   9  26
ATOM     26  C   LIG d   1       6.078  -2.984  -4.291  0.00  0.00    -0.010 A 
ATOM     27  C   LIG d   1       7.205  -2.661  -3.558  0.00  0.00    -0.053 A 
ATOM     28  C   LIG d   1       8.361  -3.405  -3.705  0.00  0.00    -0.026 A 
ATOM     29  H   LIG d   1       7.181  -1.831  -2.869  0.00  0.00     0.062 H 
ATOM     30  C   LIG d   1       8.393  -4.467  -4.592  0.00  0.00     0.123 A 
ATOM     31  H   LIG d   1       9.241  -3.154  -3.129  0.00  0.00     0.065 H 
ATOM     32  C   LIG d   1       7.264  -4.789  -5.325  0.00  0.00    -0.026 A 
ATOM     33  F   LIG d   1       9.524  -5.191  -4.739  0.00  0.00    -0.205 F 
ATOM     34  C   LIG d   1       6.107  -4.048  -5.173  0.00  0.00    -0.053 A 
ATOM     35  H   LIG d   1       7.287  -5.621  -6.014  0.00  0.00     0.065 H 
ATOM     36  H   LIG d   1       5.226  -4.300  -5.744  0.00  0.00     0.062 H 
ENDBRANCH   9  26
BRANCH   9  37
ATOM     37  O   LIG d   1       3.843  -2.566  -5.098  0.00  0.00    -0.378 OA
ATOM     38  H   LIG d   1       3.070  -1.986  -5.135  0.00  0.00     0.211 HD
ENDBRANCH   9  37
BRANCH   6  39
ATOM     39  O   LIG d   1       7.968  -1.447  -8.119  0.00  0.00    -0.491 OA
BRANCH  39  40
ATOM     40  C   LIG d   1       8.744  -2.633  -7.937  0.00  0.00     0.079 C 
ATOM     41  H   LIG d   1       8.217  -3.482  -8.372  0.00  0.00     0.066 H 
ATOM     42  H   LIG d   1       9.710  -2.514  -8.428  0.00  0.00     0.066 H 
ATOM     43  H   LIG d   1       8.896  -2.808  -6.872  0.00  0.00     0.066 H 
ENDBRANCH  39  40
ENDBRANCH   6  39
BRANCH   1  44
ATOM     44  O   LIG d   1       9.532   0.716  -7.428  0.00  0.00    -0.491 OA
BRANCH  44  45
ATOM     45  C   LIG d   1      10.834   0.478  -6.889  0.00  0.00     0.079 C 
ATOM     46  H   LIG d   1      11.439  -0.056  -7.622  0.00  0.00     0.066 H 
ATOM     47  H   LIG d   1      11.308   1.430  -6.650  0.00  0.00     0.066 H 
ATOM     48  H   LIG d   1      10.747  -0.123  -5.984  0.00  0.00     0.066 H 
ENDBRANCH  44  45
ENDBRANCH   1  44
TORSDOF 6
ENDMDL
MODEL 6
REMARK VINA RESULT:      -5.2      3.867      5.565
REMARK  6 active torsions:
REMARK  status: ('A' for Active; 'I' for Inactive)
REMARK    1  A    between atoms: C_1  and  O_2 
REMARK    2  A    between atoms: O_2  and  C_3 
REMARK    3  A    between atoms: C_8  and  O_9 
REMARK    4  A    between atoms: O_9  and  C_10 
REMARK    5  A    between atoms: C_13  and  C_18 
REMARK    6  A    between atoms: C_13  and  O_25 
ROOT
ATOM      1  C   LIG d   1       5.750  -1.708  -6.761  0.00  0.00     0.162 A 
ATOM      2  C   LIG d   1       6.151  -2.498  -7.824  0.00  0.00    -0.013 A 
ATOM      3  C   LIG d   1       5.299  -2.729  -8.894  0.00  0.00    -0.030 A 
ATOM      4  C   LIG d   1       4.030  -2.172  -8.881  0.00  0.00     0.010 A 
ATOM      5  C   LIG d   1       3.626  -1.377  -7.825  0.00  0.00    -0.007 A 
ATOM      6  C   LIG d   1       4.480  -1.139  -6.762  0.00  0.00     0.162 A 
ATOM      7  C   LIG d   1       3.101  -2.442 -10.020  0.00  0.00     0.039 C 
ATOM      8  H   LIG d   1       2.508  -3.332  -9.810  0.00  0.00     0.094 H 
ATOM      9  C   LIG d   1       2.180  -1.284 -10.406  0.00  0.00     0.142 C 
ATOM     10  C   LIG d   1       2.021  -1.430 -11.943  0.00  0.00     0.026 C 
ATOM     11  C   LIG d   1       2.935  -2.626 -12.327  0.00  0.00    -0.028 C 
ATOM     12  C   LIG d   1       4.705  -3.870 -11.061  0.00  0.00    -0.027 C 
ATOM     13  C   LIG d   1       5.809  -3.565 -10.040  0.00  0.00     0.013 C 
ATOM     14  H   LIG d   1       7.138  -2.939  -7.820  0.00  0.00     0.066 H 
ATOM     15  H   LIG d   1       2.639  -0.938  -7.830  0.00  0.00     0.066 H 
ATOM     16  H   LIG d   1       0.984  -1.648 -12.198  0.00  0.00     0.035 H 
ATOM     17  H   LIG d   1       2.354  -0.522 -12.447  0.00  0.00     0.035 H 
ATOM     18  H   LIG d   1       3.423  -2.446 -13.285  0.00  0.00     0.082 H 
ATOM     19  H   LIG d   1       2.363  -3.553 -12.355  0.00  0.00     0.082 H 
ATOM     20  H   LIG d   1       5.150  -4.167 -12.011  0.00  0.00     0.082 H 
ATOM     21  H   LIG d   1       4.066  -4.670 -10.687  0.00  0.00     0.082 H 
ATOM     22  H   LIG d   1       6.614  -3.026 -10.540  0.00  0.00     0.036 H 
ATOM     23  H   LIG d   1       6.201  -4.503  -9.649  0.00  0.00     0.036 H 
ATOM     24  N   LIG d   1       3.898  -2.616 -11.195  0.00  0.00     0.243 N 
ATOM     25  H   LIG d   1       4.541  -1.825 -11.309  0.00  0.00     0.204 HD
ENDROOT
BRANCH   9  26
ATOM     26  C   LIG d   1       2.820   0.037 -10.065  0.00  0.00    -0.010 A 
ATOM     27  C   LIG d   1       4.015   0.400 -10.658  0.00  0.00    -0.053 A 
ATOM     28  C   LIG d   1       4.600   1.613 -10.349  0.00  0.00    -0.026 A 
ATOM     29  H   LIG d   1       4.489  -0.263 -11.366  0.00  0.00     0.062 H 
ATOM     30  C   LIG d   1       3.994   2.461  -9.438  0.00  0.00     0.123 A 
ATOM     31  H   LIG d   1       5.532   1.898 -10.816  0.00  0.00     0.065 H 
ATOM     32  C   LIG d   1       2.797   2.097  -8.844  0.00  0.00    -0.026 A 
ATOM     33  F   LIG d   1       4.568   3.645  -9.132  0.00  0.00    -0.205 F 
ATOM     34  C   LIG d   1       2.211   0.885  -9.159  0.00  0.00    -0.053 A 
ATOM     35  H   LIG d   1       2.322   2.760  -8.136  0.00  0.00     0.065 H 
ATOM     36  H   LIG d   1       1.278   0.601  -8.696  0.00  0.00     0.062 H 
ENDBRANCH   9  26
BRANCH   9  37
ATOM     37  O   LIG d   1       0.915  -1.410  -9.754  0.00  0.00    -0.378 OA
ATOM     38  H   LIG d   1       0.623  -0.606  -9.302  0.00  0.00     0.211 HD
ENDBRANCH   9  37
BRANCH   6  39
ATOM     39  O   LIG d   1       4.082  -0.356  -5.724  0.00  0.00    -0.491 OA
BRANCH  39  40
ATOM     40  C   LIG d   1       2.724   0.093  -5.734  0.00  0.00     0.079 C 
ATOM     41  H   LIG d   1       2.071  -0.735  -6.007  0.00  0.00     0.066 H 
ATOM     42  H   LIG d   1       2.455   0.456  -4.743  0.00  0.00     0.066 H 
ATOM     43  H   LIG d   1       2.613   0.898  -6.460  0.00  0.00     0.066 H 
ENDBRANCH  39  40
ENDBRANCH   6  39
BRANCH   1  44
ATOM     44  O   LIG d   1       6.595  -1.489  -5.719  0.00  0.00    -0.491 OA
BRANCH  44  45
ATOM     45  C   LIG d   1       7.658  -0.557  -5.929  0.00  0.00     0.079 C 
ATOM     46  H   LIG d   1       7.347   0.190  -6.661  0.00  0.00     0.066 H 
ATOM     47  H   LIG d   1       7.901  -0.064  -4.988  0.00  0.00     0.066 H 
ATOM     48  H   LIG d   1       8.536  -1.085  -6.300  0.00  0.00     0.066 H 
ENDBRANCH  44  45
ENDBRANCH   1  44
TORSDOF 6
ENDMDL
MODEL 7
REMARK VINA RESULT:      -5.2      2.245      3.281
REMARK  6 active torsions:
REMARK  status: ('A' for Active; 'I' for Inactive)
REMARK    1  A    between atoms: C_1  and  O_2 
REMARK    2  A    between atoms: O_2  and  C_3 
REMARK    3  A    between atoms: C_8  and  O_9 
REMARK    4  A    between atoms: O_9  and  C_10 
REMARK    5  A    between atoms: C_13  and  C_18 
REMARK    6  A    between atoms: C_13  and  O_25 
ROOT
ATOM      1  C   LIG d   1       5.305   0.308  -4.008  0.00  0.00     0.162 A 
ATOM      2  C   LIG d   1       6.454  -0.415  -4.275  0.00  0.00    -0.013 A 
ATOM      3  C   LIG d   1       6.471  -1.369  -5.282  0.00  0.00    -0.030 A 
ATOM      4  C   LIG d   1       5.316  -1.604  -6.011  0.00  0.00     0.010 A 
ATOM      5  C   LIG d   1       4.167  -0.880  -5.753  0.00  0.00    -0.007 A 
ATOM      6  C   LIG d   1       4.153   0.078  -4.754  0.00  0.00     0.162 A 
ATOM      7  C   LIG d   1       5.324  -2.650  -7.077  0.00  0.00     0.039 C 
ATOM      8  H   LIG d   1       5.029  -3.610  -6.655  0.00  0.00     0.094 H 
ATOM      9  C   LIG d   1       4.473  -2.340  -8.310  0.00  0.00     0.142 C 
ATOM     10  C   LIG d   1       5.257  -2.993  -9.479  0.00  0.00     0.026 C 
ATOM     11  C   LIG d   1       6.547  -3.563  -8.827  0.00  0.00    -0.028 C 
ATOM     12  C   LIG d   1       7.584  -3.227  -6.570  0.00  0.00    -0.027 C 
ATOM     13  C   LIG d   1       7.765  -2.094  -5.552  0.00  0.00     0.013 C 
ATOM     14  H   LIG d   1       7.347  -0.234  -3.693  0.00  0.00     0.066 H 
ATOM     15  H   LIG d   1       3.275  -1.063  -6.334  0.00  0.00     0.066 H 
ATOM     16  H   LIG d   1       4.672  -3.796  -9.926  0.00  0.00     0.035 H 
ATOM     17  H   LIG d   1       5.511  -2.244 -10.230  0.00  0.00     0.035 H 
ATOM     18  H   LIG d   1       7.401  -3.440  -9.491  0.00  0.00     0.082 H 
ATOM     19  H   LIG d   1       6.412  -4.611  -8.562  0.00  0.00     0.082 H 
ATOM     20  H   LIG d   1       8.550  -3.503  -6.993  0.00  0.00     0.082 H 
ATOM     21  H   LIG d   1       7.133  -4.093  -6.084  0.00  0.00     0.082 H 
ATOM     22  H   LIG d   1       8.495  -1.383  -5.938  0.00  0.00     0.036 H 
ATOM     23  H   LIG d   1       8.139  -2.512  -4.617  0.00  0.00     0.036 H 
ATOM     24  N   LIG d   1       6.649  -2.706  -7.617  0.00  0.00     0.243 N 
ATOM     25  H   LIG d   1       6.960  -1.769  -7.894  0.00  0.00     0.204 HD
ENDROOT
BRANCH   9  26
ATOM     26  C   LIG d   1       4.361  -0.851  -8.514  0.00  0.00    -0.010 A 
ATOM     27  C   LIG d   1       3.124  -0.237  -8.462  0.00  0.00    -0.053 A 
ATOM     28  C   LIG d   1       3.022   1.129  -8.645  0.00  0.00    -0.026 A 
ATOM     29  H   LIG d   1       2.238  -0.825  -8.274  0.00  0.00     0.062 H 
ATOM     30  C   LIG d   1       4.158   1.881  -8.890  0.00  0.00     0.123 A 
ATOM     31  H   LIG d   1       2.055   1.609  -8.601  0.00  0.00     0.065 H 
ATOM     32  C   LIG d   1       5.397   1.265  -8.942  0.00  0.00    -0.026 A 
ATOM     33  F   LIG d   1       4.059   3.216  -9.074  0.00  0.00    -0.205 F 
ATOM     34  C   LIG d   1       5.498  -0.101  -8.754  0.00  0.00    -0.053 A 
ATOM     35  H   LIG d   1       6.285   1.851  -9.129  0.00  0.00     0.065 H 
ATOM     36  H   LIG d   1       6.463  -0.581  -8.794  0.00  0.00     0.062 H 
ENDBRANCH   9  26
BRANCH   9  37
ATOM     37  O   LIG d   1       3.176  -2.926  -8.183  0.00  0.00    -0.378 OA
ATOM     38  H   LIG d   1       2.642  -2.878  -8.988  0.00  0.00     0.211 HD
ENDBRANCH   9  37
BRANCH   6  39
ATOM     39  O   LIG d   1       3.022   0.790  -4.502  0.00  0.00    -0.491 OA
BRANCH  39  40
ATOM     40  C   LIG d   1       1.783   0.207  -4.915  0.00  0.00     0.079 C 
ATOM     41  H   LIG d   1       0.973   0.914  -4.739  0.00  0.00     0.066 H 
ATOM     42  H   LIG d   1       1.832  -0.033  -5.977  0.00  0.00     0.066 H 
ATOM     43  H   LIG d   1       1.602  -0.703  -4.344  0.00  0.00     0.066 H 
ENDBRANCH  39  40
ENDBRANCH   6  39
BRANCH   1  44
ATOM     44  O   LIG d   1       5.302   1.241  -3.019  0.00  0.00    -0.491 OA
BRANCH  44  45
ATOM     45  C   LIG d   1       4.798   0.835  -1.744  0.00  0.00     0.079 C 
ATOM     46  H   LIG d   1       3.977   1.490  -1.452  0.00  0.00     0.066 H 
ATOM     47  H   LIG d   1       4.439  -0.192  -1.806  0.00  0.00     0.066 H 
ATOM     48  H   LIG d   1       5.594   0.897  -1.003  0.00  0.00     0.066 H 
ENDBRANCH  44  45
ENDBRANCH   1  44
TORSDOF 6
ENDMDL
MODEL 8
REMARK VINA RESULT:      -5.1      2.611      4.704
REMARK  6 active torsions:
REMARK  status: ('A' for Active; 'I' for Inactive)
REMARK    1  A    between atoms: C_1  and  O_2 
REMARK    2  A    between atoms: O_2  and  C_3 
REMARK    3  A    between atoms: C_8  and  O_9 
REMARK    4  A    between atoms: O_9  and  C_10 
REMARK    5  A    between atoms: C_13  and  C_18 
REMARK    6  A    between atoms: C_13  and  O_25 
ROOT
ATOM      1  C   LIG d   1       4.670  -1.182  -7.879  0.00  0.00     0.162 A 
ATOM      2  C   LIG d   1       4.712  -2.560  -7.753  0.00  0.00    -0.013 A 
ATOM      3  C   LIG d   1       5.730  -3.173  -7.036  0.00  0.00    -0.030 A 
ATOM      4  C   LIG d   1       6.718  -2.391  -6.460  0.00  0.00     0.010 A 
ATOM      5  C   LIG d   1       6.678  -1.014  -6.578  0.00  0.00    -0.007 A 
ATOM      6  C   LIG d   1       5.657  -0.402  -7.285  0.00  0.00     0.162 A 
ATOM      7  C   LIG d   1       7.830  -3.051  -5.711  0.00  0.00     0.039 C 
ATOM      8  H   LIG d   1       8.656  -3.264  -6.389  0.00  0.00     0.094 H 
ATOM      9  C   LIG d   1       8.344  -2.289  -4.489  0.00  0.00     0.142 C 
ATOM     10  C   LIG d   1       8.751  -3.409  -3.494  0.00  0.00     0.026 C 
ATOM     11  C   LIG d   1       8.362  -4.734  -4.205  0.00  0.00    -0.028 C 
ATOM     12  C   LIG d   1       6.967  -5.215  -6.231  0.00  0.00    -0.027 C 
ATOM     13  C   LIG d   1       5.698  -4.674  -6.900  0.00  0.00     0.013 C 
ATOM     14  H   LIG d   1       3.944  -3.163  -8.216  0.00  0.00     0.066 H 
ATOM     15  H   LIG d   1       7.447  -0.413  -6.115  0.00  0.00     0.066 H 
ATOM     16  H   LIG d   1       9.825  -3.379  -3.310  0.00  0.00     0.035 H 
ATOM     17  H   LIG d   1       8.202  -3.304  -2.559  0.00  0.00     0.035 H 
ATOM     18  H   LIG d   1       7.977  -5.458  -3.486  0.00  0.00     0.082 H 
ATOM     19  H   LIG d   1       9.215  -5.145  -4.746  0.00  0.00     0.082 H 
ATOM     20  H   LIG d   1       6.785  -6.218  -5.845  0.00  0.00     0.082 H 
ATOM     21  H   LIG d   1       7.784  -5.241  -6.953  0.00  0.00     0.082 H 
ATOM     22  H   LIG d   1       4.833  -4.956  -6.299  0.00  0.00     0.036 H 
ATOM     23  H   LIG d   1       5.600  -5.119  -7.890  0.00  0.00     0.036 H 
ATOM     24  N   LIG d   1       7.309  -4.253  -5.136  0.00  0.00     0.243 N 
ATOM     25  H   LIG d   1       6.456  -4.051  -4.602  0.00  0.00     0.204 HD
ENDROOT
BRANCH   9  26
ATOM     26  C   LIG d   1       7.251  -1.433  -3.902  0.00  0.00    -0.010 A 
ATOM     27  C   LIG d   1       6.121  -2.025  -3.369  0.00  0.00    -0.053 A 
ATOM     28  C   LIG d   1       5.121  -1.241  -2.826  0.00  0.00    -0.026 A 
ATOM     29  H   LIG d   1       6.022  -3.100  -3.374  0.00  0.00     0.062 H 
ATOM     30  C   LIG d   1       5.247   0.138  -2.824  0.00  0.00     0.123 A 
ATOM     31  H   LIG d   1       4.239  -1.704  -2.407  0.00  0.00     0.065 H 
ATOM     32  C   LIG d   1       6.379   0.729  -3.357  0.00  0.00    -0.026 A 
ATOM     33  F   LIG d   1       4.267   0.905  -2.297  0.00  0.00    -0.205 F 
ATOM     34  C   LIG d   1       7.381  -0.057  -3.895  0.00  0.00    -0.053 A 
ATOM     35  H   LIG d   1       6.480   1.805  -3.352  0.00  0.00     0.065 H 
ATOM     36  H   LIG d   1       8.264   0.404  -4.311  0.00  0.00     0.062 H 
ENDBRANCH   9  26
BRANCH   9  37
ATOM     37  O   LIG d   1       9.475  -1.487  -4.837  0.00  0.00    -0.378 OA
ATOM     38  H   LIG d   1       9.588  -0.704  -4.281  0.00  0.00     0.211 HD
ENDBRANCH   9  37
BRANCH   6  39
ATOM     39  O   LIG d   1       5.619   0.953  -7.399  0.00  0.00    -0.491 OA
BRANCH  39  40
ATOM     40  C   LIG d   1       6.466   1.544  -8.388  0.00  0.00     0.079 C 
ATOM     41  H   LIG d   1       7.417   1.012  -8.415  0.00  0.00     0.066 H 
ATOM     42  H   LIG d   1       5.985   1.479  -9.363  0.00  0.00     0.066 H 
ATOM     43  H   LIG d   1       6.641   2.590  -8.137  0.00  0.00     0.066 H 
ENDBRANCH  39  40
ENDBRANCH   6  39
BRANCH   1  44
ATOM     44  O   LIG d   1       3.667  -0.594  -8.583  0.00  0.00    -0.491 OA
BRANCH  44  45
ATOM     45  C   LIG d   1       2.645  -1.451  -9.097  0.00  0.00     0.079 C 
ATOM     46  H   LIG d   1       2.965  -1.866 -10.053  0.00  0.00     0.066 H 
ATOM     47  H   LIG d   1       2.461  -2.261  -8.392  0.00  0.00     0.066 H 
ATOM     48  H   LIG d   1       1.729  -0.877  -9.239  0.00  0.00     0.066 H 
ENDBRANCH  44  45
ENDBRANCH   1  44
TORSDOF 6
ENDMDL
MODEL 9
REMARK VINA RESULT:      -5.1      2.991      5.152
REMARK  6 active torsions:
REMARK  status: ('A' for Active; 'I' for Inactive)
REMARK    1  A    between atoms: C_1  and  O_2 
REMARK    2  A    between atoms: O_2  and  C_3 
REMARK    3  A    between atoms: C_8  and  O_9 
REMARK    4  A    between atoms: O_9  and  C_10 
REMARK    5  A    between atoms: C_13  and  C_18 
REMARK    6  A    between atoms: C_13  and  O_25 
ROOT
ATOM      1  C   LIG d   1       3.645  -0.193  -4.543  0.00  0.00     0.162 A 
ATOM      2  C   LIG d   1       2.924   0.165  -5.669  0.00  0.00    -0.013 A 
ATOM      3  C   LIG d   1       3.423  -0.092  -6.938  0.00  0.00    -0.030 A 
ATOM      4  C   LIG d   1       4.664  -0.698  -7.068  0.00  0.00     0.010 A 
ATOM      5  C   LIG d   1       5.384  -1.063  -5.946  0.00  0.00    -0.007 A 
ATOM      6  C   LIG d   1       4.882  -0.815  -4.680  0.00  0.00     0.162 A 
ATOM      7  C   LIG d   1       5.215  -0.950  -8.433  0.00  0.00     0.039 C 
ATOM      8  H   LIG d   1       5.808  -0.094  -8.756  0.00  0.00     0.094 H 
ATOM      9  C   LIG d   1       6.030  -2.235  -8.587  0.00  0.00     0.142 C 
ATOM     10  C   LIG d   1       5.734  -2.694 -10.040  0.00  0.00     0.026 C 
ATOM     11  C   LIG d   1       4.702  -1.666 -10.581  0.00  0.00    -0.028 C 
ATOM     12  C   LIG d   1       3.324   0.096  -9.449  0.00  0.00    -0.027 C 
ATOM     13  C   LIG d   1       2.574   0.284  -8.125  0.00  0.00     0.013 C 
ATOM     14  H   LIG d   1       1.964   0.647  -5.558  0.00  0.00     0.066 H 
ATOM     15  H   LIG d   1       6.345  -1.544  -6.058  0.00  0.00     0.066 H 
ATOM     16  H   LIG d   1       6.645  -2.667 -10.638  0.00  0.00     0.035 H 
ATOM     17  H   LIG d   1       5.307  -3.696 -10.041  0.00  0.00     0.035 H 
ATOM     18  H   LIG d   1       3.967  -2.157 -11.218  0.00  0.00     0.082 H 
ATOM     19  H   LIG d   1       5.206  -0.864 -11.121  0.00  0.00     0.082 H 
ATOM     20  H   LIG d   1       2.614   0.044 -10.274  0.00  0.00     0.082 H 
ATOM     21  H   LIG d   1       4.013   0.926  -9.605  0.00  0.00     0.082 H 
ATOM     22  H   LIG d   1       1.680  -0.341  -8.132  0.00  0.00     0.036 H 
ATOM     23  H   LIG d   1       2.274   1.328  -8.031  0.00  0.00     0.036 H 
ATOM     24  N   LIG d   1       4.107  -1.173  -9.312  0.00  0.00     0.243 N 
ATOM     25  H   LIG d   1       3.489  -1.897  -8.928  0.00  0.00     0.204 HD
ENDROOT
BRANCH   9  26
ATOM     26  C   LIG d   1       5.567  -3.276  -7.600  0.00  0.00    -0.010 A 
ATOM     27  C   LIG d   1       4.290  -3.796  -7.693  0.00  0.00    -0.053 A 
ATOM     28  C   LIG d   1       3.866  -4.754  -6.791  0.00  0.00    -0.026 A 
ATOM     29  H   LIG d   1       3.624  -3.457  -8.473  0.00  0.00     0.062 H 
ATOM     30  C   LIG d   1       4.719  -5.186  -5.789  0.00  0.00     0.123 A 
ATOM     31  H   LIG d   1       2.869  -5.163  -6.866  0.00  0.00     0.065 H 
ATOM     32  C   LIG d   1       5.998  -4.664  -5.697  0.00  0.00    -0.026 A 
ATOM     33  F   LIG d   1       4.304  -6.119  -4.905  0.00  0.00    -0.205 F 
ATOM     34  C   LIG d   1       6.421  -3.709  -6.603  0.00  0.00    -0.053 A 
ATOM     35  H   LIG d   1       6.665  -5.003  -4.918  0.00  0.00     0.065 H 
ATOM     36  H   LIG d   1       7.418  -3.303  -6.532  0.00  0.00     0.062 H 
ENDBRANCH   9  26
BRANCH   9  37
ATOM     37  O   LIG d   1       7.423  -1.968  -8.416  0.00  0.00    -0.378 OA
ATOM     38  H   LIG d   1       8.002  -2.577  -8.895  0.00  0.00     0.211 HD
ENDBRANCH   9  37
BRANCH   6  39
ATOM     39  O   LIG d   1       5.592  -1.175  -3.578  0.00  0.00    -0.491 OA
BRANCH  39  40
ATOM     40  C   LIG d   1       6.838  -0.507  -3.363  0.00  0.00     0.079 C 
ATOM     41  H   LIG d   1       7.654  -1.223  -3.458  0.00  0.00     0.066 H 
ATOM     42  H   LIG d   1       6.959   0.282  -4.103  0.00  0.00     0.066 H 
ATOM     43  H   LIG d   1       6.850  -0.074  -2.363  0.00  0.00     0.066 H 
ENDBRANCH  39  40
ENDBRANCH   6  39
BRANCH   1  44
ATOM     44  O   LIG d   1       3.144   0.063  -3.305  0.00  0.00    -0.491 OA
BRANCH  44  45
ATOM     45  C   LIG d   1       3.539   1.289  -2.686  0.00  0.00     0.079 C 
ATOM     46  H   LIG d   1       4.544   1.184  -2.277  0.00  0.00     0.066 H 
ATOM     47  H   LIG d   1       3.529   2.090  -3.425  0.00  0.00     0.066 H 
ATOM     48  H   LIG d   1       2.843   1.529  -1.881  0.00  0.00     0.066 H 
ENDBRANCH  44  45
ENDBRANCH   1  44
TORSDOF 6
ENDMDL
