MODEL 1
REMARK VINA RESULT:      -6.9      0.000      0.000
REMARK  5 active torsions:
REMARK  status: ('A' for Active; 'I' for Inactive)
REMARK    1  A    between atoms: C_1  and  C_2 
REMARK    2  A    between atoms: C_2  and  C_23 
REMARK    3  A    between atoms: C_12  and  C_21 
REMARK    4  A    between atoms: C_16  and  C_17 
REMARK    5  A    between atoms: C_16  and  C_18 
ROOT
ATOM      1  C   LIG d   1       3.343  -0.559  -9.462  0.00  0.00    -0.011 C 
ATOM      2  C   LIG d   1       4.690  -1.272  -9.407  0.00  0.00    -0.043 C 
ATOM      3  C   LIG d   1       4.911  -1.926  -8.040  0.00  0.00    -0.045 C 
ATOM      4  C   LIG d   1       4.921  -0.847  -6.963  0.00  0.00    -0.014 C 
ATOM      5  H   LIG d   1       5.754  -0.169  -7.184  0.00  0.00     0.035 H 
ATOM      6  C   LIG d   1       3.661  -0.036  -7.046  0.00  0.00    -0.069 C 
ATOM      7  C   LIG d   1       2.901   0.234  -6.024  0.00  0.00    -0.084 C 
ATOM      8  C   LIG d   1       3.229  -0.210  -4.622  0.00  0.00    -0.030 C 
ATOM      9  C   LIG d   1       4.746  -0.403  -4.530  0.00  0.00    -0.021 C 
ATOM     10  H   LIG d   1       5.201   0.571  -4.837  0.00  0.00     0.032 H 
ATOM     11  C   LIG d   1       5.183  -1.423  -5.572  0.00  0.00    -0.022 C 
ATOM     12  C   LIG d   1       6.685  -1.700  -5.446  0.00  0.00    -0.047 C 
ATOM     13  C   LIG d   1       7.016  -2.161  -4.030  0.00  0.00    -0.052 C 
ATOM     14  C   LIG d   1       6.678  -1.053  -3.040  0.00  0.00    -0.042 C 
ATOM     15  C   LIG d   1       5.199  -0.670  -3.111  0.00  0.00     0.011 C 
ATOM     16  C   LIG d   1       3.272   0.536  -8.397  0.00  0.00    -0.023 C 
ATOM     17  H   LIG d   1       4.724  -2.043 -10.180  0.00  0.00     0.027 H 
ATOM     18  H   LIG d   1       5.491  -0.552  -9.592  0.00  0.00     0.027 H 
ATOM     19  H   LIG d   1       4.128  -2.660  -7.875  0.00  0.00     0.027 H 
ATOM     20  H   LIG d   1       5.879  -2.438  -8.051  0.00  0.00     0.027 H 
ATOM     21  H   LIG d   1       1.996   0.797  -6.183  0.00  0.00     0.057 H 
ATOM     22  H   LIG d   1       2.911   0.576  -3.934  0.00  0.00     0.031 H 
ATOM     23  H   LIG d   1       2.687  -1.120  -4.397  0.00  0.00     0.031 H 
ATOM     24  H   LIG d   1       6.969  -2.476  -6.158  0.00  0.00     0.027 H 
ATOM     25  H   LIG d   1       7.239  -0.787  -5.672  0.00  0.00     0.027 H 
ATOM     26  H   LIG d   1       6.483  -3.073  -3.783  0.00  0.00     0.027 H 
ATOM     27  H   LIG d   1       8.093  -2.370  -3.973  0.00  0.00     0.027 H 
ATOM     28  H   LIG d   1       6.908  -1.392  -2.024  0.00  0.00     0.027 H 
ATOM     29  H   LIG d   1       7.287  -0.171  -3.256  0.00  0.00     0.027 H 
ATOM     30  H   LIG d   1       3.957   1.346  -8.659  0.00  0.00     0.032 H 
ATOM     31  H   LIG d   1       2.256   0.933  -8.347  0.00  0.00     0.032 H 
ENDROOT
BRANCH   1  32
ATOM     32  C   LIG d   1       2.202  -1.556  -9.257  0.00  0.00    -0.056 C 
ATOM     33  H   LIG d   1       2.368  -2.432  -9.882  0.00  0.00     0.024 H 
ATOM     34  H   LIG d   1       2.168  -1.858  -8.210  0.00  0.00     0.024 H 
ATOM     35  H   LIG d   1       1.256  -1.089  -9.530  0.00  0.00     0.024 H 
ENDBRANCH   1  32
BRANCH   1  36
ATOM     36  C   LIG d   1       3.185   0.080 -10.825  0.00  0.00    -0.085 C 
ATOM     37  C   LIG d   1       3.957   1.080 -11.171  0.00  0.00    -0.102 C 
ATOM     38  H   LIG d   1       4.705   1.448 -10.487  0.00  0.00     0.053 H 
ATOM     39  H   LIG d   1       3.844   1.536 -12.144  0.00  0.00     0.053 H 
ATOM     40  H   LIG d   1       2.437  -0.289 -11.511  0.00  0.00     0.057 H 
ENDBRANCH   1  36
BRANCH  11  41
ATOM     41  C   LIG d   1       4.418  -2.736  -5.423  0.00  0.00    -0.059 C 
ATOM     42  H   LIG d   1       4.727  -3.427  -6.208  0.00  0.00     0.024 H 
ATOM     43  H   LIG d   1       4.636  -3.174  -4.448  0.00  0.00     0.024 H 
ATOM     44  H   LIG d   1       3.348  -2.546  -5.506  0.00  0.00     0.024 H 
ENDBRANCH  11  41
BRANCH  15  45
ATOM     45  C   LIG d   1       4.357  -1.735  -2.409  0.00  0.00    -0.054 C 
ATOM     46  H   LIG d   1       3.637  -2.151  -3.114  0.00  0.00     0.024 H 
ATOM     47  H   LIG d   1       5.007  -2.528  -2.042  0.00  0.00     0.024 H 
ATOM     48  H   LIG d   1       3.827  -1.284  -1.572  0.00  0.00     0.024 H 
ENDBRANCH  15  45
BRANCH  15  49
ATOM     49  C   LIG d   1       5.047   0.620  -2.313  0.00  0.00     0.048 C 
ATOM     50  O   LIG d   1       5.749   1.583  -2.571  0.00  0.00    -0.549 OA
ATOM     51  O   LIG d   1       4.222   0.689  -1.416  0.00  0.00    -0.549 OA
ENDBRANCH  15  49
TORSDOF 5
ENDMDL
MODEL 2
REMARK VINA RESULT:      -6.1      2.832      6.391
REMARK  5 active torsions:
REMARK  status: ('A' for Active; 'I' for Inactive)
REMARK    1  A    between atoms: C_1  and  C_2 
REMARK    2  A    between atoms: C_2  and  C_23 
REMARK    3  A    between atoms: C_12  and  C_21 
REMARK    4  A    between atoms: C_16  and  C_17 
REMARK    5  A    between atoms: C_16  and  C_18 
ROOT
ATOM      1  C   LIG d   1       4.089  -0.478  -3.392  0.00  0.00    -0.011 C 
ATOM      2  C   LIG d   1       3.060   0.528  -3.898  0.00  0.00    -0.043 C 
ATOM      3  C   LIG d   1       2.735   0.285  -5.375  0.00  0.00    -0.045 C 
ATOM      4  C   LIG d   1       4.001   0.471  -6.205  0.00  0.00    -0.014 C 
ATOM      5  H   LIG d   1       4.336   1.506  -6.068  0.00  0.00     0.035 H 
ATOM      6  C   LIG d   1       5.089  -0.416  -5.675  0.00  0.00    -0.069 C 
ATOM      7  C   LIG d   1       5.811  -1.205  -6.417  0.00  0.00    -0.084 C 
ATOM      8  C   LIG d   1       5.659  -1.283  -7.914  0.00  0.00    -0.030 C 
ATOM      9  C   LIG d   1       5.072   0.045  -8.400  0.00  0.00    -0.021 C 
ATOM     10  H   LIG d   1       5.766   0.842  -8.036  0.00  0.00     0.032 H 
ATOM     11  C   LIG d   1       3.743   0.289  -7.700  0.00  0.00    -0.022 C 
ATOM     12  C   LIG d   1       3.090   1.570  -8.230  0.00  0.00    -0.047 C 
ATOM     13  C   LIG d   1       2.925   1.486  -9.744  0.00  0.00    -0.052 C 
ATOM     14  C   LIG d   1       4.295   1.372 -10.403  0.00  0.00    -0.042 C 
ATOM     15  C   LIG d   1       5.051   0.139  -9.910  0.00  0.00     0.011 C 
ATOM     16  C   LIG d   1       5.389  -0.360  -4.188  0.00  0.00    -0.023 C 
ATOM     17  H   LIG d   1       2.143   0.434  -3.312  0.00  0.00     0.027 H 
ATOM     18  H   LIG d   1       3.451   1.541  -3.780  0.00  0.00     0.027 H 
ATOM     19  H   LIG d   1       2.320  -0.712  -5.481  0.00  0.00     0.027 H 
ATOM     20  H   LIG d   1       1.983   1.016  -5.691  0.00  0.00     0.027 H 
ATOM     21  H   LIG d   1       6.550  -1.831  -5.944  0.00  0.00     0.057 H 
ATOM     22  H   LIG d   1       6.649  -1.435  -8.348  0.00  0.00     0.031 H 
ATOM     23  H   LIG d   1       5.028  -2.126  -8.167  0.00  0.00     0.031 H 
ATOM     24  H   LIG d   1       2.113   1.697  -7.763  0.00  0.00     0.027 H 
ATOM     25  H   LIG d   1       3.720   2.425  -7.978  0.00  0.00     0.027 H 
ATOM     26  H   LIG d   1       2.294   0.648 -10.021  0.00  0.00     0.027 H 
ATOM     27  H   LIG d   1       2.439   2.407 -10.095  0.00  0.00     0.027 H 
ATOM     28  H   LIG d   1       4.170   1.302 -11.488  0.00  0.00     0.027 H 
ATOM     29  H   LIG d   1       4.883   2.266 -10.179  0.00  0.00     0.027 H 
ATOM     30  H   LIG d   1       5.878   0.588  -3.952  0.00  0.00     0.032 H 
ATOM     31  H   LIG d   1       6.059  -1.181  -3.919  0.00  0.00     0.032 H 
ENDROOT
BRANCH   1  32
ATOM     32  C   LIG d   1       3.543  -1.902  -3.500  0.00  0.00    -0.056 C 
ATOM     33  H   LIG d   1       3.212  -2.239  -2.518  0.00  0.00     0.024 H 
ATOM     34  H   LIG d   1       2.701  -1.916  -4.192  0.00  0.00     0.024 H 
ATOM     35  H   LIG d   1       4.326  -2.565  -3.866  0.00  0.00     0.024 H 
ENDBRANCH   1  32
BRANCH   1  36
ATOM     36  C   LIG d   1       4.383  -0.183  -1.937  0.00  0.00    -0.085 C 
ATOM     37  C   LIG d   1       4.668   1.040  -1.562  0.00  0.00    -0.102 C 
ATOM     38  H   LIG d   1       4.692   1.836  -2.289  0.00  0.00     0.053 H 
ATOM     39  H   LIG d   1       4.877   1.250  -0.524  0.00  0.00     0.053 H 
ATOM     40  H   LIG d   1       4.359  -0.980  -1.209  0.00  0.00     0.057 H 
ENDBRANCH   1  36
BRANCH  11  41
ATOM     41  C   LIG d   1       2.783  -0.881  -7.902  0.00  0.00    -0.059 C 
ATOM     42  H   LIG d   1       1.977  -0.821  -7.170  0.00  0.00     0.024 H 
ATOM     43  H   LIG d   1       2.363  -0.837  -8.907  0.00  0.00     0.024 H 
ATOM     44  H   LIG d   1       3.321  -1.820  -7.773  0.00  0.00     0.024 H 
ENDBRANCH  11  41
BRANCH  15  45
ATOM     45  C   LIG d   1       4.482  -1.114 -10.575  0.00  0.00    -0.054 C 
ATOM     46  H   LIG d   1       4.743  -1.114 -11.633  0.00  0.00     0.024 H 
ATOM     47  H   LIG d   1       4.901  -2.000 -10.098  0.00  0.00     0.024 H 
ATOM     48  H   LIG d   1       3.399  -1.122 -10.467  0.00  0.00     0.024 H 
ENDBRANCH  15  45
BRANCH  15  49
ATOM     49  C   LIG d   1       6.489   0.290 -10.396  0.00  0.00     0.048 C 
ATOM     50  O   LIG d   1       6.933  -0.479 -11.231  0.00  0.00    -0.549 OA
ATOM     51  O   LIG d   1       7.193   1.180  -9.950  0.00  0.00    -0.549 OA
ENDBRANCH  15  49
TORSDOF 5
ENDMDL
MODEL 3
REMARK VINA RESULT:      -5.7      2.792      4.620
REMARK  5 active torsions:
REMARK  status: ('A' for Active; 'I' for Inactive)
REMARK    1  A    between atoms: C_1  and  C_2 
REMARK    2  A    between atoms: C_2  and  C_23 
REMARK    3  A    between atoms: C_12  and  C_21 
REMARK    4  A    between atoms: C_16  and  C_17 
REMARK    5  A    between atoms: C_16  and  C_18 
ROOT
ATOM      1  C   LIG d   1       9.194  -1.348  -6.828  0.00  0.00    -0.011 C 
ATOM      2  C   LIG d   1       9.536  -0.523  -5.590  0.00  0.00    -0.043 C 
ATOM      3  C   LIG d   1       8.464  -0.685  -4.509  0.00  0.00    -0.045 C 
ATOM      4  C   LIG d   1       7.130  -0.175  -5.044  0.00  0.00    -0.014 C 
ATOM      5  H   LIG d   1       7.255   0.889  -5.281  0.00  0.00     0.035 H 
ATOM      6  C   LIG d   1       6.798  -0.875  -6.329  0.00  0.00    -0.069 C 
ATOM      7  C   LIG d   1       5.648  -1.432  -6.578  0.00  0.00    -0.084 C 
ATOM      8  C   LIG d   1       4.497  -1.397  -5.607  0.00  0.00    -0.030 C 
ATOM      9  C   LIG d   1       4.674  -0.171  -4.706  0.00  0.00    -0.021 C 
ATOM     10  H   LIG d   1       4.742   0.709  -5.392  0.00  0.00     0.032 H 
ATOM     11  C   LIG d   1       6.018  -0.263  -3.999  0.00  0.00    -0.022 C 
ATOM     12  C   LIG d   1       6.186   0.908  -3.025  0.00  0.00    -0.047 C 
ATOM     13  C   LIG d   1       5.027   0.937  -2.034  0.00  0.00    -0.052 C 
ATOM     14  C   LIG d   1       3.719   1.159  -2.784  0.00  0.00    -0.042 C 
ATOM     15  C   LIG d   1       3.472   0.058  -3.816  0.00  0.00     0.011 C 
ATOM     16  C   LIG d   1       7.856  -0.901  -7.417  0.00  0.00    -0.023 C 
ATOM     17  H   LIG d   1      10.498  -0.851  -5.190  0.00  0.00     0.027 H 
ATOM     18  H   LIG d   1       9.610   0.532  -5.866  0.00  0.00     0.027 H 
ATOM     19  H   LIG d   1       8.415  -1.730  -4.221  0.00  0.00     0.027 H 
ATOM     20  H   LIG d   1       8.757  -0.091  -3.637  0.00  0.00     0.027 H 
ATOM     21  H   LIG d   1       5.510  -1.941  -7.518  0.00  0.00     0.057 H 
ATOM     22  H   LIG d   1       3.572  -1.308  -6.181  0.00  0.00     0.031 H 
ATOM     23  H   LIG d   1       4.476  -2.320  -5.042  0.00  0.00     0.031 H 
ATOM     24  H   LIG d   1       7.127   0.795  -2.483  0.00  0.00     0.027 H 
ATOM     25  H   LIG d   1       6.209   1.843  -3.587  0.00  0.00     0.027 H 
ATOM     26  H   LIG d   1       4.987   0.020  -1.455  0.00  0.00     0.027 H 
ATOM     27  H   LIG d   1       5.181   1.772  -1.337  0.00  0.00     0.027 H 
ATOM     28  H   LIG d   1       2.889   1.168  -2.070  0.00  0.00     0.027 H 
ATOM     29  H   LIG d   1       3.748   2.126  -3.292  0.00  0.00     0.027 H 
ATOM     30  H   LIG d   1       7.961   0.099  -7.845  0.00  0.00     0.032 H 
ATOM     31  H   LIG d   1       7.553  -1.595  -8.205  0.00  0.00     0.032 H 
ENDROOT
BRANCH   1  32
ATOM     32  C   LIG d   1       9.135  -2.836  -6.478  0.00  0.00    -0.056 C 
ATOM     33  H   LIG d   1      10.147  -3.219  -6.348  0.00  0.00     0.024 H 
ATOM     34  H   LIG d   1       8.575  -2.969  -5.553  0.00  0.00     0.024 H 
ATOM     35  H   LIG d   1       8.641  -3.380  -7.283  0.00  0.00     0.024 H 
ENDBRANCH   1  32
BRANCH   1  36
ATOM     36  C   LIG d   1      10.275  -1.140  -7.866  0.00  0.00    -0.085 C 
ATOM     37  C   LIG d   1      10.972  -0.030  -7.870  0.00  0.00    -0.102 C 
ATOM     38  H   LIG d   1      10.777   0.733  -7.134  0.00  0.00     0.053 H 
ATOM     39  H   LIG d   1      11.744   0.118  -8.611  0.00  0.00     0.053 H 
ATOM     40  H   LIG d   1      10.471  -1.905  -8.603  0.00  0.00     0.057 H 
ENDBRANCH   1  36
BRANCH  11  41
ATOM     41  C   LIG d   1       6.157  -1.575  -3.231  0.00  0.00    -0.059 C 
ATOM     42  H   LIG d   1       6.806  -2.254  -3.785  0.00  0.00     0.024 H 
ATOM     43  H   LIG d   1       6.591  -1.378  -2.251  0.00  0.00     0.024 H 
ATOM     44  H   LIG d   1       5.174  -2.031  -3.109  0.00  0.00     0.024 H 
ENDBRANCH  11  41
BRANCH  15  45
ATOM     45  C   LIG d   1       3.004  -1.214  -3.111  0.00  0.00    -0.054 C 
ATOM     46  H   LIG d   1       3.284  -1.171  -2.059  0.00  0.00     0.024 H 
ATOM     47  H   LIG d   1       1.920  -1.298  -3.195  0.00  0.00     0.024 H 
ATOM     48  H   LIG d   1       3.472  -2.080  -3.577  0.00  0.00     0.024 H 
ENDBRANCH  15  45
BRANCH  15  49
ATOM     49  C   LIG d   1       2.318   0.536  -4.691  0.00  0.00     0.048 C 
ATOM     50  O   LIG d   1       1.291  -0.119  -4.757  0.00  0.00    -0.549 OA
ATOM     51  O   LIG d   1       2.420   1.574  -5.323  0.00  0.00    -0.549 OA
ENDBRANCH  15  49
TORSDOF 5
ENDMDL
MODEL 4
REMARK VINA RESULT:      -5.6      3.263      6.307
REMARK  5 active torsions:
REMARK  status: ('A' for Active; 'I' for Inactive)
REMARK    1  A    between atoms: C_1  and  C_2 
REMARK    2  A    between atoms: C_2  and  C_23 
REMARK    3  A    between atoms: C_12  and  C_21 
REMARK    4  A    between atoms: C_16  and  C_17 
REMARK    5  A    between atoms: C_16  and  C_18 
ROOT
ATOM      1  C   LIG d   1       4.961  -0.788  -3.095  0.00  0.00    -0.011 C 
ATOM      2  C   LIG d   1       4.711  -2.280  -2.894  0.00  0.00    -0.043 C 
ATOM      3  C   LIG d   1       5.143  -3.080  -4.126  0.00  0.00    -0.045 C 
ATOM      4  C   LIG d   1       4.316  -2.636  -5.329  0.00  0.00    -0.014 C 
ATOM      5  H   LIG d   1       3.264  -2.849  -5.103  0.00  0.00     0.035 H 
ATOM      6  C   LIG d   1       4.435  -1.151  -5.504  0.00  0.00    -0.069 C 
ATOM      7  C   LIG d   1       4.718  -0.572  -6.636  0.00  0.00    -0.084 C 
ATOM      8  C   LIG d   1       4.918  -1.339  -7.917  0.00  0.00    -0.030 C 
ATOM      9  C   LIG d   1       4.153  -2.661  -7.803  0.00  0.00    -0.021 C 
ATOM     10  H   LIG d   1       3.093  -2.386  -7.576  0.00  0.00     0.032 H 
ATOM     11  C   LIG d   1       4.661  -3.427  -6.590  0.00  0.00    -0.022 C 
ATOM     12  C   LIG d   1       3.974  -4.793  -6.498  0.00  0.00    -0.047 C 
ATOM     13  C   LIG d   1       4.186  -5.575  -7.791  0.00  0.00    -0.052 C 
ATOM     14  C   LIG d   1       3.546  -4.825  -8.953  0.00  0.00    -0.042 C 
ATOM     15  C   LIG d   1       4.138  -3.424  -9.109  0.00  0.00     0.011 C 
ATOM     16  C   LIG d   1       4.172  -0.269  -4.297  0.00  0.00    -0.023 C 
ATOM     17  H   LIG d   1       5.276  -2.629  -2.027  0.00  0.00     0.027 H 
ATOM     18  H   LIG d   1       3.647  -2.449  -2.713  0.00  0.00     0.027 H 
ATOM     19  H   LIG d   1       6.206  -2.930  -4.284  0.00  0.00     0.027 H 
ATOM     20  H   LIG d   1       4.961  -4.143  -3.933  0.00  0.00     0.027 H 
ATOM     21  H   LIG d   1       4.814   0.501  -6.662  0.00  0.00     0.057 H 
ATOM     22  H   LIG d   1       4.511  -0.742  -8.737  0.00  0.00     0.031 H 
ATOM     23  H   LIG d   1       5.977  -1.492  -8.082  0.00  0.00     0.031 H 
ATOM     24  H   LIG d   1       4.393  -5.353  -5.661  0.00  0.00     0.027 H 
ATOM     25  H   LIG d   1       2.905  -4.647  -6.332  0.00  0.00     0.027 H 
ATOM     26  H   LIG d   1       5.243  -5.741  -7.976  0.00  0.00     0.027 H 
ATOM     27  H   LIG d   1       3.701  -6.556  -7.692  0.00  0.00     0.027 H 
ATOM     28  H   LIG d   1       3.711  -5.385  -9.880  0.00  0.00     0.027 H 
ATOM     29  H   LIG d   1       2.469  -4.742  -8.786  0.00  0.00     0.027 H 
ATOM     30  H   LIG d   1       3.104  -0.281  -4.066  0.00  0.00     0.032 H 
ATOM     31  H   LIG d   1       4.476   0.756  -4.520  0.00  0.00     0.032 H 
ENDROOT
BRANCH   1  32
ATOM     32  C   LIG d   1       6.453  -0.520  -3.300  0.00  0.00    -0.056 C 
ATOM     33  H   LIG d   1       6.764  -0.919  -4.265  0.00  0.00     0.024 H 
ATOM     34  H   LIG d   1       6.635   0.554  -3.275  0.00  0.00     0.024 H 
ATOM     35  H   LIG d   1       7.022  -1.003  -2.506  0.00  0.00     0.024 H 
ENDBRANCH   1  32
BRANCH   1  36
ATOM     36  C   LIG d   1       4.504  -0.047  -1.858  0.00  0.00    -0.085 C 
ATOM     37  C   LIG d   1       4.142   1.210  -1.945  0.00  0.00    -0.102 C 
ATOM     38  H   LIG d   1       4.169   1.715  -2.897  0.00  0.00     0.053 H 
ATOM     39  H   LIG d   1       3.815   1.739  -1.062  0.00  0.00     0.053 H 
ATOM     40  H   LIG d   1       4.476  -0.553  -0.904  0.00  0.00     0.057 H 
ENDBRANCH   1  36
BRANCH  11  41
ATOM     41  C   LIG d   1       6.173  -3.632  -6.652  0.00  0.00    -0.059 C 
ATOM     42  H   LIG d   1       6.437  -4.556  -6.137  0.00  0.00     0.024 H 
ATOM     43  H   LIG d   1       6.488  -3.696  -7.694  0.00  0.00     0.024 H 
ATOM     44  H   LIG d   1       6.675  -2.792  -6.172  0.00  0.00     0.024 H 
ENDBRANCH  11  41
BRANCH  15  45
ATOM     45  C   LIG d   1       5.519  -3.517  -9.758  0.00  0.00    -0.054 C 
ATOM     46  H   LIG d   1       5.458  -4.134 -10.654  0.00  0.00     0.024 H 
ATOM     47  H   LIG d   1       5.861  -2.518 -10.027  0.00  0.00     0.024 H 
ATOM     48  H   LIG d   1       6.220  -3.965  -9.056  0.00  0.00     0.024 H 
ENDBRANCH  15  45
BRANCH  15  49
ATOM     49  C   LIG d   1       3.234  -2.678 -10.084  0.00  0.00     0.048 C 
ATOM     50  O   LIG d   1       2.061  -2.493  -9.809  0.00  0.00    -0.549 OA
ATOM     51  O   LIG d   1       3.685  -2.266 -11.141  0.00  0.00    -0.549 OA
ENDBRANCH  15  49
TORSDOF 5
ENDMDL
MODEL 5
REMARK VINA RESULT:      -5.6      4.204      6.374
REMARK  5 active torsions:
REMARK  status: ('A' for Active; 'I' for Inactive)
REMARK    1  A    between atoms: C_1  and  C_2 
REMARK    2  A    between atoms: C_2  and  C_23 
REMARK    3  A    between atoms: C_12  and  C_21 
REMARK    4  A    between atoms: C_16  and  C_17 
REMARK    5  A    between atoms: C_16  and  C_18 
ROOT
ATOM      1  C   LIG d   1       4.535  -0.828  -3.408  0.00  0.00    -0.011 C 
ATOM      2  C   LIG d   1       5.985  -0.499  -3.062  0.00  0.00    -0.043 C 
ATOM      3  C   LIG d   1       6.950  -1.189  -4.030  0.00  0.00    -0.045 C 
ATOM      4  C   LIG d   1       6.784  -2.700  -3.914  0.00  0.00    -0.014 C 
ATOM      5  H   LIG d   1       7.034  -2.981  -2.883  0.00  0.00     0.035 H 
ATOM      6  C   LIG d   1       5.347  -3.070  -4.133  0.00  0.00    -0.069 C 
ATOM      7  C   LIG d   1       4.952  -4.006  -4.948  0.00  0.00    -0.084 C 
ATOM      8  C   LIG d   1       5.911  -4.856  -5.740  0.00  0.00    -0.030 C 
ATOM      9  C   LIG d   1       7.248  -4.884  -4.993  0.00  0.00    -0.021 C 
ATOM     10  H   LIG d   1       7.019  -5.259  -3.964  0.00  0.00     0.032 H 
ATOM     11  C   LIG d   1       7.752  -3.458  -4.820  0.00  0.00    -0.022 C 
ATOM     12  C   LIG d   1       9.130  -3.460  -4.151  0.00  0.00    -0.047 C 
ATOM     13  C   LIG d   1      10.105  -4.312  -4.959  0.00  0.00    -0.052 C 
ATOM     14  C   LIG d   1       9.617  -5.756  -4.990  0.00  0.00    -0.042 C 
ATOM     15  C   LIG d   1       8.223  -5.862  -5.609  0.00  0.00     0.011 C 
ATOM     16  C   LIG d   1       4.293  -2.335  -3.325  0.00  0.00    -0.023 C 
ATOM     17  H   LIG d   1       6.135   0.581  -3.118  0.00  0.00     0.027 H 
ATOM     18  H   LIG d   1       6.200  -0.832  -2.044  0.00  0.00     0.027 H 
ATOM     19  H   LIG d   1       6.749  -0.833  -5.035  0.00  0.00     0.027 H 
ATOM     20  H   LIG d   1       7.974  -0.913  -3.755  0.00  0.00     0.027 H 
ATOM     21  H   LIG d   1       3.895  -4.181  -5.066  0.00  0.00     0.057 H 
ATOM     22  H   LIG d   1       5.497  -5.865  -5.802  0.00  0.00     0.031 H 
ATOM     23  H   LIG d   1       6.010  -4.451  -6.739  0.00  0.00     0.031 H 
ATOM     24  H   LIG d   1       9.504  -2.437  -4.091  0.00  0.00     0.027 H 
ATOM     25  H   LIG d   1       9.040  -3.867  -3.142  0.00  0.00     0.027 H 
ATOM     26  H   LIG d   1      10.220  -3.923  -5.965  0.00  0.00     0.027 H 
ATOM     27  H   LIG d   1      11.088  -4.281  -4.468  0.00  0.00     0.027 H 
ATOM     28  H   LIG d   1      10.314  -6.360  -5.579  0.00  0.00     0.027 H 
ATOM     29  H   LIG d   1       9.589  -6.154  -3.973  0.00  0.00     0.027 H 
ATOM     30  H   LIG d   1       4.345  -2.657  -2.282  0.00  0.00     0.032 H 
ATOM     31  H   LIG d   1       3.301  -2.569  -3.719  0.00  0.00     0.032 H 
ENDROOT
BRANCH   1  32
ATOM     32  C   LIG d   1       4.194  -0.325  -4.811  0.00  0.00    -0.056 C 
ATOM     33  H   LIG d   1       3.653   0.618  -4.738  0.00  0.00     0.024 H 
ATOM     34  H   LIG d   1       5.114  -0.173  -5.376  0.00  0.00     0.024 H 
ATOM     35  H   LIG d   1       3.572  -1.061  -5.321  0.00  0.00     0.024 H 
ENDBRANCH   1  32
BRANCH   1  36
ATOM     36  C   LIG d   1       3.628  -0.135  -2.414  0.00  0.00    -0.085 C 
ATOM     37  C   LIG d   1       3.957   1.040  -1.937  0.00  0.00    -0.102 C 
ATOM     38  H   LIG d   1       4.873   1.514  -2.253  0.00  0.00     0.053 H 
ATOM     39  H   LIG d   1       3.309   1.534  -1.228  0.00  0.00     0.053 H 
ATOM     40  H   LIG d   1       2.711  -0.610  -2.098  0.00  0.00     0.057 H 
ENDBRANCH   1  36
BRANCH  11  41
ATOM     41  C   LIG d   1       7.850  -2.736  -6.162  0.00  0.00    -0.059 C 
ATOM     42  H   LIG d   1       8.768  -2.148  -6.192  0.00  0.00     0.024 H 
ATOM     43  H   LIG d   1       7.862  -3.468  -6.969  0.00  0.00     0.024 H 
ATOM     44  H   LIG d   1       6.991  -2.075  -6.283  0.00  0.00     0.024 H 
ENDBRANCH  11  41
BRANCH  15  45
ATOM     45  C   LIG d   1       8.322  -5.724  -7.128  0.00  0.00    -0.054 C 
ATOM     46  H   LIG d   1       8.982  -4.893  -7.375  0.00  0.00     0.024 H 
ATOM     47  H   LIG d   1       8.723  -6.645  -7.551  0.00  0.00     0.024 H 
ATOM     48  H   LIG d   1       7.331  -5.537  -7.540  0.00  0.00     0.024 H 
ENDBRANCH  15  45
BRANCH  15  49
ATOM     49  C   LIG d   1       7.728  -7.274  -5.319  0.00  0.00     0.048 C 
ATOM     50  O   LIG d   1       7.792  -7.723  -4.187  0.00  0.00    -0.549 OA
ATOM     51  O   LIG d   1       7.266  -7.956  -6.219  0.00  0.00    -0.549 OA
ENDBRANCH  15  49
TORSDOF 5
ENDMDL
MODEL 6
REMARK VINA RESULT:      -5.5      3.708      6.234
REMARK  5 active torsions:
REMARK  status: ('A' for Active; 'I' for Inactive)
REMARK    1  A    between atoms: C_1  and  C_2 
REMARK    2  A    between atoms: C_2  and  C_23 
REMARK    3  A    between atoms: C_12  and  C_21 
REMARK    4  A    between atoms: C_16  and  C_17 
REMARK    5  A    between atoms: C_16  and  C_18 
ROOT
ATOM      1  C   LIG d   1       4.826  -0.545  -2.744  0.00  0.00    -0.011 C 
ATOM      2  C   LIG d   1       4.059  -0.581  -4.063  0.00  0.00    -0.043 C 
ATOM      3  C   LIG d   1       4.317  -1.891  -4.813  0.00  0.00    -0.045 C 
ATOM      4  C   LIG d   1       5.802  -1.995  -5.145  0.00  0.00    -0.014 C 
ATOM      5  H   LIG d   1       6.056  -1.146  -5.791  0.00  0.00     0.035 H 
ATOM      6  C   LIG d   1       6.613  -1.850  -3.891  0.00  0.00    -0.069 C 
ATOM      7  C   LIG d   1       7.567  -2.665  -3.542  0.00  0.00    -0.084 C 
ATOM      8  C   LIG d   1       7.991  -3.835  -4.391  0.00  0.00    -0.030 C 
ATOM      9  C   LIG d   1       7.625  -3.523  -5.845  0.00  0.00    -0.021 C 
ATOM     10  H   LIG d   1       8.127  -2.554  -6.089  0.00  0.00     0.032 H 
ATOM     11  C   LIG d   1       6.129  -3.260  -5.937  0.00  0.00    -0.022 C 
ATOM     12  C   LIG d   1       5.719  -3.029  -7.395  0.00  0.00    -0.047 C 
ATOM     13  C   LIG d   1       6.138  -4.219  -8.253  0.00  0.00    -0.052 C 
ATOM     14  C   LIG d   1       7.656  -4.357  -8.228  0.00  0.00    -0.042 C 
ATOM     15  C   LIG d   1       8.176  -4.555  -6.804  0.00  0.00     0.011 C 
ATOM     16  C   LIG d   1       6.330  -0.657  -2.996  0.00  0.00    -0.023 C 
ATOM     17  H   LIG d   1       2.989  -0.491  -3.863  0.00  0.00     0.027 H 
ATOM     18  H   LIG d   1       4.372   0.257  -4.690  0.00  0.00     0.027 H 
ATOM     19  H   LIG d   1       3.979  -2.718  -4.197  0.00  0.00     0.027 H 
ATOM     20  H   LIG d   1       3.737  -1.881  -5.742  0.00  0.00     0.027 H 
ATOM     21  H   LIG d   1       8.075  -2.500  -2.606  0.00  0.00     0.057 H 
ATOM     22  H   LIG d   1       9.073  -3.949  -4.295  0.00  0.00     0.031 H 
ATOM     23  H   LIG d   1       7.507  -4.734  -4.032  0.00  0.00     0.031 H 
ATOM     24  H   LIG d   1       4.636  -2.903  -7.450  0.00  0.00     0.027 H 
ATOM     25  H   LIG d   1       6.203  -2.123  -7.765  0.00  0.00     0.027 H 
ATOM     26  H   LIG d   1       5.663  -5.132  -7.910  0.00  0.00     0.027 H 
ATOM     27  H   LIG d   1       5.816  -4.036  -9.288  0.00  0.00     0.027 H 
ATOM     28  H   LIG d   1       7.951  -5.218  -8.837  0.00  0.00     0.027 H 
ATOM     29  H   LIG d   1       8.112  -3.460  -8.655  0.00  0.00     0.027 H 
ATOM     30  H   LIG d   1       6.688   0.254  -3.481  0.00  0.00     0.032 H 
ATOM     31  H   LIG d   1       6.852  -0.782  -2.045  0.00  0.00     0.032 H 
ENDROOT
BRANCH   1  32
ATOM     32  C   LIG d   1       4.368  -1.680  -1.828  0.00  0.00    -0.056 C 
ATOM     33  H   LIG d   1       3.953  -1.262  -0.912  0.00  0.00     0.024 H 
ATOM     34  H   LIG d   1       3.605  -2.270  -2.336  0.00  0.00     0.024 H 
ATOM     35  H   LIG d   1       5.218  -2.317  -1.585  0.00  0.00     0.024 H 
ENDBRANCH   1  32
BRANCH   1  36
ATOM     36  C   LIG d   1       4.547   0.773  -2.055  0.00  0.00    -0.085 C 
ATOM     37  C   LIG d   1       3.590   1.552  -2.496  0.00  0.00    -0.102 C 
ATOM     38  H   LIG d   1       3.001   1.254  -3.349  0.00  0.00     0.053 H 
ATOM     39  H   LIG d   1       3.391   2.493  -2.004  0.00  0.00     0.053 H 
ATOM     40  H   LIG d   1       5.136   1.072  -1.201  0.00  0.00     0.057 H 
ENDBRANCH   1  36
BRANCH  11  41
ATOM     41  C   LIG d   1       5.322  -4.426  -5.370  0.00  0.00    -0.059 C 
ATOM     42  H   LIG d   1       5.201  -5.192  -6.138  0.00  0.00     0.024 H 
ATOM     43  H   LIG d   1       5.849  -4.851  -4.515  0.00  0.00     0.024 H 
ATOM     44  H   LIG d   1       4.341  -4.071  -5.054  0.00  0.00     0.024 H 
ENDBRANCH  11  41
BRANCH  15  45
ATOM     45  C   LIG d   1       7.907  -5.990  -6.352  0.00  0.00    -0.054 C 
ATOM     46  H   LIG d   1       8.705  -6.317  -5.686  0.00  0.00     0.024 H 
ATOM     47  H   LIG d   1       6.954  -6.031  -5.824  0.00  0.00     0.024 H 
ATOM     48  H   LIG d   1       7.868  -6.643  -7.222  0.00  0.00     0.024 H 
ENDBRANCH  15  45
BRANCH  15  49
ATOM     49  C   LIG d   1       9.690  -4.383  -6.869  0.00  0.00     0.048 C 
ATOM     50  O   LIG d   1      10.168  -3.311  -7.200  0.00  0.00    -0.549 OA
ATOM     51  O   LIG d   1      10.423  -5.317  -6.588  0.00  0.00    -0.549 OA
ENDBRANCH  15  49
TORSDOF 5
ENDMDL
MODEL 7
REMARK VINA RESULT:      -5.4      9.985     11.667
REMARK  5 active torsions:
REMARK  status: ('A' for Active; 'I' for Inactive)
REMARK    1  A    between atoms: C_1  and  C_2 
REMARK    2  A    between atoms: C_2  and  C_23 
REMARK    3  A    between atoms: C_12  and  C_21 
REMARK    4  A    between atoms: C_16  and  C_17 
REMARK    5  A    between atoms: C_16  and  C_18 
ROOT
ATOM      1  C   LIG d   1       5.738 -10.895  -3.113  0.00  0.00    -0.011 C 
ATOM      2  C   LIG d   1       6.236  -9.543  -3.616  0.00  0.00    -0.043 C 
ATOM      3  C   LIG d   1       7.741  -9.388  -3.377  0.00  0.00    -0.045 C 
ATOM      4  C   LIG d   1       8.021  -9.450  -1.879  0.00  0.00    -0.014 C 
ATOM      5  H   LIG d   1       7.487  -8.614  -1.410  0.00  0.00     0.035 H 
ATOM      6  C   LIG d   1       7.448 -10.713  -1.308  0.00  0.00    -0.069 C 
ATOM      7  C   LIG d   1       8.110 -11.531  -0.541  0.00  0.00    -0.084 C 
ATOM      8  C   LIG d   1       9.529 -11.273  -0.105  0.00  0.00    -0.030 C 
ATOM      9  C   LIG d   1       9.771  -9.761  -0.151  0.00  0.00    -0.021 C 
ATOM     10  H   LIG d   1       8.985  -9.302   0.499  0.00  0.00     0.032 H 
ATOM     11  C   LIG d   1       9.502  -9.256  -1.561  0.00  0.00    -0.022 C 
ATOM     12  C   LIG d   1       9.819  -7.760  -1.658  0.00  0.00    -0.047 C 
ATOM     13  C   LIG d   1      11.260  -7.500  -1.228  0.00  0.00    -0.052 C 
ATOM     14  C   LIG d   1      11.439  -7.904   0.230  0.00  0.00    -0.042 C 
ATOM     15  C   LIG d   1      11.108  -9.381   0.446  0.00  0.00     0.011 C 
ATOM     16  C   LIG d   1       5.996 -11.036  -1.612  0.00  0.00    -0.023 C 
ATOM     17  H   LIG d   1       6.034  -9.458  -4.686  0.00  0.00     0.027 H 
ATOM     18  H   LIG d   1       5.707  -8.742  -3.093  0.00  0.00     0.027 H 
ATOM     19  H   LIG d   1       8.261 -10.170  -3.922  0.00  0.00     0.027 H 
ATOM     20  H   LIG d   1       8.057  -8.415  -3.767  0.00  0.00     0.027 H 
ATOM     21  H   LIG d   1       7.626 -12.433  -0.202  0.00  0.00     0.057 H 
ATOM     22  H   LIG d   1       9.641 -11.638   0.918  0.00  0.00     0.031 H 
ATOM     23  H   LIG d   1      10.207 -11.815  -0.751  0.00  0.00     0.031 H 
ATOM     24  H   LIG d   1       9.680  -7.428  -2.688  0.00  0.00     0.027 H 
ATOM     25  H   LIG d   1       9.139  -7.206  -1.009  0.00  0.00     0.027 H 
ATOM     26  H   LIG d   1      11.958  -8.034  -1.864  0.00  0.00     0.027 H 
ATOM     27  H   LIG d   1      11.466  -6.424  -1.325  0.00  0.00     0.027 H 
ATOM     28  H   LIG d   1      12.476  -7.725   0.531  0.00  0.00     0.027 H 
ATOM     29  H   LIG d   1      10.786  -7.296   0.861  0.00  0.00     0.027 H 
ATOM     30  H   LIG d   1       5.348 -10.348  -1.063  0.00  0.00     0.032 H 
ATOM     31  H   LIG d   1       5.775 -12.058  -1.298  0.00  0.00     0.032 H 
ENDROOT
BRANCH   1  32
ATOM     32  C   LIG d   1       6.427 -12.032  -3.867  0.00  0.00    -0.056 C 
ATOM     33  H   LIG d   1       6.911 -12.699  -3.154  0.00  0.00     0.024 H 
ATOM     34  H   LIG d   1       5.686 -12.589  -4.439  0.00  0.00     0.024 H 
ATOM     35  H   LIG d   1       7.174 -11.620  -4.544  0.00  0.00     0.024 H 
ENDBRANCH   1  32
BRANCH   1  36
ATOM     36  C   LIG d   1       4.247 -10.986  -3.359  0.00  0.00    -0.085 C 
ATOM     37  C   LIG d   1       3.484  -9.942  -3.150  0.00  0.00    -0.102 C 
ATOM     38  H   LIG d   1       3.918  -9.017  -2.804  0.00  0.00     0.053 H 
ATOM     39  H   LIG d   1       2.421 -10.008  -3.326  0.00  0.00     0.053 H 
ATOM     40  H   LIG d   1       3.813 -11.912  -3.706  0.00  0.00     0.057 H 
ENDBRANCH   1  36
BRANCH  11  41
ATOM     41  C   LIG d   1      10.338 -10.011  -2.592  0.00  0.00    -0.059 C 
ATOM     42  H   LIG d   1      10.728  -9.308  -3.329  0.00  0.00     0.024 H 
ATOM     43  H   LIG d   1      11.168 -10.510  -2.092  0.00  0.00     0.024 H 
ATOM     44  H   LIG d   1       9.715 -10.753  -3.092  0.00  0.00     0.024 H 
ENDBRANCH  11  41
BRANCH  15  45
ATOM     45  C   LIG d   1      12.256 -10.247  -0.072  0.00  0.00    -0.054 C 
ATOM     46  H   LIG d   1      12.864 -10.584   0.767  0.00  0.00     0.024 H 
ATOM     47  H   LIG d   1      11.851 -11.111  -0.598  0.00  0.00     0.024 H 
ATOM     48  H   LIG d   1      12.872  -9.663  -0.755  0.00  0.00     0.024 H 
ENDBRANCH  15  45
BRANCH  15  49
ATOM     49  C   LIG d   1      11.033  -9.593   1.954  0.00  0.00     0.048 C 
ATOM     50  O   LIG d   1      10.611  -8.704   2.674  0.00  0.00    -0.549 OA
ATOM     51  O   LIG d   1      11.395 -10.651   2.440  0.00  0.00    -0.549 OA
ENDBRANCH  15  49
TORSDOF 5
ENDMDL
MODEL 8
REMARK VINA RESULT:      -5.2      4.477      6.809
REMARK  5 active torsions:
REMARK  status: ('A' for Active; 'I' for Inactive)
REMARK    1  A    between atoms: C_1  and  C_2 
REMARK    2  A    between atoms: C_2  and  C_23 
REMARK    3  A    between atoms: C_12  and  C_21 
REMARK    4  A    between atoms: C_16  and  C_17 
REMARK    5  A    between atoms: C_16  and  C_18 
ROOT
ATOM      1  C   LIG d   1       5.706  -1.245  -3.838  0.00  0.00    -0.011 C 
ATOM      2  C   LIG d   1       7.110  -1.782  -3.576  0.00  0.00    -0.043 C 
ATOM      3  C   LIG d   1       7.509  -2.818  -4.632  0.00  0.00    -0.045 C 
ATOM      4  C   LIG d   1       6.547  -4.000  -4.563  0.00  0.00    -0.014 C 
ATOM      5  H   LIG d   1       6.638  -4.442  -3.563  0.00  0.00     0.035 H 
ATOM      6  C   LIG d   1       5.135  -3.513  -4.701  0.00  0.00    -0.069 C 
ATOM      7  C   LIG d   1       4.265  -4.025  -5.524  0.00  0.00    -0.084 C 
ATOM      8  C   LIG d   1       4.576  -5.204  -6.410  0.00  0.00    -0.030 C 
ATOM      9  C   LIG d   1       5.704  -6.005  -5.754  0.00  0.00    -0.021 C 
ATOM     10  H   LIG d   1       5.343  -6.265  -4.728  0.00  0.00     0.032 H 
ATOM     11  C   LIG d   1       6.912  -5.098  -5.561  0.00  0.00    -0.022 C 
ATOM     12  C   LIG d   1       8.087  -5.895  -4.984  0.00  0.00    -0.047 C 
ATOM     13  C   LIG d   1       8.409  -7.082  -5.887  0.00  0.00    -0.052 C 
ATOM     14  C   LIG d   1       7.211  -8.022  -5.942  0.00  0.00    -0.042 C 
ATOM     15  C   LIG d   1       5.965  -7.311  -6.471  0.00  0.00     0.011 C 
ATOM     16  C   LIG d   1       4.683  -2.380  -3.798  0.00  0.00    -0.023 C 
ATOM     17  H   LIG d   1       7.825  -0.957  -3.600  0.00  0.00     0.027 H 
ATOM     18  H   LIG d   1       7.144  -2.248  -2.588  0.00  0.00     0.027 H 
ATOM     19  H   LIG d   1       7.501  -2.342  -5.607  0.00  0.00     0.027 H 
ATOM     20  H   LIG d   1       8.525  -3.163  -4.415  0.00  0.00     0.027 H 
ATOM     21  H   LIG d   1       3.281  -3.589  -5.578  0.00  0.00     0.057 H 
ATOM     22  H   LIG d   1       3.676  -5.819  -6.483  0.00  0.00     0.031 H 
ATOM     23  H   LIG d   1       4.846  -4.850  -7.397  0.00  0.00     0.031 H 
ATOM     24  H   LIG d   1       8.961  -5.246  -4.909  0.00  0.00     0.027 H 
ATOM     25  H   LIG d   1       7.823  -6.255  -3.988  0.00  0.00     0.027 H 
ATOM     26  H   LIG d   1       8.683  -6.750  -6.883  0.00  0.00     0.027 H 
ATOM     27  H   LIG d   1       9.265  -7.624  -5.461  0.00  0.00     0.027 H 
ATOM     28  H   LIG d   1       7.443  -8.867  -6.599  0.00  0.00     0.027 H 
ATOM     29  H   LIG d   1       7.004  -8.410  -4.941  0.00  0.00     0.027 H 
ATOM     30  H   LIG d   1       4.586  -2.749  -2.773  0.00  0.00     0.032 H 
ATOM     31  H   LIG d   1       3.712  -2.010  -4.134  0.00  0.00     0.032 H 
ENDROOT
BRANCH   1  32
ATOM     32  C   LIG d   1       5.648  -0.543  -5.196  0.00  0.00    -0.056 C 
ATOM     33  H   LIG d   1       6.175  -1.142  -5.937  0.00  0.00     0.024 H 
ATOM     34  H   LIG d   1       4.607  -0.424  -5.497  0.00  0.00     0.024 H 
ATOM     35  H   LIG d   1       6.118   0.437  -5.119  0.00  0.00     0.024 H 
ENDBRANCH   1  32
BRANCH   1  36
ATOM     36  C   LIG d   1       5.360  -0.241  -2.761  0.00  0.00    -0.085 C 
ATOM     37  C   LIG d   1       4.434  -0.523  -1.878  0.00  0.00    -0.102 C 
ATOM     38  H   LIG d   1       3.919  -1.470  -1.918  0.00  0.00     0.053 H 
ATOM     39  H   LIG d   1       4.187   0.194  -1.108  0.00  0.00     0.053 H 
ATOM     40  H   LIG d   1       5.876   0.707  -2.719  0.00  0.00     0.057 H 
ENDBRANCH   1  36
BRANCH  11  41
ATOM     41  C   LIG d   1       7.343  -4.455  -6.877  0.00  0.00    -0.059 C 
ATOM     42  H   LIG d   1       8.366  -4.751  -7.108  0.00  0.00     0.024 H 
ATOM     43  H   LIG d   1       6.680  -4.786  -7.677  0.00  0.00     0.024 H 
ATOM     44  H   LIG d   1       7.290  -3.370  -6.786  0.00  0.00     0.024 H 
ENDBRANCH  11  41
BRANCH  15  45
ATOM     45  C   LIG d   1       6.071  -7.146  -7.987  0.00  0.00    -0.054 C 
ATOM     46  H   LIG d   1       5.079  -6.973  -8.403  0.00  0.00     0.024 H 
ATOM     47  H   LIG d   1       6.715  -6.297  -8.215  0.00  0.00     0.024 H 
ATOM     48  H   LIG d   1       6.495  -8.050  -8.421  0.00  0.00     0.024 H 
ENDBRANCH  15  45
BRANCH  15  49
ATOM     49  C   LIG d   1       4.788  -8.243  -6.204  0.00  0.00     0.048 C 
ATOM     50  O   LIG d   1       4.397  -8.419  -5.062  0.00  0.00    -0.549 OA
ATOM     51  O   LIG d   1       4.237  -8.812  -7.131  0.00  0.00    -0.549 OA
ENDBRANCH  15  49
TORSDOF 5
ENDMDL
MODEL 9
REMARK VINA RESULT:      -5.2      8.197     10.338
REMARK  5 active torsions:
REMARK  status: ('A' for Active; 'I' for Inactive)
REMARK    1  A    between atoms: C_1  and  C_2 
REMARK    2  A    between atoms: C_2  and  C_23 
REMARK    3  A    between atoms: C_12  and  C_21 
REMARK    4  A    between atoms: C_16  and  C_17 
REMARK    5  A    between atoms: C_16  and  C_18 
ROOT
ATOM      1  C   LIG d   1      10.555  -6.276  -3.255  0.00  0.00    -0.011 C 
ATOM      2  C   LIG d   1      10.439  -6.945  -1.889  0.00  0.00    -0.043 C 
ATOM      3  C   LIG d   1       9.822  -8.342  -2.012  0.00  0.00    -0.045 C 
ATOM      4  C   LIG d   1       8.413  -8.220  -2.583  0.00  0.00    -0.014 C 
ATOM      5  H   LIG d   1       7.824  -7.619  -1.880  0.00  0.00     0.035 H 
ATOM      6  C   LIG d   1       8.454  -7.464  -3.878  0.00  0.00    -0.069 C 
ATOM      7  C   LIG d   1       7.881  -7.868  -4.975  0.00  0.00    -0.084 C 
ATOM      8  C   LIG d   1       7.069  -9.135  -5.053  0.00  0.00    -0.030 C 
ATOM      9  C   LIG d   1       6.540  -9.445  -3.650  0.00  0.00    -0.021 C 
ATOM     10  H   LIG d   1       5.973  -8.538  -3.325  0.00  0.00     0.032 H 
ATOM     11  C   LIG d   1       7.716  -9.575  -2.692  0.00  0.00    -0.022 C 
ATOM     12  C   LIG d   1       7.222  -9.970  -1.296  0.00  0.00    -0.047 C 
ATOM     13  C   LIG d   1       6.410 -11.259  -1.372  0.00  0.00    -0.052 C 
ATOM     14  C   LIG d   1       5.177 -11.036  -2.240  0.00  0.00    -0.042 C 
ATOM     15  C   LIG d   1       5.559 -10.597  -3.654  0.00  0.00     0.011 C 
ATOM     16  C   LIG d   1       9.176  -6.129  -3.899  0.00  0.00    -0.023 C 
ATOM     17  H   LIG d   1      11.432  -7.033  -1.443  0.00  0.00     0.027 H 
ATOM     18  H   LIG d   1       9.812  -6.334  -1.236  0.00  0.00     0.027 H 
ATOM     19  H   LIG d   1      10.465  -8.952  -2.639  0.00  0.00     0.027 H 
ATOM     20  H   LIG d   1       9.773  -8.790  -1.014  0.00  0.00     0.027 H 
ATOM     21  H   LIG d   1       7.991  -7.275  -5.868  0.00  0.00     0.057 H 
ATOM     22  H   LIG d   1       6.235  -8.961  -5.736  0.00  0.00     0.031 H 
ATOM     23  H   LIG d   1       7.687  -9.934  -5.443  0.00  0.00     0.031 H 
ATOM     24  H   LIG d   1       8.080 -10.118  -0.638  0.00  0.00     0.027 H 
ATOM     25  H   LIG d   1       6.599  -9.169  -0.895  0.00  0.00     0.027 H 
ATOM     26  H   LIG d   1       7.010 -12.075  -1.761  0.00  0.00     0.027 H 
ATOM     27  H   LIG d   1       6.084 -11.530  -0.358  0.00  0.00     0.027 H 
ATOM     28  H   LIG d   1       4.603 -11.966  -2.300  0.00  0.00     0.027 H 
ATOM     29  H   LIG d   1       4.544 -10.268  -1.786  0.00  0.00     0.027 H 
ATOM     30  H   LIG d   1       8.590  -5.391  -3.345  0.00  0.00     0.032 H 
ATOM     31  H   LIG d   1       9.288  -5.790  -4.931  0.00  0.00     0.032 H 
ENDROOT
BRANCH   1  32
ATOM     32  C   LIG d   1      11.471  -7.087  -4.172  0.00  0.00    -0.056 C 
ATOM     33  H   LIG d   1      12.095  -6.410  -4.754  0.00  0.00     0.024 H 
ATOM     34  H   LIG d   1      12.105  -7.737  -3.568  0.00  0.00     0.024 H 
ATOM     35  H   LIG d   1      10.867  -7.694  -4.846  0.00  0.00     0.024 H 
ENDBRANCH   1  32
BRANCH   1  36
ATOM     36  C   LIG d   1      11.154  -4.898  -3.073  0.00  0.00    -0.085 C 
ATOM     37  C   LIG d   1      10.376  -3.843  -3.058  0.00  0.00    -0.102 C 
ATOM     38  H   LIG d   1       9.310  -3.957  -3.175  0.00  0.00     0.053 H 
ATOM     39  H   LIG d   1      10.804  -2.860  -2.927  0.00  0.00     0.053 H 
ATOM     40  H   LIG d   1      12.221  -4.784  -2.955  0.00  0.00     0.057 H 
ENDBRANCH   1  36
BRANCH  11  41
ATOM     41  C   LIG d   1       8.721 -10.616  -3.179  0.00  0.00    -0.059 C 
ATOM     42  H   LIG d   1       8.318 -11.129  -4.053  0.00  0.00     0.024 H 
ATOM     43  H   LIG d   1       9.654 -10.122  -3.448  0.00  0.00     0.024 H 
ATOM     44  H   LIG d   1       8.908 -11.341  -2.387  0.00  0.00     0.024 H 
ENDBRANCH  11  41
BRANCH  15  45
ATOM     45  C   LIG d   1       6.062 -11.802  -4.449  0.00  0.00    -0.054 C 
ATOM     46  H   LIG d   1       6.112 -12.673  -3.796  0.00  0.00     0.024 H 
ATOM     47  H   LIG d   1       5.378 -12.004  -5.273  0.00  0.00     0.024 H 
ATOM     48  H   LIG d   1       7.054 -11.587  -4.845  0.00  0.00     0.024 H 
ENDBRANCH  15  45
BRANCH  15  49
ATOM     49  C   LIG d   1       4.274 -10.124  -4.323  0.00  0.00     0.048 C 
ATOM     50  O   LIG d   1       3.983 -10.526  -5.437  0.00  0.00    -0.549 OA
ATOM     51  O   LIG d   1       3.536  -9.344  -3.744  0.00  0.00    -0.549 OA
ENDBRANCH  15  49
TORSDOF 5
ENDMDL
