MODEL 1
REMARK VINA RESULT:      -6.8      0.000      0.000
REMARK  11 active torsions:
REMARK  status: ('A' for Active; 'I' for Inactive)
REMARK    1  A    between atoms: C_1  and  C_2 
REMARK    2  A    between atoms: C_4  and  N_33 
REMARK    3  A    between atoms: C_8  and  C_32 
REMARK    4  A    between atoms: C_11  and  O_31 
REMARK    5  A    between atoms: C_13  and  C_17 
REMARK    6  A    between atoms: C_17  and  C_19 
REMARK    7  A    between atoms: C_17  and  C_20 
REMARK       I    between atoms: C_20  and  N_22 
REMARK    8  A    between atoms: N_22  and  C_23 
REMARK    9  A    between atoms: C_23  and  C_24 
REMARK   10  A    between atoms: C_24  and  N_25 
REMARK       I    between atoms: N_33  and  C_34 
REMARK   11  A    between atoms: C_34  and  C_36 
ROOT
ATOM      1  C   LIG d   1       9.003   2.347  -5.895  0.00  0.00    -0.020 C 
ATOM      2  H   LIG d   1       9.865   1.671  -5.803  0.00  0.00     0.032 H 
ATOM      3  C   LIG d   1       8.279   2.438  -4.550  0.00  0.00     0.026 C 
ATOM      4  H   LIG d   1       7.390   3.081  -4.632  0.00  0.00     0.050 H 
ATOM      5  C   LIG d   1       9.241   2.979  -3.490  0.00  0.00    -0.034 C 
ATOM      6  C   LIG d   1       9.725   4.370  -3.903  0.00  0.00    -0.046 C 
ATOM      7  C   LIG d   1      10.448   4.280  -5.249  0.00  0.00    -0.026 C 
ATOM      8  C   LIG d   1       9.487   3.738  -6.309  0.00  0.00    -0.005 C 
ATOM      9  H   LIG d   1       8.625   4.414  -6.402  0.00  0.00     0.033 H 
ATOM     10  C   LIG d   1      10.211   3.648  -7.655  0.00  0.00     0.062 C 
ATOM     11  H   LIG d   1      11.045   2.932  -7.612  0.00  0.00     0.060 H 
ATOM     12  C   LIG d   1      10.696   5.039  -8.067  0.00  0.00    -0.004 C 
ATOM     13  H   LIG d   1      11.215   4.974  -9.035  0.00  0.00     0.033 H 
ATOM     14  C   LIG d   1      11.657   5.580  -7.007  0.00  0.00    -0.047 C 
ATOM     15  C   LIG d   1      10.933   5.671  -5.662  0.00  0.00    -0.047 C 
ATOM     16  H   LIG d   1       8.721   3.045  -2.523  0.00  0.00     0.028 H 
ATOM     17  H   LIG d   1      10.103   2.303  -3.398  0.00  0.00     0.028 H 
ATOM     18  H   LIG d   1       8.863   5.047  -3.996  0.00  0.00     0.027 H 
ATOM     19  H   LIG d   1      10.416   4.759  -3.141  0.00  0.00     0.027 H 
ATOM     20  H   LIG d   1      12.519   4.904  -6.914  0.00  0.00     0.027 H 
ATOM     21  H   LIG d   1      12.005   6.580  -7.304  0.00  0.00     0.027 H 
ATOM     22  H   LIG d   1      10.071   6.347  -5.755  0.00  0.00     0.027 H 
ATOM     23  H   LIG d   1      11.624   6.060  -4.900  0.00  0.00     0.027 H 
ENDROOT
BRANCH  12  24
ATOM     24  C   LIG d   1       9.495   5.980  -8.196  0.00  0.00     0.038 C 
ATOM     25  H   LIG d   1       8.838   5.867  -7.322  0.00  0.00     0.040 H 
BRANCH  24  26
ATOM     26  C   LIG d   1       8.723   5.650  -9.475  0.00  0.00    -0.054 C 
ATOM     27  H   LIG d   1       9.433   5.427 -10.285  0.00  0.00     0.024 H 
ATOM     28  H   LIG d   1       8.101   6.511  -9.759  0.00  0.00     0.024 H 
ATOM     29  H   LIG d   1       8.080   4.775  -9.300  0.00  0.00     0.024 H 
ENDBRANCH  24  26
BRANCH  24  30
ATOM     30  C   LIG d   1       9.979   7.405  -8.255  0.00  0.00     0.216 C 
ATOM     31  O   LIG d   1      10.836   7.723  -9.052  0.00  0.00    -0.276 OA
ATOM     32  N   LIG d   1       9.459   8.328  -7.421  0.00  0.00    -0.314 N 
ATOM     33  H   LIG d   1       8.682   8.040  -6.698  0.00  0.00     0.149 HD
BRANCH  32  34
ATOM     34  C   LIG d   1       9.930   9.715  -7.478  0.00  0.00     0.024 C 
ATOM     35  H   LIG d   1      10.480   9.876  -8.417  0.00  0.00     0.047 H 
ATOM     36  H   LIG d   1       9.067  10.397  -7.437  0.00  0.00     0.047 H 
BRANCH  34  37
ATOM     37  C   LIG d   1      10.854   9.990  -6.291  0.00  0.00     0.015 C 
ATOM     38  H   LIG d   1      11.568   9.160  -6.183  0.00  0.00     0.044 H 
ATOM     39  H   LIG d   1      11.405  10.927  -6.462  0.00  0.00     0.044 H 
BRANCH  37  40
ATOM     40  N   LIG d   1      10.054  10.109  -5.065  0.00  0.00    -0.296 N 
ATOM     41  C   LIG d   1      10.849   9.753  -3.880  0.00  0.00     0.022 C 
ATOM     42  C   LIG d   1       9.962   9.833  -2.635  0.00  0.00     0.060 C 
ATOM     43  H   LIG d   1      11.235   8.729  -3.992  0.00  0.00     0.045 H 
ATOM     44  H   LIG d   1      11.690  10.454  -3.779  0.00  0.00     0.045 H 
ATOM     45  O   LIG d   1       9.403  11.147  -2.537  0.00  0.00    -0.377 OA
ATOM     46  H   LIG d   1      10.565   9.625  -1.738  0.00  0.00     0.057 H 
ATOM     47  H   LIG d   1       9.150   9.095  -2.711  0.00  0.00     0.057 H 
ATOM     48  C   LIG d   1       8.623  11.527  -3.674  0.00  0.00     0.060 C 
ATOM     49  C   LIG d   1       9.496  11.463  -4.930  0.00  0.00     0.022 C 
ATOM     50  H   LIG d   1       8.250  12.552  -3.539  0.00  0.00     0.057 H 
ATOM     51  H   LIG d   1       7.772  10.838  -3.783  0.00  0.00     0.057 H 
ATOM     52  H   LIG d   1      10.317  12.191  -4.846  0.00  0.00     0.045 H 
ATOM     53  H   LIG d   1       8.886  11.697  -5.815  0.00  0.00     0.045 H 
ENDBRANCH  37  40
ENDBRANCH  34  37
ENDBRANCH  32  34
ENDBRANCH  24  30
ENDBRANCH  12  24
BRANCH  10  54
ATOM     54  O   LIG d   1       9.313   3.142  -8.644  0.00  0.00    -0.391 OA
ATOM     55  H   LIG d   1       8.520   3.789  -9.049  0.00  0.00     0.210 HD
ENDBRANCH  10  54
BRANCH   1  56
ATOM     56  C   LIG d   1       8.041   1.807  -6.956  0.00  0.00    -0.060 C 
ATOM     57  H   LIG d   1       7.050   2.264  -6.819  0.00  0.00     0.023 H 
ATOM     58  H   LIG d   1       7.959   0.714  -6.852  0.00  0.00     0.023 H 
ATOM     59  H   LIG d   1       8.423   2.052  -7.957  0.00  0.00     0.023 H 
ENDBRANCH   1  56
BRANCH   7  60
ATOM     60  C   LIG d   1      11.649   3.339  -5.120  0.00  0.00    -0.059 C 
ATOM     61  H   LIG d   1      12.148   3.512  -4.156  0.00  0.00     0.024 H 
ATOM     62  H   LIG d   1      12.357   3.535  -5.940  0.00  0.00     0.024 H 
ATOM     63  H   LIG d   1      11.305   2.297  -5.175  0.00  0.00     0.024 H 
ENDBRANCH   7  60
BRANCH   3  64
ATOM     64  N   LIG d   1       7.815   1.106  -4.154  0.00  0.00    -0.312 N 
ATOM     65  C   LIG d   1       6.644   0.966  -3.503  0.00  0.00     0.216 C 
ATOM     66  O   LIG d   1       5.973   1.944  -3.245  0.00  0.00    -0.276 OA
ATOM     67  H   LIG d   1       8.424   0.220  -4.389  0.00  0.00     0.149 HD
BRANCH  65  68
ATOM     68  C   LIG d   1       6.166  -0.403  -3.097  0.00  0.00     0.036 C 
ATOM     69  C   LIG d   1       4.859  -0.276  -2.312  0.00  0.00    -0.042 C 
ATOM     70  C   LIG d   1       4.374  -1.667  -1.900  0.00  0.00    -0.052 C 
ATOM     71  H   LIG d   1       5.029   0.335  -1.414  0.00  0.00     0.027 H 
ATOM     72  H   LIG d   1       4.097   0.205  -2.944  0.00  0.00     0.027 H 
ATOM     73  C   LIG d   1       4.138  -2.518  -3.149  0.00  0.00    -0.053 C 
ATOM     74  H   LIG d   1       3.434  -1.576  -1.335  0.00  0.00     0.026 H 
ATOM     75  H   LIG d   1       5.136  -2.148  -1.267  0.00  0.00     0.026 H 
ATOM     76  C   LIG d   1       5.446  -2.645  -3.934  0.00  0.00    -0.052 C 
ATOM     77  H   LIG d   1       3.377  -2.037  -3.781  0.00  0.00     0.026 H 
ATOM     78  H   LIG d   1       3.789  -3.518  -2.852  0.00  0.00     0.026 H 
ATOM     79  C   LIG d   1       5.930  -1.254  -4.347  0.00  0.00    -0.042 C 
ATOM     80  H   LIG d   1       5.276  -3.257  -4.832  0.00  0.00     0.026 H 
ATOM     81  H   LIG d   1       6.206  -3.126  -3.302  0.00  0.00     0.026 H 
ATOM     82  H   LIG d   1       5.169  -0.773  -4.978  0.00  0.00     0.027 H 
ATOM     83  H   LIG d   1       6.871  -1.345  -4.911  0.00  0.00     0.027 H 
ATOM     84  H   LIG d   1       6.937  -0.871  -2.466  0.00  0.00     0.039 H 
ENDBRANCH  65  68
ENDBRANCH   3  64
TORSDOF 11
ENDMDL
MODEL 2
REMARK VINA RESULT:      -6.6      1.278      1.713
REMARK  11 active torsions:
REMARK  status: ('A' for Active; 'I' for Inactive)
REMARK    1  A    between atoms: C_1  and  C_2 
REMARK    2  A    between atoms: C_4  and  N_33 
REMARK    3  A    between atoms: C_8  and  C_32 
REMARK    4  A    between atoms: C_11  and  O_31 
REMARK    5  A    between atoms: C_13  and  C_17 
REMARK    6  A    between atoms: C_17  and  C_19 
REMARK    7  A    between atoms: C_17  and  C_20 
REMARK       I    between atoms: C_20  and  N_22 
REMARK    8  A    between atoms: N_22  and  C_23 
REMARK    9  A    between atoms: C_23  and  C_24 
REMARK   10  A    between atoms: C_24  and  N_25 
REMARK       I    between atoms: N_33  and  C_34 
REMARK   11  A    between atoms: C_34  and  C_36 
ROOT
ATOM      1  C   LIG d   1       9.023   2.371  -5.894  0.00  0.00    -0.020 C 
ATOM      2  H   LIG d   1       9.884   1.696  -5.793  0.00  0.00     0.032 H 
ATOM      3  C   LIG d   1       8.287   2.465  -4.555  0.00  0.00     0.026 C 
ATOM      4  H   LIG d   1       7.399   3.107  -4.645  0.00  0.00     0.050 H 
ATOM      5  C   LIG d   1       9.240   3.008  -3.488  0.00  0.00    -0.034 C 
ATOM      6  C   LIG d   1       9.727   4.399  -3.900  0.00  0.00    -0.046 C 
ATOM      7  C   LIG d   1      10.461   4.306  -5.239  0.00  0.00    -0.026 C 
ATOM      8  C   LIG d   1       9.509   3.762  -6.306  0.00  0.00    -0.005 C 
ATOM      9  H   LIG d   1       8.647   4.437  -6.407  0.00  0.00     0.033 H 
ATOM     10  C   LIG d   1      10.244   3.670  -7.645  0.00  0.00     0.062 C 
ATOM     11  H   LIG d   1      11.078   2.954  -7.594  0.00  0.00     0.060 H 
ATOM     12  C   LIG d   1      10.732   5.060  -8.057  0.00  0.00    -0.004 C 
ATOM     13  H   LIG d   1      11.259   4.993  -9.020  0.00  0.00     0.033 H 
ATOM     14  C   LIG d   1      11.683   5.603  -6.990  0.00  0.00    -0.047 C 
ATOM     15  C   LIG d   1      10.949   5.697  -5.650  0.00  0.00    -0.047 C 
ATOM     16  H   LIG d   1       8.712   3.076  -2.525  0.00  0.00     0.028 H 
ATOM     17  H   LIG d   1      10.101   2.333  -3.387  0.00  0.00     0.028 H 
ATOM     18  H   LIG d   1       8.865   5.075  -4.001  0.00  0.00     0.027 H 
ATOM     19  H   LIG d   1      10.412   4.789  -3.132  0.00  0.00     0.027 H 
ATOM     20  H   LIG d   1      12.546   4.928  -6.888  0.00  0.00     0.027 H 
ATOM     21  H   LIG d   1      12.034   6.603  -7.286  0.00  0.00     0.027 H 
ATOM     22  H   LIG d   1      10.087   6.372  -5.752  0.00  0.00     0.027 H 
ATOM     23  H   LIG d   1      11.633   6.088  -4.884  0.00  0.00     0.027 H 
ENDROOT
BRANCH  12  24
ATOM     24  C   LIG d   1       9.532   6.000  -8.197  0.00  0.00     0.038 C 
ATOM     25  H   LIG d   1       8.894   5.926  -7.305  0.00  0.00     0.040 H 
BRANCH  24  26
ATOM     26  C   LIG d   1       8.730   5.621  -9.444  0.00  0.00    -0.054 C 
ATOM     27  H   LIG d   1       8.949   6.334 -10.252  0.00  0.00     0.024 H 
ATOM     28  H   LIG d   1       7.655   5.649  -9.211  0.00  0.00     0.024 H 
ATOM     29  H   LIG d   1       9.009   4.606  -9.765  0.00  0.00     0.024 H 
ENDBRANCH  24  26
BRANCH  24  30
ATOM     30  C   LIG d   1      10.019   7.419  -8.326  0.00  0.00     0.216 C 
ATOM     31  O   LIG d   1      10.873   7.696  -9.141  0.00  0.00    -0.276 OA
ATOM     32  N   LIG d   1       9.506   8.382  -7.534  0.00  0.00    -0.314 N 
ATOM     33  H   LIG d   1       8.731   8.131  -6.795  0.00  0.00     0.149 HD
BRANCH  32  34
ATOM     34  C   LIG d   1       9.980   9.764  -7.660  0.00  0.00     0.024 C 
ATOM     35  H   LIG d   1      10.871   9.788  -8.303  0.00  0.00     0.047 H 
ATOM     36  H   LIG d   1       9.188  10.384  -8.105  0.00  0.00     0.047 H 
BRANCH  34  37
ATOM     37  C   LIG d   1      10.335  10.308  -6.275  0.00  0.00     0.015 C 
ATOM     38  H   LIG d   1       9.585   9.971  -5.545  0.00  0.00     0.044 H 
ATOM     39  H   LIG d   1      11.328   9.937  -5.978  0.00  0.00     0.044 H 
BRANCH  37  40
ATOM     40  N   LIG d   1      10.354  11.776  -6.315  0.00  0.00    -0.296 N 
ATOM     41  C   LIG d   1       9.848  12.275  -7.602  0.00  0.00     0.022 C 
ATOM     42  C   LIG d   1       9.941  13.803  -7.624  0.00  0.00     0.060 C 
ATOM     43  H   LIG d   1      10.453  11.857  -8.421  0.00  0.00     0.045 H 
ATOM     44  H   LIG d   1       8.800  11.968  -7.728  0.00  0.00     0.045 H 
ATOM     45  O   LIG d   1       9.213  14.335  -6.513  0.00  0.00    -0.377 OA
ATOM     46  H   LIG d   1       9.510  14.185  -8.561  0.00  0.00     0.057 H 
ATOM     47  H   LIG d   1      10.995  14.110  -7.552  0.00  0.00     0.057 H 
ATOM     48  C   LIG d   1       9.679  13.870  -5.243  0.00  0.00     0.060 C 
ATOM     49  C   LIG d   1       9.584  12.343  -5.198  0.00  0.00     0.022 C 
ATOM     50  H   LIG d   1       9.059  14.300  -4.444  0.00  0.00     0.057 H 
ATOM     51  H   LIG d   1      10.726  14.178  -5.100  0.00  0.00     0.057 H 
ATOM     52  H   LIG d   1       8.531  12.036  -5.285  0.00  0.00     0.045 H 
ATOM     53  H   LIG d   1       9.996  11.976  -4.246  0.00  0.00     0.045 H 
ENDBRANCH  37  40
ENDBRANCH  34  37
ENDBRANCH  32  34
ENDBRANCH  24  30
ENDBRANCH  12  24
BRANCH  10  54
ATOM     54  O   LIG d   1       9.355   3.161  -8.642  0.00  0.00    -0.391 OA
ATOM     55  H   LIG d   1       8.268   3.185  -8.472  0.00  0.00     0.210 HD
ENDBRANCH  10  54
BRANCH   1  56
ATOM     56  C   LIG d   1       8.070   1.828  -6.961  0.00  0.00    -0.060 C 
ATOM     57  H   LIG d   1       8.643   1.261  -7.710  0.00  0.00     0.023 H 
ATOM     58  H   LIG d   1       7.554   2.667  -7.452  0.00  0.00     0.023 H 
ATOM     59  H   LIG d   1       7.329   1.167  -6.489  0.00  0.00     0.023 H 
ENDBRANCH   1  56
BRANCH   7  60
ATOM     60  C   LIG d   1      11.661   3.366  -5.099  0.00  0.00    -0.059 C 
ATOM     61  H   LIG d   1      11.832   2.846  -6.052  0.00  0.00     0.024 H 
ATOM     62  H   LIG d   1      11.457   2.627  -4.309  0.00  0.00     0.024 H 
ATOM     63  H   LIG d   1      12.554   3.949  -4.832  0.00  0.00     0.024 H 
ENDBRANCH   7  60
BRANCH   3  64
ATOM     64  N   LIG d   1       7.821   1.133  -4.160  0.00  0.00    -0.312 N 
ATOM     65  C   LIG d   1       6.645   0.994  -3.517  0.00  0.00     0.216 C 
ATOM     66  O   LIG d   1       5.973   1.972  -3.265  0.00  0.00    -0.276 OA
ATOM     67  H   LIG d   1       8.431   0.246  -4.389  0.00  0.00     0.149 HD
BRANCH  65  68
ATOM     68  C   LIG d   1       6.165  -0.375  -3.112  0.00  0.00     0.036 C 
ATOM     69  C   LIG d   1       4.873  -0.244  -2.302  0.00  0.00    -0.042 C 
ATOM     70  C   LIG d   1       4.386  -1.635  -1.891  0.00  0.00    -0.052 C 
ATOM     71  H   LIG d   1       5.064   0.359  -1.403  0.00  0.00     0.027 H 
ATOM     72  H   LIG d   1       4.103   0.247  -2.917  0.00  0.00     0.027 H 
ATOM     73  C   LIG d   1       4.120  -2.474  -3.142  0.00  0.00    -0.053 C 
ATOM     74  H   LIG d   1       3.457  -1.541  -1.309  0.00  0.00     0.026 H 
ATOM     75  H   LIG d   1       5.155  -2.125  -1.276  0.00  0.00     0.026 H 
ATOM     76  C   LIG d   1       5.412  -2.605  -3.952  0.00  0.00    -0.052 C 
ATOM     77  H   LIG d   1       3.351  -1.983  -3.757  0.00  0.00     0.026 H 
ATOM     78  H   LIG d   1       3.769  -3.473  -2.846  0.00  0.00     0.026 H 
ATOM     79  C   LIG d   1       5.899  -1.215  -4.364  0.00  0.00    -0.042 C 
ATOM     80  H   LIG d   1       5.221  -3.208  -4.851  0.00  0.00     0.026 H 
ATOM     81  H   LIG d   1       6.181  -3.096  -3.337  0.00  0.00     0.026 H 
ATOM     82  H   LIG d   1       5.130  -0.723  -4.977  0.00  0.00     0.027 H 
ATOM     83  H   LIG d   1       6.828  -1.308  -4.945  0.00  0.00     0.027 H 
ATOM     84  H   LIG d   1       6.943  -0.853  -2.499  0.00  0.00     0.039 H 
ENDBRANCH  65  68
ENDBRANCH   3  64
TORSDOF 11
ENDMDL
MODEL 3
REMARK VINA RESULT:      -6.2      2.566      4.544
REMARK  11 active torsions:
REMARK  status: ('A' for Active; 'I' for Inactive)
REMARK    1  A    between atoms: C_1  and  C_2 
REMARK    2  A    between atoms: C_4  and  N_33 
REMARK    3  A    between atoms: C_8  and  C_32 
REMARK    4  A    between atoms: C_11  and  O_31 
REMARK    5  A    between atoms: C_13  and  C_17 
REMARK    6  A    between atoms: C_17  and  C_19 
REMARK    7  A    between atoms: C_17  and  C_20 
REMARK       I    between atoms: C_20  and  N_22 
REMARK    8  A    between atoms: N_22  and  C_23 
REMARK    9  A    between atoms: C_23  and  C_24 
REMARK   10  A    between atoms: C_24  and  N_25 
REMARK       I    between atoms: N_33  and  C_34 
REMARK   11  A    between atoms: C_34  and  C_36 
ROOT
ATOM      1  C   LIG d   1       9.035   2.259  -5.890  0.00  0.00    -0.020 C 
ATOM      2  H   LIG d   1       9.885   1.571  -5.772  0.00  0.00     0.032 H 
ATOM      3  C   LIG d   1       8.309   2.407  -4.551  0.00  0.00     0.026 C 
ATOM      4  H   LIG d   1       7.432   3.062  -4.657  0.00  0.00     0.050 H 
ATOM      5  C   LIG d   1       9.278   2.965  -3.506  0.00  0.00    -0.034 C 
ATOM      6  C   LIG d   1       9.788   4.333  -3.963  0.00  0.00    -0.046 C 
ATOM      7  C   LIG d   1      10.513   4.186  -5.303  0.00  0.00    -0.026 C 
ATOM      8  C   LIG d   1       9.546   3.627  -6.347  0.00  0.00    -0.005 C 
ATOM      9  H   LIG d   1       8.695   4.314  -6.465  0.00  0.00     0.033 H 
ATOM     10  C   LIG d   1      10.271   3.479  -7.687  0.00  0.00     0.062 C 
ATOM     11  H   LIG d   1      11.092   2.750  -7.617  0.00  0.00     0.060 H 
ATOM     12  C   LIG d   1      10.782   4.847  -8.143  0.00  0.00    -0.004 C 
ATOM     13  H   LIG d   1      11.303   4.741  -9.107  0.00  0.00     0.033 H 
ATOM     14  C   LIG d   1      11.749   5.405  -7.099  0.00  0.00    -0.047 C 
ATOM     15  C   LIG d   1      11.024   5.554  -5.759  0.00  0.00    -0.047 C 
ATOM     16  H   LIG d   1       8.756   3.073  -2.543  0.00  0.00     0.028 H 
ATOM     17  H   LIG d   1      10.127   2.277  -3.388  0.00  0.00     0.028 H 
ATOM     18  H   LIG d   1       8.938   5.022  -4.081  0.00  0.00     0.027 H 
ATOM     19  H   LIG d   1      10.484   4.735  -3.212  0.00  0.00     0.027 H 
ATOM     20  H   LIG d   1      12.600   4.717  -6.981  0.00  0.00     0.027 H 
ATOM     21  H   LIG d   1      12.117   6.388  -7.427  0.00  0.00     0.027 H 
ATOM     22  H   LIG d   1      10.174   6.241  -5.877  0.00  0.00     0.027 H 
ATOM     23  H   LIG d   1      11.720   5.955  -5.009  0.00  0.00     0.027 H 
ENDROOT
BRANCH  12  24
ATOM     24  C   LIG d   1       9.599   5.804  -8.307  0.00  0.00     0.038 C 
ATOM     25  H   LIG d   1       9.031   5.859  -7.368  0.00  0.00     0.040 H 
BRANCH  24  26
ATOM     26  C   LIG d   1       8.693   5.308  -9.436  0.00  0.00    -0.054 C 
ATOM     27  H   LIG d   1       8.944   4.264  -9.676  0.00  0.00     0.024 H 
ATOM     28  H   LIG d   1       8.842   5.935 -10.327  0.00  0.00     0.024 H 
ATOM     29  H   LIG d   1       7.642   5.368  -9.116  0.00  0.00     0.024 H 
ENDBRANCH  24  26
BRANCH  24  30
ATOM     30  C   LIG d   1      10.111   7.181  -8.642  0.00  0.00     0.216 C 
ATOM     31  O   LIG d   1       9.807   8.127  -7.947  0.00  0.00    -0.276 OA
ATOM     32  N   LIG d   1      10.906   7.361  -9.715  0.00  0.00    -0.314 N 
ATOM     33  H   LIG d   1      11.181   6.503 -10.346  0.00  0.00     0.149 HD
BRANCH  32  34
ATOM     34  C   LIG d   1      11.404   8.700 -10.041  0.00  0.00     0.024 C 
ATOM     35  H   LIG d   1      10.864   9.448  -9.441  0.00  0.00     0.047 H 
ATOM     36  H   LIG d   1      12.479   8.756  -9.816  0.00  0.00     0.047 H 
BRANCH  34  37
ATOM     37  C   LIG d   1      11.179   8.980 -11.528  0.00  0.00     0.015 C 
ATOM     38  H   LIG d   1      10.364   9.710 -11.644  0.00  0.00     0.044 H 
ATOM     39  H   LIG d   1      12.101   9.387 -11.970  0.00  0.00     0.044 H 
BRANCH  37  40
ATOM     40  N   LIG d   1      10.818   7.732 -12.213  0.00  0.00    -0.296 N 
ATOM     41  C   LIG d   1       9.503   7.846 -12.859  0.00  0.00     0.022 C 
ATOM     42  C   LIG d   1       9.141   6.506 -13.507  0.00  0.00     0.060 C 
ATOM     43  H   LIG d   1       8.745   8.106 -12.105  0.00  0.00     0.045 H 
ATOM     44  H   LIG d   1       9.540   8.630 -13.629  0.00  0.00     0.045 H 
ATOM     45  O   LIG d   1      10.169   6.138 -14.432  0.00  0.00    -0.377 OA
ATOM     46  H   LIG d   1       8.185   6.602 -14.042  0.00  0.00     0.057 H 
ATOM     47  H   LIG d   1       9.053   5.732 -12.731  0.00  0.00     0.057 H 
ATOM     48  C   LIG d   1      11.463   6.018 -13.836  0.00  0.00     0.060 C 
ATOM     49  C   LIG d   1      11.849   7.351 -13.191  0.00  0.00     0.022 C 
ATOM     50  H   LIG d   1      12.202   5.758 -14.609  0.00  0.00     0.057 H 
ATOM     51  H   LIG d   1      11.444   5.230 -13.068  0.00  0.00     0.057 H 
ATOM     52  H   LIG d   1      11.923   8.129 -13.966  0.00  0.00     0.045 H 
ATOM     53  H   LIG d   1      12.817   7.248 -12.681  0.00  0.00     0.045 H 
ENDBRANCH  37  40
ENDBRANCH  34  37
ENDBRANCH  32  34
ENDBRANCH  24  30
ENDBRANCH  12  24
BRANCH  10  54
ATOM     54  O   LIG d   1       9.367   2.957  -8.663  0.00  0.00    -0.391 OA
ATOM     55  H   LIG d   1       8.300   3.222  -8.621  0.00  0.00     0.210 HD
ENDBRANCH  10  54
BRANCH   1  56
ATOM     56  C   LIG d   1       8.067   1.701  -6.935  0.00  0.00    -0.060 C 
ATOM     57  H   LIG d   1       8.626   1.100  -7.669  0.00  0.00     0.023 H 
ATOM     58  H   LIG d   1       7.564   2.533  -7.449  0.00  0.00     0.023 H 
ATOM     59  H   LIG d   1       7.317   1.068  -6.440  0.00  0.00     0.023 H 
ENDBRANCH   1  56
BRANCH   7  60
ATOM     60  C   LIG d   1      11.696   3.229  -5.139  0.00  0.00    -0.059 C 
ATOM     61  H   LIG d   1      11.797   2.949  -4.081  0.00  0.00     0.024 H 
ATOM     62  H   LIG d   1      12.619   3.726  -5.476  0.00  0.00     0.024 H 
ATOM     63  H   LIG d   1      11.525   2.327  -5.743  0.00  0.00     0.024 H 
ENDBRANCH   7  60
BRANCH   3  64
ATOM     64  N   LIG d   1       7.821   1.098  -4.113  0.00  0.00    -0.312 N 
ATOM     65  C   LIG d   1       6.627   0.995  -3.495  0.00  0.00     0.216 C 
ATOM     66  O   LIG d   1       5.959   1.988  -3.301  0.00  0.00    -0.276 OA
ATOM     67  H   LIG d   1       8.428   0.197  -4.289  0.00  0.00     0.149 HD
BRANCH  65  68
ATOM     68  C   LIG d   1       6.125  -0.352  -3.044  0.00  0.00     0.036 C 
ATOM     69  C   LIG d   1       4.840  -0.171  -2.233  0.00  0.00    -0.042 C 
ATOM     70  C   LIG d   1       4.330  -1.539  -1.777  0.00  0.00    -0.052 C 
ATOM     71  H   LIG d   1       5.047   0.456  -1.354  0.00  0.00     0.027 H 
ATOM     72  H   LIG d   1       4.076   0.315  -2.859  0.00  0.00     0.027 H 
ATOM     73  C   LIG d   1       4.041  -2.412  -2.999  0.00  0.00    -0.053 C 
ATOM     74  H   LIG d   1       3.406  -1.410  -1.193  0.00  0.00     0.026 H 
ATOM     75  H   LIG d   1       5.093  -2.025  -1.150  0.00  0.00     0.026 H 
ATOM     76  C   LIG d   1       5.326  -2.592  -3.811  0.00  0.00    -0.052 C 
ATOM     77  H   LIG d   1       3.278  -1.926  -3.625  0.00  0.00     0.026 H 
ATOM     78  H   LIG d   1       3.674  -3.395  -2.671  0.00  0.00     0.026 H 
ATOM     79  C   LIG d   1       5.836  -1.224  -4.268  0.00  0.00    -0.042 C 
ATOM     80  H   LIG d   1       5.119  -3.219  -4.691  0.00  0.00     0.026 H 
ATOM     81  H   LIG d   1       6.089  -3.078  -3.186  0.00  0.00     0.026 H 
ATOM     82  H   LIG d   1       5.073  -0.738  -4.893  0.00  0.00     0.027 H 
ATOM     83  H   LIG d   1       6.761  -1.353  -4.852  0.00  0.00     0.027 H 
ATOM     84  H   LIG d   1       6.898  -0.825  -2.421  0.00  0.00     0.039 H 
ENDBRANCH  65  68
ENDBRANCH   3  64
TORSDOF 11
ENDMDL
MODEL 4
REMARK VINA RESULT:      -6.1      2.838      9.326
REMARK  11 active torsions:
REMARK  status: ('A' for Active; 'I' for Inactive)
REMARK    1  A    between atoms: C_1  and  C_2 
REMARK    2  A    between atoms: C_4  and  N_33 
REMARK    3  A    between atoms: C_8  and  C_32 
REMARK    4  A    between atoms: C_11  and  O_31 
REMARK    5  A    between atoms: C_13  and  C_17 
REMARK    6  A    between atoms: C_17  and  C_19 
REMARK    7  A    between atoms: C_17  and  C_20 
REMARK       I    between atoms: C_20  and  N_22 
REMARK    8  A    between atoms: N_22  and  C_23 
REMARK    9  A    between atoms: C_23  and  C_24 
REMARK   10  A    between atoms: C_24  and  N_25 
REMARK       I    between atoms: N_33  and  C_34 
REMARK   11  A    between atoms: C_34  and  C_36 
ROOT
ATOM      1  C   LIG d   1      10.609   5.660  -3.174  0.00  0.00    -0.020 C 
ATOM      2  H   LIG d   1      11.674   5.852  -3.367  0.00  0.00     0.032 H 
ATOM      3  C   LIG d   1       9.849   6.987  -3.134  0.00  0.00     0.026 C 
ATOM      4  H   LIG d   1       8.787   6.819  -2.904  0.00  0.00     0.050 H 
ATOM      5  C   LIG d   1      10.003   7.704  -4.478  0.00  0.00    -0.034 C 
ATOM      6  C   LIG d   1       9.433   6.824  -5.592  0.00  0.00    -0.046 C 
ATOM      7  C   LIG d   1      10.192   5.495  -5.632  0.00  0.00    -0.026 C 
ATOM      8  C   LIG d   1      10.039   4.780  -4.289  0.00  0.00    -0.005 C 
ATOM      9  H   LIG d   1       8.974   4.587  -4.095  0.00  0.00     0.033 H 
ATOM     10  C   LIG d   1      10.798   3.452  -4.329  0.00  0.00     0.062 C 
ATOM     11  H   LIG d   1      11.878   3.614  -4.461  0.00  0.00     0.060 H 
ATOM     12  C   LIG d   1      10.229   2.573  -5.444  0.00  0.00    -0.004 C 
ATOM     13  H   LIG d   1      10.775   1.618  -5.473  0.00  0.00     0.033 H 
ATOM     14  C   LIG d   1      10.383   3.288  -6.787  0.00  0.00    -0.047 C 
ATOM     15  C   LIG d   1       9.623   4.616  -6.748  0.00  0.00    -0.047 C 
ATOM     16  H   LIG d   1       9.456   8.658  -4.449  0.00  0.00     0.028 H 
ATOM     17  H   LIG d   1      11.068   7.896  -4.670  0.00  0.00     0.028 H 
ATOM     18  H   LIG d   1       8.367   6.630  -5.399  0.00  0.00     0.027 H 
ATOM     19  H   LIG d   1       9.544   7.339  -6.558  0.00  0.00     0.027 H 
ATOM     20  H   LIG d   1      11.448   3.482  -6.981  0.00  0.00     0.027 H 
ATOM     21  H   LIG d   1       9.973   2.656  -7.589  0.00  0.00     0.027 H 
ATOM     22  H   LIG d   1       8.558   4.423  -6.554  0.00  0.00     0.027 H 
ATOM     23  H   LIG d   1       9.733   5.130  -7.713  0.00  0.00     0.027 H 
ENDROOT
BRANCH  12  24
ATOM     24  C   LIG d   1       8.746   2.304  -5.175  0.00  0.00     0.038 C 
ATOM     25  H   LIG d   1       8.160   3.212  -5.380  0.00  0.00     0.040 H 
BRANCH  24  26
ATOM     26  C   LIG d   1       8.561   1.882  -3.717  0.00  0.00    -0.054 C 
ATOM     27  H   LIG d   1       7.540   1.500  -3.572  0.00  0.00     0.024 H 
ATOM     28  H   LIG d   1       8.725   2.749  -3.060  0.00  0.00     0.024 H 
ATOM     29  H   LIG d   1       9.286   1.092  -3.468  0.00  0.00     0.024 H 
ENDBRANCH  24  26
BRANCH  24  30
ATOM     30  C   LIG d   1       8.263   1.203  -6.083  0.00  0.00     0.216 C 
ATOM     31  O   LIG d   1       9.054   0.414  -6.554  0.00  0.00    -0.276 OA
ATOM     32  N   LIG d   1       6.951   1.094  -6.370  0.00  0.00    -0.314 N 
ATOM     33  H   LIG d   1       6.233   1.809  -5.942  0.00  0.00     0.149 HD
BRANCH  32  34
ATOM     34  C   LIG d   1       6.480   0.023  -7.252  0.00  0.00     0.024 C 
ATOM     35  H   LIG d   1       6.618   0.325  -8.301  0.00  0.00     0.047 H 
ATOM     36  H   LIG d   1       7.056  -0.894  -7.056  0.00  0.00     0.047 H 
BRANCH  34  37
ATOM     37  C   LIG d   1       4.997  -0.240  -6.988  0.00  0.00     0.015 C 
ATOM     38  H   LIG d   1       4.427   0.688  -7.144  0.00  0.00     0.044 H 
ATOM     39  H   LIG d   1       4.631  -1.014  -7.680  0.00  0.00     0.044 H 
BRANCH  37  40
ATOM     40  N   LIG d   1       4.819  -0.698  -5.604  0.00  0.00    -0.296 N 
ATOM     41  C   LIG d   1       3.549  -0.209  -5.046  0.00  0.00     0.022 C 
ATOM     42  C   LIG d   1       3.433  -0.658  -3.587  0.00  0.00     0.060 C 
ATOM     43  H   LIG d   1       3.525   0.889  -5.097  0.00  0.00     0.045 H 
ATOM     44  H   LIG d   1       2.712  -0.622  -5.626  0.00  0.00     0.045 H 
ATOM     45  O   LIG d   1       3.540  -2.083  -3.522  0.00  0.00    -0.377 OA
ATOM     46  H   LIG d   1       2.459  -0.345  -3.182  0.00  0.00     0.057 H 
ATOM     47  H   LIG d   1       4.241  -0.202  -2.995  0.00  0.00     0.057 H 
ATOM     48  C   LIG d   1       4.765  -2.593  -4.056  0.00  0.00     0.060 C 
ATOM     49  C   LIG d   1       4.895  -2.164  -5.520  0.00  0.00     0.022 C 
ATOM     50  H   LIG d   1       4.764  -3.691  -3.995  0.00  0.00     0.057 H 
ATOM     51  H   LIG d   1       5.613  -2.194  -3.480  0.00  0.00     0.057 H 
ATOM     52  H   LIG d   1       4.078  -2.608  -6.109  0.00  0.00     0.045 H 
ATOM     53  H   LIG d   1       5.862  -2.504  -5.919  0.00  0.00     0.045 H 
ENDBRANCH  37  40
ENDBRANCH  34  37
ENDBRANCH  32  34
ENDBRANCH  24  30
ENDBRANCH  12  24
BRANCH  10  54
ATOM     54  O   LIG d   1      10.655   2.783  -3.074  0.00  0.00    -0.391 OA
ATOM     55  H   LIG d   1      11.540   2.375  -2.565  0.00  0.00     0.210 HD
ENDBRANCH  10  54
BRANCH   1  56
ATOM     56  C   LIG d   1      10.455   4.943  -1.831  0.00  0.00    -0.060 C 
ATOM     57  H   LIG d   1      10.295   5.686  -1.036  0.00  0.00     0.023 H 
ATOM     58  H   LIG d   1      11.367   4.367  -1.616  0.00  0.00     0.023 H 
ATOM     59  H   LIG d   1       9.592   4.263  -1.875  0.00  0.00     0.023 H 
ENDBRANCH   1  56
BRANCH   7  60
ATOM     60  C   LIG d   1      11.675   5.764  -5.902  0.00  0.00    -0.059 C 
ATOM     61  H   LIG d   1      12.140   4.860  -6.321  0.00  0.00     0.024 H 
ATOM     62  H   LIG d   1      12.176   6.030  -4.958  0.00  0.00     0.024 H 
ATOM     63  H   LIG d   1      11.773   6.594  -6.615  0.00  0.00     0.024 H 
ENDBRANCH   7  60
BRANCH   3  64
ATOM     64  N   LIG d   1      10.394   7.830  -2.067  0.00  0.00    -0.312 N 
ATOM     65  C   LIG d   1       9.620   8.176  -1.019  0.00  0.00     0.216 C 
ATOM     66  O   LIG d   1       8.472   7.789  -0.960  0.00  0.00    -0.276 OA
ATOM     67  H   LIG d   1      11.436   8.180  -2.121  0.00  0.00     0.149 HD
BRANCH  65  68
ATOM     68  C   LIG d   1      10.181   9.042   0.079  0.00  0.00     0.036 C 
ATOM     69  C   LIG d   1      11.289   8.283   0.811  0.00  0.00    -0.042 C 
ATOM     70  C   LIG d   1      11.859   9.163   1.926  0.00  0.00    -0.052 C 
ATOM     71  H   LIG d   1      10.877   7.361   1.246  0.00  0.00     0.027 H 
ATOM     72  H   LIG d   1      12.090   8.027   0.101  0.00  0.00     0.027 H 
ATOM     73  C   LIG d   1      12.433  10.445   1.322  0.00  0.00    -0.053 C 
ATOM     74  H   LIG d   1      12.656   8.617   2.453  0.00  0.00     0.026 H 
ATOM     75  H   LIG d   1      11.059   9.418   2.636  0.00  0.00     0.026 H 
ATOM     76  C   LIG d   1      11.325  11.204   0.589  0.00  0.00    -0.052 C 
ATOM     77  H   LIG d   1      13.234  10.190   0.611  0.00  0.00     0.026 H 
ATOM     78  H   LIG d   1      12.843  11.077   2.123  0.00  0.00     0.026 H 
ATOM     79  C   LIG d   1      10.756  10.325  -0.526  0.00  0.00    -0.042 C 
ATOM     80  H   LIG d   1      11.738  12.127   0.154  0.00  0.00     0.026 H 
ATOM     81  H   LIG d   1      10.525  11.460   1.299  0.00  0.00     0.026 H 
ATOM     82  H   LIG d   1      11.556  10.069  -1.236  0.00  0.00     0.027 H 
ATOM     83  H   LIG d   1       9.958  10.870  -1.053  0.00  0.00     0.027 H 
ATOM     84  H   LIG d   1       9.370   9.290   0.780  0.00  0.00     0.039 H 
ENDBRANCH  65  68
ENDBRANCH   3  64
TORSDOF 11
ENDMDL
MODEL 5
REMARK VINA RESULT:      -6.1      8.837     13.451
REMARK  11 active torsions:
REMARK  status: ('A' for Active; 'I' for Inactive)
REMARK    1  A    between atoms: C_1  and  C_2 
REMARK    2  A    between atoms: C_4  and  N_33 
REMARK    3  A    between atoms: C_8  and  C_32 
REMARK    4  A    between atoms: C_11  and  O_31 
REMARK    5  A    between atoms: C_13  and  C_17 
REMARK    6  A    between atoms: C_17  and  C_19 
REMARK    7  A    between atoms: C_17  and  C_20 
REMARK       I    between atoms: C_20  and  N_22 
REMARK    8  A    between atoms: N_22  and  C_23 
REMARK    9  A    between atoms: C_23  and  C_24 
REMARK   10  A    between atoms: C_24  and  N_25 
REMARK       I    between atoms: N_33  and  C_34 
REMARK   11  A    between atoms: C_34  and  C_36 
ROOT
ATOM      1  C   LIG d   1       3.564  -1.877  -8.749  0.00  0.00    -0.020 C 
ATOM      2  H   LIG d   1       4.564  -1.548  -9.067  0.00  0.00     0.032 H 
ATOM      3  C   LIG d   1       2.940  -0.812  -7.845  0.00  0.00     0.026 C 
ATOM      4  H   LIG d   1       1.954  -1.139  -7.485  0.00  0.00     0.050 H 
ATOM      5  C   LIG d   1       2.823   0.505  -8.616  0.00  0.00    -0.034 C 
ATOM      6  C   LIG d   1       1.938   0.299  -9.847  0.00  0.00    -0.046 C 
ATOM      7  C   LIG d   1       2.562  -0.767 -10.751  0.00  0.00    -0.026 C 
ATOM      8  C   LIG d   1       2.679  -2.083  -9.980  0.00  0.00    -0.005 C 
ATOM      9  H   LIG d   1       1.679  -2.413  -9.661  0.00  0.00     0.033 H 
ATOM     10  C   LIG d   1       3.302  -3.150 -10.884  0.00  0.00     0.062 C 
ATOM     11  H   LIG d   1       4.329  -2.878 -11.172  0.00  0.00     0.060 H 
ATOM     12  C   LIG d   1       2.417  -3.356 -12.115  0.00  0.00    -0.004 C 
ATOM     13  H   LIG d   1       2.866  -4.122 -12.764  0.00  0.00     0.033 H 
ATOM     14  C   LIG d   1       2.301  -2.039 -12.885  0.00  0.00    -0.047 C 
ATOM     15  C   LIG d   1       1.677  -0.973 -11.982  0.00  0.00    -0.047 C 
ATOM     16  H   LIG d   1       2.374   1.271  -7.967  0.00  0.00     0.028 H 
ATOM     17  H   LIG d   1       3.823   0.834  -8.934  0.00  0.00     0.028 H 
ATOM     18  H   LIG d   1       0.938  -0.031  -9.529  0.00  0.00     0.027 H 
ATOM     19  H   LIG d   1       1.854   1.246 -10.401  0.00  0.00     0.027 H 
ATOM     20  H   LIG d   1       3.301  -1.710 -13.203  0.00  0.00     0.027 H 
ATOM     21  H   LIG d   1       1.665  -2.188 -13.770  0.00  0.00     0.027 H 
ATOM     22  H   LIG d   1       0.677  -1.302 -11.663  0.00  0.00     0.027 H 
ATOM     23  H   LIG d   1       1.592  -0.027 -12.536  0.00  0.00     0.027 H 
ENDROOT
BRANCH  12  24
ATOM     24  C   LIG d   1       1.026  -3.813 -11.671  0.00  0.00     0.038 C 
ATOM     25  H   LIG d   1       0.639  -3.134 -10.898  0.00  0.00     0.040 H 
BRANCH  24  26
ATOM     26  C   LIG d   1       1.109  -5.238 -11.120  0.00  0.00    -0.054 C 
ATOM     27  H   LIG d   1       1.141  -5.205 -10.021  0.00  0.00     0.024 H 
ATOM     28  H   LIG d   1       2.019  -5.725 -11.500  0.00  0.00     0.024 H 
ATOM     29  H   LIG d   1       0.226  -5.809 -11.444  0.00  0.00     0.024 H 
ENDBRANCH  24  26
BRANCH  24  30
ATOM     30  C   LIG d   1       0.089  -3.785 -12.851  0.00  0.00     0.216 C 
ATOM     31  O   LIG d   1       0.339  -4.440 -13.840  0.00  0.00    -0.276 OA
ATOM     32  N   LIG d   1      -1.027  -3.030 -12.807  0.00  0.00    -0.314 N 
ATOM     33  H   LIG d   1      -1.253  -2.436 -11.910  0.00  0.00     0.149 HD
BRANCH  32  34
ATOM     34  C   LIG d   1      -1.939  -3.003 -13.954  0.00  0.00     0.024 C 
ATOM     35  H   LIG d   1      -1.567  -2.284 -14.699  0.00  0.00     0.047 H 
ATOM     36  H   LIG d   1      -1.992  -4.004 -14.404  0.00  0.00     0.047 H 
BRANCH  34  37
ATOM     37  C   LIG d   1      -3.332  -2.578 -13.487  0.00  0.00     0.015 C 
ATOM     38  H   LIG d   1      -3.304  -1.529 -13.157  0.00  0.00     0.044 H 
ATOM     39  H   LIG d   1      -4.046  -2.681 -14.319  0.00  0.00     0.044 H 
BRANCH  37  40
ATOM     40  N   LIG d   1      -3.756  -3.432 -12.370  0.00  0.00    -0.296 N 
ATOM     41  C   LIG d   1      -4.863  -2.815 -11.625  0.00  0.00     0.022 C 
ATOM     42  C   LIG d   1      -5.232  -3.707 -10.437  0.00  0.00     0.060 C 
ATOM     43  H   LIG d   1      -4.552  -1.825 -11.259  0.00  0.00     0.045 H 
ATOM     44  H   LIG d   1      -5.734  -2.704 -12.287  0.00  0.00     0.045 H 
ATOM     45  O   LIG d   1      -5.563  -5.015 -10.915  0.00  0.00    -0.377 OA
ATOM     46  H   LIG d   1      -6.098  -3.280  -9.910  0.00  0.00     0.057 H 
ATOM     47  H   LIG d   1      -4.378  -3.775  -9.747  0.00  0.00     0.057 H 
ATOM     48  C   LIG d   1      -4.507  -5.645 -11.645  0.00  0.00     0.060 C 
ATOM     49  C   LIG d   1      -4.131  -4.773 -12.844  0.00  0.00     0.022 C 
ATOM     50  H   LIG d   1      -4.843  -6.631 -12.000  0.00  0.00     0.057 H 
ATOM     51  H   LIG d   1      -3.631  -5.770 -10.991  0.00  0.00     0.057 H 
ATOM     52  H   LIG d   1      -4.990  -4.693 -13.527  0.00  0.00     0.045 H 
ATOM     53  H   LIG d   1      -3.280  -5.224 -13.376  0.00  0.00     0.045 H 
ENDBRANCH  37  40
ENDBRANCH  34  37
ENDBRANCH  32  34
ENDBRANCH  24  30
ENDBRANCH  12  24
BRANCH  10  54
ATOM     54  O   LIG d   1       3.412  -4.379 -10.164  0.00  0.00    -0.391 OA
ATOM     55  H   LIG d   1       3.021  -4.452  -9.138  0.00  0.00     0.210 HD
ENDBRANCH  10  54
BRANCH   1  56
ATOM     56  C   LIG d   1       3.681  -3.194  -7.979  0.00  0.00    -0.060 C 
ATOM     57  H   LIG d   1       4.176  -3.946  -8.610  0.00  0.00     0.023 H 
ATOM     58  H   LIG d   1       2.675  -3.549  -7.706  0.00  0.00     0.023 H 
ATOM     59  H   LIG d   1       4.273  -3.034  -7.066  0.00  0.00     0.023 H 
ENDBRANCH   1  56
BRANCH   7  60
ATOM     60  C   LIG d   1       3.953  -0.310 -11.194  0.00  0.00    -0.059 C 
ATOM     61  H   LIG d   1       4.239   0.591 -10.632  0.00  0.00     0.024 H 
ATOM     62  H   LIG d   1       3.937  -0.080 -12.271  0.00  0.00     0.024 H 
ATOM     63  H   LIG d   1       4.681  -1.111 -11.002  0.00  0.00     0.024 H 
ENDBRANCH   7  60
BRANCH   3  64
ATOM     64  N   LIG d   1       3.787  -0.614  -6.667  0.00  0.00    -0.312 N 
ATOM     65  C   LIG d   1       3.251  -0.145  -5.522  0.00  0.00     0.216 C 
ATOM     66  O   LIG d   1       2.068   0.113  -5.469  0.00  0.00    -0.276 OA
ATOM     67  H   LIG d   1       4.861  -0.848  -6.716  0.00  0.00     0.149 HD
BRANCH  65  68
ATOM     68  C   LIG d   1       4.123   0.058  -4.310  0.00  0.00     0.036 C 
ATOM     69  C   LIG d   1       3.351   0.852  -3.255  0.00  0.00    -0.042 C 
ATOM     70  C   LIG d   1       4.236   1.058  -2.024  0.00  0.00    -0.052 C 
ATOM     71  H   LIG d   1       3.064   1.830  -3.668  0.00  0.00     0.027 H 
ATOM     72  H   LIG d   1       2.446   0.296  -2.967  0.00  0.00     0.027 H 
ATOM     73  C   LIG d   1       4.634  -0.302  -1.448  0.00  0.00    -0.053 C 
ATOM     74  H   LIG d   1       3.681   1.629  -1.264  0.00  0.00     0.026 H 
ATOM     75  H   LIG d   1       5.140   1.614  -2.311  0.00  0.00     0.026 H 
ATOM     76  C   LIG d   1       5.406  -1.096  -2.503  0.00  0.00    -0.052 C 
ATOM     77  H   LIG d   1       3.730  -0.858  -1.160  0.00  0.00     0.026 H 
ATOM     78  H   LIG d   1       5.270  -0.153  -0.562  0.00  0.00     0.026 H 
ATOM     79  C   LIG d   1       4.521  -1.303  -3.734  0.00  0.00    -0.042 C 
ATOM     80  H   LIG d   1       5.693  -2.074  -2.089  0.00  0.00     0.026 H 
ATOM     81  H   LIG d   1       6.311  -0.541  -2.791  0.00  0.00     0.026 H 
ATOM     82  H   LIG d   1       3.616  -1.858  -3.446  0.00  0.00     0.027 H 
ATOM     83  H   LIG d   1       5.076  -1.873  -4.494  0.00  0.00     0.027 H 
ATOM     84  H   LIG d   1       5.022   0.614  -4.613  0.00  0.00     0.039 H 
ENDBRANCH  65  68
ENDBRANCH   3  64
TORSDOF 11
ENDMDL
MODEL 6
REMARK VINA RESULT:      -5.7      7.780     11.051
REMARK  11 active torsions:
REMARK  status: ('A' for Active; 'I' for Inactive)
REMARK    1  A    between atoms: C_1  and  C_2 
REMARK    2  A    between atoms: C_4  and  N_33 
REMARK    3  A    between atoms: C_8  and  C_32 
REMARK    4  A    between atoms: C_11  and  O_31 
REMARK    5  A    between atoms: C_13  and  C_17 
REMARK    6  A    between atoms: C_17  and  C_19 
REMARK    7  A    between atoms: C_17  and  C_20 
REMARK       I    between atoms: C_20  and  N_22 
REMARK    8  A    between atoms: N_22  and  C_23 
REMARK    9  A    between atoms: C_23  and  C_24 
REMARK   10  A    between atoms: C_24  and  N_25 
REMARK       I    between atoms: N_33  and  C_34 
REMARK   11  A    between atoms: C_34  and  C_36 
ROOT
ATOM      1  C   LIG d   1       5.100  -0.768  -8.883  0.00  0.00    -0.020 C 
ATOM      2  H   LIG d   1       5.235   0.321  -8.824  0.00  0.00     0.032 H 
ATOM      3  C   LIG d   1       3.997  -1.198  -7.913  0.00  0.00     0.026 C 
ATOM      4  H   LIG d   1       3.872  -2.291  -7.928  0.00  0.00     0.050 H 
ATOM      5  C   LIG d   1       2.688  -0.500  -8.288  0.00  0.00    -0.034 C 
ATOM      6  C   LIG d   1       2.293  -0.889  -9.714  0.00  0.00    -0.046 C 
ATOM      7  C   LIG d   1       3.396  -0.460 -10.684  0.00  0.00    -0.026 C 
ATOM      8  C   LIG d   1       4.705  -1.158 -10.309  0.00  0.00    -0.005 C 
ATOM      9  H   LIG d   1       4.570  -2.248 -10.367  0.00  0.00     0.033 H 
ATOM     10  C   LIG d   1       5.808  -0.729 -11.279  0.00  0.00     0.062 C 
ATOM     11  H   LIG d   1       6.010   0.350 -11.202  0.00  0.00     0.060 H 
ATOM     12  C   LIG d   1       5.412  -1.118 -12.705  0.00  0.00    -0.004 C 
ATOM     13  H   LIG d   1       6.206  -0.809 -13.402  0.00  0.00     0.033 H 
ATOM     14  C   LIG d   1       4.104  -0.420 -13.080  0.00  0.00    -0.047 C 
ATOM     15  C   LIG d   1       3.001  -0.849 -12.110  0.00  0.00    -0.047 C 
ATOM     16  H   LIG d   1       1.895  -0.809  -7.592  0.00  0.00     0.028 H 
ATOM     17  H   LIG d   1       2.824   0.589  -8.230  0.00  0.00     0.028 H 
ATOM     18  H   LIG d   1       2.158  -1.980  -9.773  0.00  0.00     0.027 H 
ATOM     19  H   LIG d   1       1.352  -0.388  -9.984  0.00  0.00     0.027 H 
ATOM     20  H   LIG d   1       4.239   0.670 -13.022  0.00  0.00     0.027 H 
ATOM     21  H   LIG d   1       3.820  -0.699 -14.105  0.00  0.00     0.027 H 
ATOM     22  H   LIG d   1       2.866  -1.939 -12.169  0.00  0.00     0.027 H 
ATOM     23  H   LIG d   1       2.060  -0.348 -12.380  0.00  0.00     0.027 H 
ENDROOT
BRANCH  12  24
ATOM     24  C   LIG d   1       5.224  -2.634 -12.786  0.00  0.00     0.038 C 
ATOM     25  H   LIG d   1       4.526  -2.966 -12.003  0.00  0.00     0.040 H 
BRANCH  24  26
ATOM     26  C   LIG d   1       6.576  -3.327 -12.606  0.00  0.00    -0.054 C 
ATOM     27  H   LIG d   1       6.421  -4.331 -12.186  0.00  0.00     0.024 H 
ATOM     28  H   LIG d   1       7.202  -2.736 -11.921  0.00  0.00     0.024 H 
ATOM     29  H   LIG d   1       7.079  -3.410 -13.581  0.00  0.00     0.024 H 
ENDBRANCH  24  26
BRANCH  24  30
ATOM     30  C   LIG d   1       4.649  -2.997 -14.130  0.00  0.00     0.216 C 
ATOM     31  O   LIG d   1       3.591  -3.585 -14.199  0.00  0.00    -0.276 OA
ATOM     32  N   LIG d   1       5.311  -2.668 -15.257  0.00  0.00    -0.314 N 
ATOM     33  H   LIG d   1       6.271  -2.135 -15.195  0.00  0.00     0.149 HD
BRANCH  32  34
ATOM     34  C   LIG d   1       4.752  -3.020 -16.565  0.00  0.00     0.024 C 
ATOM     35  H   LIG d   1       5.019  -4.059 -16.809  0.00  0.00     0.047 H 
ATOM     36  H   LIG d   1       3.657  -2.920 -16.535  0.00  0.00     0.047 H 
BRANCH  34  37
ATOM     37  C   LIG d   1       5.320  -2.083 -17.632  0.00  0.00     0.015 C 
ATOM     38  H   LIG d   1       6.341  -2.402 -17.893  0.00  0.00     0.044 H 
ATOM     39  H   LIG d   1       4.685  -2.119 -18.530  0.00  0.00     0.044 H 
BRANCH  37  40
ATOM     40  N   LIG d   1       5.355  -0.711 -17.111  0.00  0.00    -0.296 N 
ATOM     41  C   LIG d   1       6.457   0.054 -17.711  0.00  0.00     0.022 C 
ATOM     42  C   LIG d   1       6.492   1.456 -17.097  0.00  0.00     0.060 C 
ATOM     43  H   LIG d   1       7.410  -0.458 -17.513  0.00  0.00     0.045 H 
ATOM     44  H   LIG d   1       6.300   0.132 -18.797  0.00  0.00     0.045 H 
ATOM     45  O   LIG d   1       5.224   2.089 -17.293  0.00  0.00    -0.377 OA
ATOM     46  H   LIG d   1       7.278   2.053 -17.584  0.00  0.00     0.057 H 
ATOM     47  H   LIG d   1       6.701   1.382 -16.020  0.00  0.00     0.057 H 
ATOM     48  C   LIG d   1       4.127   1.371 -16.721  0.00  0.00     0.060 C 
ATOM     49  C   LIG d   1       4.068  -0.032 -17.330  0.00  0.00     0.022 C 
ATOM     50  H   LIG d   1       3.188   1.902 -16.933  0.00  0.00     0.057 H 
ATOM     51  H   LIG d   1       4.267   1.292 -15.632  0.00  0.00     0.057 H 
ATOM     52  H   LIG d   1       3.874   0.044 -18.411  0.00  0.00     0.045 H 
ATOM     53  H   LIG d   1       3.264  -0.608 -16.852  0.00  0.00     0.045 H 
ENDBRANCH  37  40
ENDBRANCH  34  37
ENDBRANCH  32  34
ENDBRANCH  24  30
ENDBRANCH  12  24
BRANCH  10  54
ATOM     54  O   LIG d   1       7.030  -1.380 -10.928  0.00  0.00    -0.391 OA
ATOM     55  H   LIG d   1       7.987  -1.001 -11.318  0.00  0.00     0.210 HD
ENDBRANCH  10  54
BRANCH   1  56
ATOM     56  C   LIG d   1       6.409  -1.466  -8.508  0.00  0.00    -0.060 C 
ATOM     57  H   LIG d   1       6.938  -0.871  -7.749  0.00  0.00     0.023 H 
ATOM     58  H   LIG d   1       7.041  -1.564  -9.403  0.00  0.00     0.023 H 
ATOM     59  H   LIG d   1       6.189  -2.464  -8.103  0.00  0.00     0.023 H 
ENDBRANCH   1  56
BRANCH   7  60
ATOM     60  C   LIG d   1       3.585   1.056 -10.604  0.00  0.00    -0.059 C 
ATOM     61  H   LIG d   1       2.603   1.543 -10.514  0.00  0.00     0.024 H 
ATOM     62  H   LIG d   1       4.087   1.412 -11.516  0.00  0.00     0.024 H 
ATOM     63  H   LIG d   1       4.200   1.303  -9.727  0.00  0.00     0.024 H 
ENDBRANCH   7  60
BRANCH   3  64
ATOM     64  N   LIG d   1       4.375  -0.825  -6.548  0.00  0.00    -0.312 N 
ATOM     65  C   LIG d   1       4.625  -1.782  -5.632  0.00  0.00     0.216 C 
ATOM     66  O   LIG d   1       4.536  -2.952  -5.939  0.00  0.00    -0.276 OA
ATOM     67  H   LIG d   1       4.456   0.237  -6.270  0.00  0.00     0.149 HD
BRANCH  65  68
ATOM     68  C   LIG d   1       5.014  -1.399  -4.228  0.00  0.00     0.036 C 
ATOM     69  C   LIG d   1       5.221   0.115  -4.152  0.00  0.00    -0.042 C 
ATOM     70  C   LIG d   1       5.616   0.504  -2.726  0.00  0.00    -0.052 C 
ATOM     71  H   LIG d   1       6.019   0.411  -4.847  0.00  0.00     0.027 H 
ATOM     72  H   LIG d   1       4.287   0.628  -4.426  0.00  0.00     0.027 H 
ATOM     73  C   LIG d   1       4.506   0.093  -1.758  0.00  0.00    -0.053 C 
ATOM     74  H   LIG d   1       5.766   1.593  -2.670  0.00  0.00     0.026 H 
ATOM     75  H   LIG d   1       6.551  -0.008  -2.451  0.00  0.00     0.026 H 
ATOM     76  C   LIG d   1       4.298  -1.421  -1.834  0.00  0.00    -0.052 C 
ATOM     77  H   LIG d   1       3.571   0.605  -2.032  0.00  0.00     0.026 H 
ATOM     78  H   LIG d   1       4.790   0.373  -0.733  0.00  0.00     0.026 H 
ATOM     79  C   LIG d   1       3.902  -1.810  -3.260  0.00  0.00    -0.042 C 
ATOM     80  H   LIG d   1       3.499  -1.717  -1.138  0.00  0.00     0.026 H 
ATOM     81  H   LIG d   1       5.231  -1.933  -1.559  0.00  0.00     0.026 H 
ATOM     82  H   LIG d   1       2.969  -1.298  -3.534  0.00  0.00     0.027 H 
ATOM     83  H   LIG d   1       3.754  -2.899  -3.315  0.00  0.00     0.027 H 
ATOM     84  H   LIG d   1       5.948  -1.918  -3.968  0.00  0.00     0.039 H 
ENDBRANCH  65  68
ENDBRANCH   3  64
TORSDOF 11
ENDMDL
MODEL 7
REMARK VINA RESULT:      -5.7      8.091     13.811
REMARK  11 active torsions:
REMARK  status: ('A' for Active; 'I' for Inactive)
REMARK    1  A    between atoms: C_1  and  C_2 
REMARK    2  A    between atoms: C_4  and  N_33 
REMARK    3  A    between atoms: C_8  and  C_32 
REMARK    4  A    between atoms: C_11  and  O_31 
REMARK    5  A    between atoms: C_13  and  C_17 
REMARK    6  A    between atoms: C_17  and  C_19 
REMARK    7  A    between atoms: C_17  and  C_20 
REMARK       I    between atoms: C_20  and  N_22 
REMARK    8  A    between atoms: N_22  and  C_23 
REMARK    9  A    between atoms: C_23  and  C_24 
REMARK   10  A    between atoms: C_24  and  N_25 
REMARK       I    between atoms: N_33  and  C_34 
REMARK   11  A    between atoms: C_34  and  C_36 
ROOT
ATOM      1  C   LIG d   1       5.061  -0.946  -9.091  0.00  0.00    -0.020 C 
ATOM      2  H   LIG d   1       5.537  -0.341  -9.875  0.00  0.00     0.032 H 
ATOM      3  C   LIG d   1       4.787  -0.071  -7.866  0.00  0.00     0.026 C 
ATOM      4  H   LIG d   1       4.345  -0.667  -7.054  0.00  0.00     0.050 H 
ATOM      5  C   LIG d   1       3.857   1.079  -8.259  0.00  0.00    -0.034 C 
ATOM      6  C   LIG d   1       2.537   0.510  -8.784  0.00  0.00    -0.046 C 
ATOM      7  C   LIG d   1       2.810  -0.367 -10.008  0.00  0.00    -0.026 C 
ATOM      8  C   LIG d   1       3.741  -1.516  -9.615  0.00  0.00    -0.005 C 
ATOM      9  H   LIG d   1       3.265  -2.121  -8.830  0.00  0.00     0.033 H 
ATOM     10  C   LIG d   1       4.014  -2.392 -10.840  0.00  0.00     0.062 C 
ATOM     11  H   LIG d   1       4.545  -1.830 -11.622  0.00  0.00     0.060 H 
ATOM     12  C   LIG d   1       2.694  -2.961 -11.364  0.00  0.00    -0.004 C 
ATOM     13  H   LIG d   1       2.891  -3.591 -12.244  0.00  0.00     0.033 H 
ATOM     14  C   LIG d   1       1.764  -1.812 -11.757  0.00  0.00    -0.047 C 
ATOM     15  C   LIG d   1       1.490  -0.936 -10.533  0.00  0.00    -0.047 C 
ATOM     16  H   LIG d   1       3.659   1.708  -7.379  0.00  0.00     0.028 H 
ATOM     17  H   LIG d   1       4.333   1.684  -9.044  0.00  0.00     0.028 H 
ATOM     18  H   LIG d   1       2.060  -0.097  -7.999  0.00  0.00     0.027 H 
ATOM     19  H   LIG d   1       1.868   1.336  -9.066  0.00  0.00     0.027 H 
ATOM     20  H   LIG d   1       2.240  -1.206 -12.542  0.00  0.00     0.027 H 
ATOM     21  H   LIG d   1       0.815  -2.221 -12.135  0.00  0.00     0.027 H 
ATOM     22  H   LIG d   1       1.014  -1.542  -9.748  0.00  0.00     0.027 H 
ATOM     23  H   LIG d   1       0.821  -0.110 -10.815  0.00  0.00     0.027 H 
ENDROOT
BRANCH  12  24
ATOM     24  C   LIG d   1       2.032  -3.803 -10.272  0.00  0.00     0.038 C 
ATOM     25  H   LIG d   1       1.796  -3.171  -9.404  0.00  0.00     0.040 H 
BRANCH  24  26
ATOM     26  C   LIG d   1       2.978  -4.930  -9.853  0.00  0.00    -0.054 C 
ATOM     27  H   LIG d   1       2.391  -5.791  -9.502  0.00  0.00     0.024 H 
ATOM     28  H   LIG d   1       3.632  -4.577  -9.042  0.00  0.00     0.024 H 
ATOM     29  H   LIG d   1       3.593  -5.233 -10.714  0.00  0.00     0.024 H 
ENDBRANCH  24  26
BRANCH  24  30
ATOM     30  C   LIG d   1       0.751  -4.394 -10.801  0.00  0.00     0.216 C 
ATOM     31  O   LIG d   1       0.764  -5.065 -11.811  0.00  0.00    -0.276 OA
ATOM     32  N   LIG d   1      -0.409  -4.176 -10.151  0.00  0.00    -0.314 N 
ATOM     33  H   LIG d   1      -0.421  -3.568  -9.235  0.00  0.00     0.149 HD
BRANCH  32  34
ATOM     34  C   LIG d   1      -1.656  -4.751 -10.665  0.00  0.00     0.024 C 
ATOM     35  H   LIG d   1      -2.390  -3.947 -10.827  0.00  0.00     0.047 H 
ATOM     36  H   LIG d   1      -1.458  -5.264 -11.617  0.00  0.00     0.047 H 
BRANCH  34  37
ATOM     37  C   LIG d   1      -2.212  -5.753  -9.651  0.00  0.00     0.015 C 
ATOM     38  H   LIG d   1      -1.423  -6.022  -8.933  0.00  0.00     0.044 H 
ATOM     39  H   LIG d   1      -3.058  -5.301  -9.113  0.00  0.00     0.044 H 
BRANCH  37  40
ATOM     40  N   LIG d   1      -2.666  -6.959 -10.354  0.00  0.00    -0.296 N 
ATOM     41  C   LIG d   1      -2.443  -8.161  -9.537  0.00  0.00     0.022 C 
ATOM     42  C   LIG d   1      -2.875  -9.398 -10.330  0.00  0.00     0.060 C 
ATOM     43  H   LIG d   1      -1.376  -8.240  -9.285  0.00  0.00     0.045 H 
ATOM     44  H   LIG d   1      -3.035  -8.091  -8.613  0.00  0.00     0.045 H 
ATOM     45  O   LIG d   1      -4.245  -9.254 -10.719  0.00  0.00    -0.377 OA
ATOM     46  H   LIG d   1      -2.765 -10.295  -9.702  0.00  0.00     0.057 H 
ATOM     47  H   LIG d   1      -2.248  -9.498 -11.228  0.00  0.00     0.057 H 
ATOM     48  C   LIG d   1      -4.498  -8.094 -11.516  0.00  0.00     0.060 C 
ATOM     49  C   LIG d   1      -4.082  -6.844 -10.736  0.00  0.00     0.022 C 
ATOM     50  H   LIG d   1      -5.570  -8.038 -11.754  0.00  0.00     0.057 H 
ATOM     51  H   LIG d   1      -3.917  -8.154 -12.449  0.00  0.00     0.057 H 
ATOM     52  H   LIG d   1      -4.700  -6.752  -9.830  0.00  0.00     0.045 H 
ATOM     53  H   LIG d   1      -4.220  -5.954 -11.366  0.00  0.00     0.045 H 
ENDBRANCH  37  40
ENDBRANCH  34  37
ENDBRANCH  32  34
ENDBRANCH  24  30
ENDBRANCH  12  24
BRANCH  10  54
ATOM     54  O   LIG d   1       4.884  -3.465 -10.472  0.00  0.00    -0.391 OA
ATOM     55  H   LIG d   1       5.926  -3.472 -10.823  0.00  0.00     0.210 HD
ENDBRANCH  10  54
BRANCH   1  56
ATOM     56  C   LIG d   1       5.991  -2.096  -8.697  0.00  0.00    -0.060 C 
ATOM     57  H   LIG d   1       6.993  -1.698  -8.478  0.00  0.00     0.023 H 
ATOM     58  H   LIG d   1       6.055  -2.815  -9.527  0.00  0.00     0.023 H 
ATOM     59  H   LIG d   1       5.594  -2.600  -7.805  0.00  0.00     0.023 H 
ENDBRANCH   1  56
BRANCH   7  60
ATOM     60  C   LIG d   1       3.472   0.475 -11.101  0.00  0.00    -0.059 C 
ATOM     61  H   LIG d   1       3.702   1.474 -10.704  0.00  0.00     0.024 H 
ATOM     62  H   LIG d   1       2.786   0.570 -11.957  0.00  0.00     0.024 H 
ATOM     63  H   LIG d   1       4.401  -0.013 -11.429  0.00  0.00     0.024 H 
ENDBRANCH   7  60
BRANCH   3  64
ATOM     64  N   LIG d   1       6.050   0.475  -7.364  0.00  0.00    -0.312 N 
ATOM     65  C   LIG d   1       6.429   0.238  -6.092  0.00  0.00     0.216 C 
ATOM     66  O   LIG d   1       5.723  -0.426  -5.363  0.00  0.00    -0.276 OA
ATOM     67  H   LIG d   1       6.691   1.078  -8.025  0.00  0.00     0.149 HD
BRANCH  65  68
ATOM     68  C   LIG d   1       7.728   0.799  -5.575  0.00  0.00     0.036 C 
ATOM     69  C   LIG d   1       8.253   1.853  -6.552  0.00  0.00    -0.042 C 
ATOM     70  C   LIG d   1       9.573   2.422  -6.027  0.00  0.00    -0.052 C 
ATOM     71  H   LIG d   1       8.418   1.391  -7.536  0.00  0.00     0.027 H 
ATOM     72  H   LIG d   1       7.516   2.664  -6.647  0.00  0.00     0.027 H 
ATOM     73  C   LIG d   1       9.344   3.065  -4.658  0.00  0.00    -0.053 C 
ATOM     74  H   LIG d   1       9.951   3.180  -6.729  0.00  0.00     0.026 H 
ATOM     75  H   LIG d   1      10.310   1.611  -5.933  0.00  0.00     0.026 H 
ATOM     76  C   LIG d   1       8.818   2.011  -3.681  0.00  0.00    -0.052 C 
ATOM     77  H   LIG d   1       8.606   3.876  -4.752  0.00  0.00     0.026 H 
ATOM     78  H   LIG d   1      10.292   3.474  -4.281  0.00  0.00     0.026 H 
ATOM     79  C   LIG d   1       7.499   1.442  -4.206  0.00  0.00    -0.042 C 
ATOM     80  H   LIG d   1       8.653   2.473  -2.697  0.00  0.00     0.026 H 
ATOM     81  H   LIG d   1       9.555   1.200  -3.586  0.00  0.00     0.026 H 
ATOM     82  H   LIG d   1       6.762   2.253  -4.301  0.00  0.00     0.027 H 
ATOM     83  H   LIG d   1       7.121   0.683  -3.504  0.00  0.00     0.027 H 
ATOM     84  H   LIG d   1       8.455  -0.023  -5.485  0.00  0.00     0.039 H 
ENDBRANCH  65  68
ENDBRANCH   3  64
TORSDOF 11
ENDMDL
MODEL 8
REMARK VINA RESULT:      -5.5      3.545      4.728
REMARK  11 active torsions:
REMARK  status: ('A' for Active; 'I' for Inactive)
REMARK    1  A    between atoms: C_1  and  C_2 
REMARK    2  A    between atoms: C_4  and  N_33 
REMARK    3  A    between atoms: C_8  and  C_32 
REMARK    4  A    between atoms: C_11  and  O_31 
REMARK    5  A    between atoms: C_13  and  C_17 
REMARK    6  A    between atoms: C_17  and  C_19 
REMARK    7  A    between atoms: C_17  and  C_20 
REMARK       I    between atoms: C_20  and  N_22 
REMARK    8  A    between atoms: N_22  and  C_23 
REMARK    9  A    between atoms: C_23  and  C_24 
REMARK   10  A    between atoms: C_24  and  N_25 
REMARK       I    between atoms: N_33  and  C_34 
REMARK   11  A    between atoms: C_34  and  C_36 
ROOT
ATOM      1  C   LIG d   1       7.828   1.186  -7.273  0.00  0.00    -0.020 C 
ATOM      2  H   LIG d   1       8.442   0.308  -7.519  0.00  0.00     0.032 H 
ATOM      3  C   LIG d   1       6.445   0.728  -6.805  0.00  0.00     0.026 C 
ATOM      4  H   LIG d   1       5.802   1.594  -6.590  0.00  0.00     0.050 H 
ATOM      5  C   LIG d   1       6.594  -0.155  -5.564  0.00  0.00    -0.034 C 
ATOM      6  C   LIG d   1       7.270   0.644  -4.448  0.00  0.00    -0.046 C 
ATOM      7  C   LIG d   1       8.653   1.103  -4.916  0.00  0.00    -0.026 C 
ATOM      8  C   LIG d   1       8.505   1.985  -6.157  0.00  0.00    -0.005 C 
ATOM      9  H   LIG d   1       7.891   2.864  -5.911  0.00  0.00     0.033 H 
ATOM     10  C   LIG d   1       9.888   2.445  -6.624  0.00  0.00     0.062 C 
ATOM     11  H   LIG d   1      10.508   1.590  -6.935  0.00  0.00     0.060 H 
ATOM     12  C   LIG d   1      10.564   3.243  -5.508  0.00  0.00    -0.004 C 
ATOM     13  H   LIG d   1      11.558   3.573  -5.845  0.00  0.00     0.033 H 
ATOM     14  C   LIG d   1      10.713   2.361  -4.268  0.00  0.00    -0.047 C 
ATOM     15  C   LIG d   1       9.330   1.902  -3.799  0.00  0.00    -0.047 C 
ATOM     16  H   LIG d   1       5.600  -0.484  -5.227  0.00  0.00     0.028 H 
ATOM     17  H   LIG d   1       7.208  -1.034  -5.810  0.00  0.00     0.028 H 
ATOM     18  H   LIG d   1       6.657   1.523  -4.202  0.00  0.00     0.027 H 
ATOM     19  H   LIG d   1       7.377   0.009  -3.556  0.00  0.00     0.027 H 
ATOM     20  H   LIG d   1      11.326   1.482  -4.513  0.00  0.00     0.027 H 
ATOM     21  H   LIG d   1      11.199   2.935  -3.465  0.00  0.00     0.027 H 
ATOM     22  H   LIG d   1       8.716   2.781  -3.554  0.00  0.00     0.027 H 
ATOM     23  H   LIG d   1       9.437   1.268  -2.908  0.00  0.00     0.027 H 
ENDROOT
BRANCH  12  24
ATOM     24  C   LIG d   1       9.709   4.465  -5.166  0.00  0.00     0.038 C 
ATOM     25  H   LIG d   1       8.676   4.152  -4.960  0.00  0.00     0.040 H 
BRANCH  24  26
ATOM     26  C   LIG d   1       9.732   5.448  -6.339  0.00  0.00    -0.054 C 
ATOM     27  H   LIG d   1      10.061   6.436  -5.984  0.00  0.00     0.024 H 
ATOM     28  H   LIG d   1       8.723   5.530  -6.768  0.00  0.00     0.024 H 
ATOM     29  H   LIG d   1      10.430   5.085  -7.109  0.00  0.00     0.024 H 
ENDBRANCH  24  26
BRANCH  24  30
ATOM     30  C   LIG d   1      10.264   5.137  -3.937  0.00  0.00     0.216 C 
ATOM     31  O   LIG d   1       9.630   5.129  -2.903  0.00  0.00    -0.276 OA
ATOM     32  N   LIG d   1      11.465   5.747  -3.987  0.00  0.00    -0.314 N 
ATOM     33  H   LIG d   1      12.040   5.754  -4.924  0.00  0.00     0.149 HD
BRANCH  32  34
ATOM     34  C   LIG d   1      12.005   6.400  -2.791  0.00  0.00     0.024 C 
ATOM     35  H   LIG d   1      11.353   6.185  -1.931  0.00  0.00     0.047 H 
ATOM     36  H   LIG d   1      13.016   6.017  -2.589  0.00  0.00     0.047 H 
BRANCH  34  37
ATOM     37  C   LIG d   1      12.068   7.911  -3.019  0.00  0.00     0.015 C 
ATOM     38  H   LIG d   1      12.892   8.337  -2.428  0.00  0.00     0.044 H 
ATOM     39  H   LIG d   1      12.240   8.115  -4.087  0.00  0.00     0.044 H 
BRANCH  37  40
ATOM     40  N   LIG d   1      10.799   8.523  -2.602  0.00  0.00    -0.296 N 
ATOM     41  C   LIG d   1      10.434   8.104  -1.242  0.00  0.00     0.022 C 
ATOM     42  C   LIG d   1       9.079   8.715  -0.872  0.00  0.00     0.060 C 
ATOM     43  H   LIG d   1      10.365   7.006  -1.202  0.00  0.00     0.045 H 
ATOM     44  H   LIG d   1      11.200   8.450  -0.534  0.00  0.00     0.045 H 
ATOM     45  O   LIG d   1       9.154  10.138  -0.998  0.00  0.00    -0.377 OA
ATOM     46  H   LIG d   1       8.827   8.452   0.167  0.00  0.00     0.057 H 
ATOM     47  H   LIG d   1       8.302   8.327  -1.548  0.00  0.00     0.057 H 
ATOM     48  C   LIG d   1       9.508  10.581  -2.311  0.00  0.00     0.060 C 
ATOM     49  C   LIG d   1      10.865   9.989  -2.696  0.00  0.00     0.022 C 
ATOM     50  H   LIG d   1       9.570  11.679  -2.325  0.00  0.00     0.057 H 
ATOM     51  H   LIG d   1       8.744  10.248  -3.031  0.00  0.00     0.057 H 
ATOM     52  H   LIG d   1      11.640  10.365  -2.011  0.00  0.00     0.045 H 
ATOM     53  H   LIG d   1      11.116  10.279  -3.727  0.00  0.00     0.045 H 
ENDBRANCH  37  40
ENDBRANCH  34  37
ENDBRANCH  32  34
ENDBRANCH  24  30
ENDBRANCH  12  24
BRANCH  10  54
ATOM     54  O   LIG d   1       9.749   3.268  -7.784  0.00  0.00    -0.391 OA
ATOM     55  H   LIG d   1       8.761   3.396  -8.252  0.00  0.00     0.210 HD
ENDBRANCH  10  54
BRANCH   1  56
ATOM     56  C   LIG d   1       7.680   2.069  -8.514  0.00  0.00    -0.060 C 
ATOM     57  H   LIG d   1       6.618   2.313  -8.665  0.00  0.00     0.023 H 
ATOM     58  H   LIG d   1       8.061   1.530  -9.394  0.00  0.00     0.023 H 
ATOM     59  H   LIG d   1       8.253   2.996  -8.375  0.00  0.00     0.023 H 
ENDBRANCH   1  56
BRANCH   7  60
ATOM     60  C   LIG d   1       9.508  -0.119  -5.258  0.00  0.00    -0.059 C 
ATOM     61  H   LIG d   1      10.443   0.209  -5.734  0.00  0.00     0.024 H 
ATOM     62  H   LIG d   1       8.954  -0.772  -5.950  0.00  0.00     0.024 H 
ATOM     63  H   LIG d   1       9.739  -0.674  -4.337  0.00  0.00     0.024 H 
ENDBRANCH   7  60
BRANCH   3  64
ATOM     64  N   LIG d   1       5.798  -0.038  -7.873  0.00  0.00    -0.312 N 
ATOM     65  C   LIG d   1       4.518   0.222  -8.208  0.00  0.00     0.216 C 
ATOM     66  O   LIG d   1       3.903   1.089  -7.624  0.00  0.00    -0.276 OA
ATOM     67  H   LIG d   1       6.356  -0.824  -8.402  0.00  0.00     0.149 HD
BRANCH  65  68
ATOM     68  C   LIG d   1       3.852  -0.564  -9.307  0.00  0.00     0.036 C 
ATOM     69  C   LIG d   1       2.421  -0.911  -8.891  0.00  0.00    -0.042 C 
ATOM     70  C   LIG d   1       1.745  -1.709 -10.007  0.00  0.00    -0.052 C 
ATOM     71  H   LIG d   1       2.442  -1.511  -7.970  0.00  0.00     0.027 H 
ATOM     72  H   LIG d   1       1.857   0.017  -8.710  0.00  0.00     0.027 H 
ATOM     73  C   LIG d   1       1.715  -0.873 -11.288  0.00  0.00    -0.053 C 
ATOM     74  H   LIG d   1       0.716  -1.958  -9.708  0.00  0.00     0.026 H 
ATOM     75  H   LIG d   1       2.308  -2.637 -10.187  0.00  0.00     0.026 H 
ATOM     76  C   LIG d   1       3.147  -0.527 -11.704  0.00  0.00    -0.052 C 
ATOM     77  H   LIG d   1       1.152   0.055 -11.108  0.00  0.00     0.026 H 
ATOM     78  H   LIG d   1       1.229  -1.447 -12.090  0.00  0.00     0.026 H 
ATOM     79  C   LIG d   1       3.823   0.272 -10.588  0.00  0.00    -0.042 C 
ATOM     80  H   LIG d   1       3.125   0.075 -12.625  0.00  0.00     0.026 H 
ATOM     81  H   LIG d   1       3.710  -1.454 -11.884  0.00  0.00     0.026 H 
ATOM     82  H   LIG d   1       3.259   1.199 -10.407  0.00  0.00     0.027 H 
ATOM     83  H   LIG d   1       4.852   0.521 -10.886  0.00  0.00     0.027 H 
ATOM     84  H   LIG d   1       4.426  -1.488  -9.476  0.00  0.00     0.039 H 
ENDBRANCH  65  68
ENDBRANCH   3  64
TORSDOF 11
ENDMDL
MODEL 9
REMARK VINA RESULT:      -5.5      8.072     13.128
REMARK  11 active torsions:
REMARK  status: ('A' for Active; 'I' for Inactive)
REMARK    1  A    between atoms: C_1  and  C_2 
REMARK    2  A    between atoms: C_4  and  N_33 
REMARK    3  A    between atoms: C_8  and  C_32 
REMARK    4  A    between atoms: C_11  and  O_31 
REMARK    5  A    between atoms: C_13  and  C_17 
REMARK    6  A    between atoms: C_17  and  C_19 
REMARK    7  A    between atoms: C_17  and  C_20 
REMARK       I    between atoms: C_20  and  N_22 
REMARK    8  A    between atoms: N_22  and  C_23 
REMARK    9  A    between atoms: C_23  and  C_24 
REMARK   10  A    between atoms: C_24  and  N_25 
REMARK       I    between atoms: N_33  and  C_34 
REMARK   11  A    between atoms: C_34  and  C_36 
ROOT
ATOM      1  C   LIG d   1       5.140  -0.865  -9.057  0.00  0.00    -0.020 C 
ATOM      2  H   LIG d   1       5.642  -0.310  -9.862  0.00  0.00     0.032 H 
ATOM      3  C   LIG d   1       4.887   0.069  -7.872  0.00  0.00     0.026 C 
ATOM      4  H   LIG d   1       4.419  -0.478  -7.041  0.00  0.00     0.050 H 
ATOM      5  C   LIG d   1       3.999   1.232  -8.321  0.00  0.00    -0.034 C 
ATOM      6  C   LIG d   1       2.665   0.685  -8.833  0.00  0.00    -0.046 C 
ATOM      7  C   LIG d   1       2.917  -0.251 -10.018  0.00  0.00    -0.026 C 
ATOM      8  C   LIG d   1       3.806  -1.412  -9.569  0.00  0.00    -0.005 C 
ATOM      9  H   LIG d   1       3.305  -1.968  -8.764  0.00  0.00     0.033 H 
ATOM     10  C   LIG d   1       4.059  -2.348 -10.754  0.00  0.00     0.062 C 
ATOM     11  H   LIG d   1       4.615  -1.836 -11.555  0.00  0.00     0.060 H 
ATOM     12  C   LIG d   1       2.725  -2.893 -11.267  0.00  0.00    -0.004 C 
ATOM     13  H   LIG d   1       2.907  -3.566 -12.118  0.00  0.00     0.033 H 
ATOM     14  C   LIG d   1       1.837  -1.732 -11.715  0.00  0.00    -0.047 C 
ATOM     15  C   LIG d   1       1.583  -0.797 -10.531  0.00  0.00    -0.047 C 
ATOM     16  H   LIG d   1       3.816   1.903  -7.470  0.00  0.00     0.028 H 
ATOM     17  H   LIG d   1       4.501   1.787  -9.126  0.00  0.00     0.028 H 
ATOM     18  H   LIG d   1       2.162   0.128  -8.029  0.00  0.00     0.027 H 
ATOM     19  H   LIG d   1       2.026   1.520  -9.156  0.00  0.00     0.027 H 
ATOM     20  H   LIG d   1       2.339  -1.175 -12.520  0.00  0.00     0.027 H 
ATOM     21  H   LIG d   1       0.878  -2.124 -12.084  0.00  0.00     0.027 H 
ATOM     22  H   LIG d   1       1.081  -1.353  -9.726  0.00  0.00     0.027 H 
ATOM     23  H   LIG d   1       0.945   0.038 -10.853  0.00  0.00     0.027 H 
ENDROOT
BRANCH  12  24
ATOM     24  C   LIG d   1       2.027  -3.667 -10.146  0.00  0.00     0.038 C 
ATOM     25  H   LIG d   1       1.664  -2.968  -9.380  0.00  0.00     0.040 H 
BRANCH  24  26
ATOM     26  C   LIG d   1       3.010  -4.660  -9.522  0.00  0.00    -0.054 C 
ATOM     27  H   LIG d   1       2.936  -5.626 -10.042  0.00  0.00     0.024 H 
ATOM     28  H   LIG d   1       2.766  -4.796  -8.458  0.00  0.00     0.024 H 
ATOM     29  H   LIG d   1       4.035  -4.270  -9.617  0.00  0.00     0.024 H 
ENDBRANCH  24  26
BRANCH  24  30
ATOM     30  C   LIG d   1       0.849  -4.416 -10.712  0.00  0.00     0.216 C 
ATOM     31  O   LIG d   1       1.022  -5.276 -11.549  0.00  0.00    -0.276 OA
ATOM     32  N   LIG d   1      -0.398  -4.130 -10.289  0.00  0.00    -0.314 N 
ATOM     33  H   LIG d   1      -0.556  -3.349  -9.530  0.00  0.00     0.149 HD
BRANCH  32  34
ATOM     34  C   LIG d   1      -1.545  -4.858 -10.839  0.00  0.00     0.024 C 
ATOM     35  H   LIG d   1      -1.235  -5.879 -11.108  0.00  0.00     0.047 H 
ATOM     36  H   LIG d   1      -2.345  -4.905 -10.087  0.00  0.00     0.047 H 
BRANCH  34  37
ATOM     37  C   LIG d   1      -2.058  -4.135 -12.086  0.00  0.00     0.015 C 
ATOM     38  H   LIG d   1      -1.662  -3.109 -12.103  0.00  0.00     0.044 H 
ATOM     39  H   LIG d   1      -1.723  -4.672 -12.986  0.00  0.00     0.044 H 
BRANCH  37  40
ATOM     40  N   LIG d   1      -3.526  -4.094 -12.059  0.00  0.00    -0.296 N 
ATOM     41  C   LIG d   1      -4.037  -4.386 -10.712  0.00  0.00     0.022 C 
ATOM     42  C   LIG d   1      -5.568  -4.391 -10.744  0.00  0.00     0.060 C 
ATOM     43  H   LIG d   1      -3.672  -5.372 -10.387  0.00  0.00     0.045 H 
ATOM     44  H   LIG d   1      -3.686  -3.615 -10.012  0.00  0.00     0.045 H 
ATOM     45  O   LIG d   1      -6.034  -3.132 -11.238  0.00  0.00    -0.377 OA
ATOM     46  H   LIG d   1      -5.957  -4.552  -9.727  0.00  0.00     0.057 H 
ATOM     47  H   LIG d   1      -5.921  -5.197 -11.404  0.00  0.00     0.057 H 
ATOM     48  C   LIG d   1      -5.555  -2.815 -12.548  0.00  0.00     0.060 C 
ATOM     49  C   LIG d   1      -4.025  -2.795 -12.535  0.00  0.00     0.022 C 
ATOM     50  H   LIG d   1      -5.932  -1.827 -12.849  0.00  0.00     0.057 H 
ATOM     51  H   LIG d   1      -5.906  -3.575 -13.262  0.00  0.00     0.057 H 
ATOM     52  H   LIG d   1      -3.672  -1.998 -11.863  0.00  0.00     0.045 H 
ATOM     53  H   LIG d   1      -3.650  -2.609 -13.552  0.00  0.00     0.045 H 
ENDBRANCH  37  40
ENDBRANCH  34  37
ENDBRANCH  32  34
ENDBRANCH  24  30
ENDBRANCH  12  24
BRANCH  10  54
ATOM     54  O   LIG d   1       4.889  -3.432 -10.335  0.00  0.00    -0.391 OA
ATOM     55  H   LIG d   1       4.790  -4.418 -10.814  0.00  0.00     0.210 HD
ENDBRANCH  10  54
BRANCH   1  56
ATOM     56  C   LIG d   1       6.029  -2.028  -8.608  0.00  0.00    -0.060 C 
ATOM     57  H   LIG d   1       6.253  -2.672  -9.471  0.00  0.00     0.023 H 
ATOM     58  H   LIG d   1       5.503  -2.614  -7.840  0.00  0.00     0.023 H 
ATOM     59  H   LIG d   1       6.966  -1.633  -8.192  0.00  0.00     0.023 H 
ENDBRANCH   1  56
BRANCH   7  60
ATOM     60  C   LIG d   1       3.616   0.523 -11.139  0.00  0.00    -0.059 C 
ATOM     61  H   LIG d   1       2.896   0.734 -11.942  0.00  0.00     0.024 H 
ATOM     62  H   LIG d   1       4.445  -0.080 -11.539  0.00  0.00     0.024 H 
ATOM     63  H   LIG d   1       4.010   1.469 -10.741  0.00  0.00     0.024 H 
ENDBRANCH   7  60
BRANCH   3  64
ATOM     64  N   LIG d   1       6.164   0.593  -7.382  0.00  0.00    -0.312 N 
ATOM     65  C   LIG d   1       6.490   0.465  -6.080  0.00  0.00     0.216 C 
ATOM     66  O   LIG d   1       5.725  -0.083  -5.315  0.00  0.00    -0.276 OA
ATOM     67  H   LIG d   1       6.858   1.090  -8.076  0.00  0.00     0.149 HD
BRANCH  65  68
ATOM     68  C   LIG d   1       7.804   1.003  -5.576  0.00  0.00     0.036 C 
ATOM     69  C   LIG d   1       8.329   2.061  -6.548  0.00  0.00    -0.042 C 
ATOM     70  C   LIG d   1       9.663   2.607  -6.035  0.00  0.00    -0.052 C 
ATOM     71  H   LIG d   1       8.474   1.607  -7.539  0.00  0.00     0.027 H 
ATOM     72  H   LIG d   1       7.601   2.883  -6.624  0.00  0.00     0.027 H 
ATOM     73  C   LIG d   1       9.460   3.238  -4.657  0.00  0.00    -0.053 C 
ATOM     74  H   LIG d   1      10.041   3.368  -6.734  0.00  0.00     0.026 H 
ATOM     75  H   LIG d   1      10.391   1.786  -5.960  0.00  0.00     0.026 H 
ATOM     76  C   LIG d   1       8.935   2.180  -3.684  0.00  0.00    -0.052 C 
ATOM     77  H   LIG d   1       8.732   4.060  -4.732  0.00  0.00     0.026 H 
ATOM     78  H   LIG d   1      10.420   3.631  -4.289  0.00  0.00     0.026 H 
ATOM     79  C   LIG d   1       7.601   1.634  -4.196  0.00  0.00    -0.042 C 
ATOM     80  H   LIG d   1       8.789   2.634  -2.692  0.00  0.00     0.026 H 
ATOM     81  H   LIG d   1       9.663   1.359  -3.608  0.00  0.00     0.026 H 
ATOM     82  H   LIG d   1       6.873   2.456  -4.273  0.00  0.00     0.027 H 
ATOM     83  H   LIG d   1       7.223   0.873  -3.497  0.00  0.00     0.027 H 
ATOM     84  H   LIG d   1       8.520   0.171  -5.505  0.00  0.00     0.039 H 
ENDBRANCH  65  68
ENDBRANCH   3  64
TORSDOF 11
ENDMDL
