MODEL 1
REMARK VINA RESULT:      -6.6      0.000      0.000
REMARK  6 active torsions:
REMARK  status: ('A' for Active; 'I' for Inactive)
REMARK    1  A    between atoms: C_1  and  O_2 
REMARK    2  A    between atoms: O_2  and  C_3 
REMARK    3  A    between atoms: C_6  and  C_9 
REMARK    4  A    between atoms: N_21  and  C_24 
REMARK    5  A    between atoms: C_24  and  C_25 
REMARK    6  A    between atoms: C_25  and  N_26 
ROOT
ATOM      1  C   LIG d   1      10.338   7.526  -1.854  0.00  0.00     0.064 A 
ATOM      2  C   LIG d   1      10.020   6.276  -1.433  0.00  0.00     0.104 A 
ATOM      3  O   LIG d   1       9.762   5.263  -2.256  0.00  0.00    -0.462 OA
ATOM      4  C   LIG d   1       9.798   5.403  -3.593  0.00  0.00     0.150 A 
ATOM      5  C   LIG d   1      10.112   6.637  -4.185  0.00  0.00     0.065 A 
ATOM      6  C   LIG d   1      10.404   7.783  -3.304  0.00  0.00     0.200 A 
ATOM      7  O   LIG d   1      10.684   8.883  -3.750  0.00  0.00    -0.286 OA
ATOM      8  C   LIG d   1      10.147   6.768  -5.573  0.00  0.00    -0.044 A 
ATOM      9  C   LIG d   1       9.872   5.689  -6.362  0.00  0.00    -0.018 A 
ATOM     10  C   LIG d   1       9.557   4.457  -5.788  0.00  0.00     0.138 A 
ATOM     11  C   LIG d   1       9.522   4.312  -4.413  0.00  0.00     0.082 A 
ATOM     12  C   LIG d   1       9.186   2.985  -3.783  0.00  0.00     0.005 C 
ATOM     13  N   LIG d   1       8.541   2.116  -4.777  0.00  0.00     0.268 N 
ATOM     14  C   LIG d   1       9.326   2.099  -6.022  0.00  0.00     0.117 C 
ATOM     15  O   LIG d   1       9.285   3.403  -6.605  0.00  0.00    -0.454 OA
ATOM     16  H   LIG d   1       9.972   6.093  -0.370  0.00  0.00     0.104 H 
ATOM     17  H   LIG d   1      10.390   7.721  -6.022  0.00  0.00     0.063 H 
ATOM     18  H   LIG d   1       9.899   5.790  -7.437  0.00  0.00     0.065 H 
ATOM     19  H   LIG d   1      10.109   2.507  -3.423  0.00  0.00     0.087 H 
ATOM     20  H   LIG d   1       8.501   3.144  -2.937  0.00  0.00     0.087 H 
ATOM     21  H   LIG d   1      10.367   1.824  -5.794  0.00  0.00     0.130 H 
ATOM     22  H   LIG d   1       8.896   1.364  -6.717  0.00  0.00     0.130 H 
ATOM     23  H   LIG d   1       7.542   2.520  -4.998  0.00  0.00     0.207 HD
ENDROOT
BRANCH  13  24
ATOM     24  C   LIG d   1       8.361   0.757  -4.250  0.00  0.00    -0.015 C 
ATOM     25  H   LIG d   1       9.126   0.093  -4.679  0.00  0.00     0.083 H 
ATOM     26  H   LIG d   1       8.461   0.772  -3.155  0.00  0.00     0.083 H 
BRANCH  24  27
ATOM     27  C   LIG d   1       6.970   0.243  -4.628  0.00  0.00     0.039 C 
ATOM     28  H   LIG d   1       6.439   1.013  -5.207  0.00  0.00     0.048 H 
ATOM     29  H   LIG d   1       7.069  -0.669  -5.235  0.00  0.00     0.048 H 
BRANCH  27  30
ATOM     30  N   LIG d   1       6.212  -0.060  -3.407  0.00  0.00    -0.293 N 
ATOM     31  C   LIG d   1       5.419   1.102  -2.977  0.00  0.00     0.023 C 
ATOM     32  C   LIG d   1       4.694   0.764  -1.672  0.00  0.00     0.060 C 
ATOM     33  H   LIG d   1       6.087   1.961  -2.815  0.00  0.00     0.045 H 
ATOM     34  H   LIG d   1       4.683   1.351  -3.755  0.00  0.00     0.045 H 
ATOM     35  O   LIG d   1       3.886  -0.400  -1.870  0.00  0.00    -0.377 OA
ATOM     36  H   LIG d   1       4.055   1.609  -1.376  0.00  0.00     0.057 H 
ATOM     37  H   LIG d   1       5.432   0.567  -0.881  0.00  0.00     0.057 H 
ATOM     38  C   LIG d   1       4.625  -1.550  -2.288  0.00  0.00     0.060 C 
ATOM     39  C   LIG d   1       5.350  -1.236  -3.599  0.00  0.00     0.023 C 
ATOM     40  H   LIG d   1       3.936  -2.394  -2.443  0.00  0.00     0.057 H 
ATOM     41  H   LIG d   1       5.362  -1.815  -1.515  0.00  0.00     0.057 H 
ATOM     42  H   LIG d   1       4.612  -1.024  -4.387  0.00  0.00     0.045 H 
ATOM     43  H   LIG d   1       5.966  -2.097  -3.896  0.00  0.00     0.045 H 
ENDBRANCH  27  30
ENDBRANCH  24  27
ENDBRANCH  13  24
BRANCH   1  44
ATOM     44  C   LIG d   1      10.614   8.608  -0.878  0.00  0.00    -0.011 A 
ATOM     45  C   LIG d   1      11.852   8.676  -0.242  0.00  0.00    -0.050 A 
ATOM     46  C   LIG d   1      12.105   9.683   0.666  0.00  0.00    -0.019 A 
ATOM     47  H   LIG d   1      12.612   7.940  -0.460  0.00  0.00     0.062 H 
ATOM     48  C   LIG d   1      11.129  10.629   0.946  0.00  0.00     0.120 A 
ATOM     49  H   LIG d   1      13.065   9.736   1.159  0.00  0.00     0.065 H 
ATOM     50  C   LIG d   1       9.895  10.564   0.314  0.00  0.00    -0.019 A 
ATOM     51  C   LIG d   1       9.637   9.563  -0.598  0.00  0.00    -0.050 A 
ATOM     52  H   LIG d   1       9.137  11.301   0.536  0.00  0.00     0.065 H 
ATOM     53  H   LIG d   1       8.679   9.516  -1.093  0.00  0.00     0.062 H 
BRANCH  48  54
ATOM     54  O   LIG d   1      11.381  11.620   1.841  0.00  0.00    -0.495 OA
BRANCH  54  55
ATOM     55  C   LIG d   1      12.709  11.701   2.363  0.00  0.00     0.079 C 
ATOM     56  H   LIG d   1      13.248  12.520   1.865  0.00  0.00     0.066 H 
ATOM     57  H   LIG d   1      13.233  10.751   2.181  0.00  0.00     0.066 H 
ATOM     58  H   LIG d   1      12.666  11.895   3.444  0.00  0.00     0.066 H 
ENDBRANCH  54  55
ENDBRANCH  48  54
ENDBRANCH   1  44
TORSDOF 6
ENDMDL
MODEL 2
REMARK VINA RESULT:      -6.4      2.132      3.166
REMARK  6 active torsions:
REMARK  status: ('A' for Active; 'I' for Inactive)
REMARK    1  A    between atoms: C_1  and  O_2 
REMARK    2  A    between atoms: O_2  and  C_3 
REMARK    3  A    between atoms: C_6  and  C_9 
REMARK    4  A    between atoms: N_21  and  C_24 
REMARK    5  A    between atoms: C_24  and  C_25 
REMARK    6  A    between atoms: C_25  and  N_26 
ROOT
ATOM      1  C   LIG d   1      10.199   4.698  -3.260  0.00  0.00     0.064 A 
ATOM      2  C   LIG d   1       9.488   3.557  -3.073  0.00  0.00     0.104 A 
ATOM      3  O   LIG d   1       8.986   2.828  -4.066  0.00  0.00    -0.462 OA
ATOM      4  C   LIG d   1       9.148   3.172  -5.356  0.00  0.00     0.150 A 
ATOM      5  C   LIG d   1       9.862   4.328  -5.714  0.00  0.00     0.065 A 
ATOM      6  C   LIG d   1      10.433   5.161  -4.639  0.00  0.00     0.200 A 
ATOM      7  O   LIG d   1      11.063   6.178  -4.879  0.00  0.00    -0.286 OA
ATOM      8  C   LIG d   1      10.023   4.673  -7.056  0.00  0.00    -0.044 A 
ATOM      9  C   LIG d   1       9.482   3.882  -8.027  0.00  0.00    -0.018 A 
ATOM     10  C   LIG d   1       8.770   2.731  -7.687  0.00  0.00     0.138 A 
ATOM     11  C   LIG d   1       8.605   2.377  -6.360  0.00  0.00     0.082 A 
ATOM     12  C   LIG d   1       7.840   1.134  -5.981  0.00  0.00     0.005 C 
ATOM     13  N   LIG d   1       7.026   0.689  -7.120  0.00  0.00     0.268 N 
ATOM     14  C   LIG d   1       7.845   0.638  -8.341  0.00  0.00     0.117 C 
ATOM     15  O   LIG d   1       8.241   1.968  -8.681  0.00  0.00    -0.454 OA
ATOM     16  H   LIG d   1       9.320   3.222  -2.059  0.00  0.00     0.104 H 
ATOM     17  H   LIG d   1      10.573   5.563  -7.325  0.00  0.00     0.063 H 
ATOM     18  H   LIG d   1       9.607   4.148  -9.067  0.00  0.00     0.065 H 
ATOM     19  H   LIG d   1       8.548   0.339  -5.705  0.00  0.00     0.087 H 
ATOM     20  H   LIG d   1       7.185   1.355  -5.125  0.00  0.00     0.087 H 
ATOM     21  H   LIG d   1       8.736   0.017  -8.158  0.00  0.00     0.130 H 
ATOM     22  H   LIG d   1       7.256   0.201  -9.161  0.00  0.00     0.130 H 
ATOM     23  H   LIG d   1       6.214   1.416  -7.273  0.00  0.00     0.207 HD
ENDROOT
BRANCH  13  24
ATOM     24  C   LIG d   1       6.405  -0.614  -6.847  0.00  0.00    -0.015 C 
ATOM     25  H   LIG d   1       6.544  -1.275  -7.715  0.00  0.00     0.083 H 
ATOM     26  H   LIG d   1       6.878  -1.067  -5.963  0.00  0.00     0.083 H 
BRANCH  24  27
ATOM     27  C   LIG d   1       4.910  -0.423  -6.584  0.00  0.00     0.039 C 
ATOM     28  H   LIG d   1       4.626   0.613  -6.820  0.00  0.00     0.048 H 
ATOM     29  H   LIG d   1       4.336  -1.114  -7.219  0.00  0.00     0.048 H 
BRANCH  27  30
ATOM     30  N   LIG d   1       4.622  -0.701  -5.171  0.00  0.00    -0.293 N 
ATOM     31  C   LIG d   1       3.333  -0.115  -4.772  0.00  0.00     0.023 C 
ATOM     32  C   LIG d   1       3.102  -0.376  -3.281  0.00  0.00     0.060 C 
ATOM     33  H   LIG d   1       3.350   0.969  -4.958  0.00  0.00     0.045 H 
ATOM     34  H   LIG d   1       2.525  -0.576  -5.356  0.00  0.00     0.045 H 
ATOM     35  O   LIG d   1       3.157  -1.783  -3.034  0.00  0.00    -0.377 OA
ATOM     36  H   LIG d   1       2.113   0.010  -2.989  0.00  0.00     0.057 H 
ATOM     37  H   LIG d   1       3.881   0.130  -2.692  0.00  0.00     0.057 H 
ATOM     38  C   LIG d   1       4.398  -2.386  -3.410  0.00  0.00     0.060 C 
ATOM     39  C   LIG d   1       4.643  -2.146  -4.902  0.00  0.00     0.023 C 
ATOM     40  H   LIG d   1       4.356  -3.468  -3.215  0.00  0.00     0.057 H 
ATOM     41  H   LIG d   1       5.217  -1.939  -2.827  0.00  0.00     0.057 H 
ATOM     42  H   LIG d   1       3.854  -2.639  -5.490  0.00  0.00     0.045 H 
ATOM     43  H   LIG d   1       5.623  -2.557  -5.186  0.00  0.00     0.045 H 
ENDBRANCH  27  30
ENDBRANCH  24  27
ENDBRANCH  13  24
BRANCH   1  44
ATOM     44  C   LIG d   1      10.730   5.460  -2.103  0.00  0.00    -0.011 A 
ATOM     45  C   LIG d   1       9.977   6.487  -1.538  0.00  0.00    -0.050 A 
ATOM     46  C   LIG d   1      10.473   7.194  -0.463  0.00  0.00    -0.019 A 
ATOM     47  H   LIG d   1       9.004   6.728  -1.942  0.00  0.00     0.062 H 
ATOM     48  C   LIG d   1      11.721   6.882   0.057  0.00  0.00     0.120 A 
ATOM     49  H   LIG d   1       9.889   7.989  -0.024  0.00  0.00     0.065 H 
ATOM     50  C   LIG d   1      12.475   5.860  -0.504  0.00  0.00    -0.019 A 
ATOM     51  C   LIG d   1      11.981   5.146  -1.575  0.00  0.00    -0.050 A 
ATOM     52  H   LIG d   1      13.446   5.621  -0.096  0.00  0.00     0.065 H 
ATOM     53  H   LIG d   1      12.565   4.347  -2.008  0.00  0.00     0.062 H 
BRANCH  48  54
ATOM     54  O   LIG d   1      12.209   7.580   1.117  0.00  0.00    -0.495 OA
BRANCH  54  55
ATOM     55  C   LIG d   1      11.572   8.822   1.425  0.00  0.00     0.079 C 
ATOM     56  H   LIG d   1      11.740   9.066   2.484  0.00  0.00     0.066 H 
ATOM     57  H   LIG d   1      10.492   8.737   1.234  0.00  0.00     0.066 H 
ATOM     58  H   LIG d   1      11.994   9.617   0.793  0.00  0.00     0.066 H 
ENDBRANCH  54  55
ENDBRANCH  48  54
ENDBRANCH   1  44
TORSDOF 6
ENDMDL
MODEL 3
REMARK VINA RESULT:      -6.4      2.493     10.095
REMARK  6 active torsions:
REMARK  status: ('A' for Active; 'I' for Inactive)
REMARK    1  A    between atoms: C_1  and  O_2 
REMARK    2  A    between atoms: O_2  and  C_3 
REMARK    3  A    between atoms: C_6  and  C_9 
REMARK    4  A    between atoms: N_21  and  C_24 
REMARK    5  A    between atoms: C_24  and  C_25 
REMARK    6  A    between atoms: C_25  and  N_26 
ROOT
ATOM      1  C   LIG d   1       7.297   0.407  -4.715  0.00  0.00     0.064 A 
ATOM      2  C   LIG d   1       7.559   1.067  -3.559  0.00  0.00     0.104 A 
ATOM      3  O   LIG d   1       8.257   2.197  -3.496  0.00  0.00    -0.462 OA
ATOM      4  C   LIG d   1       8.766   2.784  -4.594  0.00  0.00     0.150 A 
ATOM      5  C   LIG d   1       8.580   2.222  -5.869  0.00  0.00     0.065 A 
ATOM      6  C   LIG d   1       7.810   0.969  -5.977  0.00  0.00     0.200 A 
ATOM      7  O   LIG d   1       7.611   0.427  -7.051  0.00  0.00    -0.286 OA
ATOM      8  C   LIG d   1       9.112   2.842  -6.999  0.00  0.00    -0.044 A 
ATOM      9  C   LIG d   1       9.820   4.001  -6.866  0.00  0.00    -0.018 A 
ATOM     10  C   LIG d   1      10.014   4.570  -5.607  0.00  0.00     0.138 A 
ATOM     11  C   LIG d   1       9.489   3.967  -4.478  0.00  0.00     0.082 A 
ATOM     12  C   LIG d   1       9.690   4.575  -3.113  0.00  0.00     0.005 C 
ATOM     13  N   LIG d   1      10.791   5.547  -3.162  0.00  0.00     0.268 N 
ATOM     14  C   LIG d   1      10.605   6.467  -4.296  0.00  0.00     0.117 C 
ATOM     15  O   LIG d   1      10.727   5.723  -5.511  0.00  0.00    -0.454 OA
ATOM     16  H   LIG d   1       7.180   0.650  -2.637  0.00  0.00     0.104 H 
ATOM     17  H   LIG d   1       8.965   2.405  -7.977  0.00  0.00     0.063 H 
ATOM     18  H   LIG d   1      10.232   4.481  -7.741  0.00  0.00     0.065 H 
ATOM     19  H   LIG d   1       8.766   5.084  -2.800  0.00  0.00     0.087 H 
ATOM     20  H   LIG d   1       9.934   3.781  -2.391  0.00  0.00     0.087 H 
ATOM     21  H   LIG d   1       9.606   6.924  -4.236  0.00  0.00     0.130 H 
ATOM     22  H   LIG d   1      11.372   7.254  -4.259  0.00  0.00     0.130 H 
ATOM     23  H   LIG d   1      11.733   4.998  -3.306  0.00  0.00     0.207 HD
ENDROOT
BRANCH  13  24
ATOM     24  C   LIG d   1      10.898   6.286  -1.897  0.00  0.00    -0.015 C 
ATOM     25  H   LIG d   1      11.025   5.575  -1.067  0.00  0.00     0.083 H 
ATOM     26  H   LIG d   1      11.767   6.959  -1.938  0.00  0.00     0.083 H 
BRANCH  24  27
ATOM     27  C   LIG d   1       9.626   7.107  -1.676  0.00  0.00     0.039 C 
ATOM     28  H   LIG d   1       9.377   7.652  -2.598  0.00  0.00     0.048 H 
ATOM     29  H   LIG d   1       8.797   6.434  -1.412  0.00  0.00     0.048 H 
BRANCH  27  30
ATOM     30  N   LIG d   1       9.847   8.066  -0.585  0.00  0.00    -0.293 N 
ATOM     31  C   LIG d   1      11.206   7.937  -0.039  0.00  0.00     0.023 C 
ATOM     32  C   LIG d   1      11.373   8.911   1.132  0.00  0.00     0.060 C 
ATOM     33  H   LIG d   1      11.363   6.907   0.314  0.00  0.00     0.045 H 
ATOM     34  H   LIG d   1      11.940   8.174  -0.822  0.00  0.00     0.045 H 
ATOM     35  O   LIG d   1      11.093  10.239   0.683  0.00  0.00    -0.377 OA
ATOM     36  H   LIG d   1      12.406   8.860   1.508  0.00  0.00     0.057 H 
ATOM     37  H   LIG d   1      10.675   8.641   1.938  0.00  0.00     0.057 H 
ATOM     38  C   LIG d   1       9.778  10.401   0.146  0.00  0.00     0.060 C 
ATOM     39  C   LIG d   1       9.594   9.443  -1.034  0.00  0.00     0.023 C 
ATOM     40  H   LIG d   1       9.645  11.437  -0.199  0.00  0.00     0.057 H 
ATOM     41  H   LIG d   1       9.032  10.174   0.922  0.00  0.00     0.057 H 
ATOM     42  H   LIG d   1      10.303   9.703  -1.835  0.00  0.00     0.045 H 
ATOM     43  H   LIG d   1       8.565   9.521  -1.416  0.00  0.00     0.045 H 
ENDBRANCH  27  30
ENDBRANCH  24  27
ENDBRANCH  13  24
BRANCH   1  44
ATOM     44  C   LIG d   1       6.509  -0.851  -4.710  0.00  0.00    -0.011 A 
ATOM     45  C   LIG d   1       7.156  -2.079  -4.600  0.00  0.00    -0.050 A 
ATOM     46  C   LIG d   1       6.421  -3.247  -4.596  0.00  0.00    -0.019 A 
ATOM     47  H   LIG d   1       8.233  -2.118  -4.518  0.00  0.00     0.062 H 
ATOM     48  C   LIG d   1       5.038  -3.198  -4.699  0.00  0.00     0.120 A 
ATOM     49  H   LIG d   1       6.923  -4.200  -4.510  0.00  0.00     0.065 H 
ATOM     50  C   LIG d   1       4.391  -1.975  -4.809  0.00  0.00    -0.019 A 
ATOM     51  C   LIG d   1       5.119  -0.805  -4.808  0.00  0.00    -0.050 A 
ATOM     52  H   LIG d   1       3.314  -1.941  -4.890  0.00  0.00     0.065 H 
ATOM     53  H   LIG d   1       4.614   0.147  -4.888  0.00  0.00     0.062 H 
BRANCH  48  54
ATOM     54  O   LIG d   1       4.316  -4.350  -4.694  0.00  0.00    -0.495 OA
BRANCH  54  55
ATOM     55  C   LIG d   1       4.682  -5.349  -5.647  0.00  0.00     0.079 C 
ATOM     56  H   LIG d   1       5.754  -5.259  -5.878  0.00  0.00     0.066 H 
ATOM     57  H   LIG d   1       4.095  -5.211  -6.567  0.00  0.00     0.066 H 
ATOM     58  H   LIG d   1       4.479  -6.346  -5.229  0.00  0.00     0.066 H 
ENDBRANCH  54  55
ENDBRANCH  48  54
ENDBRANCH   1  44
TORSDOF 6
ENDMDL
MODEL 4
REMARK VINA RESULT:      -6.2      4.632      8.254
REMARK  6 active torsions:
REMARK  status: ('A' for Active; 'I' for Inactive)
REMARK    1  A    between atoms: C_1  and  O_2 
REMARK    2  A    between atoms: O_2  and  C_3 
REMARK    3  A    between atoms: C_6  and  C_9 
REMARK    4  A    between atoms: N_21  and  C_24 
REMARK    5  A    between atoms: C_24  and  C_25 
REMARK    6  A    between atoms: C_25  and  N_26 
ROOT
ATOM      1  C   LIG d   1       8.093   1.035  -4.315  0.00  0.00     0.064 A 
ATOM      2  C   LIG d   1       8.608  -0.016  -5.002  0.00  0.00     0.104 A 
ATOM      3  O   LIG d   1       7.983  -1.181  -5.147  0.00  0.00    -0.462 OA
ATOM      4  C   LIG d   1       6.769  -1.410  -4.614  0.00  0.00     0.150 A 
ATOM      5  C   LIG d   1       6.103  -0.419  -3.874  0.00  0.00     0.065 A 
ATOM      6  C   LIG d   1       6.766   0.886  -3.693  0.00  0.00     0.200 A 
ATOM      7  O   LIG d   1       6.245   1.790  -3.061  0.00  0.00    -0.286 OA
ATOM      8  C   LIG d   1       4.844  -0.670  -3.328  0.00  0.00    -0.044 A 
ATOM      9  C   LIG d   1       4.256  -1.887  -3.513  0.00  0.00    -0.018 A 
ATOM     10  C   LIG d   1       4.906  -2.882  -4.245  0.00  0.00     0.138 A 
ATOM     11  C   LIG d   1       6.153  -2.645  -4.794  0.00  0.00     0.082 A 
ATOM     12  C   LIG d   1       6.863  -3.711  -5.590  0.00  0.00     0.005 C 
ATOM     13  N   LIG d   1       6.256  -5.020  -5.312  0.00  0.00     0.268 N 
ATOM     14  C   LIG d   1       4.792  -4.938  -5.439  0.00  0.00     0.117 C 
ATOM     15  O   LIG d   1       4.293  -4.085  -4.407  0.00  0.00    -0.454 OA
ATOM     16  H   LIG d   1       9.581   0.100  -5.456  0.00  0.00     0.104 H 
ATOM     17  H   LIG d   1       4.337   0.096  -2.759  0.00  0.00     0.063 H 
ATOM     18  H   LIG d   1       3.282  -2.083  -3.090  0.00  0.00     0.065 H 
ATOM     19  H   LIG d   1       6.774  -3.487  -6.663  0.00  0.00     0.087 H 
ATOM     20  H   LIG d   1       7.926  -3.733  -5.306  0.00  0.00     0.087 H 
ATOM     21  H   LIG d   1       4.533  -4.525  -6.425  0.00  0.00     0.130 H 
ATOM     22  H   LIG d   1       4.359  -5.944  -5.337  0.00  0.00     0.130 H 
ATOM     23  H   LIG d   1       6.504  -5.307  -4.279  0.00  0.00     0.207 HD
ENDROOT
BRANCH  13  24
ATOM     24  C   LIG d   1       6.805  -6.054  -6.201  0.00  0.00    -0.015 C 
ATOM     25  H   LIG d   1       5.983  -6.543  -6.744  0.00  0.00     0.083 H 
ATOM     26  H   LIG d   1       7.495  -5.590  -6.921  0.00  0.00     0.083 H 
BRANCH  24  27
ATOM     27  C   LIG d   1       7.558  -7.095  -5.370  0.00  0.00     0.039 C 
ATOM     28  H   LIG d   1       8.241  -7.659  -6.021  0.00  0.00     0.048 H 
ATOM     29  H   LIG d   1       8.137  -6.587  -4.584  0.00  0.00     0.048 H 
BRANCH  27  30
ATOM     30  N   LIG d   1       6.596  -8.017  -4.752  0.00  0.00    -0.293 N 
ATOM     31  C   LIG d   1       5.689  -8.585  -5.761  0.00  0.00     0.023 C 
ATOM     32  C   LIG d   1       4.668  -9.491  -5.068  0.00  0.00     0.060 C 
ATOM     33  H   LIG d   1       5.165  -7.770  -6.282  0.00  0.00     0.045 H 
ATOM     34  H   LIG d   1       6.270  -9.171  -6.487  0.00  0.00     0.045 H 
ATOM     35  O   LIG d   1       5.360 -10.503  -4.331  0.00  0.00    -0.377 OA
ATOM     36  H   LIG d   1       4.023  -9.964  -5.824  0.00  0.00     0.057 H 
ATOM     37  H   LIG d   1       4.052  -8.894  -4.381  0.00  0.00     0.057 H 
ATOM     38  C   LIG d   1       6.251  -9.986  -3.339  0.00  0.00     0.060 C 
ATOM     39  C   LIG d   1       7.288  -9.084  -4.014  0.00  0.00     0.023 C 
ATOM     40  H   LIG d   1       6.762 -10.818  -2.834  0.00  0.00     0.057 H 
ATOM     41  H   LIG d   1       5.682  -9.402  -2.601  0.00  0.00     0.057 H 
ATOM     42  H   LIG d   1       7.895  -9.679  -4.714  0.00  0.00     0.045 H 
ATOM     43  H   LIG d   1       7.941  -8.637  -3.250  0.00  0.00     0.045 H 
ENDBRANCH  27  30
ENDBRANCH  24  27
ENDBRANCH  13  24
BRANCH   1  44
ATOM     44  C   LIG d   1       8.849   2.307  -4.195  0.00  0.00    -0.011 A 
ATOM     45  C   LIG d   1       9.620   2.556  -3.062  0.00  0.00    -0.050 A 
ATOM     46  C   LIG d   1      10.322   3.739  -2.953  0.00  0.00    -0.019 A 
ATOM     47  H   LIG d   1       9.670   1.823  -2.270  0.00  0.00     0.062 H 
ATOM     48  C   LIG d   1      10.259   4.680  -3.972  0.00  0.00     0.120 A 
ATOM     49  H   LIG d   1      10.921   3.933  -2.076  0.00  0.00     0.065 H 
ATOM     50  C   LIG d   1       9.491   4.435  -5.101  0.00  0.00    -0.019 A 
ATOM     51  C   LIG d   1       8.793   3.251  -5.218  0.00  0.00    -0.050 A 
ATOM     52  H   LIG d   1       9.445   5.170  -5.891  0.00  0.00     0.065 H 
ATOM     53  H   LIG d   1       8.199   3.059  -6.100  0.00  0.00     0.062 H 
BRANCH  48  54
ATOM     54  O   LIG d   1      10.951   5.845  -3.862  0.00  0.00    -0.495 OA
BRANCH  54  55
ATOM     55  C   LIG d   1      10.855   6.543  -2.619  0.00  0.00     0.079 C 
ATOM     56  H   LIG d   1      11.863   6.812  -2.271  0.00  0.00     0.066 H 
ATOM     57  H   LIG d   1      10.369   5.897  -1.873  0.00  0.00     0.066 H 
ATOM     58  H   LIG d   1      10.259   7.457  -2.757  0.00  0.00     0.066 H 
ENDBRANCH  54  55
ENDBRANCH  48  54
ENDBRANCH   1  44
TORSDOF 6
ENDMDL
MODEL 5
REMARK VINA RESULT:      -6.2      4.280      8.058
REMARK  6 active torsions:
REMARK  status: ('A' for Active; 'I' for Inactive)
REMARK    1  A    between atoms: C_1  and  O_2 
REMARK    2  A    between atoms: O_2  and  C_3 
REMARK    3  A    between atoms: C_6  and  C_9 
REMARK    4  A    between atoms: N_21  and  C_24 
REMARK    5  A    between atoms: C_24  and  C_25 
REMARK    6  A    between atoms: C_25  and  N_26 
ROOT
ATOM      1  C   LIG d   1       8.128   1.013  -4.317  0.00  0.00     0.064 A 
ATOM      2  C   LIG d   1       8.648  -0.027  -5.017  0.00  0.00     0.104 A 
ATOM      3  O   LIG d   1       8.035  -1.198  -5.162  0.00  0.00    -0.462 OA
ATOM      4  C   LIG d   1       6.831  -1.447  -4.615  0.00  0.00     0.150 A 
ATOM      5  C   LIG d   1       6.162  -0.469  -3.861  0.00  0.00     0.065 A 
ATOM      6  C   LIG d   1       6.811   0.843  -3.679  0.00  0.00     0.200 A 
ATOM      7  O   LIG d   1       6.287   1.737  -3.036  0.00  0.00    -0.286 OA
ATOM      8  C   LIG d   1       4.914  -0.738  -3.300  0.00  0.00    -0.044 A 
ATOM      9  C   LIG d   1       4.339  -1.962  -3.486  0.00  0.00    -0.018 A 
ATOM     10  C   LIG d   1       4.992  -2.944  -4.232  0.00  0.00     0.138 A 
ATOM     11  C   LIG d   1       6.229  -2.688  -4.795  0.00  0.00     0.082 A 
ATOM     12  C   LIG d   1       6.942  -3.740  -5.606  0.00  0.00     0.005 C 
ATOM     13  N   LIG d   1       6.355  -5.059  -5.329  0.00  0.00     0.268 N 
ATOM     14  C   LIG d   1       4.889  -4.994  -5.437  0.00  0.00     0.117 C 
ATOM     15  O   LIG d   1       4.392  -4.154  -4.393  0.00  0.00    -0.454 OA
ATOM     16  H   LIG d   1       9.613   0.104  -5.483  0.00  0.00     0.104 H 
ATOM     17  H   LIG d   1       4.404   0.018  -2.721  0.00  0.00     0.063 H 
ATOM     18  H   LIG d   1       3.372  -2.172  -3.052  0.00  0.00     0.065 H 
ATOM     19  H   LIG d   1       6.837  -3.511  -6.677  0.00  0.00     0.087 H 
ATOM     20  H   LIG d   1       8.009  -3.750  -5.336  0.00  0.00     0.087 H 
ATOM     21  H   LIG d   1       4.612  -4.578  -6.417  0.00  0.00     0.130 H 
ATOM     22  H   LIG d   1       4.469  -6.006  -5.336  0.00  0.00     0.130 H 
ATOM     23  H   LIG d   1       6.619  -5.348  -4.301  0.00  0.00     0.207 HD
ENDROOT
BRANCH  13  24
ATOM     24  C   LIG d   1       6.905  -6.080  -6.231  0.00  0.00    -0.015 C 
ATOM     25  H   LIG d   1       6.321  -7.006  -6.135  0.00  0.00     0.083 H 
ATOM     26  H   LIG d   1       6.852  -5.719  -7.269  0.00  0.00     0.083 H 
BRANCH  24  27
ATOM     27  C   LIG d   1       8.364  -6.356  -5.860  0.00  0.00     0.039 C 
ATOM     28  H   LIG d   1       8.743  -7.194  -6.464  0.00  0.00     0.048 H 
ATOM     29  H   LIG d   1       8.968  -5.458  -6.059  0.00  0.00     0.048 H 
BRANCH  27  30
ATOM     30  N   LIG d   1       8.450  -6.700  -4.435  0.00  0.00    -0.293 N 
ATOM     31  C   LIG d   1       8.587  -8.153  -4.252  0.00  0.00     0.023 C 
ATOM     32  C   LIG d   1       8.613  -8.472  -2.754  0.00  0.00     0.060 C 
ATOM     33  H   LIG d   1       7.734  -8.663  -4.722  0.00  0.00     0.045 H 
ATOM     34  H   LIG d   1       9.522  -8.494  -4.717  0.00  0.00     0.045 H 
ATOM     35  O   LIG d   1       9.678  -7.744  -2.136  0.00  0.00    -0.377 OA
ATOM     36  H   LIG d   1       8.773  -9.551  -2.610  0.00  0.00     0.057 H 
ATOM     37  H   LIG d   1       7.656  -8.178  -2.298  0.00  0.00     0.057 H 
ATOM     38  C   LIG d   1       9.576  -6.327  -2.294  0.00  0.00     0.060 C 
ATOM     39  C   LIG d   1       9.559  -5.986  -3.786  0.00  0.00     0.023 C 
ATOM     40  H   LIG d   1      10.439  -5.840  -1.816  0.00  0.00     0.057 H 
ATOM     41  H   LIG d   1       8.647  -5.970  -1.826  0.00  0.00     0.057 H 
ATOM     42  H   LIG d   1      10.511  -6.293  -4.246  0.00  0.00     0.045 H 
ATOM     43  H   LIG d   1       9.423  -4.902  -3.916  0.00  0.00     0.045 H 
ENDBRANCH  27  30
ENDBRANCH  24  27
ENDBRANCH  13  24
BRANCH   1  44
ATOM     44  C   LIG d   1       8.870   2.294  -4.199  0.00  0.00    -0.011 A 
ATOM     45  C   LIG d   1       8.699   3.290  -5.158  0.00  0.00    -0.050 A 
ATOM     46  C   LIG d   1       9.390   4.479  -5.045  0.00  0.00    -0.019 A 
ATOM     47  H   LIG d   1       8.026   3.132  -5.988  0.00  0.00     0.062 H 
ATOM     48  C   LIG d   1      10.253   4.683  -3.978  0.00  0.00     0.120 A 
ATOM     49  H   LIG d   1       9.258   5.252  -5.788  0.00  0.00     0.065 H 
ATOM     50  C   LIG d   1      10.425   3.692  -3.021  0.00  0.00    -0.019 A 
ATOM     51  C   LIG d   1       9.733   2.504  -3.125  0.00  0.00    -0.050 A 
ATOM     52  H   LIG d   1      11.099   3.854  -2.193  0.00  0.00     0.065 H 
ATOM     53  H   LIG d   1       9.864   1.735  -2.378  0.00  0.00     0.062 H 
BRANCH  48  54
ATOM     54  O   LIG d   1      10.933   5.855  -3.869  0.00  0.00    -0.495 OA
BRANCH  54  55
ATOM     55  C   LIG d   1      11.411   6.211  -2.570  0.00  0.00     0.079 C 
ATOM     56  H   LIG d   1      12.508   6.141  -2.553  0.00  0.00     0.066 H 
ATOM     57  H   LIG d   1      10.987   5.523  -1.824  0.00  0.00     0.066 H 
ATOM     58  H   LIG d   1      11.105   7.240  -2.337  0.00  0.00     0.066 H 
ENDBRANCH  54  55
ENDBRANCH  48  54
ENDBRANCH   1  44
TORSDOF 6
ENDMDL
MODEL 6
REMARK VINA RESULT:      -6.1      3.841     10.064
REMARK  6 active torsions:
REMARK  status: ('A' for Active; 'I' for Inactive)
REMARK    1  A    between atoms: C_1  and  O_2 
REMARK    2  A    between atoms: O_2  and  C_3 
REMARK    3  A    between atoms: C_6  and  C_9 
REMARK    4  A    between atoms: N_21  and  C_24 
REMARK    5  A    between atoms: C_24  and  C_25 
REMARK    6  A    between atoms: C_25  and  N_26 
ROOT
ATOM      1  C   LIG d   1       9.847   5.027  -3.685  0.00  0.00     0.064 A 
ATOM      2  C   LIG d   1       9.636   6.365  -3.750  0.00  0.00     0.104 A 
ATOM      3  O   LIG d   1       9.924   7.207  -2.761  0.00  0.00    -0.462 OA
ATOM      4  C   LIG d   1      10.458   6.788  -1.599  0.00  0.00     0.150 A 
ATOM      5  C   LIG d   1      10.737   5.429  -1.378  0.00  0.00     0.065 A 
ATOM      6  C   LIG d   1      10.430   4.466  -2.453  0.00  0.00     0.200 A 
ATOM      7  O   LIG d   1      10.645   3.272  -2.328  0.00  0.00    -0.286 OA
ATOM      8  C   LIG d   1      11.291   5.007  -0.170  0.00  0.00    -0.044 A 
ATOM      9  C   LIG d   1      11.563   5.922   0.805  0.00  0.00    -0.018 A 
ATOM     10  C   LIG d   1      11.291   7.275   0.601  0.00  0.00     0.138 A 
ATOM     11  C   LIG d   1      10.744   7.707  -0.594  0.00  0.00     0.082 A 
ATOM     12  C   LIG d   1      10.448   9.167  -0.827  0.00  0.00     0.005 C 
ATOM     13  N   LIG d   1      10.429   9.878   0.458  0.00  0.00     0.268 N 
ATOM     14  C   LIG d   1      11.629   9.543   1.242  0.00  0.00     0.117 C 
ATOM     15  O   LIG d   1      11.571   8.159   1.596  0.00  0.00    -0.454 OA
ATOM     16  H   LIG d   1       9.209   6.771  -4.655  0.00  0.00     0.104 H 
ATOM     17  H   LIG d   1      11.503   3.961  -0.006  0.00  0.00     0.063 H 
ATOM     18  H   LIG d   1      11.992   5.597   1.742  0.00  0.00     0.065 H 
ATOM     19  H   LIG d   1      11.227   9.599  -1.472  0.00  0.00     0.087 H 
ATOM     20  H   LIG d   1       9.469   9.268  -1.317  0.00  0.00     0.087 H 
ATOM     21  H   LIG d   1      12.527   9.737   0.636  0.00  0.00     0.130 H 
ATOM     22  H   LIG d   1      11.659  10.161   2.151  0.00  0.00     0.130 H 
ATOM     23  H   LIG d   1       9.541   9.555   1.022  0.00  0.00     0.207 HD
ENDROOT
BRANCH  13  24
ATOM     24  C   LIG d   1      10.321  11.329   0.256  0.00  0.00    -0.015 C 
ATOM     25  H   LIG d   1       9.277  11.590   0.030  0.00  0.00     0.083 H 
ATOM     26  H   LIG d   1      10.639  11.851   1.170  0.00  0.00     0.083 H 
BRANCH  24  27
ATOM     27  C   LIG d   1      11.216  11.750  -0.911  0.00  0.00     0.039 C 
ATOM     28  H   LIG d   1      12.166  12.145  -0.520  0.00  0.00     0.048 H 
ATOM     29  H   LIG d   1      11.417  10.879  -1.552  0.00  0.00     0.048 H 
BRANCH  27  30
ATOM     30  N   LIG d   1      10.540  12.791  -1.696  0.00  0.00    -0.293 N 
ATOM     31  C   LIG d   1       9.508  12.206  -2.566  0.00  0.00     0.023 C 
ATOM     32  C   LIG d   1       8.871  13.315  -3.408  0.00  0.00     0.060 C 
ATOM     33  H   LIG d   1       9.969  11.459  -3.229  0.00  0.00     0.045 H 
ATOM     34  H   LIG d   1       8.738  11.724  -1.948  0.00  0.00     0.045 H 
ATOM     35  O   LIG d   1       8.341  14.321  -2.539  0.00  0.00    -0.377 OA
ATOM     36  H   LIG d   1       8.059  12.893  -4.019  0.00  0.00     0.057 H 
ATOM     37  H   LIG d   1       9.631  13.762  -4.065  0.00  0.00     0.057 H 
ATOM     38  C   LIG d   1       9.318  14.912  -1.679  0.00  0.00     0.060 C 
ATOM     39  C   LIG d   1       9.961  13.819  -0.820  0.00  0.00     0.023 C 
ATOM     40  H   LIG d   1       8.834  15.654  -1.027  0.00  0.00     0.057 H 
ATOM     41  H   LIG d   1      10.093  15.405  -2.284  0.00  0.00     0.057 H 
ATOM     42  H   LIG d   1       9.197  13.361  -0.173  0.00  0.00     0.045 H 
ATOM     43  H   LIG d   1      10.753  14.259  -0.197  0.00  0.00     0.045 H 
ENDBRANCH  27  30
ENDBRANCH  24  27
ENDBRANCH  13  24
BRANCH   1  44
ATOM     44  C   LIG d   1       9.501   4.148  -4.829  0.00  0.00    -0.011 A 
ATOM     45  C   LIG d   1       8.693   3.030  -4.632  0.00  0.00    -0.050 A 
ATOM     46  C   LIG d   1       8.373   2.215  -5.698  0.00  0.00    -0.019 A 
ATOM     47  H   LIG d   1       8.315   2.804  -3.645  0.00  0.00     0.062 H 
ATOM     48  C   LIG d   1       8.856   2.507  -6.966  0.00  0.00     0.120 A 
ATOM     49  H   LIG d   1       7.745   1.349  -5.545  0.00  0.00     0.065 H 
ATOM     50  C   LIG d   1       9.662   3.619  -7.165  0.00  0.00    -0.019 A 
ATOM     51  C   LIG d   1       9.980   4.441  -6.105  0.00  0.00    -0.050 A 
ATOM     52  H   LIG d   1      10.037   3.842  -8.153  0.00  0.00     0.065 H 
ATOM     53  H   LIG d   1      10.604   5.309  -6.261  0.00  0.00     0.062 H 
BRANCH  48  54
ATOM     54  O   LIG d   1       8.540   1.702  -8.014  0.00  0.00    -0.495 OA
BRANCH  54  55
ATOM     55  C   LIG d   1       7.277   1.924  -8.645  0.00  0.00     0.079 C 
ATOM     56  H   LIG d   1       6.469   1.641  -7.956  0.00  0.00     0.066 H 
ATOM     57  H   LIG d   1       7.212   1.314  -9.558  0.00  0.00     0.066 H 
ATOM     58  H   LIG d   1       7.180   2.987  -8.907  0.00  0.00     0.066 H 
ENDBRANCH  54  55
ENDBRANCH  48  54
ENDBRANCH   1  44
TORSDOF 6
ENDMDL
MODEL 7
REMARK VINA RESULT:      -6.1     13.853     16.461
REMARK  6 active torsions:
REMARK  status: ('A' for Active; 'I' for Inactive)
REMARK    1  A    between atoms: C_1  and  O_2 
REMARK    2  A    between atoms: O_2  and  C_3 
REMARK    3  A    between atoms: C_6  and  C_9 
REMARK    4  A    between atoms: N_21  and  C_24 
REMARK    5  A    between atoms: C_24  and  C_25 
REMARK    6  A    between atoms: C_25  and  N_26 
ROOT
ATOM      1  C   LIG d   1       5.655  -8.176  -5.270  0.00  0.00     0.064 A 
ATOM      2  C   LIG d   1       6.909  -7.796  -4.917  0.00  0.00     0.104 A 
ATOM      3  O   LIG d   1       7.581  -8.323  -3.898  0.00  0.00    -0.462 OA
ATOM      4  C   LIG d   1       7.060  -9.292  -3.124  0.00  0.00     0.150 A 
ATOM      5  C   LIG d   1       5.770  -9.794  -3.362  0.00  0.00     0.065 A 
ATOM      6  C   LIG d   1       4.995  -9.234  -4.485  0.00  0.00     0.200 A 
ATOM      7  O   LIG d   1       3.869  -9.622  -4.747  0.00  0.00    -0.286 OA
ATOM      8  C   LIG d   1       5.241 -10.800  -2.553  0.00  0.00    -0.044 A 
ATOM      9  C   LIG d   1       5.983 -11.299  -1.522  0.00  0.00    -0.018 A 
ATOM     10  C   LIG d   1       7.266 -10.809  -1.273  0.00  0.00     0.138 A 
ATOM     11  C   LIG d   1       7.803  -9.814  -2.069  0.00  0.00     0.082 A 
ATOM     12  C   LIG d   1       9.189  -9.280  -1.811  0.00  0.00     0.005 C 
ATOM     13  N   LIG d   1       9.615  -9.648  -0.454  0.00  0.00     0.268 N 
ATOM     14  C   LIG d   1       9.384 -11.083  -0.221  0.00  0.00     0.117 C 
ATOM     15  O   LIG d   1       7.976 -11.326  -0.234  0.00  0.00    -0.454 OA
ATOM     16  H   LIG d   1       7.388  -7.020  -5.497  0.00  0.00     0.104 H 
ATOM     17  H   LIG d   1       4.248 -11.182  -2.741  0.00  0.00     0.063 H 
ATOM     18  H   LIG d   1       5.575 -12.077  -0.894  0.00  0.00     0.065 H 
ATOM     19  H   LIG d   1       9.888  -9.709  -2.543  0.00  0.00     0.087 H 
ATOM     20  H   LIG d   1       9.183  -8.184  -1.908  0.00  0.00     0.087 H 
ATOM     21  H   LIG d   1       9.872 -11.666  -1.017  0.00  0.00     0.130 H 
ATOM     22  H   LIG d   1       9.805 -11.369   0.753  0.00  0.00     0.130 H 
ATOM     23  H   LIG d   1       9.014  -9.075   0.268  0.00  0.00     0.207 HD
ENDROOT
BRANCH  13  24
ATOM     24  C   LIG d   1      11.024  -9.299  -0.231  0.00  0.00    -0.015 C 
ATOM     25  H   LIG d   1      11.609 -10.217  -0.074  0.00  0.00     0.083 H 
ATOM     26  H   LIG d   1      11.413  -8.763  -1.110  0.00  0.00     0.083 H 
BRANCH  24  27
ATOM     27  C   LIG d   1      11.139  -8.403   1.004  0.00  0.00     0.039 C 
ATOM     28  H   LIG d   1      11.613  -7.451   0.723  0.00  0.00     0.048 H 
ATOM     29  H   LIG d   1      10.135  -8.207   1.409  0.00  0.00     0.048 H 
BRANCH  27  30
ATOM     30  N   LIG d   1      11.957  -9.076   2.022  0.00  0.00    -0.293 N 
ATOM     31  C   LIG d   1      12.695  -8.097   2.835  0.00  0.00     0.023 C 
ATOM     32  C   LIG d   1      13.578  -8.841   3.840  0.00  0.00     0.060 C 
ATOM     33  H   LIG d   1      13.325  -7.477   2.180  0.00  0.00     0.045 H 
ATOM     34  H   LIG d   1      11.983  -7.457   3.373  0.00  0.00     0.045 H 
ATOM     35  O   LIG d   1      12.762  -9.703   4.638  0.00  0.00    -0.377 OA
ATOM     36  H   LIG d   1      14.090  -8.115   4.490  0.00  0.00     0.057 H 
ATOM     37  H   LIG d   1      14.326  -9.441   3.301  0.00  0.00     0.057 H 
ATOM     38  C   LIG d   1      12.030 -10.668   3.879  0.00  0.00     0.060 C 
ATOM     39  C   LIG d   1      11.131  -9.943   2.873  0.00  0.00     0.023 C 
ATOM     40  H   LIG d   1      11.409 -11.275   4.555  0.00  0.00     0.057 H 
ATOM     41  H   LIG d   1      12.731 -11.322   3.339  0.00  0.00     0.057 H 
ATOM     42  H   LIG d   1      10.393  -9.331   3.413  0.00  0.00     0.045 H 
ATOM     43  H   LIG d   1      10.608 -10.681   2.247  0.00  0.00     0.045 H 
ENDBRANCH  27  30
ENDBRANCH  24  27
ENDBRANCH  13  24
BRANCH   1  44
ATOM     44  C   LIG d   1       4.966  -7.543  -6.421  0.00  0.00    -0.011 A 
ATOM     45  C   LIG d   1       4.703  -8.284  -7.571  0.00  0.00    -0.050 A 
ATOM     46  C   LIG d   1       4.062  -7.693  -8.640  0.00  0.00    -0.019 A 
ATOM     47  H   LIG d   1       4.999  -9.322  -7.625  0.00  0.00     0.062 H 
ATOM     48  C   LIG d   1       3.680  -6.361  -8.571  0.00  0.00     0.120 A 
ATOM     49  H   LIG d   1       3.857  -8.268  -9.532  0.00  0.00     0.065 H 
ATOM     50  C   LIG d   1       3.941  -5.619  -7.427  0.00  0.00    -0.019 A 
ATOM     51  C   LIG d   1       4.576  -6.207  -6.353  0.00  0.00    -0.050 A 
ATOM     52  H   LIG d   1       3.643  -4.582  -7.377  0.00  0.00     0.065 H 
ATOM     53  H   LIG d   1       4.775  -5.631  -5.461  0.00  0.00     0.062 H 
BRANCH  48  54
ATOM     54  O   LIG d   1       3.049  -5.780  -9.626  0.00  0.00    -0.495 OA
BRANCH  54  55
ATOM     55  C   LIG d   1       2.862  -4.364  -9.572  0.00  0.00     0.079 C 
ATOM     56  H   LIG d   1       2.792  -3.965 -10.594  0.00  0.00     0.066 H 
ATOM     57  H   LIG d   1       3.716  -3.902  -9.054  0.00  0.00     0.066 H 
ATOM     58  H   LIG d   1       1.936  -4.138  -9.025  0.00  0.00     0.066 H 
ENDBRANCH  54  55
ENDBRANCH  48  54
ENDBRANCH   1  44
TORSDOF 6
ENDMDL
MODEL 8
REMARK VINA RESULT:      -6.0      4.272     12.557
REMARK  6 active torsions:
REMARK  status: ('A' for Active; 'I' for Inactive)
REMARK    1  A    between atoms: C_1  and  O_2 
REMARK    2  A    between atoms: O_2  and  C_3 
REMARK    3  A    between atoms: C_6  and  C_9 
REMARK    4  A    between atoms: N_21  and  C_24 
REMARK    5  A    between atoms: C_24  and  C_25 
REMARK    6  A    between atoms: C_25  and  N_26 
ROOT
ATOM      1  C   LIG d   1       5.715  -3.895  -5.765  0.00  0.00     0.064 A 
ATOM      2  C   LIG d   1       6.639  -3.190  -6.465  0.00  0.00     0.104 A 
ATOM      3  O   LIG d   1       7.035  -1.963  -6.138  0.00  0.00    -0.462 OA
ATOM      4  C   LIG d   1       6.541  -1.315  -5.067  0.00  0.00     0.150 A 
ATOM      5  C   LIG d   1       5.576  -1.913  -4.240  0.00  0.00     0.065 A 
ATOM      6  C   LIG d   1       5.113  -3.274  -4.572  0.00  0.00     0.200 A 
ATOM      7  O   LIG d   1       4.277  -3.851  -3.898  0.00  0.00    -0.286 OA
ATOM      8  C   LIG d   1       5.072  -1.231  -3.132  0.00  0.00    -0.044 A 
ATOM      9  C   LIG d   1       5.521   0.027  -2.851  0.00  0.00    -0.018 A 
ATOM     10  C   LIG d   1       6.479   0.634  -3.664  0.00  0.00     0.138 A 
ATOM     11  C   LIG d   1       6.988  -0.032  -4.764  0.00  0.00     0.082 A 
ATOM     12  C   LIG d   1       8.025   0.612  -5.647  0.00  0.00     0.005 C 
ATOM     13  N   LIG d   1       8.044   2.062  -5.408  0.00  0.00     0.268 N 
ATOM     14  C   LIG d   1       8.113   2.338  -3.965  0.00  0.00     0.117 C 
ATOM     15  O   LIG d   1       6.900   1.890  -3.357  0.00  0.00    -0.454 OA
ATOM     16  H   LIG d   1       7.078  -3.651  -7.338  0.00  0.00     0.104 H 
ATOM     17  H   LIG d   1       4.330  -1.696  -2.500  0.00  0.00     0.063 H 
ATOM     18  H   LIG d   1       5.131   0.556  -1.994  0.00  0.00     0.065 H 
ATOM     19  H   LIG d   1       9.015   0.191  -5.417  0.00  0.00     0.087 H 
ATOM     20  H   LIG d   1       7.780   0.418  -6.702  0.00  0.00     0.087 H 
ATOM     21  H   LIG d   1       8.970   1.802  -3.530  0.00  0.00     0.130 H 
ATOM     22  H   LIG d   1       8.236   3.419  -3.803  0.00  0.00     0.130 H 
ATOM     23  H   LIG d   1       7.112   2.492  -5.804  0.00  0.00     0.207 HD
ENDROOT
BRANCH  13  24
ATOM     24  C   LIG d   1       9.161   2.698  -6.120  0.00  0.00    -0.015 C 
ATOM     25  H   LIG d   1       9.789   1.924  -6.583  0.00  0.00     0.083 H 
ATOM     26  H   LIG d   1       8.766   3.365  -6.901  0.00  0.00     0.083 H 
BRANCH  24  27
ATOM     27  C   LIG d   1      10.000   3.511  -5.131  0.00  0.00     0.039 C 
ATOM     28  H   LIG d   1       9.481   3.557  -4.162  0.00  0.00     0.048 H 
ATOM     29  H   LIG d   1      10.980   3.029  -5.000  0.00  0.00     0.048 H 
BRANCH  27  30
ATOM     30  N   LIG d   1      10.187   4.872  -5.652  0.00  0.00    -0.293 N 
ATOM     31  C   LIG d   1       9.881   4.932  -7.089  0.00  0.00     0.023 C 
ATOM     32  C   LIG d   1      10.146   6.350  -7.602  0.00  0.00     0.060 C 
ATOM     33  H   LIG d   1      10.521   4.219  -7.630  0.00  0.00     0.045 H 
ATOM     34  H   LIG d   1       8.825   4.674  -7.249  0.00  0.00     0.045 H 
ATOM     35  O   LIG d   1       9.368   7.279  -6.843  0.00  0.00    -0.377 OA
ATOM     36  H   LIG d   1       9.865   6.417  -8.664  0.00  0.00     0.057 H 
ATOM     37  H   LIG d   1      11.214   6.589  -7.490  0.00  0.00     0.057 H 
ATOM     38  C   LIG d   1       9.641   7.248  -5.439  0.00  0.00     0.060 C 
ATOM     39  C   LIG d   1       9.371   5.840  -4.904  0.00  0.00     0.023 C 
ATOM     40  H   LIG d   1       8.991   7.969  -4.921  0.00  0.00     0.057 H 
ATOM     41  H   LIG d   1      10.695   7.512  -5.263  0.00  0.00     0.057 H 
ATOM     42  H   LIG d   1       8.306   5.595  -5.030  0.00  0.00     0.045 H 
ATOM     43  H   LIG d   1       9.634   5.794  -3.837  0.00  0.00     0.045 H 
ENDBRANCH  27  30
ENDBRANCH  24  27
ENDBRANCH  13  24
BRANCH   1  44
ATOM     44  C   LIG d   1       5.322  -5.261  -6.189  0.00  0.00    -0.011 A 
ATOM     45  C   LIG d   1       5.822  -6.373  -5.514  0.00  0.00    -0.050 A 
ATOM     46  C   LIG d   1       5.455  -7.642  -5.911  0.00  0.00    -0.019 A 
ATOM     47  H   LIG d   1       6.494  -6.241  -4.679  0.00  0.00     0.062 H 
ATOM     48  C   LIG d   1       4.589  -7.812  -6.982  0.00  0.00     0.120 A 
ATOM     49  H   LIG d   1       5.841  -8.504  -5.387  0.00  0.00     0.065 H 
ATOM     50  C   LIG d   1       4.090  -6.706  -7.657  0.00  0.00    -0.019 A 
ATOM     51  C   LIG d   1       4.449  -5.435  -7.261  0.00  0.00    -0.050 A 
ATOM     52  H   LIG d   1       3.417  -6.843  -8.491  0.00  0.00     0.065 H 
ATOM     53  H   LIG d   1       4.057  -4.576  -7.784  0.00  0.00     0.062 H 
BRANCH  48  54
ATOM     54  O   LIG d   1       4.229  -9.064  -7.372  0.00  0.00    -0.495 OA
BRANCH  54  55
ATOM     55  C   LIG d   1       4.604 -10.144  -6.515  0.00  0.00     0.079 C 
ATOM     56  H   LIG d   1       5.698 -10.160  -6.404  0.00  0.00     0.066 H 
ATOM     57  H   LIG d   1       4.265 -11.094  -6.953  0.00  0.00     0.066 H 
ATOM     58  H   LIG d   1       4.137 -10.007  -5.529  0.00  0.00     0.066 H 
ENDBRANCH  54  55
ENDBRANCH  48  54
ENDBRANCH   1  44
TORSDOF 6
ENDMDL
MODEL 9
REMARK VINA RESULT:      -6.0     14.117     17.822
REMARK  6 active torsions:
REMARK  status: ('A' for Active; 'I' for Inactive)
REMARK    1  A    between atoms: C_1  and  O_2 
REMARK    2  A    between atoms: O_2  and  C_3 
REMARK    3  A    between atoms: C_6  and  C_9 
REMARK    4  A    between atoms: N_21  and  C_24 
REMARK    5  A    between atoms: C_24  and  C_25 
REMARK    6  A    between atoms: C_25  and  N_26 
ROOT
ATOM      1  C   LIG d   1       7.264 -10.166  -2.376  0.00  0.00     0.064 A 
ATOM      2  C   LIG d   1       7.555 -10.692  -1.160  0.00  0.00     0.104 A 
ATOM      3  O   LIG d   1       8.624 -10.352  -0.444  0.00  0.00    -0.462 OA
ATOM      4  C   LIG d   1       9.515  -9.444  -0.881  0.00  0.00     0.150 A 
ATOM      5  C   LIG d   1       9.354  -8.809  -2.123  0.00  0.00     0.065 A 
ATOM      6  C   LIG d   1       8.179  -9.160  -2.944  0.00  0.00     0.200 A 
ATOM      7  O   LIG d   1       7.978  -8.648  -4.032  0.00  0.00    -0.286 OA
ATOM      8  C   LIG d   1      10.285  -7.868  -2.563  0.00  0.00    -0.044 A 
ATOM      9  C   LIG d   1      11.361  -7.565  -1.781  0.00  0.00    -0.018 A 
ATOM     10  C   LIG d   1      11.536  -8.188  -0.546  0.00  0.00     0.138 A 
ATOM     11  C   LIG d   1      10.618  -9.121  -0.096  0.00  0.00     0.082 A 
ATOM     12  C   LIG d   1      10.795  -9.799   1.239  0.00  0.00     0.005 C 
ATOM     13  N   LIG d   1      12.182  -9.636   1.695  0.00  0.00     0.268 N 
ATOM     14  C   LIG d   1      12.590  -8.227   1.588  0.00  0.00     0.117 C 
ATOM     15  O   LIG d   1      12.622  -7.865   0.206  0.00  0.00    -0.454 OA
ATOM     16  H   LIG d   1       6.880 -11.428  -0.748  0.00  0.00     0.104 H 
ATOM     17  H   LIG d   1      10.155  -7.383  -3.520  0.00  0.00     0.063 H 
ATOM     18  H   LIG d   1      12.083  -6.836  -2.121  0.00  0.00     0.065 H 
ATOM     19  H   LIG d   1      10.113  -9.344   1.973  0.00  0.00     0.087 H 
ATOM     20  H   LIG d   1      10.564 -10.870   1.139  0.00  0.00     0.087 H 
ATOM     21  H   LIG d   1      11.866  -7.594   2.124  0.00  0.00     0.130 H 
ATOM     22  H   LIG d   1      13.588  -8.099   2.032  0.00  0.00     0.130 H 
ATOM     23  H   LIG d   1      12.834 -10.241   1.047  0.00  0.00     0.207 HD
ENDROOT
BRANCH  13  24
ATOM     24  C   LIG d   1      12.346 -10.129   3.069  0.00  0.00    -0.015 C 
ATOM     25  H   LIG d   1      13.175  -9.595   3.554  0.00  0.00     0.083 H 
ATOM     26  H   LIG d   1      11.418  -9.955   3.634  0.00  0.00     0.083 H 
BRANCH  24  27
ATOM     27  C   LIG d   1      12.652 -11.629   3.041  0.00  0.00     0.039 C 
ATOM     28  H   LIG d   1      11.947 -12.134   2.364  0.00  0.00     0.048 H 
ATOM     29  H   LIG d   1      13.680 -11.785   2.683  0.00  0.00     0.048 H 
BRANCH  27  30
ATOM     30  N   LIG d   1      12.514 -12.181   4.395  0.00  0.00    -0.293 N 
ATOM     31  C   LIG d   1      13.403 -11.488   5.340  0.00  0.00     0.023 C 
ATOM     32  C   LIG d   1      13.271 -12.134   6.722  0.00  0.00     0.060 C 
ATOM     33  H   LIG d   1      14.443 -11.571   4.992  0.00  0.00     0.045 H 
ATOM     34  H   LIG d   1      13.118 -10.428   5.399  0.00  0.00     0.045 H 
ATOM     35  O   LIG d   1      11.902 -12.091   7.134  0.00  0.00    -0.377 OA
ATOM     36  H   LIG d   1      13.890 -11.583   7.446  0.00  0.00     0.057 H 
ATOM     37  H   LIG d   1      13.606 -13.180   6.673  0.00  0.00     0.057 H 
ATOM     38  C   LIG d   1      11.009 -12.756   6.237  0.00  0.00     0.060 C 
ATOM     39  C   LIG d   1      11.117 -12.118   4.850  0.00  0.00     0.023 C 
ATOM     40  H   LIG d   1       9.977 -12.660   6.606  0.00  0.00     0.057 H 
ATOM     41  H   LIG d   1      11.277 -13.821   6.173  0.00  0.00     0.057 H 
ATOM     42  H   LIG d   1      10.797 -11.066   4.902  0.00  0.00     0.045 H 
ATOM     43  H   LIG d   1      10.476 -12.663   4.142  0.00  0.00     0.045 H 
ENDBRANCH  27  30
ENDBRANCH  24  27
ENDBRANCH  13  24
BRANCH   1  44
ATOM     44  C   LIG d   1       6.051 -10.592  -3.117  0.00  0.00    -0.011 A 
ATOM     45  C   LIG d   1       4.789 -10.198  -2.677  0.00  0.00    -0.050 A 
ATOM     46  C   LIG d   1       3.664 -10.596  -3.367  0.00  0.00    -0.019 A 
ATOM     47  H   LIG d   1       4.693  -9.580  -1.796  0.00  0.00     0.062 H 
ATOM     48  C   LIG d   1       3.787 -11.389  -4.500  0.00  0.00     0.120 A 
ATOM     49  H   LIG d   1       2.685 -10.290  -3.027  0.00  0.00     0.065 H 
ATOM     50  C   LIG d   1       5.043 -11.783  -4.941  0.00  0.00    -0.019 A 
ATOM     51  C   LIG d   1       6.172 -11.383  -4.258  0.00  0.00    -0.050 A 
ATOM     52  H   LIG d   1       5.135 -12.401  -5.822  0.00  0.00     0.065 H 
ATOM     53  H   LIG d   1       7.149 -11.687  -4.604  0.00  0.00     0.062 H 
BRANCH  48  54
ATOM     54  O   LIG d   1       2.676 -11.780  -5.179  0.00  0.00    -0.495 OA
BRANCH  54  55
ATOM     55  C   LIG d   1       2.837 -12.828  -6.137  0.00  0.00     0.079 C 
ATOM     56  H   LIG d   1       2.914 -12.394  -7.144  0.00  0.00     0.066 H 
ATOM     57  H   LIG d   1       1.968 -13.501  -6.092  0.00  0.00     0.066 H 
ATOM     58  H   LIG d   1       3.751 -13.394  -5.910  0.00  0.00     0.066 H 
ENDBRANCH  54  55
ENDBRANCH  48  54
ENDBRANCH   1  44
TORSDOF 6
ENDMDL
