MODEL 1
REMARK VINA RESULT:      -6.3      0.000      0.000
REMARK  10 active torsions:
REMARK  status: ('A' for Active; 'I' for Inactive)
REMARK    1  A    between atoms: C_1  and  C_2 
REMARK    2  A    between atoms: C_4  and  O_23 
REMARK    3  A    between atoms: C_11  and  C_12 
REMARK    4  A    between atoms: C_15  and  O_20 
REMARK    5  A    between atoms: C_16  and  O_18 
REMARK    6  A    between atoms: O_18  and  C_19 
REMARK    7  A    between atoms: O_20  and  C_21 
REMARK    8  A    between atoms: O_23  and  C_24 
REMARK       I    between atoms: C_24  and  N_26 
REMARK    9  A    between atoms: N_26  and  C_27 
REMARK   10  A    between atoms: N_26  and  C_28 
ROOT
ATOM      1  C   LIG d   1       7.906   1.233  -6.678  0.00  0.00    -0.033 A 
ATOM      2  C   LIG d   1       7.066   0.272  -6.189  0.00  0.00    -0.015 A 
ATOM      3  C   LIG d   1       6.824   0.186  -4.820  0.00  0.00     0.137 A 
ATOM      4  C   LIG d   1       7.426   1.072  -3.941  0.00  0.00     0.024 A 
ATOM      5  C   LIG d   1       8.282   2.055  -4.423  0.00  0.00     0.143 A 
ATOM      6  C   LIG d   1       8.520   2.130  -5.804  0.00  0.00     0.071 A 
ATOM      7  C   LIG d   1       9.454   3.254  -6.005  0.00  0.00     0.232 A 
ATOM      8  O   LIG d   1       9.917   3.660  -7.056  0.00  0.00    -0.283 OA
ATOM      9  C   LIG d   1       9.700   3.773  -4.653  0.00  0.00     0.176 A 
ATOM     10  C   LIG d   1      10.504   4.820  -4.329  0.00  0.00    -0.008 C 
ATOM     11  O   LIG d   1       8.981   3.021  -3.787  0.00  0.00    -0.451 OA
ATOM     12  H   LIG d   1       6.590  -0.424  -6.864  0.00  0.00     0.066 H 
ATOM     13  H   LIG d   1       7.234   0.996  -2.881  0.00  0.00     0.069 H 
ATOM     14  H   LIG d   1      11.111   5.288  -5.089  0.00  0.00     0.066 H 
ENDROOT
BRANCH  10  15
ATOM     15  C   LIG d   1      10.547   5.312  -2.948  0.00  0.00    -0.018 A 
ATOM     16  C   LIG d   1       9.688   6.342  -2.541  0.00  0.00    -0.009 A 
ATOM     17  C   LIG d   1       9.733   6.800  -1.240  0.00  0.00     0.162 A 
ATOM     18  H   LIG d   1       8.993   6.775  -3.245  0.00  0.00     0.066 H 
ATOM     19  C   LIG d   1      10.631   6.238  -0.333  0.00  0.00     0.162 A 
ATOM     20  C   LIG d   1      11.482   5.217  -0.733  0.00  0.00    -0.016 A 
ATOM     21  C   LIG d   1      11.442   4.750  -2.028  0.00  0.00    -0.051 A 
ATOM     22  H   LIG d   1      12.176   4.785  -0.027  0.00  0.00     0.066 H 
ATOM     23  H   LIG d   1      12.103   3.953  -2.337  0.00  0.00     0.062 H 
BRANCH  17  24
ATOM     24  O   LIG d   1       8.901   7.799  -0.843  0.00  0.00    -0.491 OA
BRANCH  24  25
ATOM     25  C   LIG d   1       9.293   9.136  -1.159  0.00  0.00     0.079 C 
ATOM     26  H   LIG d   1       8.420   9.788  -1.131  0.00  0.00     0.066 H 
ATOM     27  H   LIG d   1      10.028   9.481  -0.431  0.00  0.00     0.066 H 
ATOM     28  H   LIG d   1       9.733   9.159  -2.157  0.00  0.00     0.066 H 
ENDBRANCH  24  25
ENDBRANCH  17  24
BRANCH  19  29
ATOM     29  O   LIG d   1      10.672   6.691   0.947  0.00  0.00    -0.491 OA
BRANCH  29  30
ATOM     30  C   LIG d   1      10.967   5.732   1.966  0.00  0.00     0.079 C 
ATOM     31  H   LIG d   1      11.962   5.926   2.368  0.00  0.00     0.066 H 
ATOM     32  H   LIG d   1      10.230   5.813   2.765  0.00  0.00     0.066 H 
ATOM     33  H   LIG d   1      10.934   4.730   1.541  0.00  0.00     0.066 H 
ENDBRANCH  29  30
ENDBRANCH  19  29
ENDBRANCH  10  15
BRANCH   1  34
ATOM     34  C   LIG d   1       8.169   1.321  -8.160  0.00  0.00    -0.039 C 
ATOM     35  H   LIG d   1       9.086   0.783  -8.398  0.00  0.00     0.028 H 
ATOM     36  H   LIG d   1       7.335   0.878  -8.703  0.00  0.00     0.028 H 
ATOM     37  H   LIG d   1       8.275   2.368  -8.447  0.00  0.00     0.028 H 
ENDBRANCH   1  34
BRANCH   3  38
ATOM     38  O   LIG d   1       5.988  -0.772  -4.343  0.00  0.00    -0.411 OA
BRANCH  38  39
ATOM     39  C   LIG d   1       4.674  -0.478  -4.312  0.00  0.00     0.408 C 
ATOM     40  O   LIG d   1       4.170   0.146  -5.226  0.00  0.00    -0.226 OA
ATOM     41  N   LIG d   1       3.919  -0.873  -3.269  0.00  0.00    -0.273 N 
BRANCH  41  42
ATOM     42  C   LIG d   1       2.490  -0.554  -3.236  0.00  0.00     0.006 C 
ATOM     43  H   LIG d   1       1.970  -1.134  -3.998  0.00  0.00     0.043 H 
ATOM     44  H   LIG d   1       2.085  -0.800  -2.254  0.00  0.00     0.043 H 
ATOM     45  H   LIG d   1       2.350   0.509  -3.431  0.00  0.00     0.043 H 
ENDBRANCH  41  42
BRANCH  41  46
ATOM     46  C   LIG d   1       4.528  -1.625  -2.168  0.00  0.00     0.006 C 
ATOM     47  H   LIG d   1       5.606  -1.466  -2.173  0.00  0.00     0.043 H 
ATOM     48  H   LIG d   1       4.115  -1.280  -1.220  0.00  0.00     0.043 H 
ATOM     49  H   LIG d   1       4.317  -2.687  -2.292  0.00  0.00     0.043 H 
ENDBRANCH  41  46
ENDBRANCH  38  39
ENDBRANCH   3  38
TORSDOF 10
ENDMDL
MODEL 2
REMARK VINA RESULT:      -6.1      1.463      2.346
REMARK  10 active torsions:
REMARK  status: ('A' for Active; 'I' for Inactive)
REMARK    1  A    between atoms: C_1  and  C_2 
REMARK    2  A    between atoms: C_4  and  O_23 
REMARK    3  A    between atoms: C_11  and  C_12 
REMARK    4  A    between atoms: C_15  and  O_20 
REMARK    5  A    between atoms: C_16  and  O_18 
REMARK    6  A    between atoms: O_18  and  C_19 
REMARK    7  A    between atoms: O_20  and  C_21 
REMARK    8  A    between atoms: O_23  and  C_24 
REMARK       I    between atoms: C_24  and  N_26 
REMARK    9  A    between atoms: N_26  and  C_27 
REMARK   10  A    between atoms: N_26  and  C_28 
ROOT
ATOM      1  C   LIG d   1       9.134  -0.236  -5.164  0.00  0.00    -0.033 A 
ATOM      2  C   LIG d   1       7.902  -0.802  -4.990  0.00  0.00    -0.015 A 
ATOM      3  C   LIG d   1       6.939  -0.156  -4.220  0.00  0.00     0.137 A 
ATOM      4  C   LIG d   1       7.215   1.065  -3.624  0.00  0.00     0.024 A 
ATOM      5  C   LIG d   1       8.462   1.653  -3.792  0.00  0.00     0.143 A 
ATOM      6  C   LIG d   1       9.426   0.991  -4.570  0.00  0.00     0.071 A 
ATOM      7  C   LIG d   1      10.627   1.848  -4.563  0.00  0.00     0.232 A 
ATOM      8  O   LIG d   1      11.692   1.644  -5.117  0.00  0.00    -0.283 OA
ATOM      9  C   LIG d   1      10.248   3.004  -3.737  0.00  0.00     0.176 A 
ATOM     10  C   LIG d   1      11.036   4.070  -3.440  0.00  0.00    -0.008 C 
ATOM     11  O   LIG d   1       8.972   2.814  -3.326  0.00  0.00    -0.451 OA
ATOM     12  H   LIG d   1       7.675  -1.752  -5.450  0.00  0.00     0.066 H 
ATOM     13  H   LIG d   1       6.462   1.556  -3.025  0.00  0.00     0.069 H 
ATOM     14  H   LIG d   1      12.074   4.073  -3.738  0.00  0.00     0.066 H 
ENDROOT
BRANCH  10  15
ATOM     15  C   LIG d   1      10.477   5.216  -2.714  0.00  0.00    -0.018 A 
ATOM     16  C   LIG d   1      10.782   5.407  -1.361  0.00  0.00    -0.009 A 
ATOM     17  C   LIG d   1      10.254   6.488  -0.683  0.00  0.00     0.162 A 
ATOM     18  H   LIG d   1      11.430   4.711  -0.849  0.00  0.00     0.066 H 
ATOM     19  C   LIG d   1       9.419   7.386  -1.347  0.00  0.00     0.162 A 
ATOM     20  C   LIG d   1       9.115   7.199  -2.689  0.00  0.00    -0.016 A 
ATOM     21  C   LIG d   1       9.641   6.126  -3.375  0.00  0.00    -0.051 A 
ATOM     22  H   LIG d   1       8.468   7.898  -3.199  0.00  0.00     0.066 H 
ATOM     23  H   LIG d   1       9.408   5.985  -4.419  0.00  0.00     0.062 H 
BRANCH  17  24
ATOM     24  O   LIG d   1      10.548   6.677   0.630  0.00  0.00    -0.491 OA
BRANCH  24  25
ATOM     25  C   LIG d   1      11.083   5.560   1.343  0.00  0.00     0.079 C 
ATOM     26  H   LIG d   1      11.569   5.909   2.254  0.00  0.00     0.066 H 
ATOM     27  H   LIG d   1      10.277   4.873   1.601  0.00  0.00     0.066 H 
ATOM     28  H   LIG d   1      11.813   5.045   0.716  0.00  0.00     0.066 H 
ENDBRANCH  24  25
ENDBRANCH  17  24
BRANCH  19  29
ATOM     29  O   LIG d   1       8.901   8.449  -0.678  0.00  0.00    -0.491 OA
BRANCH  29  30
ATOM     30  C   LIG d   1       9.189   9.748  -1.201  0.00  0.00     0.079 C 
ATOM     31  H   LIG d   1      10.239   9.799  -1.489  0.00  0.00     0.066 H 
ATOM     32  H   LIG d   1       8.563   9.936  -2.073  0.00  0.00     0.066 H 
ATOM     33  H   LIG d   1       8.984  10.499  -0.438  0.00  0.00     0.066 H 
ENDBRANCH  29  30
ENDBRANCH  19  29
ENDBRANCH  10  15
BRANCH   1  34
ATOM     34  C   LIG d   1      10.175  -0.939  -5.998  0.00  0.00    -0.039 C 
ATOM     35  H   LIG d   1      10.014  -2.015  -5.947  0.00  0.00     0.028 H 
ATOM     36  H   LIG d   1      10.096  -0.607  -7.032  0.00  0.00     0.028 H 
ATOM     37  H   LIG d   1      11.168  -0.701  -5.614  0.00  0.00     0.028 H 
ENDBRANCH   1  34
BRANCH   3  38
ATOM     38  O   LIG d   1       5.718  -0.726  -4.052  0.00  0.00    -0.411 OA
BRANCH  38  39
ATOM     39  C   LIG d   1       4.695  -0.198  -4.750  0.00  0.00     0.408 C 
ATOM     40  O   LIG d   1       4.814   0.005  -5.943  0.00  0.00    -0.226 OA
ATOM     41  N   LIG d   1       3.540   0.107  -4.128  0.00  0.00    -0.273 N 
BRANCH  41  42
ATOM     42  C   LIG d   1       2.426   0.681  -4.887  0.00  0.00     0.006 C 
ATOM     43  H   LIG d   1       1.543   0.737  -4.251  0.00  0.00     0.043 H 
ATOM     44  H   LIG d   1       2.694   1.682  -5.225  0.00  0.00     0.043 H 
ATOM     45  H   LIG d   1       2.213   0.051  -5.751  0.00  0.00     0.043 H 
ENDBRANCH  41  42
BRANCH  41  46
ATOM     46  C   LIG d   1       3.396  -0.137  -2.689  0.00  0.00     0.006 C 
ATOM     47  H   LIG d   1       3.739  -1.146  -2.457  0.00  0.00     0.043 H 
ATOM     48  H   LIG d   1       3.996   0.585  -2.136  0.00  0.00     0.043 H 
ATOM     49  H   LIG d   1       2.349  -0.035  -2.405  0.00  0.00     0.043 H 
ENDBRANCH  41  46
ENDBRANCH  38  39
ENDBRANCH   3  38
TORSDOF 10
ENDMDL
MODEL 3
REMARK VINA RESULT:      -5.9      6.592     10.265
REMARK  10 active torsions:
REMARK  status: ('A' for Active; 'I' for Inactive)
REMARK    1  A    between atoms: C_1  and  C_2 
REMARK    2  A    between atoms: C_4  and  O_23 
REMARK    3  A    between atoms: C_11  and  C_12 
REMARK    4  A    between atoms: C_15  and  O_20 
REMARK    5  A    between atoms: C_16  and  O_18 
REMARK    6  A    between atoms: O_18  and  C_19 
REMARK    7  A    between atoms: O_20  and  C_21 
REMARK    8  A    between atoms: O_23  and  C_24 
REMARK       I    between atoms: C_24  and  N_26 
REMARK    9  A    between atoms: N_26  and  C_27 
REMARK   10  A    between atoms: N_26  and  C_28 
ROOT
ATOM      1  C   LIG d   1       5.007  -0.705  -3.263  0.00  0.00    -0.033 A 
ATOM      2  C   LIG d   1       6.005  -1.611  -3.037  0.00  0.00    -0.015 A 
ATOM      3  C   LIG d   1       6.491  -2.391  -4.083  0.00  0.00     0.137 A 
ATOM      4  C   LIG d   1       5.973  -2.257  -5.362  0.00  0.00     0.024 A 
ATOM      5  C   LIG d   1       4.959  -1.340  -5.607  0.00  0.00     0.143 A 
ATOM      6  C   LIG d   1       4.476  -0.560  -4.544  0.00  0.00     0.071 A 
ATOM      7  C   LIG d   1       3.422   0.304  -5.107  0.00  0.00     0.232 A 
ATOM      8  O   LIG d   1       2.746   1.133  -4.524  0.00  0.00    -0.283 OA
ATOM      9  C   LIG d   1       3.370  -0.058  -6.531  0.00  0.00     0.176 A 
ATOM     10  C   LIG d   1       2.543   0.478  -7.465  0.00  0.00    -0.008 C 
ATOM     11  O   LIG d   1       4.297  -1.023  -6.742  0.00  0.00    -0.451 OA
ATOM     12  H   LIG d   1       6.417  -1.724  -2.045  0.00  0.00     0.066 H 
ATOM     13  H   LIG d   1       6.355  -2.869  -6.166  0.00  0.00     0.069 H 
ATOM     14  H   LIG d   1       1.771   1.171  -7.169  0.00  0.00     0.066 H 
ENDROOT
BRANCH  10  15
ATOM     15  C   LIG d   1       2.698   0.112  -8.878  0.00  0.00    -0.018 A 
ATOM     16  C   LIG d   1       1.887  -0.882  -9.440  0.00  0.00    -0.009 A 
ATOM     17  C   LIG d   1       2.037  -1.221 -10.770  0.00  0.00     0.162 A 
ATOM     18  H   LIG d   1       1.146  -1.382  -8.834  0.00  0.00     0.066 H 
ATOM     19  C   LIG d   1       2.994  -0.573 -11.551  0.00  0.00     0.162 A 
ATOM     20  C   LIG d   1       3.799   0.413 -10.996  0.00  0.00    -0.016 A 
ATOM     21  C   LIG d   1       3.654   0.761  -9.671  0.00  0.00    -0.051 A 
ATOM     22  H   LIG d   1       4.539   0.912 -11.605  0.00  0.00     0.066 H 
ATOM     23  H   LIG d   1       4.277   1.532  -9.243  0.00  0.00     0.062 H 
BRANCH  17  24
ATOM     24  O   LIG d   1       1.252  -2.185 -11.318  0.00  0.00    -0.491 OA
BRANCH  24  25
ATOM     25  C   LIG d   1       1.006  -3.350 -10.528  0.00  0.00     0.079 C 
ATOM     26  H   LIG d   1      -0.063  -3.438 -10.333  0.00  0.00     0.066 H 
ATOM     27  H   LIG d   1       1.352  -4.233 -11.065  0.00  0.00     0.066 H 
ATOM     28  H   LIG d   1       1.543  -3.267  -9.582  0.00  0.00     0.066 H 
ENDBRANCH  24  25
ENDBRANCH  17  24
BRANCH  19  29
ATOM     29  O   LIG d   1       3.139  -0.908 -12.859  0.00  0.00    -0.491 OA
BRANCH  29  30
ATOM     30  C   LIG d   1       4.383  -0.574 -13.481  0.00  0.00     0.079 C 
ATOM     31  H   LIG d   1       5.109  -0.298 -12.715  0.00  0.00     0.066 H 
ATOM     32  H   LIG d   1       4.752  -1.435 -14.039  0.00  0.00     0.066 H 
ATOM     33  H   LIG d   1       4.235   0.263 -14.161  0.00  0.00     0.066 H 
ENDBRANCH  29  30
ENDBRANCH  19  29
ENDBRANCH  10  15
BRANCH   1  34
ATOM     34  C   LIG d   1       4.482   0.137  -2.128  0.00  0.00    -0.039 C 
ATOM     35  H   LIG d   1       4.978  -0.153  -1.202  0.00  0.00     0.028 H 
ATOM     36  H   LIG d   1       4.680   1.188  -2.333  0.00  0.00     0.028 H 
ATOM     37  H   LIG d   1       3.407  -0.019  -2.029  0.00  0.00     0.028 H 
ENDBRANCH   1  34
BRANCH   3  38
ATOM     38  O   LIG d   1       7.482  -3.289  -3.849  0.00  0.00    -0.411 OA
BRANCH  38  39
ATOM     39  C   LIG d   1       8.551  -3.247  -4.666  0.00  0.00     0.408 C 
ATOM     40  O   LIG d   1       9.212  -2.230  -4.750  0.00  0.00    -0.226 OA
ATOM     41  N   LIG d   1       8.890  -4.331  -5.391  0.00  0.00    -0.273 N 
BRANCH  41  42
ATOM     42  C   LIG d   1      10.054  -4.286  -6.278  0.00  0.00     0.006 C 
ATOM     43  H   LIG d   1       9.761  -3.865  -7.240  0.00  0.00     0.043 H 
ATOM     44  H   LIG d   1      10.829  -3.664  -5.830  0.00  0.00     0.043 H 
ATOM     45  H   LIG d   1      10.438  -5.295  -6.426  0.00  0.00     0.043 H 
ENDBRANCH  41  42
BRANCH  41  46
ATOM     46  C   LIG d   1       8.094  -5.558  -5.289  0.00  0.00     0.006 C 
ATOM     47  H   LIG d   1       8.406  -6.121  -4.409  0.00  0.00     0.043 H 
ATOM     48  H   LIG d   1       7.039  -5.299  -5.197  0.00  0.00     0.043 H 
ATOM     49  H   LIG d   1       8.244  -6.164  -6.181  0.00  0.00     0.043 H 
ENDBRANCH  41  46
ENDBRANCH  38  39
ENDBRANCH   3  38
TORSDOF 10
ENDMDL
MODEL 4
REMARK VINA RESULT:      -5.4      7.265     11.155
REMARK  10 active torsions:
REMARK  status: ('A' for Active; 'I' for Inactive)
REMARK    1  A    between atoms: C_1  and  C_2 
REMARK    2  A    between atoms: C_4  and  O_23 
REMARK    3  A    between atoms: C_11  and  C_12 
REMARK    4  A    between atoms: C_15  and  O_20 
REMARK    5  A    between atoms: C_16  and  O_18 
REMARK    6  A    between atoms: O_18  and  C_19 
REMARK    7  A    between atoms: O_20  and  C_21 
REMARK    8  A    between atoms: O_23  and  C_24 
REMARK       I    between atoms: C_24  and  N_26 
REMARK    9  A    between atoms: N_26  and  C_27 
REMARK   10  A    between atoms: N_26  and  C_28 
ROOT
ATOM      1  C   LIG d   1       4.179  -0.997  -5.046  0.00  0.00    -0.033 A 
ATOM      2  C   LIG d   1       4.750  -2.157  -4.601  0.00  0.00    -0.015 A 
ATOM      3  C   LIG d   1       5.048  -3.178  -5.500  0.00  0.00     0.137 A 
ATOM      4  C   LIG d   1       4.773  -3.032  -6.850  0.00  0.00     0.024 A 
ATOM      5  C   LIG d   1       4.194  -1.859  -7.318  0.00  0.00     0.143 A 
ATOM      6  C   LIG d   1       3.896  -0.837  -6.402  0.00  0.00     0.071 A 
ATOM      7  C   LIG d   1       3.299   0.261  -7.185  0.00  0.00     0.232 A 
ATOM      8  O   LIG d   1       2.899   1.337  -6.776  0.00  0.00    -0.283 OA
ATOM      9  C   LIG d   1       3.295  -0.233  -8.569  0.00  0.00     0.176 A 
ATOM     10  C   LIG d   1       2.836   0.436  -9.659  0.00  0.00    -0.008 C 
ATOM     11  O   LIG d   1       3.833  -1.476  -8.562  0.00  0.00    -0.451 OA
ATOM     12  H   LIG d   1       4.969  -2.282  -3.551  0.00  0.00     0.066 H 
ATOM     13  H   LIG d   1       5.006  -3.831  -7.538  0.00  0.00     0.069 H 
ATOM     14  H   LIG d   1       2.334   1.384  -9.538  0.00  0.00     0.066 H 
ENDROOT
BRANCH  10  15
ATOM     15  C   LIG d   1       3.022  -0.131 -11.000  0.00  0.00    -0.018 A 
ATOM     16  C   LIG d   1       2.034  -0.952 -11.559  0.00  0.00    -0.009 A 
ATOM     17  C   LIG d   1       2.214  -1.481 -12.821  0.00  0.00     0.162 A 
ATOM     18  H   LIG d   1       1.134  -1.169 -11.004  0.00  0.00     0.066 H 
ATOM     19  C   LIG d   1       3.377  -1.198 -13.536  0.00  0.00     0.162 A 
ATOM     20  C   LIG d   1       4.357  -0.384 -12.984  0.00  0.00    -0.016 A 
ATOM     21  C   LIG d   1       4.185   0.153 -11.728  0.00  0.00    -0.051 A 
ATOM     22  H   LIG d   1       5.257  -0.168 -13.542  0.00  0.00     0.066 H 
ATOM     23  H   LIG d   1       4.946   0.789 -11.302  0.00  0.00     0.062 H 
BRANCH  17  24
ATOM     24  O   LIG d   1       1.257  -2.278 -13.366  0.00  0.00    -0.491 OA
BRANCH  24  25
ATOM     25  C   LIG d   1      -0.086  -2.075 -12.924  0.00  0.00     0.079 C 
ATOM     26  H   LIG d   1      -0.261  -1.011 -12.767  0.00  0.00     0.066 H 
ATOM     27  H   LIG d   1      -0.778  -2.450 -13.679  0.00  0.00     0.066 H 
ATOM     28  H   LIG d   1      -0.245  -2.612 -11.988  0.00  0.00     0.066 H 
ENDBRANCH  24  25
ENDBRANCH  17  24
BRANCH  19  29
ATOM     29  O   LIG d   1       3.551  -1.720 -14.778  0.00  0.00    -0.491 OA
BRANCH  29  30
ATOM     30  C   LIG d   1       4.878  -2.118 -15.135  0.00  0.00     0.079 C 
ATOM     31  H   LIG d   1       5.246  -2.845 -14.411  0.00  0.00     0.066 H 
ATOM     32  H   LIG d   1       4.866  -2.567 -16.128  0.00  0.00     0.066 H 
ATOM     33  H   LIG d   1       5.530  -1.245 -15.139  0.00  0.00     0.066 H 
ENDBRANCH  29  30
ENDBRANCH  19  29
ENDBRANCH  10  15
BRANCH   1  34
ATOM     34  C   LIG d   1       3.855   0.106  -4.071  0.00  0.00    -0.039 C 
ATOM     35  H   LIG d   1       4.457   0.983  -4.303  0.00  0.00     0.028 H 
ATOM     36  H   LIG d   1       2.798   0.359  -4.148  0.00  0.00     0.028 H 
ATOM     37  H   LIG d   1       4.076  -0.230  -3.057  0.00  0.00     0.028 H 
ENDBRANCH   1  34
BRANCH   3  38
ATOM     38  O   LIG d   1       5.615  -4.326  -5.048  0.00  0.00    -0.411 OA
BRANCH  38  39
ATOM     39  C   LIG d   1       4.996  -5.480  -5.365  0.00  0.00     0.408 C 
ATOM     40  O   LIG d   1       3.860  -5.684  -4.984  0.00  0.00    -0.226 OA
ATOM     41  N   LIG d   1       5.636  -6.408  -6.103  0.00  0.00    -0.273 N 
BRANCH  41  42
ATOM     42  C   LIG d   1       4.963  -7.663  -6.447  0.00  0.00     0.006 C 
ATOM     43  H   LIG d   1       4.079  -7.447  -7.047  0.00  0.00     0.043 H 
ATOM     44  H   LIG d   1       5.643  -8.296  -7.017  0.00  0.00     0.043 H 
ATOM     45  H   LIG d   1       4.665  -8.178  -5.534  0.00  0.00     0.043 H 
ENDBRANCH  41  42
BRANCH  41  46
ATOM     46  C   LIG d   1       7.006  -6.161  -6.562  0.00  0.00     0.006 C 
ATOM     47  H   LIG d   1       7.594  -5.747  -5.742  0.00  0.00     0.043 H 
ATOM     48  H   LIG d   1       7.453  -7.099  -6.892  0.00  0.00     0.043 H 
ATOM     49  H   LIG d   1       6.990  -5.454  -7.391  0.00  0.00     0.043 H 
ENDBRANCH  41  46
ENDBRANCH  38  39
ENDBRANCH   3  38
TORSDOF 10
ENDMDL
MODEL 5
REMARK VINA RESULT:      -5.4      4.084      5.902
REMARK  10 active torsions:
REMARK  status: ('A' for Active; 'I' for Inactive)
REMARK    1  A    between atoms: C_1  and  C_2 
REMARK    2  A    between atoms: C_4  and  O_23 
REMARK    3  A    between atoms: C_11  and  C_12 
REMARK    4  A    between atoms: C_15  and  O_20 
REMARK    5  A    between atoms: C_16  and  O_18 
REMARK    6  A    between atoms: O_18  and  C_19 
REMARK    7  A    between atoms: O_20  and  C_21 
REMARK    8  A    between atoms: O_23  and  C_24 
REMARK       I    between atoms: C_24  and  N_26 
REMARK    9  A    between atoms: N_26  and  C_27 
REMARK   10  A    between atoms: N_26  and  C_28 
ROOT
ATOM      1  C   LIG d   1       4.722  -1.839  -3.313  0.00  0.00    -0.033 A 
ATOM      2  C   LIG d   1       4.681  -3.049  -3.947  0.00  0.00    -0.015 A 
ATOM      3  C   LIG d   1       5.635  -3.364  -4.912  0.00  0.00     0.137 A 
ATOM      4  C   LIG d   1       6.634  -2.461  -5.237  0.00  0.00     0.024 A 
ATOM      5  C   LIG d   1       6.689  -1.228  -4.601  0.00  0.00     0.143 A 
ATOM      6  C   LIG d   1       5.722  -0.920  -3.632  0.00  0.00     0.071 A 
ATOM      7  C   LIG d   1       6.038   0.436  -3.144  0.00  0.00     0.232 A 
ATOM      8  O   LIG d   1       5.446   1.081  -2.297  0.00  0.00    -0.283 OA
ATOM      9  C   LIG d   1       7.229   0.833  -3.908  0.00  0.00     0.176 A 
ATOM     10  C   LIG d   1       7.892   2.014  -3.804  0.00  0.00    -0.008 C 
ATOM     11  O   LIG d   1       7.545  -0.191  -4.736  0.00  0.00    -0.451 OA
ATOM     12  H   LIG d   1       3.908  -3.761  -3.701  0.00  0.00     0.066 H 
ATOM     13  H   LIG d   1       7.367  -2.715  -5.989  0.00  0.00     0.069 H 
ATOM     14  H   LIG d   1       7.495   2.803  -3.183  0.00  0.00     0.066 H 
ENDROOT
BRANCH  10  15
ATOM     15  C   LIG d   1       9.148   2.217  -4.535  0.00  0.00    -0.018 A 
ATOM     16  C   LIG d   1       9.125   2.695  -5.852  0.00  0.00    -0.009 A 
ATOM     17  C   LIG d   1      10.310   2.884  -6.535  0.00  0.00     0.162 A 
ATOM     18  H   LIG d   1       8.183   2.914  -6.331  0.00  0.00     0.066 H 
ATOM     19  C   LIG d   1      11.526   2.602  -5.913  0.00  0.00     0.162 A 
ATOM     20  C   LIG d   1      11.551   2.129  -4.607  0.00  0.00    -0.016 A 
ATOM     21  C   LIG d   1      10.375   1.940  -3.916  0.00  0.00    -0.051 A 
ATOM     22  H   LIG d   1      12.496   1.912  -4.130  0.00  0.00     0.066 H 
ATOM     23  H   LIG d   1      10.396   1.577  -2.900  0.00  0.00     0.062 H 
BRANCH  17  24
ATOM     24  O   LIG d   1      10.291   3.348  -7.812  0.00  0.00    -0.491 OA
BRANCH  24  25
ATOM     25  C   LIG d   1       9.638   4.598  -8.040  0.00  0.00     0.079 C 
ATOM     26  H   LIG d   1      10.385   5.383  -8.157  0.00  0.00     0.066 H 
ATOM     27  H   LIG d   1       9.034   4.533  -8.945  0.00  0.00     0.066 H 
ATOM     28  H   LIG d   1       8.995   4.832  -7.190  0.00  0.00     0.066 H 
ENDBRANCH  24  25
ENDBRANCH  17  24
BRANCH  19  29
ATOM     29  O   LIG d   1      12.690   2.790  -6.587  0.00  0.00    -0.491 OA
BRANCH  29  30
ATOM     30  C   LIG d   1      13.430   1.620  -6.943  0.00  0.00     0.079 C 
ATOM     31  H   LIG d   1      13.504   0.960  -6.079  0.00  0.00     0.066 H 
ATOM     32  H   LIG d   1      12.920   1.101  -7.755  0.00  0.00     0.066 H 
ATOM     33  H   LIG d   1      14.430   1.908  -7.268  0.00  0.00     0.066 H 
ENDBRANCH  29  30
ENDBRANCH  19  29
ENDBRANCH  10  15
BRANCH   1  34
ATOM     34  C   LIG d   1       3.688  -1.499  -2.271  0.00  0.00    -0.039 C 
ATOM     35  H   LIG d   1       4.077  -0.722  -1.613  0.00  0.00     0.028 H 
ATOM     36  H   LIG d   1       2.783  -1.140  -2.760  0.00  0.00     0.028 H 
ATOM     37  H   LIG d   1       3.456  -2.389  -1.685  0.00  0.00     0.028 H 
ENDBRANCH   1  34
BRANCH   3  38
ATOM     38  O   LIG d   1       5.586  -4.569  -5.537  0.00  0.00    -0.411 OA
BRANCH  38  39
ATOM     39  C   LIG d   1       4.524  -4.804  -6.330  0.00  0.00     0.408 C 
ATOM     40  O   LIG d   1       3.485  -5.214  -5.849  0.00  0.00    -0.226 OA
ATOM     41  N   LIG d   1       4.611  -4.587  -7.657  0.00  0.00    -0.273 N 
BRANCH  41  42
ATOM     42  C   LIG d   1       3.456  -4.842  -8.520  0.00  0.00     0.006 C 
ATOM     43  H   LIG d   1       2.947  -3.902  -8.733  0.00  0.00     0.043 H 
ATOM     44  H   LIG d   1       3.792  -5.294  -9.454  0.00  0.00     0.043 H 
ATOM     45  H   LIG d   1       2.768  -5.521  -8.015  0.00  0.00     0.043 H 
ENDBRANCH  41  42
BRANCH  41  46
ATOM     46  C   LIG d   1       5.864  -4.093  -8.236  0.00  0.00     0.006 C 
ATOM     47  H   LIG d   1       6.423  -4.929  -8.658  0.00  0.00     0.043 H 
ATOM     48  H   LIG d   1       5.641  -3.372  -9.024  0.00  0.00     0.043 H 
ATOM     49  H   LIG d   1       6.459  -3.612  -7.461  0.00  0.00     0.043 H 
ENDBRANCH  41  46
ENDBRANCH  38  39
ENDBRANCH   3  38
TORSDOF 10
ENDMDL
MODEL 6
REMARK VINA RESULT:      -5.3      1.757      2.320
REMARK  10 active torsions:
REMARK  status: ('A' for Active; 'I' for Inactive)
REMARK    1  A    between atoms: C_1  and  C_2 
REMARK    2  A    between atoms: C_4  and  O_23 
REMARK    3  A    between atoms: C_11  and  C_12 
REMARK    4  A    between atoms: C_15  and  O_20 
REMARK    5  A    between atoms: C_16  and  O_18 
REMARK    6  A    between atoms: O_18  and  C_19 
REMARK    7  A    between atoms: O_20  and  C_21 
REMARK    8  A    between atoms: O_23  and  C_24 
REMARK       I    between atoms: C_24  and  N_26 
REMARK    9  A    between atoms: N_26  and  C_27 
REMARK   10  A    between atoms: N_26  and  C_28 
ROOT
ATOM      1  C   LIG d   1       9.434   0.111  -4.944  0.00  0.00    -0.033 A 
ATOM      2  C   LIG d   1       8.115  -0.212  -5.098  0.00  0.00    -0.015 A 
ATOM      3  C   LIG d   1       7.127   0.619  -4.578  0.00  0.00     0.137 A 
ATOM      4  C   LIG d   1       7.466   1.781  -3.903  0.00  0.00     0.024 A 
ATOM      5  C   LIG d   1       8.802   2.123  -3.738  0.00  0.00     0.143 A 
ATOM      6  C   LIG d   1       9.790   1.276  -4.265  0.00  0.00     0.071 A 
ATOM      7  C   LIG d   1      11.088   1.895  -3.936  0.00  0.00     0.232 A 
ATOM      8  O   LIG d   1      12.202   1.484  -4.211  0.00  0.00    -0.283 OA
ATOM      9  C   LIG d   1      10.736   3.120  -3.204  0.00  0.00     0.176 A 
ATOM     10  C   LIG d   1      11.608   4.027  -2.693  0.00  0.00    -0.008 C 
ATOM     11  O   LIG d   1       9.385   3.179  -3.131  0.00  0.00    -0.451 OA
ATOM     12  H   LIG d   1       7.839  -1.115  -5.624  0.00  0.00     0.066 H 
ATOM     13  H   LIG d   1       6.692   2.417  -3.500  0.00  0.00     0.069 H 
ATOM     14  H   LIG d   1      12.669   3.831  -2.721  0.00  0.00     0.066 H 
ENDROOT
BRANCH  10  15
ATOM     15  C   LIG d   1      11.107   5.274  -2.103  0.00  0.00    -0.018 A 
ATOM     16  C   LIG d   1      10.807   6.369  -2.923  0.00  0.00    -0.009 A 
ATOM     17  C   LIG d   1      10.336   7.539  -2.362  0.00  0.00     0.162 A 
ATOM     18  H   LIG d   1      10.944   6.298  -3.992  0.00  0.00     0.066 H 
ATOM     19  C   LIG d   1      10.159   7.628  -0.982  0.00  0.00     0.162 A 
ATOM     20  C   LIG d   1      10.455   6.544  -0.167  0.00  0.00    -0.016 A 
ATOM     21  C   LIG d   1      10.922   5.371  -0.717  0.00  0.00    -0.051 A 
ATOM     22  H   LIG d   1      10.316   6.619   0.902  0.00  0.00     0.066 H 
ATOM     23  H   LIG d   1      11.148   4.528  -0.082  0.00  0.00     0.062 H 
BRANCH  17  24
ATOM     24  O   LIG d   1      10.043   8.603  -3.156  0.00  0.00    -0.491 OA
BRANCH  24  25
ATOM     25  C   LIG d   1      10.032   8.378  -4.566  0.00  0.00     0.079 C 
ATOM     26  H   LIG d   1       9.134   7.823  -4.839  0.00  0.00     0.066 H 
ATOM     27  H   LIG d   1      10.040   9.335  -5.088  0.00  0.00     0.066 H 
ATOM     28  H   LIG d   1      10.914   7.802  -4.850  0.00  0.00     0.066 H 
ENDBRANCH  24  25
ENDBRANCH  17  24
BRANCH  19  29
ATOM     29  O   LIG d   1       9.694   8.781  -0.433  0.00  0.00    -0.491 OA
BRANCH  29  30
ATOM     30  C   LIG d   1      10.637   9.588   0.277  0.00  0.00     0.079 C 
ATOM     31  H   LIG d   1      10.193   9.926   1.213  0.00  0.00     0.066 H 
ATOM     32  H   LIG d   1      11.530   9.000   0.489  0.00  0.00     0.066 H 
ATOM     33  H   LIG d   1      10.906  10.451  -0.331  0.00  0.00     0.066 H 
ENDBRANCH  29  30
ENDBRANCH  19  29
ENDBRANCH  10  15
BRANCH   1  34
ATOM     34  C   LIG d   1      10.502  -0.792  -5.506  0.00  0.00    -0.039 C 
ATOM     35  H   LIG d   1      10.943  -1.379  -4.700  0.00  0.00     0.028 H 
ATOM     36  H   LIG d   1      10.061  -1.461  -6.244  0.00  0.00     0.028 H 
ATOM     37  H   LIG d   1      11.276  -0.187  -5.981  0.00  0.00     0.028 H 
ENDBRANCH   1  34
BRANCH   3  38
ATOM     38  O   LIG d   1       5.819   0.290  -4.736  0.00  0.00    -0.411 OA
BRANCH  38  39
ATOM     39  C   LIG d   1       5.259  -0.470  -3.776  0.00  0.00     0.408 C 
ATOM     40  O   LIG d   1       5.964  -1.086  -3.000  0.00  0.00    -0.226 OA
ATOM     41  N   LIG d   1       3.918  -0.550  -3.675  0.00  0.00    -0.273 N 
BRANCH  41  42
ATOM     42  C   LIG d   1       3.308  -1.375  -2.630  0.00  0.00     0.006 C 
ATOM     43  H   LIG d   1       3.731  -2.379  -2.668  0.00  0.00     0.043 H 
ATOM     44  H   LIG d   1       3.509  -0.934  -1.654  0.00  0.00     0.043 H 
ATOM     45  H   LIG d   1       2.231  -1.428  -2.790  0.00  0.00     0.043 H 
ENDBRANCH  41  42
BRANCH  41  46
ATOM     46  C   LIG d   1       3.068   0.193  -4.610  0.00  0.00     0.006 C 
ATOM     47  H   LIG d   1       3.023  -0.340  -5.560  0.00  0.00     0.043 H 
ATOM     48  H   LIG d   1       2.063   0.282  -4.197  0.00  0.00     0.043 H 
ATOM     49  H   LIG d   1       3.485   1.187  -4.771  0.00  0.00     0.043 H 
ENDBRANCH  41  46
ENDBRANCH  38  39
ENDBRANCH   3  38
TORSDOF 10
ENDMDL
MODEL 7
REMARK VINA RESULT:      -5.2      6.893      9.502
REMARK  10 active torsions:
REMARK  status: ('A' for Active; 'I' for Inactive)
REMARK    1  A    between atoms: C_1  and  C_2 
REMARK    2  A    between atoms: C_4  and  O_23 
REMARK    3  A    between atoms: C_11  and  C_12 
REMARK    4  A    between atoms: C_15  and  O_20 
REMARK    5  A    between atoms: C_16  and  O_18 
REMARK    6  A    between atoms: O_18  and  C_19 
REMARK    7  A    between atoms: O_20  and  C_21 
REMARK    8  A    between atoms: O_23  and  C_24 
REMARK       I    between atoms: C_24  and  N_26 
REMARK    9  A    between atoms: N_26  and  C_27 
REMARK   10  A    between atoms: N_26  and  C_28 
ROOT
ATOM      1  C   LIG d   1       3.435  -0.079  -4.203  0.00  0.00    -0.033 A 
ATOM      2  C   LIG d   1       2.711   0.307  -5.296  0.00  0.00    -0.015 A 
ATOM      3  C   LIG d   1       3.085  -0.117  -6.568  0.00  0.00     0.137 A 
ATOM      4  C   LIG d   1       4.190  -0.936  -6.741  0.00  0.00     0.024 A 
ATOM      5  C   LIG d   1       4.936  -1.337  -5.640  0.00  0.00     0.143 A 
ATOM      6  C   LIG d   1       4.551  -0.901  -4.363  0.00  0.00     0.071 A 
ATOM      7  C   LIG d   1       5.520  -1.482  -3.414  0.00  0.00     0.232 A 
ATOM      8  O   LIG d   1       5.548  -1.353  -2.203  0.00  0.00    -0.283 OA
ATOM      9  C   LIG d   1       6.444  -2.252  -4.259  0.00  0.00     0.176 A 
ATOM     10  C   LIG d   1       7.514  -2.970  -3.829  0.00  0.00    -0.008 C 
ATOM     11  O   LIG d   1       6.036  -2.117  -5.543  0.00  0.00    -0.451 OA
ATOM     12  H   LIG d   1       1.847   0.944  -5.172  0.00  0.00     0.066 H 
ATOM     13  H   LIG d   1       4.474  -1.257  -7.732  0.00  0.00     0.069 H 
ATOM     14  H   LIG d   1       7.810  -2.929  -2.792  0.00  0.00     0.066 H 
ENDROOT
BRANCH  10  15
ATOM     15  C   LIG d   1       8.268  -3.801  -4.775  0.00  0.00    -0.018 A 
ATOM     16  C   LIG d   1       7.860  -5.115  -5.037  0.00  0.00    -0.009 A 
ATOM     17  C   LIG d   1       8.573  -5.891  -5.929  0.00  0.00     0.162 A 
ATOM     18  H   LIG d   1       6.990  -5.520  -4.543  0.00  0.00     0.066 H 
ATOM     19  C   LIG d   1       9.697  -5.366  -6.567  0.00  0.00     0.162 A 
ATOM     20  C   LIG d   1      10.102  -4.063  -6.310  0.00  0.00    -0.016 A 
ATOM     21  C   LIG d   1       9.395  -3.279  -5.425  0.00  0.00    -0.051 A 
ATOM     22  H   LIG d   1      10.973  -3.661  -6.806  0.00  0.00     0.066 H 
ATOM     23  H   LIG d   1       9.710  -2.265  -5.229  0.00  0.00     0.062 H 
BRANCH  17  24
ATOM     24  O   LIG d   1       8.180  -7.167  -6.185  0.00  0.00    -0.491 OA
BRANCH  24  25
ATOM     25  C   LIG d   1       7.508  -7.863  -5.134  0.00  0.00     0.079 C 
ATOM     26  H   LIG d   1       6.797  -7.193  -4.650  0.00  0.00     0.066 H 
ATOM     27  H   LIG d   1       6.978  -8.721  -5.546  0.00  0.00     0.066 H 
ATOM     28  H   LIG d   1       8.239  -8.207  -4.400  0.00  0.00     0.066 H 
ENDBRANCH  24  25
ENDBRANCH  17  24
BRANCH  19  29
ATOM     29  O   LIG d   1      10.396  -6.131  -7.444  0.00  0.00    -0.491 OA
BRANCH  29  30
ATOM     30  C   LIG d   1      10.697  -5.551  -8.716  0.00  0.00     0.079 C 
ATOM     31  H   LIG d   1      10.548  -4.472  -8.667  0.00  0.00     0.066 H 
ATOM     32  H   LIG d   1      11.735  -5.764  -8.974  0.00  0.00     0.066 H 
ATOM     33  H   LIG d   1      10.040  -5.976  -9.473  0.00  0.00     0.066 H 
ENDBRANCH  29  30
ENDBRANCH  19  29
ENDBRANCH  10  15
BRANCH   1  34
ATOM     34  C   LIG d   1       3.029   0.384  -2.827  0.00  0.00    -0.039 C 
ATOM     35  H   LIG d   1       2.764  -0.479  -2.217  0.00  0.00     0.028 H 
ATOM     36  H   LIG d   1       3.859   0.915  -2.363  0.00  0.00     0.028 H 
ATOM     37  H   LIG d   1       2.170   1.050  -2.908  0.00  0.00     0.028 H 
ENDBRANCH   1  34
BRANCH   3  38
ATOM     38  O   LIG d   1       2.359   0.272  -7.647  0.00  0.00    -0.411 OA
BRANCH  38  39
ATOM     39  C   LIG d   1       2.975   1.064  -8.545  0.00  0.00     0.408 C 
ATOM     40  O   LIG d   1       3.344   2.176  -8.221  0.00  0.00    -0.226 OA
ATOM     41  N   LIG d   1       3.181   0.626  -9.802  0.00  0.00    -0.273 N 
BRANCH  41  42
ATOM     42  C   LIG d   1       3.851   1.488 -10.779  0.00  0.00     0.006 C 
ATOM     43  H   LIG d   1       4.095   0.907 -11.668  0.00  0.00     0.043 H 
ATOM     44  H   LIG d   1       3.190   2.311 -11.052  0.00  0.00     0.043 H 
ATOM     45  H   LIG d   1       4.767   1.887 -10.343  0.00  0.00     0.043 H 
ENDBRANCH  41  42
BRANCH  41  46
ATOM     46  C   LIG d   1       2.735  -0.715 -10.192  0.00  0.00     0.006 C 
ATOM     47  H   LIG d   1       3.435  -1.456  -9.806  0.00  0.00     0.043 H 
ATOM     48  H   LIG d   1       1.744  -0.903  -9.780  0.00  0.00     0.043 H 
ATOM     49  H   LIG d   1       2.696  -0.784 -11.279  0.00  0.00     0.043 H 
ENDBRANCH  41  46
ENDBRANCH  38  39
ENDBRANCH   3  38
TORSDOF 10
ENDMDL
MODEL 8
REMARK VINA RESULT:      -5.2      7.430     10.670
REMARK  10 active torsions:
REMARK  status: ('A' for Active; 'I' for Inactive)
REMARK    1  A    between atoms: C_1  and  C_2 
REMARK    2  A    between atoms: C_4  and  O_23 
REMARK    3  A    between atoms: C_11  and  C_12 
REMARK    4  A    between atoms: C_15  and  O_20 
REMARK    5  A    between atoms: C_16  and  O_18 
REMARK    6  A    between atoms: O_18  and  C_19 
REMARK    7  A    between atoms: O_20  and  C_21 
REMARK    8  A    between atoms: O_23  and  C_24 
REMARK       I    between atoms: C_24  and  N_26 
REMARK    9  A    between atoms: N_26  and  C_27 
REMARK   10  A    between atoms: N_26  and  C_28 
ROOT
ATOM      1  C   LIG d   1      12.264  -6.536  -2.983  0.00  0.00    -0.033 A 
ATOM      2  C   LIG d   1      12.136  -7.579  -2.109  0.00  0.00    -0.015 A 
ATOM      3  C   LIG d   1      10.927  -7.796  -1.453  0.00  0.00     0.137 A 
ATOM      4  C   LIG d   1       9.842  -6.963  -1.680  0.00  0.00     0.024 A 
ATOM      5  C   LIG d   1       9.957  -5.900  -2.566  0.00  0.00     0.143 A 
ATOM      6  C   LIG d   1      11.181  -5.690  -3.220  0.00  0.00     0.071 A 
ATOM      7  C   LIG d   1      10.996  -4.507  -4.082  0.00  0.00     0.232 A 
ATOM      8  O   LIG d   1      11.813  -3.986  -4.820  0.00  0.00    -0.283 OA
ATOM      9  C   LIG d   1       9.603  -4.098  -3.850  0.00  0.00     0.176 A 
ATOM     10  C   LIG d   1       8.969  -3.046  -4.430  0.00  0.00    -0.008 C 
ATOM     11  O   LIG d   1       9.067  -4.960  -2.955  0.00  0.00    -0.451 OA
ATOM     12  H   LIG d   1      12.974  -8.234  -1.925  0.00  0.00     0.066 H 
ATOM     13  H   LIG d   1       8.910  -7.138  -1.164  0.00  0.00     0.069 H 
ATOM     14  H   LIG d   1       9.521  -2.361  -5.056  0.00  0.00     0.066 H 
ENDROOT
BRANCH  10  15
ATOM     15  C   LIG d   1       7.533  -2.840  -4.205  0.00  0.00    -0.018 A 
ATOM     16  C   LIG d   1       6.596  -3.649  -4.861  0.00  0.00    -0.009 A 
ATOM     17  C   LIG d   1       5.247  -3.451  -4.644  0.00  0.00     0.162 A 
ATOM     18  H   LIG d   1       6.928  -4.425  -5.534  0.00  0.00     0.066 H 
ATOM     19  C   LIG d   1       4.820  -2.448  -3.773  0.00  0.00     0.162 A 
ATOM     20  C   LIG d   1       5.748  -1.646  -3.121  0.00  0.00    -0.016 A 
ATOM     21  C   LIG d   1       7.096  -1.839  -3.328  0.00  0.00    -0.051 A 
ATOM     22  H   LIG d   1       5.412  -0.871  -2.448  0.00  0.00     0.066 H 
ATOM     23  H   LIG d   1       7.816  -1.217  -2.817  0.00  0.00     0.062 H 
BRANCH  17  24
ATOM     24  O   LIG d   1       4.335  -4.233  -5.279  0.00  0.00    -0.491 OA
BRANCH  24  25
ATOM     25  C   LIG d   1       4.352  -4.223  -6.707  0.00  0.00     0.079 C 
ATOM     26  H   LIG d   1       4.857  -5.117  -7.072  0.00  0.00     0.066 H 
ATOM     27  H   LIG d   1       3.329  -4.204  -7.083  0.00  0.00     0.066 H 
ATOM     28  H   LIG d   1       4.884  -3.337  -7.058  0.00  0.00     0.066 H 
ENDBRANCH  24  25
ENDBRANCH  17  24
BRANCH  19  29
ATOM     29  O   LIG d   1       3.493  -2.256  -3.562  0.00  0.00    -0.491 OA
BRANCH  29  30
ATOM     30  C   LIG d   1       3.108  -1.046  -2.904  0.00  0.00     0.079 C 
ATOM     31  H   LIG d   1       2.862  -1.260  -1.864  0.00  0.00     0.066 H 
ATOM     32  H   LIG d   1       3.933  -0.334  -2.943  0.00  0.00     0.066 H 
ATOM     33  H   LIG d   1       2.239  -0.621  -3.405  0.00  0.00     0.066 H 
ENDBRANCH  29  30
ENDBRANCH  19  29
ENDBRANCH  10  15
BRANCH   1  34
ATOM     34  C   LIG d   1      13.575  -6.302  -3.690  0.00  0.00    -0.039 C 
ATOM     35  H   LIG d   1      14.398  -6.500  -3.003  0.00  0.00     0.028 H 
ATOM     36  H   LIG d   1      13.649  -6.969  -4.548  0.00  0.00     0.028 H 
ATOM     37  H   LIG d   1      13.625  -5.267  -4.029  0.00  0.00     0.028 H 
ENDBRANCH   1  34
BRANCH   3  38
ATOM     38  O   LIG d   1      10.809  -8.833  -0.586  0.00  0.00    -0.411 OA
BRANCH  38  39
ATOM     39  C   LIG d   1      11.504  -8.752   0.565  0.00  0.00     0.408 C 
ATOM     40  O   LIG d   1      11.265  -7.861   1.357  0.00  0.00    -0.226 OA
ATOM     41  N   LIG d   1      12.465  -9.655   0.838  0.00  0.00    -0.273 N 
BRANCH  41  42
ATOM     42  C   LIG d   1      13.221  -9.567   2.089  0.00  0.00     0.006 C 
ATOM     43  H   LIG d   1      12.598  -9.910   2.915  0.00  0.00     0.043 H 
ATOM     44  H   LIG d   1      14.112 -10.192   2.021  0.00  0.00     0.043 H 
ATOM     45  H   LIG d   1      13.516  -8.532   2.263  0.00  0.00     0.043 H 
ENDBRANCH  41  42
BRANCH  41  46
ATOM     46  C   LIG d   1      12.754 -10.729  -0.118  0.00  0.00     0.006 C 
ATOM     47  H   LIG d   1      12.070 -11.560   0.054  0.00  0.00     0.043 H 
ATOM     48  H   LIG d   1      12.623 -10.356  -1.134  0.00  0.00     0.043 H 
ATOM     49  H   LIG d   1      13.780 -11.069   0.016  0.00  0.00     0.043 H 
ENDBRANCH  41  46
ENDBRANCH  38  39
ENDBRANCH   3  38
TORSDOF 10
ENDMDL
MODEL 9
REMARK VINA RESULT:      -5.2      6.676      9.132
REMARK  10 active torsions:
REMARK  status: ('A' for Active; 'I' for Inactive)
REMARK    1  A    between atoms: C_1  and  C_2 
REMARK    2  A    between atoms: C_4  and  O_23 
REMARK    3  A    between atoms: C_11  and  C_12 
REMARK    4  A    between atoms: C_15  and  O_20 
REMARK    5  A    between atoms: C_16  and  O_18 
REMARK    6  A    between atoms: O_18  and  C_19 
REMARK    7  A    between atoms: O_20  and  C_21 
REMARK    8  A    between atoms: O_23  and  C_24 
REMARK       I    between atoms: C_24  and  N_26 
REMARK    9  A    between atoms: N_26  and  C_27 
REMARK   10  A    between atoms: N_26  and  C_28 
ROOT
ATOM      1  C   LIG d   1      10.322  -6.949  -4.193  0.00  0.00    -0.033 A 
ATOM      2  C   LIG d   1      10.783  -7.460  -3.012  0.00  0.00    -0.015 A 
ATOM      3  C   LIG d   1      10.532  -6.791  -1.817  0.00  0.00     0.137 A 
ATOM      4  C   LIG d   1       9.813  -5.606  -1.809  0.00  0.00     0.024 A 
ATOM      5  C   LIG d   1       9.338  -5.075  -3.001  0.00  0.00     0.143 A 
ATOM      6  C   LIG d   1       9.598  -5.757  -4.200  0.00  0.00     0.071 A 
ATOM      7  C   LIG d   1       8.977  -4.961  -5.276  0.00  0.00     0.232 A 
ATOM      8  O   LIG d   1       8.968  -5.198  -6.470  0.00  0.00    -0.283 OA
ATOM      9  C   LIG d   1       8.370  -3.816  -4.581  0.00  0.00     0.176 A 
ATOM     10  C   LIG d   1       7.679  -2.800  -5.162  0.00  0.00    -0.008 C 
ATOM     11  O   LIG d   1       8.625  -3.956  -3.259  0.00  0.00    -0.451 OA
ATOM     12  H   LIG d   1      11.343  -8.383  -3.006  0.00  0.00     0.066 H 
ATOM     13  H   LIG d   1       9.626  -5.094  -0.877  0.00  0.00     0.069 H 
ATOM     14  H   LIG d   1       7.620  -2.733  -6.238  0.00  0.00     0.066 H 
ENDROOT
BRANCH  10  15
ATOM     15  C   LIG d   1       7.014  -1.794  -4.326  0.00  0.00    -0.018 A 
ATOM     16  C   LIG d   1       7.503  -0.483  -4.280  0.00  0.00    -0.009 A 
ATOM     17  C   LIG d   1       6.872   0.459  -3.493  0.00  0.00     0.162 A 
ATOM     18  H   LIG d   1       8.372  -0.210  -4.861  0.00  0.00     0.066 H 
ATOM     19  C   LIG d   1       5.749   0.104  -2.746  0.00  0.00     0.162 A 
ATOM     20  C   LIG d   1       5.262  -1.195  -2.790  0.00  0.00    -0.016 A 
ATOM     21  C   LIG d   1       5.882  -2.141  -3.576  0.00  0.00    -0.051 A 
ATOM     22  H   LIG d   1       4.392  -1.465  -2.209  0.00  0.00     0.066 H 
ATOM     23  H   LIG d   1       5.499  -3.150  -3.612  0.00  0.00     0.062 H 
BRANCH  17  24
ATOM     24  O   LIG d   1       7.345   1.733  -3.447  0.00  0.00    -0.491 OA
BRANCH  24  25
ATOM     25  C   LIG d   1       8.715   1.930  -3.799  0.00  0.00     0.079 C 
ATOM     26  H   LIG d   1       9.070   1.075  -4.374  0.00  0.00     0.066 H 
ATOM     27  H   LIG d   1       8.810   2.836  -4.397  0.00  0.00     0.066 H 
ATOM     28  H   LIG d   1       9.313   2.031  -2.891  0.00  0.00     0.066 H 
ENDBRANCH  24  25
ENDBRANCH  17  24
BRANCH  19  29
ATOM     29  O   LIG d   1       5.131   1.033  -1.972  0.00  0.00    -0.491 OA
BRANCH  29  30
ATOM     30  C   LIG d   1       3.791   1.385  -2.327  0.00  0.00     0.079 C 
ATOM     31  H   LIG d   1       3.501   0.846  -3.229  0.00  0.00     0.066 H 
ATOM     32  H   LIG d   1       3.118   1.120  -1.512  0.00  0.00     0.066 H 
ATOM     33  H   LIG d   1       3.734   2.458  -2.510  0.00  0.00     0.066 H 
ENDBRANCH  29  30
ENDBRANCH  19  29
ENDBRANCH  10  15
BRANCH   1  34
ATOM     34  C   LIG d   1      10.597  -7.674  -5.486  0.00  0.00    -0.039 C 
ATOM     35  H   LIG d   1      10.948  -8.682  -5.269  0.00  0.00     0.028 H 
ATOM     36  H   LIG d   1       9.682  -7.726  -6.075  0.00  0.00     0.028 H 
ATOM     37  H   LIG d   1      11.361  -7.135  -6.048  0.00  0.00     0.028 H 
ENDBRANCH   1  34
BRANCH   3  38
ATOM     38  O   LIG d   1      10.994  -7.306  -0.649  0.00  0.00    -0.411 OA
BRANCH  38  39
ATOM     39  C   LIG d   1      12.081  -8.098  -0.716  0.00  0.00     0.408 C 
ATOM     40  O   LIG d   1      13.165  -7.618  -0.983  0.00  0.00    -0.226 OA
ATOM     41  N   LIG d   1      11.968  -9.421  -0.488  0.00  0.00    -0.273 N 
BRANCH  41  42
ATOM     42  C   LIG d   1      13.150 -10.282  -0.561  0.00  0.00     0.006 C 
ATOM     43  H   LIG d   1      13.546 -10.440   0.442  0.00  0.00     0.043 H 
ATOM     44  H   LIG d   1      12.876 -11.241  -0.999  0.00  0.00     0.043 H 
ATOM     45  H   LIG d   1      13.910  -9.804  -1.179  0.00  0.00     0.043 H 
ENDBRANCH  41  42
BRANCH  41  46
ATOM     46  C   LIG d   1      10.660  -9.998  -0.165  0.00  0.00     0.006 C 
ATOM     47  H   LIG d   1      10.561 -10.969  -0.653  0.00  0.00     0.043 H 
ATOM     48  H   LIG d   1      10.574 -10.125   0.914  0.00  0.00     0.043 H 
ATOM     49  H   LIG d   1       9.871  -9.334  -0.517  0.00  0.00     0.043 H 
ENDBRANCH  41  46
ENDBRANCH  38  39
ENDBRANCH   3  38
TORSDOF 10
ENDMDL
MODEL 10
REMARK VINA RESULT:      -5.2      3.935      5.735
REMARK  10 active torsions:
REMARK  status: ('A' for Active; 'I' for Inactive)
REMARK    1  A    between atoms: C_1  and  C_2 
REMARK    2  A    between atoms: C_4  and  O_23 
REMARK    3  A    between atoms: C_11  and  C_12 
REMARK    4  A    between atoms: C_15  and  O_20 
REMARK    5  A    between atoms: C_16  and  O_18 
REMARK    6  A    between atoms: O_18  and  C_19 
REMARK    7  A    between atoms: O_20  and  C_21 
REMARK    8  A    between atoms: O_23  and  C_24 
REMARK       I    between atoms: C_24  and  N_26 
REMARK    9  A    between atoms: N_26  and  C_27 
REMARK   10  A    between atoms: N_26  and  C_28 
ROOT
ATOM      1  C   LIG d   1       4.978  -1.689  -3.303  0.00  0.00    -0.033 A 
ATOM      2  C   LIG d   1       5.030  -2.925  -3.884  0.00  0.00    -0.015 A 
ATOM      3  C   LIG d   1       6.058  -3.239  -4.767  0.00  0.00     0.137 A 
ATOM      4  C   LIG d   1       7.040  -2.307  -5.067  0.00  0.00     0.024 A 
ATOM      5  C   LIG d   1       7.001  -1.047  -4.485  0.00  0.00     0.143 A 
ATOM      6  C   LIG d   1       5.958  -0.741  -3.597  0.00  0.00     0.071 A 
ATOM      7  C   LIG d   1       6.184   0.647  -3.151  0.00  0.00     0.232 A 
ATOM      8  O   LIG d   1       5.510   1.301  -2.375  0.00  0.00    -0.283 OA
ATOM      9  C   LIG d   1       7.407   1.063  -3.852  0.00  0.00     0.176 A 
ATOM     10  C   LIG d   1       8.013   2.275  -3.757  0.00  0.00    -0.008 C 
ATOM     11  O   LIG d   1       7.821   0.020  -4.609  0.00  0.00    -0.451 OA
ATOM     12  H   LIG d   1       4.271  -3.660  -3.657  0.00  0.00     0.066 H 
ATOM     13  H   LIG d   1       7.832  -2.560  -5.756  0.00  0.00     0.069 H 
ATOM     14  H   LIG d   1       7.543   3.072  -3.200  0.00  0.00     0.066 H 
ENDROOT
BRANCH  10  15
ATOM     15  C   LIG d   1       9.306   2.502  -4.412  0.00  0.00    -0.018 A 
ATOM     16  C   LIG d   1      10.496   2.161  -3.756  0.00  0.00    -0.009 A 
ATOM     17  C   LIG d   1      11.710   2.376  -4.378  0.00  0.00     0.162 A 
ATOM     18  H   LIG d   1      10.463   1.729  -2.767  0.00  0.00     0.066 H 
ATOM     19  C   LIG d   1      11.749   2.932  -5.656  0.00  0.00     0.162 A 
ATOM     20  C   LIG d   1      10.571   3.271  -6.308  0.00  0.00    -0.016 A 
ATOM     21  C   LIG d   1       9.355   3.056  -5.698  0.00  0.00    -0.051 A 
ATOM     22  H   LIG d   1      10.607   3.701  -7.299  0.00  0.00     0.066 H 
ATOM     23  H   LIG d   1       8.440   3.316  -6.209  0.00  0.00     0.062 H 
BRANCH  17  24
ATOM     24  O   LIG d   1      12.866   2.045  -3.744  0.00  0.00    -0.491 OA
BRANCH  24  25
ATOM     25  C   LIG d   1      13.197   0.657  -3.681  0.00  0.00     0.079 C 
ATOM     26  H   LIG d   1      13.969   0.433  -4.418  0.00  0.00     0.066 H 
ATOM     27  H   LIG d   1      13.566   0.416  -2.684  0.00  0.00     0.066 H 
ATOM     28  H   LIG d   1      12.308   0.061  -3.893  0.00  0.00     0.066 H 
ENDBRANCH  24  25
ENDBRANCH  17  24
BRANCH  19  29
ATOM     29  O   LIG d   1      12.945   3.142  -6.266  0.00  0.00    -0.491 OA
BRANCH  29  30
ATOM     30  C   LIG d   1      13.414   4.491  -6.327  0.00  0.00     0.079 C 
ATOM     31  H   LIG d   1      14.118   4.594  -7.153  0.00  0.00     0.066 H 
ATOM     32  H   LIG d   1      12.569   5.162  -6.483  0.00  0.00     0.066 H 
ATOM     33  H   LIG d   1      13.911   4.745  -5.391  0.00  0.00     0.066 H 
ENDBRANCH  29  30
ENDBRANCH  19  29
ENDBRANCH  10  15
BRANCH   1  34
ATOM     34  C   LIG d   1       3.861  -1.350  -2.348  0.00  0.00    -0.039 C 
ATOM     35  H   LIG d   1       4.277  -0.885  -1.455  0.00  0.00     0.028 H 
ATOM     36  H   LIG d   1       3.169  -0.661  -2.829  0.00  0.00     0.028 H 
ATOM     37  H   LIG d   1       3.332  -2.263  -2.071  0.00  0.00     0.028 H 
ENDBRANCH   1  34
BRANCH   3  38
ATOM     38  O   LIG d   1       6.102  -4.470  -5.339  0.00  0.00    -0.411 OA
BRANCH  38  39
ATOM     39  C   LIG d   1       5.352  -4.660  -6.442  0.00  0.00     0.408 C 
ATOM     40  O   LIG d   1       5.206  -3.754  -7.239  0.00  0.00    -0.226 OA
ATOM     41  N   LIG d   1       4.765  -5.852  -6.662  0.00  0.00    -0.273 N 
BRANCH  41  42
ATOM     42  C   LIG d   1       3.950  -6.058  -7.861  0.00  0.00     0.006 C 
ATOM     43  H   LIG d   1       2.958  -6.403  -7.572  0.00  0.00     0.043 H 
ATOM     44  H   LIG d   1       3.864  -5.119  -8.408  0.00  0.00     0.043 H 
ATOM     45  H   LIG d   1       4.423  -6.806  -8.498  0.00  0.00     0.043 H 
ENDBRANCH  41  42
BRANCH  41  46
ATOM     46  C   LIG d   1       4.942  -6.944  -5.700  0.00  0.00     0.006 C 
ATOM     47  H   LIG d   1       4.073  -6.994  -5.044  0.00  0.00     0.043 H 
ATOM     48  H   LIG d   1       5.046  -7.887  -6.236  0.00  0.00     0.043 H 
ATOM     49  H   LIG d   1       5.837  -6.763  -5.105  0.00  0.00     0.043 H 
ENDBRANCH  41  46
ENDBRANCH  38  39
ENDBRANCH   3  38
TORSDOF 10
ENDMDL
