MODEL 1
REMARK VINA RESULT:      -6.8      0.000      0.000
REMARK  8 active torsions:
REMARK  status: ('A' for Active; 'I' for Inactive)
REMARK    1  A    between atoms: C_1  and  O_2 
REMARK    2  A    between atoms: O_2  and  C_3 
REMARK    3  A    between atoms: C_6  and  C_11 
REMARK    4  A    between atoms: C_8  and  O_9 
REMARK    5  A    between atoms: O_9  and  C_10 
REMARK    6  A    between atoms: C_12  and  O_17 
REMARK    7  A    between atoms: O_17  and  C_18 
REMARK    8  A    between atoms: C_18  and  C_20 
ROOT
ATOM      1  C   LIG d   1       4.152  -0.298  -8.658  0.00  0.00     0.113 A 
ATOM      2  C   LIG d   1       3.224   0.430  -7.905  0.00  0.00     0.158 A 
ATOM      3  C   LIG d   1       2.869   1.705  -8.324  0.00  0.00    -0.016 A 
ATOM      4  C   LIG d   1       3.451   2.208  -9.479  0.00  0.00    -0.040 A 
ATOM      5  C   LIG d   1       4.360   1.432 -10.173  0.00  0.00     0.029 A 
ATOM      6  N   LIG d   1       4.686   0.227  -9.753  0.00  0.00    -0.251 NA
ATOM      7  H   LIG d   1       2.155   2.292  -7.765  0.00  0.00     0.066 H 
ATOM      8  H   LIG d   1       3.195   3.196  -9.832  0.00  0.00     0.063 H 
ATOM      9  H   LIG d   1       4.814   1.823 -11.073  0.00  0.00     0.083 H 
ENDROOT
BRANCH   2  10
ATOM     10  O   LIG d   1       2.679  -0.104  -6.780  0.00  0.00    -0.423 OA
BRANCH  10  11
ATOM     11  C   LIG d   1       2.928   0.504  -5.610  0.00  0.00     0.319 C 
ATOM     12  O   LIG d   1       2.508   1.618  -5.406  0.00  0.00    -0.250 OA
BRANCH  11  13
ATOM     13  C   LIG d   1       3.733  -0.203  -4.550  0.00  0.00     0.069 C 
ATOM     14  C   LIG d   1       3.594  -1.716  -4.728  0.00  0.00    -0.034 C 
ATOM     15  C   LIG d   1       4.412  -2.434  -3.652  0.00  0.00    -0.040 C 
ATOM     16  H   LIG d   1       2.545  -1.998  -4.636  0.00  0.00     0.028 H 
ATOM     17  H   LIG d   1       3.962  -2.001  -5.714  0.00  0.00     0.028 H 
ATOM     18  C   LIG d   1       3.896  -2.035  -2.268  0.00  0.00    -0.047 C 
ATOM     19  C   LIG d   1       5.883  -2.038  -3.782  0.00  0.00    -0.047 C 
ATOM     20  H   LIG d   1       4.313  -3.512  -3.780  0.00  0.00     0.030 H 
ATOM     21  C   LIG d   1       4.035  -0.521  -2.090  0.00  0.00    -0.040 C 
ATOM     22  H   LIG d   1       4.478  -2.546  -1.502  0.00  0.00     0.027 H 
ATOM     23  H   LIG d   1       2.847  -2.317  -2.176  0.00  0.00     0.027 H 
ATOM     24  C   LIG d   1       3.217   0.196  -3.165  0.00  0.00    -0.034 C 
ATOM     25  C   LIG d   1       5.507  -0.126  -2.219  0.00  0.00    -0.047 C 
ATOM     26  H   LIG d   1       3.666  -0.237  -1.103  0.00  0.00     0.030 H 
ATOM     27  H   LIG d   1       3.316   1.274  -3.038  0.00  0.00     0.028 H 
ATOM     28  H   LIG d   1       2.168  -0.086  -3.074  0.00  0.00     0.028 H 
ATOM     29  C   LIG d   1       6.022  -0.526  -3.602  0.00  0.00    -0.040 C 
ATOM     30  H   LIG d   1       5.605   0.953  -2.091  0.00  0.00     0.027 H 
ATOM     31  H   LIG d   1       6.089  -0.637  -1.452  0.00  0.00     0.027 H 
ATOM     32  C   LIG d   1       5.205   0.192  -4.679  0.00  0.00    -0.034 C 
ATOM     33  H   LIG d   1       7.072  -0.244  -3.694  0.00  0.00     0.030 H 
ATOM     34  H   LIG d   1       5.573  -0.092  -5.664  0.00  0.00     0.028 H 
ATOM     35  H   LIG d   1       5.304   1.271  -4.552  0.00  0.00     0.028 H 
ATOM     36  H   LIG d   1       6.466  -2.549  -3.015  0.00  0.00     0.027 H 
ATOM     37  H   LIG d   1       6.252  -2.323  -4.767  0.00  0.00     0.027 H 
ENDBRANCH  11  13
ENDBRANCH  10  11
ENDBRANCH   2  10
BRANCH   1  38
ATOM     38  C   LIG d   1       4.544  -1.659  -8.226  0.00  0.00     0.008 A 
ATOM     39  C   LIG d   1       5.797  -1.877  -7.655  0.00  0.00    -0.049 A 
ATOM     40  C   LIG d   1       6.161  -3.146  -7.252  0.00  0.00    -0.016 A 
ATOM     41  H   LIG d   1       6.482  -1.053  -7.527  0.00  0.00     0.062 H 
ATOM     42  C   LIG d   1       5.283  -4.207  -7.415  0.00  0.00     0.162 A 
ATOM     43  H   LIG d   1       7.131  -3.313  -6.809  0.00  0.00     0.066 H 
ATOM     44  C   LIG d   1       4.032  -3.996  -7.991  0.00  0.00     0.162 A 
ATOM     45  C   LIG d   1       3.660  -2.726  -8.390  0.00  0.00    -0.007 A 
ATOM     46  H   LIG d   1       2.689  -2.559  -8.832  0.00  0.00     0.066 H 
BRANCH  42  47
ATOM     47  O   LIG d   1       5.645  -5.456  -7.017  0.00  0.00    -0.491 OA
BRANCH  47  48
ATOM     48  C   LIG d   1       5.493  -5.763  -5.629  0.00  0.00     0.079 C 
ATOM     49  H   LIG d   1       4.533  -6.254  -5.468  0.00  0.00     0.066 H 
ATOM     50  H   LIG d   1       6.299  -6.426  -5.314  0.00  0.00     0.066 H 
ATOM     51  H   LIG d   1       5.532  -4.842  -5.047  0.00  0.00     0.066 H 
ENDBRANCH  47  48
ENDBRANCH  42  47
BRANCH  44  52
ATOM     52  O   LIG d   1       3.174  -5.040  -8.155  0.00  0.00    -0.491 OA
BRANCH  52  53
ATOM     53  C   LIG d   1       2.831  -5.391  -9.497  0.00  0.00     0.079 C 
ATOM     54  H   LIG d   1       3.732  -5.398 -10.111  0.00  0.00     0.066 H 
ATOM     55  H   LIG d   1       2.376  -6.382  -9.508  0.00  0.00     0.066 H 
ATOM     56  H   LIG d   1       2.126  -4.662  -9.895  0.00  0.00     0.066 H 
ENDBRANCH  52  53
ENDBRANCH  44  52
ENDBRANCH   1  38
TORSDOF 8
ENDMDL
MODEL 2
REMARK VINA RESULT:      -6.7      2.433      3.681
REMARK  8 active torsions:
REMARK  status: ('A' for Active; 'I' for Inactive)
REMARK    1  A    between atoms: C_1  and  O_2 
REMARK    2  A    between atoms: O_2  and  C_3 
REMARK    3  A    between atoms: C_6  and  C_11 
REMARK    4  A    between atoms: C_8  and  O_9 
REMARK    5  A    between atoms: O_9  and  C_10 
REMARK    6  A    between atoms: C_12  and  O_17 
REMARK    7  A    between atoms: O_17  and  C_18 
REMARK    8  A    between atoms: C_18  and  C_20 
ROOT
ATOM      1  C   LIG d   1       5.226   0.124  -8.768  0.00  0.00     0.113 A 
ATOM      2  C   LIG d   1       3.934  -0.254  -8.389  0.00  0.00     0.158 A 
ATOM      3  C   LIG d   1       2.877  -0.008  -9.255  0.00  0.00    -0.016 A 
ATOM      4  C   LIG d   1       3.148   0.607 -10.470  0.00  0.00    -0.040 A 
ATOM      5  C   LIG d   1       4.451   0.953 -10.779  0.00  0.00     0.029 A 
ATOM      6  N   LIG d   1       5.436   0.715  -9.937  0.00  0.00    -0.251 NA
ATOM      7  H   LIG d   1       1.869  -0.288  -8.992  0.00  0.00     0.066 H 
ATOM      8  H   LIG d   1       2.350   0.812 -11.167  0.00  0.00     0.063 H 
ATOM      9  H   LIG d   1       4.663   1.432 -11.724  0.00  0.00     0.083 H 
ENDROOT
BRANCH   2  10
ATOM     10  O   LIG d   1       3.716  -0.855  -7.188  0.00  0.00    -0.423 OA
BRANCH  10  11
ATOM     11  C   LIG d   1       3.516  -0.070  -6.118  0.00  0.00     0.319 C 
ATOM     12  O   LIG d   1       2.945   0.987  -6.243  0.00  0.00    -0.250 OA
BRANCH  11  13
ATOM     13  C   LIG d   1       4.006  -0.508  -4.762  0.00  0.00     0.069 C 
ATOM     14  C   LIG d   1       4.430  -1.976  -4.821  0.00  0.00    -0.034 C 
ATOM     15  C   LIG d   1       4.927  -2.420  -3.444  0.00  0.00    -0.040 C 
ATOM     16  H   LIG d   1       3.578  -2.589  -5.115  0.00  0.00     0.028 H 
ATOM     17  H   LIG d   1       5.231  -2.093  -5.551  0.00  0.00     0.028 H 
ATOM     18  C   LIG d   1       3.804  -2.256  -2.419  0.00  0.00    -0.047 C 
ATOM     19  C   LIG d   1       6.123  -1.559  -3.032  0.00  0.00    -0.047 C 
ATOM     20  H   LIG d   1       5.230  -3.466  -3.487  0.00  0.00     0.030 H 
ATOM     21  C   LIG d   1       3.378  -0.787  -2.359  0.00  0.00    -0.040 C 
ATOM     22  H   LIG d   1       4.158  -2.572  -1.438  0.00  0.00     0.027 H 
ATOM     23  H   LIG d   1       2.951  -2.869  -2.713  0.00  0.00     0.027 H 
ATOM     24  C   LIG d   1       2.881  -0.343  -3.736  0.00  0.00    -0.034 C 
ATOM     25  C   LIG d   1       4.574   0.073  -1.947  0.00  0.00    -0.047 C 
ATOM     26  H   LIG d   1       2.577  -0.670  -1.628  0.00  0.00     0.030 H 
ATOM     27  H   LIG d   1       2.579   0.702  -3.694  0.00  0.00     0.028 H 
ATOM     28  H   LIG d   1       2.030  -0.956  -4.030  0.00  0.00     0.028 H 
ATOM     29  C   LIG d   1       5.698  -0.091  -2.972  0.00  0.00    -0.040 C 
ATOM     30  H   LIG d   1       4.271   1.120  -1.904  0.00  0.00     0.027 H 
ATOM     31  H   LIG d   1       4.928  -0.242  -0.966  0.00  0.00     0.027 H 
ATOM     32  C   LIG d   1       5.202   0.353  -4.350  0.00  0.00    -0.034 C 
ATOM     33  H   LIG d   1       6.550   0.522  -2.678  0.00  0.00     0.030 H 
ATOM     34  H   LIG d   1       6.002   0.236  -5.079  0.00  0.00     0.028 H 
ATOM     35  H   LIG d   1       4.899   1.399  -4.307  0.00  0.00     0.028 H 
ATOM     36  H   LIG d   1       6.477  -1.875  -2.051  0.00  0.00     0.027 H 
ATOM     37  H   LIG d   1       6.924  -1.676  -3.762  0.00  0.00     0.027 H 
ENDBRANCH  11  13
ENDBRANCH  10  11
ENDBRANCH   2  10
BRANCH   1  38
ATOM     38  C   LIG d   1       6.365  -0.130  -7.856  0.00  0.00     0.008 A 
ATOM     39  C   LIG d   1       6.710  -1.438  -7.517  0.00  0.00    -0.049 A 
ATOM     40  C   LIG d   1       7.773  -1.673  -6.668  0.00  0.00    -0.016 A 
ATOM     41  H   LIG d   1       6.147  -2.266  -7.919  0.00  0.00     0.062 H 
ATOM     42  C   LIG d   1       8.499  -0.611  -6.150  0.00  0.00     0.162 A 
ATOM     43  H   LIG d   1       8.039  -2.686  -6.407  0.00  0.00     0.066 H 
ATOM     44  C   LIG d   1       8.155   0.698  -6.481  0.00  0.00     0.162 A 
ATOM     45  C   LIG d   1       7.095   0.939  -7.336  0.00  0.00    -0.007 A 
ATOM     46  H   LIG d   1       6.830   1.952  -7.598  0.00  0.00     0.066 H 
BRANCH  42  47
ATOM     47  O   LIG d   1       9.545  -0.847  -5.314  0.00  0.00    -0.491 OA
BRANCH  47  48
ATOM     48  C   LIG d   1       9.941  -2.209  -5.141  0.00  0.00     0.079 C 
ATOM     49  H   LIG d   1       9.238  -2.861  -5.659  0.00  0.00     0.066 H 
ATOM     50  H   LIG d   1      10.941  -2.352  -5.552  0.00  0.00     0.066 H 
ATOM     51  H   LIG d   1       9.947  -2.453  -4.078  0.00  0.00     0.066 H 
ENDBRANCH  47  48
ENDBRANCH  42  47
BRANCH  44  52
ATOM     52  O   LIG d   1       8.865   1.738  -5.967  0.00  0.00    -0.491 OA
BRANCH  52  53
ATOM     53  C   LIG d   1       8.319   2.391  -4.819  0.00  0.00     0.079 C 
ATOM     54  H   LIG d   1       7.717   3.242  -5.138  0.00  0.00     0.066 H 
ATOM     55  H   LIG d   1       7.694   1.690  -4.266  0.00  0.00     0.066 H 
ATOM     56  H   LIG d   1       9.129   2.739  -4.179  0.00  0.00     0.066 H 
ENDBRANCH  52  53
ENDBRANCH  44  52
ENDBRANCH   1  38
TORSDOF 8
ENDMDL
MODEL 3
REMARK VINA RESULT:      -6.6      0.702      2.258
REMARK  8 active torsions:
REMARK  status: ('A' for Active; 'I' for Inactive)
REMARK    1  A    between atoms: C_1  and  O_2 
REMARK    2  A    between atoms: O_2  and  C_3 
REMARK    3  A    between atoms: C_6  and  C_11 
REMARK    4  A    between atoms: C_8  and  O_9 
REMARK    5  A    between atoms: O_9  and  C_10 
REMARK    6  A    between atoms: C_12  and  O_17 
REMARK    7  A    between atoms: O_17  and  C_18 
REMARK    8  A    between atoms: C_18  and  C_20 
ROOT
ATOM      1  C   LIG d   1       4.216  -0.251  -8.600  0.00  0.00     0.113 A 
ATOM      2  C   LIG d   1       3.266   0.476  -7.875  0.00  0.00     0.158 A 
ATOM      3  C   LIG d   1       2.925   1.753  -8.301  0.00  0.00    -0.016 A 
ATOM      4  C   LIG d   1       3.544   2.258  -9.436  0.00  0.00    -0.040 A 
ATOM      5  C   LIG d   1       4.474   1.483 -10.103  0.00  0.00     0.029 A 
ATOM      6  N   LIG d   1       4.785   0.276  -9.676  0.00  0.00    -0.251 NA
ATOM      7  H   LIG d   1       2.195   2.339  -7.763  0.00  0.00     0.066 H 
ATOM      8  H   LIG d   1       3.301   3.247  -9.795  0.00  0.00     0.063 H 
ATOM      9  H   LIG d   1       4.956   1.875 -10.987  0.00  0.00     0.083 H 
ENDROOT
BRANCH   2  10
ATOM     10  O   LIG d   1       2.685  -0.060  -6.768  0.00  0.00    -0.423 OA
BRANCH  10  11
ATOM     11  C   LIG d   1       2.907   0.538  -5.588  0.00  0.00     0.319 C 
ATOM     12  O   LIG d   1       2.467   1.643  -5.378  0.00  0.00    -0.250 OA
BRANCH  11  13
ATOM     13  C   LIG d   1       3.707  -0.170  -4.524  0.00  0.00     0.069 C 
ATOM     14  C   LIG d   1       5.175   0.250  -4.625  0.00  0.00    -0.034 C 
ATOM     15  C   LIG d   1       5.986  -0.468  -3.545  0.00  0.00    -0.040 C 
ATOM     16  H   LIG d   1       5.562  -0.016  -5.608  0.00  0.00     0.028 H 
ATOM     17  H   LIG d   1       5.254   1.328  -4.483  0.00  0.00     0.028 H 
ATOM     18  C   LIG d   1       5.875  -1.980  -3.744  0.00  0.00    -0.047 C 
ATOM     19  C   LIG d   1       5.442  -0.093  -2.165  0.00  0.00    -0.047 C 
ATOM     20  H   LIG d   1       7.032  -0.168  -3.617  0.00  0.00     0.030 H 
ATOM     21  C   LIG d   1       4.406  -2.401  -3.643  0.00  0.00    -0.040 C 
ATOM     22  H   LIG d   1       6.453  -2.492  -2.974  0.00  0.00     0.027 H 
ATOM     23  H   LIG d   1       6.262  -2.247  -4.728  0.00  0.00     0.027 H 
ATOM     24  C   LIG d   1       3.595  -1.683  -4.723  0.00  0.00    -0.034 C 
ATOM     25  C   LIG d   1       3.863  -2.027  -2.263  0.00  0.00    -0.047 C 
ATOM     26  H   LIG d   1       4.327  -3.479  -3.786  0.00  0.00     0.030 H 
ATOM     27  H   LIG d   1       2.550  -1.982  -4.652  0.00  0.00     0.028 H 
ATOM     28  H   LIG d   1       3.982  -1.949  -5.706  0.00  0.00     0.028 H 
ATOM     29  C   LIG d   1       3.975  -0.514  -2.064  0.00  0.00    -0.040 C 
ATOM     30  H   LIG d   1       2.817  -2.326  -2.191  0.00  0.00     0.027 H 
ATOM     31  H   LIG d   1       4.441  -2.538  -1.494  0.00  0.00     0.027 H 
ATOM     32  C   LIG d   1       3.163   0.205  -3.144  0.00  0.00    -0.034 C 
ATOM     33  H   LIG d   1       3.588  -0.248  -1.080  0.00  0.00     0.030 H 
ATOM     34  H   LIG d   1       3.242   1.282  -3.002  0.00  0.00     0.028 H 
ATOM     35  H   LIG d   1       2.117  -0.095  -3.072  0.00  0.00     0.028 H 
ATOM     36  H   LIG d   1       6.020  -0.605  -1.396  0.00  0.00     0.027 H 
ATOM     37  H   LIG d   1       5.522   0.984  -2.022  0.00  0.00     0.027 H 
ENDBRANCH  11  13
ENDBRANCH  10  11
ENDBRANCH   2  10
BRANCH   1  38
ATOM     38  C   LIG d   1       4.593  -1.614  -8.160  0.00  0.00     0.008 A 
ATOM     39  C   LIG d   1       3.696  -2.671  -8.312  0.00  0.00    -0.049 A 
ATOM     40  C   LIG d   1       4.049  -3.940  -7.903  0.00  0.00    -0.016 A 
ATOM     41  H   LIG d   1       2.726  -2.495  -8.752  0.00  0.00     0.062 H 
ATOM     42  C   LIG d   1       5.295  -4.169  -7.338  0.00  0.00     0.162 A 
ATOM     43  H   LIG d   1       3.354  -4.758  -8.023  0.00  0.00     0.066 H 
ATOM     44  C   LIG d   1       6.193  -3.116  -7.178  0.00  0.00     0.162 A 
ATOM     45  C   LIG d   1       5.847  -1.843  -7.592  0.00  0.00    -0.007 A 
ATOM     46  H   LIG d   1       6.543  -1.026  -7.473  0.00  0.00     0.066 H 
BRANCH  42  47
ATOM     47  O   LIG d   1       5.639  -5.421  -6.936  0.00  0.00    -0.491 OA
BRANCH  47  48
ATOM     48  C   LIG d   1       5.022  -5.911  -5.744  0.00  0.00     0.079 C 
ATOM     49  H   LIG d   1       3.973  -6.135  -5.942  0.00  0.00     0.066 H 
ATOM     50  H   LIG d   1       5.531  -6.818  -5.417  0.00  0.00     0.066 H 
ATOM     51  H   LIG d   1       5.090  -5.155  -4.962  0.00  0.00     0.066 H 
ENDBRANCH  47  48
ENDBRANCH  42  47
BRANCH  44  52
ATOM     52  O   LIG d   1       7.413  -3.341  -6.618  0.00  0.00    -0.491 OA
BRANCH  52  53
ATOM     53  C   LIG d   1       8.551  -2.840  -7.322  0.00  0.00     0.079 C 
ATOM     54  H   LIG d   1       9.343  -3.589  -7.309  0.00  0.00     0.066 H 
ATOM     55  H   LIG d   1       8.273  -2.622  -8.354  0.00  0.00     0.066 H 
ATOM     56  H   LIG d   1       8.905  -1.929  -6.840  0.00  0.00     0.066 H 
ENDBRANCH  52  53
ENDBRANCH  44  52
ENDBRANCH   1  38
TORSDOF 8
ENDMDL
MODEL 4
REMARK VINA RESULT:      -6.5      2.935      4.842
REMARK  8 active torsions:
REMARK  status: ('A' for Active; 'I' for Inactive)
REMARK    1  A    between atoms: C_1  and  O_2 
REMARK    2  A    between atoms: O_2  and  C_3 
REMARK    3  A    between atoms: C_6  and  C_11 
REMARK    4  A    between atoms: C_8  and  O_9 
REMARK    5  A    between atoms: O_9  and  C_10 
REMARK    6  A    between atoms: C_12  and  O_17 
REMARK    7  A    between atoms: O_17  and  C_18 
REMARK    8  A    between atoms: C_18  and  C_20 
ROOT
ATOM      1  C   LIG d   1       7.886   1.020  -7.991  0.00  0.00     0.113 A 
ATOM      2  C   LIG d   1       7.568   0.901  -6.634  0.00  0.00     0.158 A 
ATOM      3  C   LIG d   1       8.569   1.084  -5.690  0.00  0.00    -0.016 A 
ATOM      4  C   LIG d   1       9.851   1.379  -6.133  0.00  0.00    -0.040 A 
ATOM      5  C   LIG d   1      10.092   1.482  -7.491  0.00  0.00     0.029 A 
ATOM      6  N   LIG d   1       9.127   1.298  -8.368  0.00  0.00    -0.251 NA
ATOM      7  H   LIG d   1       8.357   0.999  -4.635  0.00  0.00     0.066 H 
ATOM      8  H   LIG d   1      10.652   1.528  -5.425  0.00  0.00     0.063 H 
ATOM      9  H   LIG d   1      11.090   1.712  -7.837  0.00  0.00     0.083 H 
ENDROOT
BRANCH   2  10
ATOM     10  O   LIG d   1       6.298   0.611  -6.246  0.00  0.00    -0.423 OA
BRANCH  10  11
ATOM     11  C   LIG d   1       6.101  -0.493  -5.510  0.00  0.00     0.319 C 
ATOM     12  O   LIG d   1       6.661  -1.523  -5.804  0.00  0.00    -0.250 OA
BRANCH  11  13
ATOM     13  C   LIG d   1       5.181  -0.450  -4.317  0.00  0.00     0.069 C 
ATOM     14  C   LIG d   1       3.842   0.166  -4.728  0.00  0.00    -0.034 C 
ATOM     15  C   LIG d   1       2.908   0.210  -3.517  0.00  0.00    -0.040 C 
ATOM     16  H   LIG d   1       4.005   1.177  -5.098  0.00  0.00     0.028 H 
ATOM     17  H   LIG d   1       3.390  -0.440  -5.512  0.00  0.00     0.028 H 
ATOM     18  C   LIG d   1       3.542   1.060  -2.414  0.00  0.00    -0.047 C 
ATOM     19  C   LIG d   1       2.679  -1.210  -2.997  0.00  0.00    -0.047 C 
ATOM     20  H   LIG d   1       1.954   0.648  -3.810  0.00  0.00     0.030 H 
ATOM     21  C   LIG d   1       4.882   0.445  -2.003  0.00  0.00    -0.040 C 
ATOM     22  H   LIG d   1       2.877   1.092  -1.551  0.00  0.00     0.027 H 
ATOM     23  H   LIG d   1       3.705   2.073  -2.785  0.00  0.00     0.027 H 
ATOM     24  C   LIG d   1       5.816   0.401  -3.214  0.00  0.00    -0.034 C 
ATOM     25  C   LIG d   1       4.653  -0.975  -1.483  0.00  0.00    -0.047 C 
ATOM     26  H   LIG d   1       5.334   1.052  -1.217  0.00  0.00     0.030 H 
ATOM     27  H   LIG d   1       6.770  -0.036  -2.921  0.00  0.00     0.028 H 
ATOM     28  H   LIG d   1       5.979   1.413  -3.584  0.00  0.00     0.028 H 
ATOM     29  C   LIG d   1       4.018  -1.825  -2.585  0.00  0.00    -0.040 C 
ATOM     30  H   LIG d   1       5.607  -1.413  -1.190  0.00  0.00     0.027 H 
ATOM     31  H   LIG d   1       3.988  -0.943  -0.620  0.00  0.00     0.027 H 
ATOM     32  C   LIG d   1       4.952  -1.870  -3.797  0.00  0.00    -0.034 C 
ATOM     33  H   LIG d   1       3.855  -2.837  -2.215  0.00  0.00     0.030 H 
ATOM     34  H   LIG d   1       4.501  -2.476  -4.582  0.00  0.00     0.028 H 
ATOM     35  H   LIG d   1       5.907  -2.308  -3.504  0.00  0.00     0.028 H 
ATOM     36  H   LIG d   1       2.014  -1.179  -2.134  0.00  0.00     0.027 H 
ATOM     37  H   LIG d   1       2.227  -1.817  -3.782  0.00  0.00     0.027 H 
ENDBRANCH  11  13
ENDBRANCH  10  11
ENDBRANCH   2  10
BRANCH   1  38
ATOM     38  C   LIG d   1       6.831   0.827  -9.013  0.00  0.00     0.008 A 
ATOM     39  C   LIG d   1       6.965  -0.173  -9.976  0.00  0.00    -0.049 A 
ATOM     40  C   LIG d   1       5.981  -0.352 -10.927  0.00  0.00    -0.016 A 
ATOM     41  H   LIG d   1       7.838  -0.807  -9.976  0.00  0.00     0.062 H 
ATOM     42  C   LIG d   1       4.858   0.461 -10.929  0.00  0.00     0.162 A 
ATOM     43  H   LIG d   1       6.086  -1.128 -11.671  0.00  0.00     0.066 H 
ATOM     44  C   LIG d   1       4.722   1.466  -9.973  0.00  0.00     0.162 A 
ATOM     45  C   LIG d   1       5.701   1.646  -9.014  0.00  0.00    -0.007 A 
ATOM     46  H   LIG d   1       5.596   2.421  -8.270  0.00  0.00     0.066 H 
BRANCH  42  47
ATOM     47  O   LIG d   1       3.891   0.282 -11.867  0.00  0.00    -0.491 OA
BRANCH  47  48
ATOM     48  C   LIG d   1       2.930  -0.747 -11.619  0.00  0.00     0.079 C 
ATOM     49  H   LIG d   1       2.104  -0.651 -12.325  0.00  0.00     0.066 H 
ATOM     50  H   LIG d   1       3.402  -1.721 -11.741  0.00  0.00     0.066 H 
ATOM     51  H   LIG d   1       2.551  -0.652 -10.601  0.00  0.00     0.066 H 
ENDBRANCH  47  48
ENDBRANCH  42  47
BRANCH  44  52
ATOM     52  O   LIG d   1       3.621   2.267  -9.981  0.00  0.00    -0.491 OA
BRANCH  52  53
ATOM     53  C   LIG d   1       2.731   2.154  -8.869  0.00  0.00     0.079 C 
ATOM     54  H   LIG d   1       2.389   1.122  -8.781  0.00  0.00     0.066 H 
ATOM     55  H   LIG d   1       3.251   2.444  -7.956  0.00  0.00     0.066 H 
ATOM     56  H   LIG d   1       1.873   2.808  -9.022  0.00  0.00     0.066 H 
ENDBRANCH  52  53
ENDBRANCH  44  52
ENDBRANCH   1  38
TORSDOF 8
ENDMDL
MODEL 5
REMARK VINA RESULT:      -6.4      2.368      4.674
REMARK  8 active torsions:
REMARK  status: ('A' for Active; 'I' for Inactive)
REMARK    1  A    between atoms: C_1  and  O_2 
REMARK    2  A    between atoms: O_2  and  C_3 
REMARK    3  A    between atoms: C_6  and  C_11 
REMARK    4  A    between atoms: C_8  and  O_9 
REMARK    5  A    between atoms: O_9  and  C_10 
REMARK    6  A    between atoms: C_12  and  O_17 
REMARK    7  A    between atoms: O_17  and  C_18 
REMARK    8  A    between atoms: C_18  and  C_20 
ROOT
ATOM      1  C   LIG d   1       7.573  -1.114  -7.852  0.00  0.00     0.113 A 
ATOM      2  C   LIG d   1       8.166  -0.777  -6.631  0.00  0.00     0.158 A 
ATOM      3  C   LIG d   1       9.530  -0.976  -6.466  0.00  0.00    -0.016 A 
ATOM      4  C   LIG d   1      10.253  -1.504  -7.526  0.00  0.00    -0.040 A 
ATOM      5  C   LIG d   1       9.602  -1.813  -8.705  0.00  0.00     0.029 A 
ATOM      6  N   LIG d   1       8.305  -1.621  -8.836  0.00  0.00    -0.251 NA
ATOM      7  H   LIG d   1      10.017  -0.726  -5.536  0.00  0.00     0.066 H 
ATOM      8  H   LIG d   1      11.316  -1.670  -7.431  0.00  0.00     0.063 H 
ATOM      9  H   LIG d   1      10.164  -2.224  -9.531  0.00  0.00     0.083 H 
ENDROOT
BRANCH   2  10
ATOM     10  O   LIG d   1       7.416  -0.262  -5.620  0.00  0.00    -0.423 OA
BRANCH  10  11
ATOM     11  C   LIG d   1       6.799  -1.120  -4.793  0.00  0.00     0.319 C 
ATOM     12  O   LIG d   1       7.178  -2.264  -4.718  0.00  0.00    -0.250 OA
BRANCH  11  13
ATOM     13  C   LIG d   1       5.632  -0.655  -3.959  0.00  0.00     0.069 C 
ATOM     14  C   LIG d   1       4.360  -0.670  -4.810  0.00  0.00    -0.034 C 
ATOM     15  C   LIG d   1       3.176  -0.199  -3.963  0.00  0.00    -0.040 C 
ATOM     16  H   LIG d   1       4.485  -0.004  -5.663  0.00  0.00     0.028 H 
ATOM     17  H   LIG d   1       4.172  -1.683  -5.164  0.00  0.00     0.028 H 
ATOM     18  C   LIG d   1       3.439   1.224  -3.465  0.00  0.00    -0.047 C 
ATOM     19  C   LIG d   1       3.001  -1.134  -2.766  0.00  0.00    -0.047 C 
ATOM     20  H   LIG d   1       2.269  -0.210  -4.569  0.00  0.00     0.030 H 
ATOM     21  C   LIG d   1       4.712   1.239  -2.615  0.00  0.00    -0.040 C 
ATOM     22  H   LIG d   1       2.595   1.560  -2.862  0.00  0.00     0.027 H 
ATOM     23  H   LIG d   1       3.564   1.890  -4.319  0.00  0.00     0.027 H 
ATOM     24  C   LIG d   1       5.896   0.768  -3.461  0.00  0.00    -0.034 C 
ATOM     25  C   LIG d   1       4.536   0.304  -1.417  0.00  0.00    -0.047 C 
ATOM     26  H   LIG d   1       4.899   2.253  -2.260  0.00  0.00     0.030 H 
ATOM     27  H   LIG d   1       6.802   0.779  -2.856  0.00  0.00     0.028 H 
ATOM     28  H   LIG d   1       6.021   1.434  -4.314  0.00  0.00     0.028 H 
ATOM     29  C   LIG d   1       4.272  -1.118  -1.916  0.00  0.00    -0.040 C 
ATOM     30  H   LIG d   1       5.443   0.315  -0.812  0.00  0.00     0.027 H 
ATOM     31  H   LIG d   1       3.693   0.640  -0.814  0.00  0.00     0.027 H 
ATOM     32  C   LIG d   1       5.457  -1.591  -2.762  0.00  0.00    -0.034 C 
ATOM     33  H   LIG d   1       4.147  -1.785  -1.062  0.00  0.00     0.030 H 
ATOM     34  H   LIG d   1       5.270  -2.603  -3.116  0.00  0.00     0.028 H 
ATOM     35  H   LIG d   1       6.363  -1.580  -2.156  0.00  0.00     0.028 H 
ATOM     36  H   LIG d   1       2.157  -0.798  -2.163  0.00  0.00     0.027 H 
ATOM     37  H   LIG d   1       2.813  -2.148  -3.120  0.00  0.00     0.027 H 
ENDBRANCH  11  13
ENDBRANCH  10  11
ENDBRANCH   2  10
BRANCH   1  38
ATOM     38  C   LIG d   1       6.119  -0.909  -8.046  0.00  0.00     0.008 A 
ATOM     39  C   LIG d   1       5.270  -2.008  -8.180  0.00  0.00    -0.049 A 
ATOM     40  C   LIG d   1       3.915  -1.816  -8.359  0.00  0.00    -0.016 A 
ATOM     41  H   LIG d   1       5.674  -3.008  -8.141  0.00  0.00     0.062 H 
ATOM     42  C   LIG d   1       3.394  -0.531  -8.408  0.00  0.00     0.162 A 
ATOM     43  H   LIG d   1       3.260  -2.668  -8.461  0.00  0.00     0.066 H 
ATOM     44  C   LIG d   1       4.238   0.570  -8.281  0.00  0.00     0.162 A 
ATOM     45  C   LIG d   1       5.596   0.383  -8.095  0.00  0.00    -0.007 A 
ATOM     46  H   LIG d   1       6.251   1.235  -7.992  0.00  0.00     0.066 H 
BRANCH  42  47
ATOM     47  O   LIG d   1       2.059  -0.346  -8.585  0.00  0.00    -0.491 OA
BRANCH  47  48
ATOM     48  C   LIG d   1       1.508  -0.761  -9.837  0.00  0.00     0.079 C 
ATOM     49  H   LIG d   1       0.853   0.021 -10.223  0.00  0.00     0.066 H 
ATOM     50  H   LIG d   1       2.315  -0.942 -10.547  0.00  0.00     0.066 H 
ATOM     51  H   LIG d   1       0.936  -1.678  -9.696  0.00  0.00     0.066 H 
ENDBRANCH  47  48
ENDBRANCH  42  47
BRANCH  44  52
ATOM     52  O   LIG d   1       3.726   1.829  -8.336  0.00  0.00    -0.491 OA
BRANCH  52  53
ATOM     53  C   LIG d   1       3.891   2.543  -9.563  0.00  0.00     0.079 C 
ATOM     54  H   LIG d   1       4.336   3.517  -9.358  0.00  0.00     0.066 H 
ATOM     55  H   LIG d   1       4.544   1.977 -10.228  0.00  0.00     0.066 H 
ATOM     56  H   LIG d   1       2.920   2.681 -10.037  0.00  0.00     0.066 H 
ENDBRANCH  52  53
ENDBRANCH  44  52
ENDBRANCH   1  38
TORSDOF 8
ENDMDL
MODEL 6
REMARK VINA RESULT:      -6.4      3.237      6.494
REMARK  8 active torsions:
REMARK  status: ('A' for Active; 'I' for Inactive)
REMARK    1  A    between atoms: C_1  and  O_2 
REMARK    2  A    between atoms: O_2  and  C_3 
REMARK    3  A    between atoms: C_6  and  C_11 
REMARK    4  A    between atoms: C_8  and  O_9 
REMARK    5  A    between atoms: O_9  and  C_10 
REMARK    6  A    between atoms: C_12  and  O_17 
REMARK    7  A    between atoms: O_17  and  C_18 
REMARK    8  A    between atoms: C_18  and  C_20 
ROOT
ATOM      1  C   LIG d   1       8.569   0.890  -5.194  0.00  0.00     0.113 A 
ATOM      2  C   LIG d   1       8.180   1.433  -6.423  0.00  0.00     0.158 A 
ATOM      3  C   LIG d   1       9.140   2.024  -7.233  0.00  0.00    -0.016 A 
ATOM      4  C   LIG d   1      10.455   2.051  -6.787  0.00  0.00    -0.040 A 
ATOM      5  C   LIG d   1      10.767   1.495  -5.561  0.00  0.00     0.029 A 
ATOM      6  N   LIG d   1       9.837   0.945  -4.807  0.00  0.00    -0.251 NA
ATOM      7  H   LIG d   1       8.872   2.452  -8.187  0.00  0.00     0.066 H 
ATOM      8  H   LIG d   1      11.226   2.503  -7.393  0.00  0.00     0.063 H 
ATOM      9  H   LIG d   1      11.790   1.516  -5.213  0.00  0.00     0.083 H 
ENDROOT
BRANCH   2  10
ATOM     10  O   LIG d   1       6.880   1.383  -6.819  0.00  0.00    -0.423 OA
BRANCH  10  11
ATOM     11  C   LIG d   1       6.536   0.468  -7.738  0.00  0.00     0.319 C 
ATOM     12  O   LIG d   1       7.257  -0.480  -7.945  0.00  0.00    -0.250 OA
BRANCH  11  13
ATOM     13  C   LIG d   1       5.253   0.623  -8.512  0.00  0.00     0.069 C 
ATOM     14  C   LIG d   1       5.237  -0.369  -9.677  0.00  0.00    -0.034 C 
ATOM     15  C   LIG d   1       3.933  -0.212 -10.462  0.00  0.00    -0.040 C 
ATOM     16  H   LIG d   1       6.083  -0.173 -10.334  0.00  0.00     0.028 H 
ATOM     17  H   LIG d   1       5.306  -1.386  -9.289  0.00  0.00     0.028 H 
ATOM     18  C   LIG d   1       3.835   1.214 -11.007  0.00  0.00    -0.047 C 
ATOM     19  C   LIG d   1       2.745  -0.489  -9.540  0.00  0.00    -0.047 C 
ATOM     20  H   LIG d   1       3.921  -0.919 -11.292  0.00  0.00     0.030 H 
ATOM     21  C   LIG d   1       3.852   2.207  -9.843  0.00  0.00    -0.040 C 
ATOM     22  H   LIG d   1       2.906   1.326 -11.567  0.00  0.00     0.027 H 
ATOM     23  H   LIG d   1       4.682   1.411 -11.665  0.00  0.00     0.027 H 
ATOM     24  C   LIG d   1       5.155   2.050  -9.057  0.00  0.00    -0.034 C 
ATOM     25  C   LIG d   1       2.663   1.930  -8.920  0.00  0.00    -0.047 C 
ATOM     26  H   LIG d   1       3.782   3.224 -10.231  0.00  0.00     0.030 H 
ATOM     27  H   LIG d   1       5.167   2.756  -8.228  0.00  0.00     0.028 H 
ATOM     28  H   LIG d   1       6.001   2.246  -9.714  0.00  0.00     0.028 H 
ATOM     29  C   LIG d   1       2.761   0.504  -8.376  0.00  0.00    -0.040 C 
ATOM     30  H   LIG d   1       2.675   2.638  -8.090  0.00  0.00     0.027 H 
ATOM     31  H   LIG d   1       1.735   2.043  -9.480  0.00  0.00     0.027 H 
ATOM     32  C   LIG d   1       4.064   0.346  -7.589  0.00  0.00    -0.034 C 
ATOM     33  H   LIG d   1       1.914   0.307  -7.719  0.00  0.00     0.030 H 
ATOM     34  H   LIG d   1       4.134  -0.669  -7.201  0.00  0.00     0.028 H 
ATOM     35  H   LIG d   1       4.076   1.054  -6.760  0.00  0.00     0.028 H 
ATOM     36  H   LIG d   1       1.816  -0.376 -10.099  0.00  0.00     0.027 H 
ATOM     37  H   LIG d   1       2.814  -1.505  -9.152  0.00  0.00     0.027 H 
ENDBRANCH  11  13
ENDBRANCH  10  11
ENDBRANCH   2  10
BRANCH   1  38
ATOM     38  C   LIG d   1       7.558   0.257  -4.316  0.00  0.00     0.008 A 
ATOM     39  C   LIG d   1       7.444  -1.133  -4.271  0.00  0.00    -0.049 A 
ATOM     40  C   LIG d   1       6.502  -1.722  -3.452  0.00  0.00    -0.016 A 
ATOM     41  H   LIG d   1       8.093  -1.747  -4.877  0.00  0.00     0.062 H 
ATOM     42  C   LIG d   1       5.668  -0.935  -2.672  0.00  0.00     0.162 A 
ATOM     43  H   LIG d   1       6.416  -2.798  -3.418  0.00  0.00     0.066 H 
ATOM     44  C   LIG d   1       5.774   0.453  -2.717  0.00  0.00     0.162 A 
ATOM     45  C   LIG d   1       6.719   1.049  -3.532  0.00  0.00    -0.007 A 
ATOM     46  H   LIG d   1       6.806   2.124  -3.565  0.00  0.00     0.066 H 
BRANCH  42  47
ATOM     47  O   LIG d   1       4.741  -1.519  -1.867  0.00  0.00    -0.491 OA
BRANCH  47  48
ATOM     48  C   LIG d   1       3.635  -2.158  -2.508  0.00  0.00     0.079 C 
ATOM     49  H   LIG d   1       3.966  -3.096  -2.955  0.00  0.00     0.066 H 
ATOM     50  H   LIG d   1       2.856  -2.360  -1.773  0.00  0.00     0.066 H 
ATOM     51  H   LIG d   1       3.240  -1.504  -3.286  0.00  0.00     0.066 H 
ENDBRANCH  47  48
ENDBRANCH  42  47
BRANCH  44  52
ATOM     52  O   LIG d   1       4.950   1.223  -1.956  0.00  0.00    -0.491 OA
BRANCH  52  53
ATOM     53  C   LIG d   1       3.676   1.556  -2.513  0.00  0.00     0.079 C 
ATOM     54  H   LIG d   1       2.911   0.915  -2.076  0.00  0.00     0.066 H 
ATOM     55  H   LIG d   1       3.445   2.599  -2.294  0.00  0.00     0.066 H 
ATOM     56  H   LIG d   1       3.701   1.408  -3.592  0.00  0.00     0.066 H 
ENDBRANCH  52  53
ENDBRANCH  44  52
ENDBRANCH   1  38
TORSDOF 8
ENDMDL
MODEL 7
REMARK VINA RESULT:      -6.3      2.620      4.095
REMARK  8 active torsions:
REMARK  status: ('A' for Active; 'I' for Inactive)
REMARK    1  A    between atoms: C_1  and  O_2 
REMARK    2  A    between atoms: O_2  and  C_3 
REMARK    3  A    between atoms: C_6  and  C_11 
REMARK    4  A    between atoms: C_8  and  O_9 
REMARK    5  A    between atoms: O_9  and  C_10 
REMARK    6  A    between atoms: C_12  and  O_17 
REMARK    7  A    between atoms: O_17  and  C_18 
REMARK    8  A    between atoms: C_18  and  C_20 
ROOT
ATOM      1  C   LIG d   1       6.803   0.722  -8.792  0.00  0.00     0.113 A 
ATOM      2  C   LIG d   1       6.654   0.691  -7.402  0.00  0.00     0.158 A 
ATOM      3  C   LIG d   1       7.717   1.086  -6.601  0.00  0.00    -0.016 A 
ATOM      4  C   LIG d   1       8.890   1.498  -7.216  0.00  0.00    -0.040 A 
ATOM      5  C   LIG d   1       8.967   1.503  -8.596  0.00  0.00     0.029 A 
ATOM      6  N   LIG d   1       7.947   1.118  -9.335  0.00  0.00    -0.251 NA
ATOM      7  H   LIG d   1       7.633   1.074  -5.524  0.00  0.00     0.066 H 
ATOM      8  H   LIG d   1       9.736   1.812  -6.622  0.00  0.00     0.063 H 
ATOM      9  H   LIG d   1       9.881   1.824  -9.077  0.00  0.00     0.083 H 
ENDROOT
BRANCH   2  10
ATOM     10  O   LIG d   1       5.484   0.280  -6.843  0.00  0.00    -0.423 OA
BRANCH  10  11
ATOM     11  C   LIG d   1       5.528  -0.732  -5.963  0.00  0.00     0.319 C 
ATOM     12  O   LIG d   1       6.121  -1.748  -6.240  0.00  0.00    -0.250 OA
BRANCH  11  13
ATOM     13  C   LIG d   1       4.835  -0.603  -4.631  0.00  0.00     0.069 C 
ATOM     14  C   LIG d   1       3.562   0.229  -4.796  0.00  0.00    -0.034 C 
ATOM     15  C   LIG d   1       2.859   0.360  -3.444  0.00  0.00    -0.040 C 
ATOM     16  H   LIG d   1       3.821   1.220  -5.169  0.00  0.00     0.028 H 
ATOM     17  H   LIG d   1       2.896  -0.263  -5.505  0.00  0.00     0.028 H 
ATOM     18  C   LIG d   1       3.792   1.051  -2.448  0.00  0.00    -0.047 C 
ATOM     19  C   LIG d   1       2.495  -1.031  -2.921  0.00  0.00    -0.047 C 
ATOM     20  H   LIG d   1       1.951   0.952  -3.562  0.00  0.00     0.030 H 
ATOM     21  C   LIG d   1       5.067   0.219  -2.282  0.00  0.00    -0.040 C 
ATOM     22  H   LIG d   1       3.292   1.144  -1.484  0.00  0.00     0.027 H 
ATOM     23  H   LIG d   1       4.051   2.042  -2.821  0.00  0.00     0.027 H 
ATOM     24  C   LIG d   1       5.769   0.088  -3.635  0.00  0.00    -0.034 C 
ATOM     25  C   LIG d   1       4.703  -1.172  -1.760  0.00  0.00    -0.047 C 
ATOM     26  H   LIG d   1       5.732   0.712  -1.573  0.00  0.00     0.030 H 
ATOM     27  H   LIG d   1       6.676  -0.504  -3.517  0.00  0.00     0.028 H 
ATOM     28  H   LIG d   1       6.028   1.079  -4.007  0.00  0.00     0.028 H 
ATOM     29  C   LIG d   1       3.769  -1.862  -2.755  0.00  0.00    -0.040 C 
ATOM     30  H   LIG d   1       5.611  -1.764  -1.642  0.00  0.00     0.027 H 
ATOM     31  H   LIG d   1       4.202  -1.079  -0.796  0.00  0.00     0.027 H 
ATOM     32  C   LIG d   1       4.471  -1.994  -4.108  0.00  0.00    -0.034 C 
ATOM     33  H   LIG d   1       3.509  -2.853  -2.382  0.00  0.00     0.030 H 
ATOM     34  H   LIG d   1       3.807  -2.486  -4.817  0.00  0.00     0.028 H 
ATOM     35  H   LIG d   1       5.379  -2.586  -3.990  0.00  0.00     0.028 H 
ATOM     36  H   LIG d   1       1.995  -0.938  -1.957  0.00  0.00     0.027 H 
ATOM     37  H   LIG d   1       1.829  -1.524  -3.630  0.00  0.00     0.027 H 
ENDBRANCH  11  13
ENDBRANCH  10  11
ENDBRANCH   2  10
BRANCH   1  38
ATOM     38  C   LIG d   1       5.680   0.303  -9.663  0.00  0.00     0.008 A 
ATOM     39  C   LIG d   1       4.784   1.253 -10.153  0.00  0.00    -0.049 A 
ATOM     40  C   LIG d   1       3.739   0.861 -10.965  0.00  0.00    -0.016 A 
ATOM     41  H   LIG d   1       4.909   2.294  -9.897  0.00  0.00     0.062 H 
ATOM     42  C   LIG d   1       3.577  -0.476 -11.295  0.00  0.00     0.162 A 
ATOM     43  H   LIG d   1       3.047   1.598 -11.344  0.00  0.00     0.066 H 
ATOM     44  C   LIG d   1       4.465  -1.430 -10.803  0.00  0.00     0.162 A 
ATOM     45  C   LIG d   1       5.518  -1.042  -9.994  0.00  0.00    -0.007 A 
ATOM     46  H   LIG d   1       6.210  -1.779  -9.616  0.00  0.00     0.066 H 
BRANCH  42  47
ATOM     47  O   LIG d   1       2.546  -0.858 -12.095  0.00  0.00    -0.491 OA
BRANCH  47  48
ATOM     48  C   LIG d   1       1.286  -1.090 -11.462  0.00  0.00     0.079 C 
ATOM     49  H   LIG d   1       1.402  -1.850 -10.688  0.00  0.00     0.066 H 
ATOM     50  H   LIG d   1       0.929  -0.164 -11.011  0.00  0.00     0.066 H 
ATOM     51  H   LIG d   1       0.565  -1.434 -12.204  0.00  0.00     0.066 H 
ENDBRANCH  47  48
ENDBRANCH  42  47
BRANCH  44  52
ATOM     52  O   LIG d   1       4.300  -2.742 -11.124  0.00  0.00    -0.491 OA
BRANCH  52  53
ATOM     53  C   LIG d   1       3.819  -3.605 -10.091  0.00  0.00     0.079 C 
ATOM     54  H   LIG d   1       4.344  -4.559 -10.142  0.00  0.00     0.066 H 
ATOM     55  H   LIG d   1       3.996  -3.143  -9.120  0.00  0.00     0.066 H 
ATOM     56  H   LIG d   1       2.751  -3.772 -10.226  0.00  0.00     0.066 H 
ENDBRANCH  52  53
ENDBRANCH  44  52
ENDBRANCH   1  38
TORSDOF 8
ENDMDL
MODEL 8
REMARK VINA RESULT:      -6.3      1.882      3.022
REMARK  8 active torsions:
REMARK  status: ('A' for Active; 'I' for Inactive)
REMARK    1  A    between atoms: C_1  and  O_2 
REMARK    2  A    between atoms: O_2  and  C_3 
REMARK    3  A    between atoms: C_6  and  C_11 
REMARK    4  A    between atoms: C_8  and  O_9 
REMARK    5  A    between atoms: O_9  and  C_10 
REMARK    6  A    between atoms: C_12  and  O_17 
REMARK    7  A    between atoms: O_17  and  C_18 
REMARK    8  A    between atoms: C_18  and  C_20 
ROOT
ATOM      1  C   LIG d   1       3.602  -1.974  -8.260  0.00  0.00     0.113 A 
ATOM      2  C   LIG d   1       3.225  -0.660  -7.966  0.00  0.00     0.158 A 
ATOM      3  C   LIG d   1       2.209  -0.069  -8.705  0.00  0.00    -0.016 A 
ATOM      4  C   LIG d   1       1.605  -0.812  -9.710  0.00  0.00    -0.040 A 
ATOM      5  C   LIG d   1       2.029  -2.107  -9.945  0.00  0.00     0.029 A 
ATOM      6  N   LIG d   1       3.000  -2.643  -9.234  0.00  0.00    -0.251 NA
ATOM      7  H   LIG d   1       1.894   0.943  -8.503  0.00  0.00     0.066 H 
ATOM      8  H   LIG d   1       0.811  -0.383 -10.303  0.00  0.00     0.063 H 
ATOM      9  H   LIG d   1       1.560  -2.686 -10.727  0.00  0.00     0.083 H 
ENDROOT
BRANCH   2  10
ATOM     10  O   LIG d   1       3.845   0.030  -6.971  0.00  0.00    -0.423 OA
BRANCH  10  11
ATOM     11  C   LIG d   1       3.273   0.035  -5.757  0.00  0.00     0.319 C 
ATOM     12  O   LIG d   1       2.081   0.203  -5.652  0.00  0.00    -0.250 OA
BRANCH  11  13
ATOM     13  C   LIG d   1       4.117  -0.169  -4.526  0.00  0.00     0.069 C 
ATOM     14  C   LIG d   1       3.888   0.989  -3.553  0.00  0.00    -0.034 C 
ATOM     15  C   LIG d   1       4.745   0.782  -2.303  0.00  0.00    -0.040 C 
ATOM     16  H   LIG d   1       4.165   1.928  -4.032  0.00  0.00     0.028 H 
ATOM     17  H   LIG d   1       2.836   1.022  -3.270  0.00  0.00     0.028 H 
ATOM     18  C   LIG d   1       6.222   0.736  -2.698  0.00  0.00    -0.047 C 
ATOM     19  C   LIG d   1       4.356  -0.535  -1.629  0.00  0.00    -0.047 C 
ATOM     20  H   LIG d   1       4.581   1.607  -1.609  0.00  0.00     0.030 H 
ATOM     21  C   LIG d   1       6.452  -0.422  -3.673  0.00  0.00    -0.040 C 
ATOM     22  H   LIG d   1       6.833   0.588  -1.808  0.00  0.00     0.027 H 
ATOM     23  H   LIG d   1       6.499   1.675  -3.178  0.00  0.00     0.027 H 
ATOM     24  C   LIG d   1       5.595  -0.215  -4.923  0.00  0.00    -0.034 C 
ATOM     25  C   LIG d   1       6.063  -1.739  -2.999  0.00  0.00    -0.047 C 
ATOM     26  H   LIG d   1       7.505  -0.455  -3.955  0.00  0.00     0.030 H 
ATOM     27  H   LIG d   1       5.759  -1.040  -5.616  0.00  0.00     0.028 H 
ATOM     28  H   LIG d   1       5.872   0.723  -5.402  0.00  0.00     0.028 H 
ATOM     29  C   LIG d   1       4.587  -1.692  -2.602  0.00  0.00    -0.040 C 
ATOM     30  H   LIG d   1       6.227  -2.565  -3.693  0.00  0.00     0.027 H 
ATOM     31  H   LIG d   1       6.674  -1.887  -2.109  0.00  0.00     0.027 H 
ATOM     32  C   LIG d   1       3.728  -1.486  -3.852  0.00  0.00    -0.034 C 
ATOM     33  H   LIG d   1       4.309  -2.631  -2.122  0.00  0.00     0.030 H 
ATOM     34  H   LIG d   1       2.677  -1.453  -3.571  0.00  0.00     0.028 H 
ATOM     35  H   LIG d   1       3.892  -2.311  -4.546  0.00  0.00     0.028 H 
ATOM     36  H   LIG d   1       4.967  -0.682  -0.739  0.00  0.00     0.027 H 
ATOM     37  H   LIG d   1       3.304  -0.502  -1.346  0.00  0.00     0.027 H 
ENDBRANCH  11  13
ENDBRANCH  10  11
ENDBRANCH   2  10
BRANCH   1  38
ATOM     38  C   LIG d   1       4.685  -2.620  -7.483  0.00  0.00     0.008 A 
ATOM     39  C   LIG d   1       4.376  -3.563  -6.502  0.00  0.00    -0.049 A 
ATOM     40  C   LIG d   1       5.386  -4.164  -5.780  0.00  0.00    -0.016 A 
ATOM     41  H   LIG d   1       3.346  -3.821  -6.310  0.00  0.00     0.062 H 
ATOM     42  C   LIG d   1       6.710  -3.834  -6.026  0.00  0.00     0.162 A 
ATOM     43  H   LIG d   1       5.144  -4.895  -5.022  0.00  0.00     0.066 H 
ATOM     44  C   LIG d   1       7.025  -2.889  -7.000  0.00  0.00     0.162 A 
ATOM     45  C   LIG d   1       6.017  -2.287  -7.731  0.00  0.00    -0.007 A 
ATOM     46  H   LIG d   1       6.259  -1.558  -8.490  0.00  0.00     0.066 H 
BRANCH  42  47
ATOM     47  O   LIG d   1       7.703  -4.429  -5.312  0.00  0.00    -0.491 OA
BRANCH  47  48
ATOM     48  C   LIG d   1       7.909  -5.826  -5.530  0.00  0.00     0.079 C 
ATOM     49  H   LIG d   1       7.307  -6.155  -6.378  0.00  0.00     0.066 H 
ATOM     50  H   LIG d   1       8.963  -6.010  -5.740  0.00  0.00     0.066 H 
ATOM     51  H   LIG d   1       7.614  -6.380  -4.639  0.00  0.00     0.066 H 
ENDBRANCH  47  48
ENDBRANCH  42  47
BRANCH  44  52
ATOM     52  O   LIG d   1       8.325  -2.562  -7.235  0.00  0.00    -0.491 OA
BRANCH  52  53
ATOM     53  C   LIG d   1       8.622  -1.175  -7.416  0.00  0.00     0.079 C 
ATOM     54  H   LIG d   1       8.733  -0.699  -6.441  0.00  0.00     0.066 H 
ATOM     55  H   LIG d   1       9.549  -1.073  -7.979  0.00  0.00     0.066 H 
ATOM     56  H   LIG d   1       7.809  -0.698  -7.962  0.00  0.00     0.066 H 
ENDBRANCH  52  53
ENDBRANCH  44  52
ENDBRANCH   1  38
TORSDOF 8
ENDMDL
MODEL 9
REMARK VINA RESULT:      -6.3      2.132      5.311
REMARK  8 active torsions:
REMARK  status: ('A' for Active; 'I' for Inactive)
REMARK    1  A    between atoms: C_1  and  O_2 
REMARK    2  A    between atoms: O_2  and  C_3 
REMARK    3  A    between atoms: C_6  and  C_11 
REMARK    4  A    between atoms: C_8  and  O_9 
REMARK    5  A    between atoms: O_9  and  C_10 
REMARK    6  A    between atoms: C_12  and  O_17 
REMARK    7  A    between atoms: O_17  and  C_18 
REMARK    8  A    between atoms: C_18  and  C_20 
ROOT
ATOM      1  C   LIG d   1       4.858  -1.443  -3.572  0.00  0.00     0.113 A 
ATOM      2  C   LIG d   1       4.108  -0.584  -4.383  0.00  0.00     0.158 A 
ATOM      3  C   LIG d   1       3.491   0.518  -3.808  0.00  0.00    -0.016 A 
ATOM      4  C   LIG d   1       3.644   0.724  -2.444  0.00  0.00    -0.040 A 
ATOM      5  C   LIG d   1       4.400  -0.165  -1.704  0.00  0.00     0.029 A 
ATOM      6  N   LIG d   1       4.971  -1.208  -2.271  0.00  0.00    -0.251 NA
ATOM      7  H   LIG d   1       2.906   1.200  -4.406  0.00  0.00     0.066 H 
ATOM      8  H   LIG d   1       3.178   1.573  -1.965  0.00  0.00     0.063 H 
ATOM      9  H   LIG d   1       4.520  -0.006  -0.641  0.00  0.00     0.083 H 
ENDROOT
BRANCH   2  10
ATOM     10  O   LIG d   1       3.986  -0.826  -5.715  0.00  0.00    -0.423 OA
BRANCH  10  11
ATOM     11  C   LIG d   1       4.766  -0.130  -6.556  0.00  0.00     0.319 C 
ATOM     12  O   LIG d   1       5.883   0.188  -6.221  0.00  0.00    -0.250 OA
BRANCH  11  13
ATOM     13  C   LIG d   1       4.249   0.257  -7.918  0.00  0.00     0.069 C 
ATOM     14  C   LIG d   1       3.882  -1.005  -8.701  0.00  0.00    -0.034 C 
ATOM     15  C   LIG d   1       3.357  -0.612 -10.083  0.00  0.00    -0.040 C 
ATOM     16  H   LIG d   1       4.764  -1.634  -8.813  0.00  0.00     0.028 H 
ATOM     17  H   LIG d   1       3.109  -1.554  -8.163  0.00  0.00     0.028 H 
ATOM     18  C   LIG d   1       4.439   0.159 -10.840  0.00  0.00    -0.047 C 
ATOM     19  C   LIG d   1       2.117   0.271  -9.926  0.00  0.00    -0.047 C 
ATOM     20  H   LIG d   1       3.094  -1.511 -10.641  0.00  0.00     0.030 H 
ATOM     21  C   LIG d   1       4.808   1.422 -10.057  0.00  0.00    -0.040 C 
ATOM     22  H   LIG d   1       4.066   0.440 -11.825  0.00  0.00     0.027 H 
ATOM     23  H   LIG d   1       5.323  -0.470 -10.952  0.00  0.00     0.027 H 
ATOM     24  C   LIG d   1       5.333   1.029  -8.675  0.00  0.00    -0.034 C 
ATOM     25  C   LIG d   1       3.569   2.304  -9.900  0.00  0.00    -0.047 C 
ATOM     26  H   LIG d   1       5.580   1.971 -10.596  0.00  0.00     0.030 H 
ATOM     27  H   LIG d   1       5.596   1.927  -8.117  0.00  0.00     0.028 H 
ATOM     28  H   LIG d   1       6.216   0.400  -8.786  0.00  0.00     0.028 H 
ATOM     29  C   LIG d   1       2.486   1.533  -9.144  0.00  0.00    -0.040 C 
ATOM     30  H   LIG d   1       3.831   3.204  -9.342  0.00  0.00     0.027 H 
ATOM     31  H   LIG d   1       3.195   2.584 -10.884  0.00  0.00     0.027 H 
ATOM     32  C   LIG d   1       3.010   1.140  -7.761  0.00  0.00    -0.034 C 
ATOM     33  H   LIG d   1       1.602   2.162  -9.032  0.00  0.00     0.030 H 
ATOM     34  H   LIG d   1       2.239   0.591  -7.222  0.00  0.00     0.028 H 
ATOM     35  H   LIG d   1       3.273   2.039  -7.203  0.00  0.00     0.028 H 
ATOM     36  H   LIG d   1       1.743   0.551 -10.911  0.00  0.00     0.027 H 
ATOM     37  H   LIG d   1       1.345  -0.278  -9.388  0.00  0.00     0.027 H 
ENDBRANCH  11  13
ENDBRANCH  10  11
ENDBRANCH   2  10
BRANCH   1  38
ATOM     38  C   LIG d   1       5.523  -2.625  -4.168  0.00  0.00     0.008 A 
ATOM     39  C   LIG d   1       6.915  -2.702  -4.198  0.00  0.00    -0.049 A 
ATOM     40  C   LIG d   1       7.533  -3.805  -4.753  0.00  0.00    -0.016 A 
ATOM     41  H   LIG d   1       7.508  -1.900  -3.787  0.00  0.00     0.062 H 
ATOM     42  C   LIG d   1       6.773  -4.837  -5.281  0.00  0.00     0.162 A 
ATOM     43  H   LIG d   1       8.611  -3.863  -4.774  0.00  0.00     0.066 H 
ATOM     44  C   LIG d   1       5.382  -4.763  -5.258  0.00  0.00     0.162 A 
ATOM     45  C   LIG d   1       4.757  -3.663  -4.699  0.00  0.00    -0.007 A 
ATOM     46  H   LIG d   1       3.679  -3.606  -4.676  0.00  0.00     0.066 H 
BRANCH  42  47
ATOM     47  O   LIG d   1       7.385  -5.921  -5.826  0.00  0.00    -0.491 OA
BRANCH  47  48
ATOM     48  C   LIG d   1       8.274  -6.656  -4.982  0.00  0.00     0.079 C 
ATOM     49  H   LIG d   1       7.716  -7.078  -4.146  0.00  0.00     0.066 H 
ATOM     50  H   LIG d   1       8.736  -7.461  -5.554  0.00  0.00     0.066 H 
ATOM     51  H   LIG d   1       9.049  -5.990  -4.602  0.00  0.00     0.066 H 
ENDBRANCH  47  48
ENDBRANCH  42  47
BRANCH  44  52
ATOM     52  O   LIG d   1       4.638  -5.774  -5.783  0.00  0.00    -0.491 OA
BRANCH  52  53
ATOM     53  C   LIG d   1       3.995  -5.524  -7.035  0.00  0.00     0.079 C 
ATOM     54  H   LIG d   1       4.483  -6.107  -7.816  0.00  0.00     0.066 H 
ATOM     55  H   LIG d   1       2.945  -5.811  -6.968  0.00  0.00     0.066 H 
ATOM     56  H   LIG d   1       4.067  -4.464  -7.275  0.00  0.00     0.066 H 
ENDBRANCH  52  53
ENDBRANCH  44  52
ENDBRANCH   1  38
TORSDOF 8
ENDMDL
MODEL 10
REMARK VINA RESULT:      -6.2      2.568      5.881
REMARK  8 active torsions:
REMARK  status: ('A' for Active; 'I' for Inactive)
REMARK    1  A    between atoms: C_1  and  O_2 
REMARK    2  A    between atoms: O_2  and  C_3 
REMARK    3  A    between atoms: C_6  and  C_11 
REMARK    4  A    between atoms: C_8  and  O_9 
REMARK    5  A    between atoms: O_9  and  C_10 
REMARK    6  A    between atoms: C_12  and  O_17 
REMARK    7  A    between atoms: O_17  and  C_18 
REMARK    8  A    between atoms: C_18  and  C_20 
ROOT
ATOM      1  C   LIG d   1       5.084  -1.704  -3.663  0.00  0.00     0.113 A 
ATOM      2  C   LIG d   1       4.327  -0.952  -4.568  0.00  0.00     0.158 A 
ATOM      3  C   LIG d   1       3.472   0.028  -4.080  0.00  0.00    -0.016 A 
ATOM      4  C   LIG d   1       3.404   0.222  -2.708  0.00  0.00    -0.040 A 
ATOM      5  C   LIG d   1       4.182  -0.558  -1.873  0.00  0.00     0.029 A 
ATOM      6  N   LIG d   1       4.981  -1.486  -2.358  0.00  0.00    -0.251 NA
ATOM      7  H   LIG d   1       2.875   0.625  -4.752  0.00  0.00     0.066 H 
ATOM      8  H   LIG d   1       2.750   0.977  -2.296  0.00  0.00     0.063 H 
ATOM      9  H   LIG d   1       4.130  -0.407  -0.804  0.00  0.00     0.083 H 
ENDROOT
BRANCH   2  10
ATOM     10  O   LIG d   1       4.426  -1.177  -5.905  0.00  0.00    -0.423 OA
BRANCH  10  11
ATOM     11  C   LIG d   1       5.043  -0.252  -6.655  0.00  0.00     0.319 C 
ATOM     12  O   LIG d   1       6.089   0.227  -6.286  0.00  0.00    -0.250 OA
BRANCH  11  13
ATOM     13  C   LIG d   1       4.428   0.193  -7.958  0.00  0.00     0.069 C 
ATOM     14  C   LIG d   1       3.128   0.948  -7.678  0.00  0.00    -0.034 C 
ATOM     15  C   LIG d   1       2.505   1.399  -9.000  0.00  0.00    -0.040 C 
ATOM     16  H   LIG d   1       2.433   0.293  -7.153  0.00  0.00     0.028 H 
ATOM     17  H   LIG d   1       3.341   1.821  -7.061  0.00  0.00     0.028 H 
ATOM     18  C   LIG d   1       2.205   0.175  -9.867  0.00  0.00    -0.047 C 
ATOM     19  C   LIG d   1       3.481   2.319  -9.736  0.00  0.00    -0.047 C 
ATOM     20  H   LIG d   1       1.579   1.938  -8.800  0.00  0.00     0.030 H 
ATOM     21  C   LIG d   1       3.506  -0.581 -10.148  0.00  0.00    -0.040 C 
ATOM     22  H   LIG d   1       1.762   0.496 -10.810  0.00  0.00     0.027 H 
ATOM     23  H   LIG d   1       1.510  -0.480  -9.342  0.00  0.00     0.027 H 
ATOM     24  C   LIG d   1       4.129  -1.033  -8.825  0.00  0.00    -0.034 C 
ATOM     25  C   LIG d   1       4.482   0.338 -10.884  0.00  0.00    -0.047 C 
ATOM     26  H   LIG d   1       3.292  -1.455 -10.765  0.00  0.00     0.030 H 
ATOM     27  H   LIG d   1       5.055  -1.571  -9.025  0.00  0.00     0.028 H 
ATOM     28  H   LIG d   1       3.434  -1.687  -8.301  0.00  0.00     0.028 H 
ATOM     29  C   LIG d   1       4.781   1.563 -10.017  0.00  0.00    -0.040 C 
ATOM     30  H   LIG d   1       5.409  -0.201 -11.084  0.00  0.00     0.027 H 
ATOM     31  H   LIG d   1       4.038   0.659 -11.826  0.00  0.00     0.027 H 
ATOM     32  C   LIG d   1       5.404   1.113  -8.694  0.00  0.00    -0.034 C 
ATOM     33  H   LIG d   1       5.476   2.218 -10.542  0.00  0.00     0.030 H 
ATOM     34  H   LIG d   1       5.618   1.984  -8.077  0.00  0.00     0.028 H 
ATOM     35  H   LIG d   1       6.331   0.574  -8.894  0.00  0.00     0.028 H 
ATOM     36  H   LIG d   1       3.037   2.640 -10.679  0.00  0.00     0.027 H 
ATOM     37  H   LIG d   1       3.694   3.192  -9.119  0.00  0.00     0.027 H 
ENDBRANCH  11  13
ENDBRANCH  10  11
ENDBRANCH   2  10
BRANCH   1  38
ATOM     38  C   LIG d   1       6.000  -2.754  -4.164  0.00  0.00     0.008 A 
ATOM     39  C   LIG d   1       5.506  -3.799  -4.945  0.00  0.00    -0.049 A 
ATOM     40  C   LIG d   1       6.361  -4.776  -5.412  0.00  0.00    -0.016 A 
ATOM     41  H   LIG d   1       4.454  -3.842  -5.183  0.00  0.00     0.062 H 
ATOM     42  C   LIG d   1       7.713  -4.722  -5.107  0.00  0.00     0.162 A 
ATOM     43  H   LIG d   1       5.976  -5.583  -6.017  0.00  0.00     0.066 H 
ATOM     44  C   LIG d   1       8.211  -3.684  -4.324  0.00  0.00     0.162 A 
ATOM     45  C   LIG d   1       7.360  -2.699  -3.858  0.00  0.00    -0.007 A 
ATOM     46  H   LIG d   1       7.745  -1.891  -3.254  0.00  0.00     0.066 H 
BRANCH  42  47
ATOM     47  O   LIG d   1       8.552  -5.687  -5.570  0.00  0.00    -0.491 OA
BRANCH  47  48
ATOM     48  C   LIG d   1       8.441  -6.982  -4.975  0.00  0.00     0.079 C 
ATOM     49  H   LIG d   1       8.950  -6.985  -4.011  0.00  0.00     0.066 H 
ATOM     50  H   LIG d   1       7.388  -7.226  -4.832  0.00  0.00     0.066 H 
ATOM     51  H   LIG d   1       8.899  -7.723  -5.631  0.00  0.00     0.066 H 
ENDBRANCH  47  48
ENDBRANCH  42  47
BRANCH  44  52
ATOM     52  O   LIG d   1       9.537  -3.637  -4.021  0.00  0.00    -0.491 OA
BRANCH  52  53
ATOM     53  C   LIG d   1       9.930  -4.157  -2.749  0.00  0.00     0.079 C 
ATOM     54  H   LIG d   1       9.125  -4.003  -2.030  0.00  0.00     0.066 H 
ATOM     55  H   LIG d   1      10.137  -5.223  -2.841  0.00  0.00     0.066 H 
ATOM     56  H   LIG d   1      10.826  -3.640  -2.406  0.00  0.00     0.066 H 
ENDBRANCH  52  53
ENDBRANCH  44  52
ENDBRANCH   1  38
TORSDOF 8
ENDMDL
