MODEL 1
REMARK VINA RESULT:      -6.5      0.000      0.000
REMARK  9 active torsions:
REMARK  status: ('A' for Active; 'I' for Inactive)
REMARK    1  A    between atoms: C_1  and  C_2 
REMARK    2  A    between atoms: C_4  and  N_30 
REMARK    3  A    between atoms: C_8  and  C_29 
REMARK    4  A    between atoms: C_11  and  O_28 
REMARK    5  A    between atoms: C_13  and  C_17 
REMARK    6  A    between atoms: C_17  and  C_19 
REMARK    7  A    between atoms: C_17  and  C_20 
REMARK       I    between atoms: C_20  and  N_22 
REMARK    8  A    between atoms: N_22  and  C_23 
REMARK       I    between atoms: N_30  and  C_31 
REMARK    9  A    between atoms: C_31  and  C_33 
ROOT
ATOM      1  C   LIG d   1      10.628   5.841  -3.380  0.00  0.00    -0.020 C 
ATOM      2  H   LIG d   1      11.655   5.452  -3.329  0.00  0.00     0.032 H 
ATOM      3  C   LIG d   1      10.667   7.348  -3.643  0.00  0.00     0.026 C 
ATOM      4  H   LIG d   1       9.648   7.764  -3.659  0.00  0.00     0.050 H 
ATOM      5  C   LIG d   1      11.380   7.616  -4.970  0.00  0.00    -0.034 C 
ATOM      6  C   LIG d   1      10.625   6.919  -6.104  0.00  0.00    -0.046 C 
ATOM      7  C   LIG d   1      10.587   5.413  -5.841  0.00  0.00    -0.026 C 
ATOM      8  C   LIG d   1       9.874   5.144  -4.514  0.00  0.00    -0.005 C 
ATOM      9  H   LIG d   1       8.847   5.534  -4.565  0.00  0.00     0.033 H 
ATOM     10  C   LIG d   1       9.836   3.638  -4.251  0.00  0.00     0.062 C 
ATOM     11  H   LIG d   1      10.850   3.227  -4.136  0.00  0.00     0.060 H 
ATOM     12  C   LIG d   1       9.082   2.941  -5.386  0.00  0.00    -0.004 C 
ATOM     13  H   LIG d   1       8.054   3.330  -5.436  0.00  0.00     0.033 H 
ATOM     14  C   LIG d   1       9.795   3.210  -6.713  0.00  0.00    -0.047 C 
ATOM     15  C   LIG d   1       9.833   4.716  -6.976  0.00  0.00    -0.047 C 
ATOM     16  H   LIG d   1      11.407   8.699  -5.158  0.00  0.00     0.028 H 
ATOM     17  H   LIG d   1      12.407   7.227  -4.919  0.00  0.00     0.028 H 
ATOM     18  H   LIG d   1       9.598   7.309  -6.155  0.00  0.00     0.027 H 
ATOM     19  H   LIG d   1      11.138   7.113  -7.058  0.00  0.00     0.027 H 
ATOM     20  H   LIG d   1      10.823   2.820  -6.662  0.00  0.00     0.027 H 
ATOM     21  H   LIG d   1       9.253   2.709  -7.528  0.00  0.00     0.027 H 
ATOM     22  H   LIG d   1       8.805   5.105  -7.026  0.00  0.00     0.027 H 
ATOM     23  H   LIG d   1      10.346   4.909  -7.930  0.00  0.00     0.027 H 
ENDROOT
BRANCH  12  24
ATOM     24  C   LIG d   1       9.044   1.435  -5.123  0.00  0.00     0.038 C 
ATOM     25  H   LIG d   1       9.556   1.206  -4.176  0.00  0.00     0.040 H 
BRANCH  24  26
ATOM     26  C   LIG d   1       9.728   0.698  -6.276  0.00  0.00    -0.054 C 
ATOM     27  H   LIG d   1      10.596   1.279  -6.620  0.00  0.00     0.024 H 
ATOM     28  H   LIG d   1       9.016   0.574  -7.106  0.00  0.00     0.024 H 
ATOM     29  H   LIG d   1      10.064  -0.292  -5.930  0.00  0.00     0.024 H 
ENDBRANCH  24  26
BRANCH  24  30
ATOM     30  C   LIG d   1       7.611   0.980  -5.016  0.00  0.00     0.216 C 
ATOM     31  O   LIG d   1       6.977   0.729  -6.020  0.00  0.00    -0.276 OA
ATOM     32  N   LIG d   1       7.034   0.845  -3.805  0.00  0.00    -0.312 N 
ATOM     33  H   LIG d   1       7.610   1.069  -2.894  0.00  0.00     0.149 HD
BRANCH  32  34
ATOM     34  C   LIG d   1       5.641   0.403  -3.702  0.00  0.00     0.023 C 
ATOM     35  C   LIG d   1       5.583  -1.028  -3.141  0.00  0.00    -0.035 C 
ATOM     36  C   LIG d   1       4.783  -0.953  -1.824  0.00  0.00    -0.051 C 
ATOM     37  H   LIG d   1       5.083  -1.686  -3.866  0.00  0.00     0.028 H 
ATOM     38  H   LIG d   1       6.605  -1.393  -2.959  0.00  0.00     0.028 H 
ATOM     39  C   LIG d   1       3.918   0.322  -1.978  0.00  0.00    -0.051 C 
ATOM     40  H   LIG d   1       5.439  -0.847  -0.948  0.00  0.00     0.027 H 
ATOM     41  H   LIG d   1       4.128  -1.826  -1.689  0.00  0.00     0.027 H 
ATOM     42  C   LIG d   1       4.875   1.298  -2.707  0.00  0.00    -0.035 C 
ATOM     43  H   LIG d   1       3.622   0.755  -1.010  0.00  0.00     0.027 H 
ATOM     44  H   LIG d   1       3.023   0.158  -2.595  0.00  0.00     0.027 H 
ATOM     45  H   LIG d   1       5.587   1.772  -2.016  0.00  0.00     0.028 H 
ATOM     46  H   LIG d   1       4.328   2.076  -3.261  0.00  0.00     0.028 H 
ATOM     47  H   LIG d   1       5.242   0.469  -4.725  0.00  0.00     0.050 H 
ENDBRANCH  32  34
ENDBRANCH  24  30
ENDBRANCH  12  24
BRANCH  10  48
ATOM     48  O   LIG d   1       9.170   3.387  -3.012  0.00  0.00    -0.391 OA
ATOM     49  H   LIG d   1       9.190   4.143  -2.213  0.00  0.00     0.210 HD
ENDBRANCH  10  48
BRANCH   1  50
ATOM     50  C   LIG d   1       9.915   5.573  -2.053  0.00  0.00    -0.060 C 
ATOM     51  H   LIG d   1      10.233   6.318  -1.309  0.00  0.00     0.023 H 
ATOM     52  H   LIG d   1      10.172   4.565  -1.696  0.00  0.00     0.023 H 
ATOM     53  H   LIG d   1       8.827   5.642  -2.201  0.00  0.00     0.023 H 
ENDBRANCH   1  50
BRANCH   7  54
ATOM     54  C   LIG d   1      12.016   4.871  -5.771  0.00  0.00    -0.059 C 
ATOM     55  H   LIG d   1      12.021   3.922  -5.214  0.00  0.00     0.024 H 
ATOM     56  H   LIG d   1      12.660   5.601  -5.258  0.00  0.00     0.024 H 
ATOM     57  H   LIG d   1      12.394   4.700  -6.789  0.00  0.00     0.024 H 
ENDBRANCH   7  54
BRANCH   3  58
ATOM     58  N   LIG d   1      11.388   8.015  -2.557  0.00  0.00    -0.312 N 
ATOM     59  C   LIG d   1      10.841   9.079  -1.938  0.00  0.00     0.216 C 
ATOM     60  O   LIG d   1       9.750   9.484  -2.279  0.00  0.00    -0.276 OA
ATOM     61  H   LIG d   1      12.378   7.647  -2.247  0.00  0.00     0.149 HD
BRANCH  59  62
ATOM     62  C   LIG d   1      11.583   9.766  -0.820  0.00  0.00     0.036 C 
ATOM     63  C   LIG d   1      10.580  10.404   0.143  0.00  0.00    -0.042 C 
ATOM     64  C   LIG d   1      11.334  11.101   1.277  0.00  0.00    -0.052 C 
ATOM     65  H   LIG d   1       9.970  11.141  -0.399  0.00  0.00     0.027 H 
ATOM     66  H   LIG d   1       9.927   9.624   0.562  0.00  0.00     0.027 H 
ATOM     67  C   LIG d   1      12.184  10.075   2.031  0.00  0.00    -0.053 C 
ATOM     68  H   LIG d   1      10.613  11.559   1.969  0.00  0.00     0.026 H 
ATOM     69  H   LIG d   1      11.987  11.881   0.858  0.00  0.00     0.026 H 
ATOM     70  C   LIG d   1      13.187   9.438   1.068  0.00  0.00    -0.052 C 
ATOM     71  H   LIG d   1      11.531   9.295   2.449  0.00  0.00     0.026 H 
ATOM     72  H   LIG d   1      12.725  10.576   2.846  0.00  0.00     0.026 H 
ATOM     73  C   LIG d   1      12.433   8.740  -0.066  0.00  0.00    -0.042 C 
ATOM     74  H   LIG d   1      13.797   8.700   1.609  0.00  0.00     0.026 H 
ATOM     75  H   LIG d   1      13.839  10.218   0.649  0.00  0.00     0.026 H 
ATOM     76  H   LIG d   1      11.780   7.961   0.352  0.00  0.00     0.027 H 
ATOM     77  H   LIG d   1      13.154   8.282  -0.760  0.00  0.00     0.027 H 
ATOM     78  H   LIG d   1      12.231  10.543  -1.254  0.00  0.00     0.039 H 
ENDBRANCH  59  62
ENDBRANCH   3  58
TORSDOF 9
ENDMDL
MODEL 2
REMARK VINA RESULT:      -6.4      2.285      3.474
REMARK  9 active torsions:
REMARK  status: ('A' for Active; 'I' for Inactive)
REMARK    1  A    between atoms: C_1  and  C_2 
REMARK    2  A    between atoms: C_4  and  N_30 
REMARK    3  A    between atoms: C_8  and  C_29 
REMARK    4  A    between atoms: C_11  and  O_28 
REMARK    5  A    between atoms: C_13  and  C_17 
REMARK    6  A    between atoms: C_17  and  C_19 
REMARK    7  A    between atoms: C_17  and  C_20 
REMARK       I    between atoms: C_20  and  N_22 
REMARK    8  A    between atoms: N_22  and  C_23 
REMARK       I    between atoms: N_30  and  C_31 
REMARK    9  A    between atoms: C_31  and  C_33 
ROOT
ATOM      1  C   LIG d   1       9.219   2.862  -5.074  0.00  0.00    -0.020 C 
ATOM      2  H   LIG d   1      10.150   2.280  -5.014  0.00  0.00     0.032 H 
ATOM      3  C   LIG d   1       9.554   4.352  -5.169  0.00  0.00     0.026 C 
ATOM      4  H   LIG d   1       8.634   4.956  -5.190  0.00  0.00     0.050 H 
ATOM      5  C   LIG d   1      10.396   4.606  -6.421  0.00  0.00    -0.034 C 
ATOM      6  C   LIG d   1       9.608   4.181  -7.661  0.00  0.00    -0.046 C 
ATOM      7  C   LIG d   1       9.272   2.692  -7.566  0.00  0.00    -0.026 C 
ATOM      8  C   LIG d   1       8.430   2.437  -6.314  0.00  0.00    -0.005 C 
ATOM      9  H   LIG d   1       7.499   3.019  -6.374  0.00  0.00     0.033 H 
ATOM     10  C   LIG d   1       8.095   0.947  -6.219  0.00  0.00     0.062 C 
ATOM     11  H   LIG d   1       9.005   0.340  -6.098  0.00  0.00     0.060 H 
ATOM     12  C   LIG d   1       7.307   0.522  -7.459  0.00  0.00    -0.004 C 
ATOM     13  H   LIG d   1       6.374   1.104  -7.519  0.00  0.00     0.033 H 
ATOM     14  C   LIG d   1       8.149   0.777  -8.711  0.00  0.00    -0.047 C 
ATOM     15  C   LIG d   1       8.484   2.267  -8.807  0.00  0.00    -0.047 C 
ATOM     16  H   LIG d   1      10.637   5.677  -6.488  0.00  0.00     0.028 H 
ATOM     17  H   LIG d   1      11.327   4.024  -6.361  0.00  0.00     0.028 H 
ATOM     18  H   LIG d   1       8.677   4.764  -7.720  0.00  0.00     0.027 H 
ATOM     19  H   LIG d   1      10.213   4.365  -8.561  0.00  0.00     0.027 H 
ATOM     20  H   LIG d   1       9.080   0.194  -8.652  0.00  0.00     0.027 H 
ATOM     21  H   LIG d   1       7.581   0.471  -9.603  0.00  0.00     0.027 H 
ATOM     22  H   LIG d   1       7.552   2.849  -8.866  0.00  0.00     0.027 H 
ATOM     23  H   LIG d   1       9.089   2.449  -9.706  0.00  0.00     0.027 H 
ENDROOT
BRANCH  12  24
ATOM     24  C   LIG d   1       6.971  -0.967  -7.365  0.00  0.00     0.038 C 
ATOM     25  H   LIG d   1       7.728  -1.484  -6.756  0.00  0.00     0.040 H 
BRANCH  24  26
ATOM     26  C   LIG d   1       6.933  -1.572  -8.769  0.00  0.00    -0.054 C 
ATOM     27  H   LIG d   1       6.135  -2.328  -8.822  0.00  0.00     0.024 H 
ATOM     28  H   LIG d   1       7.901  -2.044  -8.992  0.00  0.00     0.024 H 
ATOM     29  H   LIG d   1       6.734  -0.778  -9.505  0.00  0.00     0.024 H 
ENDBRANCH  24  26
BRANCH  24  30
ATOM     30  C   LIG d   1       5.626  -1.139  -6.708  0.00  0.00     0.216 C 
ATOM     31  O   LIG d   1       4.611  -1.002  -7.359  0.00  0.00    -0.276 OA
ATOM     32  N   LIG d   1       5.549  -1.449  -5.398  0.00  0.00    -0.312 N 
ATOM     33  H   LIG d   1       6.469  -1.576  -4.808  0.00  0.00     0.149 HD
BRANCH  32  34
ATOM     34  C   LIG d   1       4.240  -1.614  -4.760  0.00  0.00     0.023 C 
ATOM     35  C   LIG d   1       4.336  -2.648  -3.624  0.00  0.00    -0.035 C 
ATOM     36  C   LIG d   1       3.946  -1.913  -2.325  0.00  0.00    -0.051 C 
ATOM     37  H   LIG d   1       3.645  -3.480  -3.826  0.00  0.00     0.028 H 
ATOM     38  H   LIG d   1       5.365  -3.033  -3.564  0.00  0.00     0.028 H 
ATOM     39  C   LIG d   1       3.082  -0.722  -2.807  0.00  0.00    -0.051 C 
ATOM     40  H   LIG d   1       4.827  -1.533  -1.786  0.00  0.00     0.027 H 
ATOM     41  H   LIG d   1       3.351  -2.549  -1.653  0.00  0.00     0.027 H 
ATOM     42  C   LIG d   1       3.797  -0.287  -4.111  0.00  0.00    -0.035 C 
ATOM     43  H   LIG d   1       3.079   0.117  -2.095  0.00  0.00     0.027 H 
ATOM     44  H   LIG d   1       2.047  -1.013  -3.036  0.00  0.00     0.027 H 
ATOM     45  H   LIG d   1       4.680   0.336  -3.910  0.00  0.00     0.028 H 
ATOM     46  H   LIG d   1       3.120   0.246  -4.795  0.00  0.00     0.028 H 
ATOM     47  H   LIG d   1       3.566  -1.938  -5.566  0.00  0.00     0.050 H 
ENDBRANCH  32  34
ENDBRANCH  24  30
ENDBRANCH  12  24
BRANCH  10  48
ATOM     48  O   LIG d   1       7.309   0.709  -5.050  0.00  0.00    -0.391 OA
ATOM     49  H   LIG d   1       7.548  -0.136  -4.388  0.00  0.00     0.210 HD
ENDBRANCH  10  48
BRANCH   1  50
ATOM     50  C   LIG d   1       8.377   2.607  -3.822  0.00  0.00    -0.060 C 
ATOM     51  H   LIG d   1       8.518   1.567  -3.491  0.00  0.00     0.023 H 
ATOM     52  H   LIG d   1       7.315   2.778  -4.053  0.00  0.00     0.023 H 
ATOM     53  H   LIG d   1       8.692   3.293  -3.023  0.00  0.00     0.023 H 
ENDBRANCH   1  50
BRANCH   7  54
ATOM     54  C   LIG d   1      10.567   1.882  -7.483  0.00  0.00    -0.059 C 
ATOM     55  H   LIG d   1      11.024   2.021  -6.491  0.00  0.00     0.024 H 
ATOM     56  H   LIG d   1      11.265   2.226  -8.260  0.00  0.00     0.024 H 
ATOM     57  H   LIG d   1      10.344   0.816  -7.636  0.00  0.00     0.024 H 
ENDBRANCH   7  54
BRANCH   3  58
ATOM     58  N   LIG d   1      10.309   4.759  -3.981  0.00  0.00    -0.312 N 
ATOM     59  C   LIG d   1       9.990   5.899  -3.339  0.00  0.00     0.216 C 
ATOM     60  O   LIG d   1       9.078   6.589  -3.743  0.00  0.00    -0.276 OA
ATOM     61  H   LIG d   1      11.137   4.134  -3.615  0.00  0.00     0.149 HD
BRANCH  59  62
ATOM     62  C   LIG d   1      10.767   6.319  -2.116  0.00  0.00     0.036 C 
ATOM     63  C   LIG d   1       9.871   7.161  -1.206  0.00  0.00    -0.042 C 
ATOM     64  C   LIG d   1      10.659   7.586   0.034  0.00  0.00    -0.052 C 
ATOM     65  H   LIG d   1       9.533   8.054  -1.750  0.00  0.00     0.027 H 
ATOM     66  H   LIG d   1       8.998   6.565  -0.899  0.00  0.00     0.027 H 
ATOM     67  C   LIG d   1      11.131   6.342   0.791  0.00  0.00    -0.053 C 
ATOM     68  H   LIG d   1      10.015   8.191   0.689  0.00  0.00     0.026 H 
ATOM     69  H   LIG d   1      11.532   8.181  -0.273  0.00  0.00     0.026 H 
ATOM     70  C   LIG d   1      12.027   5.501  -0.120  0.00  0.00    -0.052 C 
ATOM     71  H   LIG d   1      10.258   5.747   1.097  0.00  0.00     0.026 H 
ATOM     72  H   LIG d   1      11.697   6.648   1.682  0.00  0.00     0.026 H 
ATOM     73  C   LIG d   1      11.238   5.075  -1.360  0.00  0.00    -0.042 C 
ATOM     74  H   LIG d   1      12.365   4.606   0.423  0.00  0.00     0.026 H 
ATOM     75  H   LIG d   1      12.900   6.096  -0.427  0.00  0.00     0.026 H 
ATOM     76  H   LIG d   1      10.365   4.480  -1.053  0.00  0.00     0.027 H 
ATOM     77  H   LIG d   1      11.883   4.470  -2.015  0.00  0.00     0.027 H 
ATOM     78  H   LIG d   1      11.636   6.912  -2.438  0.00  0.00     0.039 H 
ENDBRANCH  59  62
ENDBRANCH   3  58
TORSDOF 9
ENDMDL
MODEL 3
REMARK VINA RESULT:      -6.3      4.379      9.632
REMARK  9 active torsions:
REMARK  status: ('A' for Active; 'I' for Inactive)
REMARK    1  A    between atoms: C_1  and  C_2 
REMARK    2  A    between atoms: C_4  and  N_30 
REMARK    3  A    between atoms: C_8  and  C_29 
REMARK    4  A    between atoms: C_11  and  O_28 
REMARK    5  A    between atoms: C_13  and  C_17 
REMARK    6  A    between atoms: C_17  and  C_19 
REMARK    7  A    between atoms: C_17  and  C_20 
REMARK       I    between atoms: C_20  and  N_22 
REMARK    8  A    between atoms: N_22  and  C_23 
REMARK       I    between atoms: N_30  and  C_31 
REMARK    9  A    between atoms: C_31  and  C_33 
ROOT
ATOM      1  C   LIG d   1       8.791   2.235  -6.135  0.00  0.00    -0.020 C 
ATOM      2  H   LIG d   1       9.631   1.526  -6.144  0.00  0.00     0.032 H 
ATOM      3  C   LIG d   1       8.229   2.340  -4.716  0.00  0.00     0.026 C 
ATOM      4  H   LIG d   1       7.361   3.017  -4.692  0.00  0.00     0.050 H 
ATOM      5  C   LIG d   1       9.324   2.834  -3.768  0.00  0.00    -0.034 C 
ATOM      6  C   LIG d   1       9.812   4.210  -4.227  0.00  0.00    -0.046 C 
ATOM      7  C   LIG d   1      10.374   4.105  -5.646  0.00  0.00    -0.026 C 
ATOM      8  C   LIG d   1       9.279   3.611  -6.593  0.00  0.00    -0.005 C 
ATOM      9  H   LIG d   1       8.439   4.320  -6.584  0.00  0.00     0.033 H 
ATOM     10  C   LIG d   1       9.842   3.505  -8.012  0.00  0.00     0.062 C 
ATOM     11  H   LIG d   1      10.648   2.757  -8.067  0.00  0.00     0.060 H 
ATOM     12  C   LIG d   1      10.331   4.880  -8.470  0.00  0.00    -0.004 C 
ATOM     13  H   LIG d   1       9.490   5.591  -8.461  0.00  0.00     0.033 H 
ATOM     14  C   LIG d   1      11.426   5.375  -7.522  0.00  0.00    -0.047 C 
ATOM     15  C   LIG d   1      10.863   5.481  -6.103  0.00  0.00    -0.047 C 
ATOM     16  H   LIG d   1       8.919   2.910  -2.749  0.00  0.00     0.028 H 
ATOM     17  H   LIG d   1      10.164   2.125  -3.778  0.00  0.00     0.028 H 
ATOM     18  H   LIG d   1       8.971   4.919  -4.217  0.00  0.00     0.027 H 
ATOM     19  H   LIG d   1      10.599   4.565  -3.545  0.00  0.00     0.027 H 
ATOM     20  H   LIG d   1      12.266   4.666  -7.532  0.00  0.00     0.027 H 
ATOM     21  H   LIG d   1      11.777   6.364  -7.852  0.00  0.00     0.027 H 
ATOM     22  H   LIG d   1      10.022   6.190  -6.095  0.00  0.00     0.027 H 
ATOM     23  H   LIG d   1      11.651   5.835  -5.423  0.00  0.00     0.027 H 
ENDROOT
BRANCH  12  24
ATOM     24  C   LIG d   1      10.893   4.776  -9.889  0.00  0.00     0.038 C 
ATOM     25  H   LIG d   1      10.934   3.721 -10.199  0.00  0.00     0.040 H 
BRANCH  24  26
ATOM     26  C   LIG d   1      12.297   5.384  -9.927  0.00  0.00    -0.054 C 
ATOM     27  H   LIG d   1      12.240   6.415 -10.304  0.00  0.00     0.024 H 
ATOM     28  H   LIG d   1      12.937   4.785 -10.592  0.00  0.00     0.024 H 
ATOM     29  H   LIG d   1      12.723   5.387  -8.912  0.00  0.00     0.024 H 
ENDBRANCH  24  26
BRANCH  24  30
ATOM     30  C   LIG d   1       9.996   5.523 -10.841  0.00  0.00     0.216 C 
ATOM     31  O   LIG d   1       8.794   5.371 -10.788  0.00  0.00    -0.276 OA
ATOM     32  N   LIG d   1      10.529   6.364 -11.750  0.00  0.00    -0.312 N 
ATOM     33  H   LIG d   1      11.620   6.505 -11.796  0.00  0.00     0.149 HD
BRANCH  32  34
ATOM     34  C   LIG d   1       9.657   7.090 -12.677  0.00  0.00     0.023 C 
ATOM     35  C   LIG d   1       9.856   8.606 -12.509  0.00  0.00    -0.035 C 
ATOM     36  C   LIG d   1      10.350   9.139 -13.870  0.00  0.00    -0.051 C 
ATOM     37  H   LIG d   1       8.900   9.073 -12.229  0.00  0.00     0.028 H 
ATOM     38  H   LIG d   1      10.600   8.794 -11.721  0.00  0.00     0.028 H 
ATOM     39  C   LIG d   1       9.847   8.090 -14.894  0.00  0.00    -0.051 C 
ATOM     40  H   LIG d   1      11.447   9.199 -13.917  0.00  0.00     0.027 H 
ATOM     41  H   LIG d   1       9.917  10.121 -14.110  0.00  0.00     0.027 H 
ATOM     42  C   LIG d   1      10.037   6.754 -14.133  0.00  0.00    -0.035 C 
ATOM     43  H   LIG d   1      10.447   8.075 -15.816  0.00  0.00     0.027 H 
ATOM     44  H   LIG d   1       8.785   8.220 -15.148  0.00  0.00     0.027 H 
ATOM     45  H   LIG d   1      11.078   6.402 -14.169  0.00  0.00     0.028 H 
ATOM     46  H   LIG d   1       9.370   5.965 -14.513  0.00  0.00     0.028 H 
ATOM     47  H   LIG d   1       8.636   6.770 -12.421  0.00  0.00     0.050 H 
ENDBRANCH  32  34
ENDBRANCH  24  30
ENDBRANCH  12  24
BRANCH  10  48
ATOM     48  O   LIG d   1       8.820   3.043  -8.897  0.00  0.00    -0.391 OA
ATOM     49  H   LIG d   1       8.865   3.292  -9.968  0.00  0.00     0.210 HD
ENDBRANCH  10  48
BRANCH   1  50
ATOM     50  C   LIG d   1       7.696   1.741  -7.082  0.00  0.00    -0.060 C 
ATOM     51  H   LIG d   1       7.728   0.642  -7.137  0.00  0.00     0.023 H 
ATOM     52  H   LIG d   1       7.861   2.163  -8.085  0.00  0.00     0.023 H 
ATOM     53  H   LIG d   1       6.714   2.062  -6.706  0.00  0.00     0.023 H 
ENDBRANCH   1  50
BRANCH   7  54
ATOM     54  C   LIG d   1      11.544   3.118  -5.658  0.00  0.00    -0.059 C 
ATOM     55  H   LIG d   1      11.258   2.205  -5.115  0.00  0.00     0.024 H 
ATOM     56  H   LIG d   1      12.416   3.577  -5.171  0.00  0.00     0.024 H 
ATOM     57  H   LIG d   1      11.796   2.862  -6.698  0.00  0.00     0.024 H 
ENDBRANCH   7  54
BRANCH   3  58
ATOM     58  N   LIG d   1       7.761   1.023  -4.277  0.00  0.00    -0.312 N 
ATOM     59  C   LIG d   1       6.635   0.918  -3.545  0.00  0.00     0.216 C 
ATOM     60  O   LIG d   1       6.008   1.913  -3.250  0.00  0.00    -0.276 OA
ATOM     61  H   LIG d   1       8.330   0.120  -4.545  0.00  0.00     0.149 HD
BRANCH  59  62
ATOM     62  C   LIG d   1       6.153  -0.438  -3.094  0.00  0.00     0.036 C 
ATOM     63  C   LIG d   1       4.850  -0.280  -2.307  0.00  0.00    -0.042 C 
ATOM     64  C   LIG d   1       4.362  -1.656  -1.849  0.00  0.00    -0.052 C 
ATOM     65  H   LIG d   1       5.028   0.357  -1.429  0.00  0.00     0.027 H 
ATOM     66  H   LIG d   1       4.088   0.184  -2.950  0.00  0.00     0.027 H 
ATOM     67  C   LIG d   1       4.116  -2.543  -3.071  0.00  0.00    -0.053 C 
ATOM     68  H   LIG d   1       3.426  -1.543  -1.283  0.00  0.00     0.026 H 
ATOM     69  H   LIG d   1       5.124  -2.120  -1.206  0.00  0.00     0.026 H 
ATOM     70  C   LIG d   1       5.419  -2.700  -3.857  0.00  0.00    -0.052 C 
ATOM     71  H   LIG d   1       3.354  -2.079  -3.713  0.00  0.00     0.026 H 
ATOM     72  H   LIG d   1       3.765  -3.532  -2.741  0.00  0.00     0.026 H 
ATOM     73  C   LIG d   1       5.907  -1.325  -4.316  0.00  0.00    -0.042 C 
ATOM     74  H   LIG d   1       5.242  -3.338  -4.736  0.00  0.00     0.026 H 
ATOM     75  H   LIG d   1       6.181  -3.165  -3.214  0.00  0.00     0.026 H 
ATOM     76  H   LIG d   1       5.145  -0.860  -4.958  0.00  0.00     0.027 H 
ATOM     77  H   LIG d   1       6.844  -1.438  -4.881  0.00  0.00     0.027 H 
ATOM     78  H   LIG d   1       6.925  -0.890  -2.453  0.00  0.00     0.039 H 
ENDBRANCH  59  62
ENDBRANCH   3  58
TORSDOF 9
ENDMDL
MODEL 4
REMARK VINA RESULT:      -6.1      7.747     13.640
REMARK  9 active torsions:
REMARK  status: ('A' for Active; 'I' for Inactive)
REMARK    1  A    between atoms: C_1  and  C_2 
REMARK    2  A    between atoms: C_4  and  N_30 
REMARK    3  A    between atoms: C_8  and  C_29 
REMARK    4  A    between atoms: C_11  and  O_28 
REMARK    5  A    between atoms: C_13  and  C_17 
REMARK    6  A    between atoms: C_17  and  C_19 
REMARK    7  A    between atoms: C_17  and  C_20 
REMARK       I    between atoms: C_20  and  N_22 
REMARK    8  A    between atoms: N_22  and  C_23 
REMARK       I    between atoms: N_30  and  C_31 
REMARK    9  A    between atoms: C_31  and  C_33 
ROOT
ATOM      1  C   LIG d   1       2.891  -2.673  -9.155  0.00  0.00    -0.020 C 
ATOM      2  H   LIG d   1       2.338  -2.457  -8.228  0.00  0.00     0.032 H 
ATOM      3  C   LIG d   1       1.927  -2.635 -10.342  0.00  0.00     0.026 C 
ATOM      4  H   LIG d   1       2.454  -2.887 -11.276  0.00  0.00     0.050 H 
ATOM      5  C   LIG d   1       1.291  -1.247 -10.440  0.00  0.00    -0.034 C 
ATOM      6  C   LIG d   1       2.386  -0.197 -10.637  0.00  0.00    -0.046 C 
ATOM      7  C   LIG d   1       3.349  -0.235  -9.449  0.00  0.00    -0.026 C 
ATOM      8  C   LIG d   1       3.986  -1.623  -9.352  0.00  0.00    -0.005 C 
ATOM      9  H   LIG d   1       4.538  -1.838 -10.278  0.00  0.00     0.033 H 
ATOM     10  C   LIG d   1       4.948  -1.661  -8.163  0.00  0.00     0.062 C 
ATOM     11  H   LIG d   1       4.415  -1.507  -7.213  0.00  0.00     0.060 H 
ATOM     12  C   LIG d   1       6.043  -0.610  -8.361  0.00  0.00    -0.004 C 
ATOM     13  H   LIG d   1       6.596  -0.826  -9.287  0.00  0.00     0.033 H 
ATOM     14  C   LIG d   1       5.407   0.778  -8.458  0.00  0.00    -0.047 C 
ATOM     15  C   LIG d   1       4.444   0.816  -9.647  0.00  0.00    -0.047 C 
ATOM     16  H   LIG d   1       0.599  -1.221 -11.294  0.00  0.00     0.028 H 
ATOM     17  H   LIG d   1       0.739  -1.031  -9.514  0.00  0.00     0.028 H 
ATOM     18  H   LIG d   1       2.938  -0.413 -11.564  0.00  0.00     0.027 H 
ATOM     19  H   LIG d   1       1.929   0.801 -10.708  0.00  0.00     0.027 H 
ATOM     20  H   LIG d   1       4.855   0.994  -7.531  0.00  0.00     0.027 H 
ATOM     21  H   LIG d   1       6.194   1.533  -8.600  0.00  0.00     0.027 H 
ATOM     22  H   LIG d   1       4.997   0.600 -10.573  0.00  0.00     0.027 H 
ATOM     23  H   LIG d   1       3.987   1.814  -9.716  0.00  0.00     0.027 H 
ENDROOT
BRANCH  12  24
ATOM     24  C   LIG d   1       7.006  -0.648  -7.173  0.00  0.00     0.038 C 
ATOM     25  H   LIG d   1       7.463   0.343  -7.029  0.00  0.00     0.040 H 
BRANCH  24  26
ATOM     26  C   LIG d   1       8.095  -1.691  -7.432  0.00  0.00    -0.054 C 
ATOM     27  H   LIG d   1       8.153  -2.380  -6.577  0.00  0.00     0.024 H 
ATOM     28  H   LIG d   1       9.063  -1.185  -7.563  0.00  0.00     0.024 H 
ATOM     29  H   LIG d   1       7.850  -2.257  -8.343  0.00  0.00     0.024 H 
ENDBRANCH  24  26
BRANCH  24  30
ATOM     30  C   LIG d   1       6.248  -1.013  -5.922  0.00  0.00     0.216 C 
ATOM     31  O   LIG d   1       6.292  -2.148  -5.496  0.00  0.00    -0.276 OA
ATOM     32  N   LIG d   1       5.524  -0.078  -5.274  0.00  0.00    -0.312 N 
ATOM     33  H   LIG d   1       5.487   0.952  -5.659  0.00  0.00     0.149 HD
BRANCH  32  34
ATOM     34  C   LIG d   1       4.787  -0.434  -4.059  0.00  0.00     0.023 C 
ATOM     35  C   LIG d   1       5.608  -0.051  -2.815  0.00  0.00    -0.035 C 
ATOM     36  C   LIG d   1       4.761   0.970  -2.027  0.00  0.00    -0.051 C 
ATOM     37  H   LIG d   1       5.799  -0.951  -2.212  0.00  0.00     0.028 H 
ATOM     38  H   LIG d   1       6.565   0.390  -3.128  0.00  0.00     0.028 H 
ATOM     39  C   LIG d   1       3.307   0.687  -2.477  0.00  0.00    -0.051 C 
ATOM     40  H   LIG d   1       5.027   2.008  -2.278  0.00  0.00     0.027 H 
ATOM     41  H   LIG d   1       4.844   0.823  -0.940  0.00  0.00     0.027 H 
ATOM     42  C   LIG d   1       3.473   0.368  -3.984  0.00  0.00    -0.035 C 
ATOM     43  H   LIG d   1       2.648   1.560  -2.358  0.00  0.00     0.027 H 
ATOM     44  H   LIG d   1       2.865  -0.180  -1.966  0.00  0.00     0.027 H 
ATOM     45  H   LIG d   1       3.564   1.281  -4.592  0.00  0.00     0.028 H 
ATOM     46  H   LIG d   1       2.646  -0.247  -4.370  0.00  0.00     0.028 H 
ATOM     47  H   LIG d   1       4.618  -1.518  -4.133  0.00  0.00     0.050 H 
ENDBRANCH  32  34
ENDBRANCH  24  30
ENDBRANCH  12  24
BRANCH  10  48
ATOM     48  O   LIG d   1       5.542  -2.957  -8.072  0.00  0.00    -0.391 OA
ATOM     49  H   LIG d   1       5.222  -3.759  -8.753  0.00  0.00     0.210 HD
ENDBRANCH  10  48
BRANCH   1  50
ATOM     50  C   LIG d   1       3.527  -4.061  -9.057  0.00  0.00    -0.060 C 
ATOM     51  H   LIG d   1       4.470  -3.993  -8.494  0.00  0.00     0.023 H 
ATOM     52  H   LIG d   1       3.730  -4.443 -10.069  0.00  0.00     0.023 H 
ATOM     53  H   LIG d   1       2.838  -4.744  -8.539  0.00  0.00     0.023 H 
ENDBRANCH   1  50
BRANCH   7  54
ATOM     54  C   LIG d   1       2.581   0.066  -8.161  0.00  0.00    -0.059 C 
ATOM     55  H   LIG d   1       1.705   0.690  -8.394  0.00  0.00     0.024 H 
ATOM     56  H   LIG d   1       3.237   0.601  -7.459  0.00  0.00     0.024 H 
ATOM     57  H   LIG d   1       2.247  -0.878  -7.704  0.00  0.00     0.024 H 
ENDBRANCH   7  54
BRANCH   3  58
ATOM     58  N   LIG d   1       0.879  -3.640 -10.154  0.00  0.00    -0.312 N 
ATOM     59  C   LIG d   1       0.620  -4.535 -11.127  0.00  0.00     0.216 C 
ATOM     60  O   LIG d   1       1.256  -4.509 -12.160  0.00  0.00    -0.276 OA
ATOM     61  H   LIG d   1       0.303  -3.665  -9.217  0.00  0.00     0.149 HD
BRANCH  59  62
ATOM     62  C   LIG d   1      -0.458  -5.571 -10.933  0.00  0.00     0.036 C 
ATOM     63  C   LIG d   1       0.149  -6.830 -10.312  0.00  0.00    -0.042 C 
ATOM     64  C   LIG d   1      -0.946  -7.880 -10.115  0.00  0.00    -0.052 C 
ATOM     65  H   LIG d   1       0.925  -7.230 -10.979  0.00  0.00     0.027 H 
ATOM     66  H   LIG d   1       0.595  -6.579  -9.338  0.00  0.00     0.027 H 
ATOM     67  C   LIG d   1      -2.027  -7.323  -9.186  0.00  0.00    -0.053 C 
ATOM     68  H   LIG d   1      -0.510  -8.785  -9.668  0.00  0.00     0.026 H 
ATOM     69  H   LIG d   1      -1.392  -8.131 -11.089  0.00  0.00     0.026 H 
ATOM     70  C   LIG d   1      -2.634  -6.064  -9.809  0.00  0.00    -0.052 C 
ATOM     71  H   LIG d   1      -1.580  -7.072  -8.213  0.00  0.00     0.026 H 
ATOM     72  H   LIG d   1      -2.814  -8.078  -9.045  0.00  0.00     0.026 H 
ATOM     73  C   LIG d   1      -1.539  -5.013 -10.005  0.00  0.00    -0.042 C 
ATOM     74  H   LIG d   1      -3.411  -5.663  -9.141  0.00  0.00     0.026 H 
ATOM     75  H   LIG d   1      -3.080  -6.315 -10.783  0.00  0.00     0.026 H 
ATOM     76  H   LIG d   1      -1.093  -4.763  -9.032  0.00  0.00     0.027 H 
ATOM     77  H   LIG d   1      -1.976  -4.108 -10.453  0.00  0.00     0.027 H 
ATOM     78  H   LIG d   1      -0.895  -5.811 -11.914  0.00  0.00     0.039 H 
ENDBRANCH  59  62
ENDBRANCH   3  58
TORSDOF 9
ENDMDL
MODEL 5
REMARK VINA RESULT:      -6.1      4.589      8.312
REMARK  9 active torsions:
REMARK  status: ('A' for Active; 'I' for Inactive)
REMARK    1  A    between atoms: C_1  and  C_2 
REMARK    2  A    between atoms: C_4  and  N_30 
REMARK    3  A    between atoms: C_8  and  C_29 
REMARK    4  A    between atoms: C_11  and  O_28 
REMARK    5  A    between atoms: C_13  and  C_17 
REMARK    6  A    between atoms: C_17  and  C_19 
REMARK    7  A    between atoms: C_17  and  C_20 
REMARK       I    between atoms: C_20  and  N_22 
REMARK    8  A    between atoms: N_22  and  C_23 
REMARK       I    between atoms: N_30  and  C_31 
REMARK    9  A    between atoms: C_31  and  C_33 
ROOT
ATOM      1  C   LIG d   1       6.951  -0.009  -5.048  0.00  0.00    -0.020 C 
ATOM      2  H   LIG d   1       6.191   0.371  -5.745  0.00  0.00     0.032 H 
ATOM      3  C   LIG d   1       7.164   1.005  -3.923  0.00  0.00     0.026 C 
ATOM      4  H   LIG d   1       7.951   0.661  -3.234  0.00  0.00     0.050 H 
ATOM      5  C   LIG d   1       5.848   1.220  -3.173  0.00  0.00    -0.034 C 
ATOM      6  C   LIG d   1       5.377  -0.109  -2.579  0.00  0.00    -0.046 C 
ATOM      7  C   LIG d   1       5.164  -1.123  -3.704  0.00  0.00    -0.026 C 
ATOM      8  C   LIG d   1       6.480  -1.338  -4.454  0.00  0.00    -0.005 C 
ATOM      9  H   LIG d   1       7.241  -1.719  -3.757  0.00  0.00     0.033 H 
ATOM     10  C   LIG d   1       6.267  -2.352  -5.580  0.00  0.00     0.062 C 
ATOM     11  H   LIG d   1       5.554  -1.975  -6.327  0.00  0.00     0.060 H 
ATOM     12  C   LIG d   1       5.795  -3.681  -4.985  0.00  0.00    -0.004 C 
ATOM     13  H   LIG d   1       6.557  -4.062  -4.288  0.00  0.00     0.033 H 
ATOM     14  C   LIG d   1       4.479  -3.466  -4.236  0.00  0.00    -0.047 C 
ATOM     15  C   LIG d   1       4.692  -2.452  -3.110  0.00  0.00    -0.047 C 
ATOM     16  H   LIG d   1       6.002   1.950  -2.365  0.00  0.00     0.028 H 
ATOM     17  H   LIG d   1       5.087   1.601  -3.870  0.00  0.00     0.028 H 
ATOM     18  H   LIG d   1       6.138  -0.489  -1.882  0.00  0.00     0.027 H 
ATOM     19  H   LIG d   1       4.431   0.046  -2.040  0.00  0.00     0.027 H 
ATOM     20  H   LIG d   1       3.718  -3.086  -4.933  0.00  0.00     0.027 H 
ATOM     21  H   LIG d   1       4.140  -4.422  -3.808  0.00  0.00     0.027 H 
ATOM     22  H   LIG d   1       5.453  -2.833  -2.413  0.00  0.00     0.027 H 
ATOM     23  H   LIG d   1       3.745  -2.298  -2.572  0.00  0.00     0.027 H 
ENDROOT
BRANCH  12  24
ATOM     24  C   LIG d   1       5.582  -4.695  -6.110  0.00  0.00     0.038 C 
ATOM     25  H   LIG d   1       6.127  -4.376  -7.011  0.00  0.00     0.040 H 
BRANCH  24  26
ATOM     26  C   LIG d   1       4.088  -4.808  -6.419  0.00  0.00    -0.054 C 
ATOM     27  H   LIG d   1       3.663  -3.802  -6.551  0.00  0.00     0.024 H 
ATOM     28  H   LIG d   1       3.579  -5.317  -5.587  0.00  0.00     0.024 H 
ATOM     29  H   LIG d   1       3.948  -5.388  -7.344  0.00  0.00     0.024 H 
ENDBRANCH  24  26
BRANCH  24  30
ATOM     30  C   LIG d   1       6.109  -6.040  -5.681  0.00  0.00     0.216 C 
ATOM     31  O   LIG d   1       7.255  -6.150  -5.299  0.00  0.00    -0.276 OA
ATOM     32  N   LIG d   1       5.304  -7.122  -5.714  0.00  0.00    -0.312 N 
ATOM     33  H   LIG d   1       4.263  -7.022  -6.057  0.00  0.00     0.149 HD
BRANCH  32  34
ATOM     34  C   LIG d   1       5.817  -8.429  -5.297  0.00  0.00     0.023 C 
ATOM     35  C   LIG d   1       4.726  -9.204  -4.537  0.00  0.00    -0.035 C 
ATOM     36  C   LIG d   1       4.462 -10.495  -5.340  0.00  0.00    -0.051 C 
ATOM     37  H   LIG d   1       5.083  -9.439  -3.523  0.00  0.00     0.028 H 
ATOM     38  H   LIG d   1       3.817  -8.589  -4.472  0.00  0.00     0.028 H 
ATOM     39  C   LIG d   1       5.767 -10.717  -6.142  0.00  0.00    -0.051 C 
ATOM     40  H   LIG d   1       3.618 -10.382  -6.037  0.00  0.00     0.027 H 
ATOM     41  H   LIG d   1       4.283 -11.359  -4.683  0.00  0.00     0.027 H 
ATOM     42  C   LIG d   1       6.176  -9.276  -6.535  0.00  0.00    -0.035 C 
ATOM     43  H   LIG d   1       5.610 -11.314  -7.053  0.00  0.00     0.027 H 
ATOM     44  H   LIG d   1       6.565 -11.173  -5.538  0.00  0.00     0.027 H 
ATOM     45  H   LIG d   1       5.613  -8.910  -7.407  0.00  0.00     0.028 H 
ATOM     46  H   LIG d   1       7.255  -9.193  -6.735  0.00  0.00     0.028 H 
ATOM     47  H   LIG d   1       6.691  -8.208  -4.667  0.00  0.00     0.050 H 
ENDBRANCH  32  34
ENDBRANCH  24  30
ENDBRANCH  12  24
BRANCH  10  48
ATOM     48  O   LIG d   1       7.496  -2.553  -6.280  0.00  0.00    -0.391 OA
ATOM     49  H   LIG d   1       8.176  -1.706  -6.454  0.00  0.00     0.210 HD
ENDBRANCH  10  48
BRANCH   1  50
ATOM     50  C   LIG d   1       8.268  -0.224  -5.797  0.00  0.00    -0.060 C 
ATOM     51  H   LIG d   1       8.705   0.752  -6.057  0.00  0.00     0.023 H 
ATOM     52  H   LIG d   1       8.077  -0.797  -6.717  0.00  0.00     0.023 H 
ATOM     53  H   LIG d   1       8.967  -0.781  -5.157  0.00  0.00     0.023 H 
ENDBRANCH   1  50
BRANCH   7  54
ATOM     54  C   LIG d   1       4.105  -0.594  -4.674  0.00  0.00    -0.059 C 
ATOM     55  H   LIG d   1       3.528   0.205  -4.186  0.00  0.00     0.024 H 
ATOM     56  H   LIG d   1       3.429  -1.413  -4.961  0.00  0.00     0.024 H 
ATOM     57  H   LIG d   1       4.598  -0.193  -5.572  0.00  0.00     0.024 H 
ENDBRANCH   7  54
BRANCH   3  58
ATOM     58  N   LIG d   1       7.616   2.278  -4.491  0.00  0.00    -0.312 N 
ATOM     59  C   LIG d   1       8.787   2.814  -4.097  0.00  0.00     0.216 C 
ATOM     60  O   LIG d   1       9.469   2.243  -3.273  0.00  0.00    -0.276 OA
ATOM     61  H   LIG d   1       6.998   2.796  -5.240  0.00  0.00     0.149 HD
BRANCH  59  62
ATOM     62  C   LIG d   1       9.252   4.123  -4.683  0.00  0.00     0.036 C 
ATOM     63  C   LIG d   1      10.257   4.779  -3.733  0.00  0.00    -0.042 C 
ATOM     64  C   LIG d   1      10.729   6.107  -4.328  0.00  0.00    -0.052 C 
ATOM     65  H   LIG d   1       9.778   4.961  -2.761  0.00  0.00     0.027 H 
ATOM     66  H   LIG d   1      11.121   4.111  -3.597  0.00  0.00     0.027 H 
ATOM     67  C   LIG d   1      11.396   5.853  -5.681  0.00  0.00    -0.053 C 
ATOM     68  H   LIG d   1      11.451   6.578  -3.645  0.00  0.00     0.026 H 
ATOM     69  H   LIG d   1       9.865   6.775  -4.464  0.00  0.00     0.026 H 
ATOM     70  C   LIG d   1      10.390   5.198  -6.630  0.00  0.00    -0.052 C 
ATOM     71  H   LIG d   1      12.259   5.186  -5.544  0.00  0.00     0.026 H 
ATOM     72  H   LIG d   1      11.735   6.808  -6.108  0.00  0.00     0.026 H 
ATOM     73  C   LIG d   1       9.919   3.869  -6.036  0.00  0.00    -0.042 C 
ATOM     74  H   LIG d   1      10.869   5.014  -7.603  0.00  0.00     0.026 H 
ATOM     75  H   LIG d   1       9.526   5.865  -6.766  0.00  0.00     0.026 H 
ATOM     76  H   LIG d   1      10.783   3.202  -5.899  0.00  0.00     0.027 H 
ATOM     77  H   LIG d   1       9.196   3.398  -6.718  0.00  0.00     0.027 H 
ATOM     78  H   LIG d   1       8.379   4.780  -4.814  0.00  0.00     0.039 H 
ENDBRANCH  59  62
ENDBRANCH   3  58
TORSDOF 9
ENDMDL
MODEL 6
REMARK VINA RESULT:      -6.1      8.430     14.883
REMARK  9 active torsions:
REMARK  status: ('A' for Active; 'I' for Inactive)
REMARK    1  A    between atoms: C_1  and  C_2 
REMARK    2  A    between atoms: C_4  and  N_30 
REMARK    3  A    between atoms: C_8  and  C_29 
REMARK    4  A    between atoms: C_11  and  O_28 
REMARK    5  A    between atoms: C_13  and  C_17 
REMARK    6  A    between atoms: C_17  and  C_19 
REMARK    7  A    between atoms: C_17  and  C_20 
REMARK       I    between atoms: C_20  and  N_22 
REMARK    8  A    between atoms: N_22  and  C_23 
REMARK       I    between atoms: N_30  and  C_31 
REMARK    9  A    between atoms: C_31  and  C_33 
ROOT
ATOM      1  C   LIG d   1       2.623  -3.873 -10.465  0.00  0.00    -0.020 C 
ATOM      2  H   LIG d   1       1.527  -3.784 -10.467  0.00  0.00     0.032 H 
ATOM      3  C   LIG d   1       3.079  -4.573 -11.747  0.00  0.00     0.026 C 
ATOM      4  H   LIG d   1       4.171  -4.708 -11.747  0.00  0.00     0.050 H 
ATOM      5  C   LIG d   1       2.636  -3.754 -12.961  0.00  0.00    -0.034 C 
ATOM      6  C   LIG d   1       3.262  -2.360 -12.891  0.00  0.00    -0.046 C 
ATOM      7  C   LIG d   1       2.806  -1.660 -11.609  0.00  0.00    -0.026 C 
ATOM      8  C   LIG d   1       3.249  -2.479 -10.395  0.00  0.00    -0.005 C 
ATOM      9  H   LIG d   1       4.345  -2.569 -10.393  0.00  0.00     0.033 H 
ATOM     10  C   LIG d   1       2.792  -1.779  -9.113  0.00  0.00     0.062 C 
ATOM     11  H   LIG d   1       1.695  -1.727  -9.057  0.00  0.00     0.060 H 
ATOM     12  C   LIG d   1       3.418  -0.385  -9.044  0.00  0.00    -0.004 C 
ATOM     13  H   LIG d   1       4.515  -0.474  -9.042  0.00  0.00     0.033 H 
ATOM     14  C   LIG d   1       2.975   0.434 -10.258  0.00  0.00    -0.047 C 
ATOM     15  C   LIG d   1       3.432  -0.265 -11.540  0.00  0.00    -0.047 C 
ATOM     16  H   LIG d   1       2.964  -4.258 -13.882  0.00  0.00     0.028 H 
ATOM     17  H   LIG d   1       1.540  -3.665 -12.963  0.00  0.00     0.028 H 
ATOM     18  H   LIG d   1       4.358  -2.450 -12.890  0.00  0.00     0.027 H 
ATOM     19  H   LIG d   1       2.944  -1.771 -13.764  0.00  0.00     0.027 H 
ATOM     20  H   LIG d   1       1.879   0.525 -10.259  0.00  0.00     0.027 H 
ATOM     21  H   LIG d   1       3.426   1.437 -10.208  0.00  0.00     0.027 H 
ATOM     22  H   LIG d   1       4.528  -0.355 -11.537  0.00  0.00     0.027 H 
ATOM     23  H   LIG d   1       3.113   0.324 -12.412  0.00  0.00     0.027 H 
ENDROOT
BRANCH  12  24
ATOM     24  C   LIG d   1       2.962   0.315  -7.762  0.00  0.00     0.038 C 
ATOM     25  H   LIG d   1       1.968  -0.053  -7.467  0.00  0.00     0.040 H 
BRANCH  24  26
ATOM     26  C   LIG d   1       2.907   1.826  -7.998  0.00  0.00    -0.054 C 
ATOM     27  H   LIG d   1       3.364   2.348  -7.145  0.00  0.00     0.024 H 
ATOM     28  H   LIG d   1       1.859   2.143  -8.104  0.00  0.00     0.024 H 
ATOM     29  H   LIG d   1       3.459   2.074  -8.918  0.00  0.00     0.024 H 
ENDBRANCH  24  26
BRANCH  24  30
ATOM     30  C   LIG d   1       3.936   0.016  -6.652  0.00  0.00     0.216 C 
ATOM     31  O   LIG d   1       5.120   0.231  -6.809  0.00  0.00    -0.276 OA
ATOM     32  N   LIG d   1       3.492  -0.487  -5.482  0.00  0.00    -0.312 N 
ATOM     33  H   LIG d   1       2.418  -0.679  -5.339  0.00  0.00     0.149 HD
BRANCH  32  34
ATOM     34  C   LIG d   1       4.440  -0.779  -4.404  0.00  0.00     0.023 C 
ATOM     35  C   LIG d   1       4.527   0.420  -3.442  0.00  0.00    -0.035 C 
ATOM     36  C   LIG d   1       4.079  -0.093  -2.058  0.00  0.00    -0.051 C 
ATOM     37  H   LIG d   1       5.564   0.786  -3.407  0.00  0.00     0.028 H 
ATOM     38  H   LIG d   1       3.866   1.224  -3.797  0.00  0.00     0.028 H 
ATOM     39  C   LIG d   1       4.335  -1.619  -2.116  0.00  0.00    -0.051 C 
ATOM     40  H   LIG d   1       3.009   0.092  -1.876  0.00  0.00     0.027 H 
ATOM     41  H   LIG d   1       4.671   0.348  -1.243  0.00  0.00     0.027 H 
ATOM     42  C   LIG d   1       3.940  -1.976  -3.571  0.00  0.00    -0.035 C 
ATOM     43  H   LIG d   1       3.702  -2.183  -1.416  0.00  0.00     0.027 H 
ATOM     44  H   LIG d   1       5.390  -1.879  -1.949  0.00  0.00     0.027 H 
ATOM     45  H   LIG d   1       2.851  -2.078  -3.690  0.00  0.00     0.028 H 
ATOM     46  H   LIG d   1       4.434  -2.896  -3.919  0.00  0.00     0.028 H 
ATOM     47  H   LIG d   1       5.395  -0.982  -4.908  0.00  0.00     0.050 H 
ENDBRANCH  32  34
ENDBRANCH  24  30
ENDBRANCH  12  24
BRANCH  10  48
ATOM     48  O   LIG d   1       3.205  -2.544  -7.979  0.00  0.00    -0.391 OA
ATOM     49  H   LIG d   1       2.987  -2.184  -6.963  0.00  0.00     0.210 HD
ENDBRANCH  10  48
BRANCH   1  50
ATOM     50  C   LIG d   1       3.065  -4.692  -9.251  0.00  0.00    -0.060 C 
ATOM     51  H   LIG d   1       3.152  -5.752  -9.536  0.00  0.00     0.023 H 
ATOM     52  H   LIG d   1       2.322  -4.588  -8.447  0.00  0.00     0.023 H 
ATOM     53  H   LIG d   1       4.040  -4.327  -8.898  0.00  0.00     0.023 H 
ENDBRANCH   1  50
BRANCH   7  54
ATOM     54  C   LIG d   1       1.281  -1.535 -11.612  0.00  0.00    -0.059 C 
ATOM     55  H   LIG d   1       1.001  -0.473 -11.549  0.00  0.00     0.024 H 
ATOM     56  H   LIG d   1       0.868  -2.076 -10.748  0.00  0.00     0.024 H 
ATOM     57  H   LIG d   1       0.880  -1.965 -12.541  0.00  0.00     0.024 H 
ENDBRANCH   7  54
BRANCH   3  58
ATOM     58  N   LIG d   1       2.480  -5.908 -11.814  0.00  0.00    -0.312 N 
ATOM     59  C   LIG d   1       3.268  -7.001 -11.831  0.00  0.00     0.216 C 
ATOM     60  O   LIG d   1       4.474  -6.879 -11.791  0.00  0.00    -0.276 OA
ATOM     61  H   LIG d   1       1.386  -6.019 -11.850  0.00  0.00     0.149 HD
BRANCH  59  62
ATOM     62  C   LIG d   1       2.652  -8.375 -11.900  0.00  0.00     0.036 C 
ATOM     63  C   LIG d   1       2.868  -9.098 -10.569  0.00  0.00    -0.042 C 
ATOM     64  C   LIG d   1       2.242 -10.493 -10.639  0.00  0.00    -0.052 C 
ATOM     65  H   LIG d   1       3.946  -9.189 -10.372  0.00  0.00     0.027 H 
ATOM     66  H   LIG d   1       2.394  -8.524  -9.759  0.00  0.00     0.027 H 
ATOM     67  C   LIG d   1       0.743 -10.366 -10.914  0.00  0.00    -0.053 C 
ATOM     68  H   LIG d   1       2.398 -11.012  -9.683  0.00  0.00     0.026 H 
ATOM     69  H   LIG d   1       2.717 -11.067 -11.449  0.00  0.00     0.026 H 
ATOM     70  C   LIG d   1       0.527  -9.643 -12.245  0.00  0.00    -0.052 C 
ATOM     71  H   LIG d   1       0.269  -9.792 -10.104  0.00  0.00     0.026 H 
ATOM     72  H   LIG d   1       0.293 -11.369 -10.964  0.00  0.00     0.026 H 
ATOM     73  C   LIG d   1       1.152  -8.248 -12.175  0.00  0.00    -0.042 C 
ATOM     74  H   LIG d   1      -0.551  -9.551 -12.442  0.00  0.00     0.026 H 
ATOM     75  H   LIG d   1       1.002 -10.217 -13.055  0.00  0.00     0.026 H 
ATOM     76  H   LIG d   1       0.679  -7.675 -11.365  0.00  0.00     0.027 H 
ATOM     77  H   LIG d   1       0.998  -7.728 -13.132  0.00  0.00     0.027 H 
ATOM     78  H   LIG d   1       3.135  -8.937 -12.714  0.00  0.00     0.039 H 
ENDBRANCH  59  62
ENDBRANCH   3  58
TORSDOF 9
ENDMDL
MODEL 7
REMARK VINA RESULT:      -6.0     13.460     16.258
REMARK  9 active torsions:
REMARK  status: ('A' for Active; 'I' for Inactive)
REMARK    1  A    between atoms: C_1  and  C_2 
REMARK    2  A    between atoms: C_4  and  N_30 
REMARK    3  A    between atoms: C_8  and  C_29 
REMARK    4  A    between atoms: C_11  and  O_28 
REMARK    5  A    between atoms: C_13  and  C_17 
REMARK    6  A    between atoms: C_17  and  C_19 
REMARK    7  A    between atoms: C_17  and  C_20 
REMARK       I    between atoms: C_20  and  N_22 
REMARK    8  A    between atoms: N_22  and  C_23 
REMARK       I    between atoms: N_30  and  C_31 
REMARK    9  A    between atoms: C_31  and  C_33 
ROOT
ATOM      1  C   LIG d   1       6.684  -9.064  -4.477  0.00  0.00    -0.020 C 
ATOM      2  H   LIG d   1       7.014  -9.923  -5.079  0.00  0.00     0.032 H 
ATOM      3  C   LIG d   1       5.221  -8.750  -4.795  0.00  0.00     0.026 C 
ATOM      4  H   LIG d   1       4.883  -7.867  -4.230  0.00  0.00     0.050 H 
ATOM      5  C   LIG d   1       4.354  -9.966  -4.464  0.00  0.00    -0.034 C 
ATOM      6  C   LIG d   1       4.493 -10.302  -2.978  0.00  0.00    -0.046 C 
ATOM      7  C   LIG d   1       5.956 -10.617  -2.660  0.00  0.00    -0.026 C 
ATOM      8  C   LIG d   1       6.823  -9.400  -2.991  0.00  0.00    -0.005 C 
ATOM      9  H   LIG d   1       6.493  -8.541  -2.388  0.00  0.00     0.033 H 
ATOM     10  C   LIG d   1       8.286  -9.714  -2.673  0.00  0.00     0.062 C 
ATOM     11  H   LIG d   1       8.664 -10.533  -3.304  0.00  0.00     0.060 H 
ATOM     12  C   LIG d   1       8.424 -10.051  -1.187  0.00  0.00    -0.004 C 
ATOM     13  H   LIG d   1       8.094  -9.191  -0.584  0.00  0.00     0.033 H 
ATOM     14  C   LIG d   1       7.557 -11.268  -0.857  0.00  0.00    -0.047 C 
ATOM     15  C   LIG d   1       6.093 -10.953  -1.174  0.00  0.00    -0.047 C 
ATOM     16  H   LIG d   1       3.303  -9.740  -4.693  0.00  0.00     0.028 H 
ATOM     17  H   LIG d   1       4.684 -10.825  -5.067  0.00  0.00     0.028 H 
ATOM     18  H   LIG d   1       4.163  -9.443  -2.376  0.00  0.00     0.027 H 
ATOM     19  H   LIG d   1       3.869 -11.177  -2.741  0.00  0.00     0.027 H 
ATOM     20  H   LIG d   1       7.887 -12.127  -1.459  0.00  0.00     0.027 H 
ATOM     21  H   LIG d   1       7.656 -11.509   0.212  0.00  0.00     0.027 H 
ATOM     22  H   LIG d   1       5.765 -10.094  -0.571  0.00  0.00     0.027 H 
ATOM     23  H   LIG d   1       5.471 -11.828  -0.937  0.00  0.00     0.027 H 
ENDROOT
BRANCH  12  24
ATOM     24  C   LIG d   1       9.887 -10.365  -0.869  0.00  0.00     0.038 C 
ATOM     25  H   LIG d   1      10.446 -10.530  -1.802  0.00  0.00     0.040 H 
BRANCH  24  26
ATOM     26  C   LIG d   1       9.961 -11.616   0.009  0.00  0.00    -0.054 C 
ATOM     27  H   LIG d   1       9.354 -12.416  -0.439  0.00  0.00     0.024 H 
ATOM     28  H   LIG d   1       9.576 -11.382   1.013  0.00  0.00     0.024 H 
ATOM     29  H   LIG d   1      11.007 -11.949   0.085  0.00  0.00     0.024 H 
ENDBRANCH  24  26
BRANCH  24  30
ATOM     30  C   LIG d   1      10.503  -9.201  -0.137  0.00  0.00     0.216 C 
ATOM     31  O   LIG d   1      10.594  -8.121  -0.682  0.00  0.00    -0.276 OA
ATOM     32  N   LIG d   1      10.949  -9.358   1.125  0.00  0.00    -0.312 N 
ATOM     33  H   LIG d   1      10.863 -10.336   1.621  0.00  0.00     0.149 HD
BRANCH  32  34
ATOM     34  C   LIG d   1      11.549  -8.226   1.836  0.00  0.00     0.023 C 
ATOM     35  C   LIG d   1      11.372  -8.404   3.354  0.00  0.00    -0.035 C 
ATOM     36  C   LIG d   1      12.790  -8.460   3.959  0.00  0.00    -0.051 C 
ATOM     37  H   LIG d   1      10.807  -7.553   3.759  0.00  0.00     0.028 H 
ATOM     38  H   LIG d   1      10.824  -9.337   3.553  0.00  0.00     0.028 H 
ATOM     39  C   LIG d   1      13.676  -7.726   2.922  0.00  0.00    -0.051 C 
ATOM     40  H   LIG d   1      13.147  -9.494   4.079  0.00  0.00     0.027 H 
ATOM     41  H   LIG d   1      12.848  -7.938   4.926  0.00  0.00     0.027 H 
ATOM     42  C   LIG d   1      13.068  -8.181   1.572  0.00  0.00    -0.035 C 
ATOM     43  H   LIG d   1      14.731  -8.033   2.971  0.00  0.00     0.027 H 
ATOM     44  H   LIG d   1      13.608  -6.632   3.004  0.00  0.00     0.027 H 
ATOM     45  H   LIG d   1      13.419  -9.181   1.277  0.00  0.00     0.028 H 
ATOM     46  H   LIG d   1      13.278  -7.465   0.763  0.00  0.00     0.028 H 
ATOM     47  H   LIG d   1      11.027  -7.337   1.454  0.00  0.00     0.050 H 
ENDBRANCH  32  34
ENDBRANCH  24  30
ENDBRANCH  12  24
BRANCH  10  48
ATOM     48  O   LIG d   1       9.095  -8.578  -2.982  0.00  0.00    -0.391 OA
ATOM     49  H   LIG d   1      10.058  -8.712  -3.497  0.00  0.00     0.210 HD
ENDBRANCH  10  48
BRANCH   1  50
ATOM     50  C   LIG d   1       7.551  -7.847  -4.807  0.00  0.00    -0.060 C 
ATOM     51  H   LIG d   1       6.904  -6.982  -5.017  0.00  0.00     0.023 H 
ATOM     52  H   LIG d   1       8.169  -8.066  -5.691  0.00  0.00     0.023 H 
ATOM     53  H   LIG d   1       8.203  -7.619  -3.952  0.00  0.00     0.023 H 
ENDBRANCH   1  50
BRANCH   7  54
ATOM     54  C   LIG d   1       6.414 -11.812  -3.498  0.00  0.00    -0.059 C 
ATOM     55  H   LIG d   1       7.044 -11.458  -4.328  0.00  0.00     0.024 H 
ATOM     56  H   LIG d   1       5.535 -12.334  -3.903  0.00  0.00     0.024 H 
ATOM     57  H   LIG d   1       6.993 -12.502  -2.867  0.00  0.00     0.024 H 
ENDBRANCH   7  54
BRANCH   3  58
ATOM     58  N   LIG d   1       5.089  -8.428  -6.218  0.00  0.00    -0.312 N 
ATOM     59  C   LIG d   1       4.605  -7.228  -6.595  0.00  0.00     0.216 C 
ATOM     60  O   LIG d   1       4.280  -6.414  -5.757  0.00  0.00    -0.276 OA
ATOM     61  H   LIG d   1       5.384  -9.166  -6.978  0.00  0.00     0.149 HD
BRANCH  59  62
ATOM     62  C   LIG d   1       4.469  -6.896  -8.059  0.00  0.00     0.036 C 
ATOM     63  C   LIG d   1       3.689  -8.008  -8.764  0.00  0.00    -0.042 C 
ATOM     64  C   LIG d   1       3.552  -7.671 -10.250  0.00  0.00    -0.052 C 
ATOM     65  H   LIG d   1       4.227  -8.960  -8.652  0.00  0.00     0.027 H 
ATOM     66  H   LIG d   1       2.689  -8.096  -8.314  0.00  0.00     0.027 H 
ATOM     67  C   LIG d   1       2.804  -6.345 -10.406  0.00  0.00    -0.053 C 
ATOM     68  H   LIG d   1       2.991  -8.470 -10.757  0.00  0.00     0.026 H 
ATOM     69  H   LIG d   1       4.552  -7.583 -10.700  0.00  0.00     0.026 H 
ATOM     70  C   LIG d   1       3.584  -5.234  -9.701  0.00  0.00    -0.052 C 
ATOM     71  H   LIG d   1       1.804  -6.433  -9.956  0.00  0.00     0.026 H 
ATOM     72  H   LIG d   1       2.705  -6.103 -11.474  0.00  0.00     0.026 H 
ATOM     73  C   LIG d   1       3.721  -5.570  -8.215  0.00  0.00    -0.042 C 
ATOM     74  H   LIG d   1       3.047  -4.281  -9.812  0.00  0.00     0.026 H 
ATOM     75  H   LIG d   1       4.585  -5.146 -10.151  0.00  0.00     0.026 H 
ATOM     76  H   LIG d   1       2.722  -5.659  -7.765  0.00  0.00     0.027 H 
ATOM     77  H   LIG d   1       4.283  -4.771  -7.708  0.00  0.00     0.027 H 
ATOM     78  H   LIG d   1       5.476  -6.811  -8.495  0.00  0.00     0.039 H 
ENDBRANCH  59  62
ENDBRANCH   3  58
TORSDOF 9
ENDMDL
MODEL 8
REMARK VINA RESULT:      -6.0      8.288     13.839
REMARK  9 active torsions:
REMARK  status: ('A' for Active; 'I' for Inactive)
REMARK    1  A    between atoms: C_1  and  C_2 
REMARK    2  A    between atoms: C_4  and  N_30 
REMARK    3  A    between atoms: C_8  and  C_29 
REMARK    4  A    between atoms: C_11  and  O_28 
REMARK    5  A    between atoms: C_13  and  C_17 
REMARK    6  A    between atoms: C_17  and  C_19 
REMARK    7  A    between atoms: C_17  and  C_20 
REMARK       I    between atoms: C_20  and  N_22 
REMARK    8  A    between atoms: N_22  and  C_23 
REMARK       I    between atoms: N_30  and  C_31 
REMARK    9  A    between atoms: C_31  and  C_33 
ROOT
ATOM      1  C   LIG d   1       2.051  -0.803 -10.885  0.00  0.00    -0.020 C 
ATOM      2  H   LIG d   1       2.227   0.154 -11.396  0.00  0.00     0.032 H 
ATOM      3  C   LIG d   1       1.531  -1.831 -11.891  0.00  0.00     0.026 C 
ATOM      4  H   LIG d   1       1.311  -2.787 -11.390  0.00  0.00     0.050 H 
ATOM      5  C   LIG d   1       2.566  -2.029 -13.000  0.00  0.00    -0.034 C 
ATOM      6  C   LIG d   1       3.877  -2.530 -12.391  0.00  0.00    -0.046 C 
ATOM      7  C   LIG d   1       4.397  -1.502 -11.385  0.00  0.00    -0.026 C 
ATOM      8  C   LIG d   1       3.362  -1.304 -10.275  0.00  0.00    -0.005 C 
ATOM      9  H   LIG d   1       3.187  -2.262  -9.764  0.00  0.00     0.033 H 
ATOM     10  C   LIG d   1       3.882  -0.276  -9.269  0.00  0.00     0.062 C 
ATOM     11  H   LIG d   1       4.013   0.711  -9.738  0.00  0.00     0.060 H 
ATOM     12  C   LIG d   1       5.194  -0.777  -8.661  0.00  0.00    -0.004 C 
ATOM     13  H   LIG d   1       5.018  -1.735  -8.148  0.00  0.00     0.033 H 
ATOM     14  C   LIG d   1       6.229  -0.975  -9.770  0.00  0.00    -0.047 C 
ATOM     15  C   LIG d   1       5.709  -2.003 -10.776  0.00  0.00    -0.047 C 
ATOM     16  H   LIG d   1       2.191  -2.768 -13.724  0.00  0.00     0.028 H 
ATOM     17  H   LIG d   1       2.741  -1.071 -13.512  0.00  0.00     0.028 H 
ATOM     18  H   LIG d   1       3.700  -3.488 -11.880  0.00  0.00     0.027 H 
ATOM     19  H   LIG d   1       4.620  -2.672 -13.189  0.00  0.00     0.027 H 
ATOM     20  H   LIG d   1       6.405  -0.017 -10.282  0.00  0.00     0.027 H 
ATOM     21  H   LIG d   1       7.172  -1.335  -9.332  0.00  0.00     0.027 H 
ATOM     22  H   LIG d   1       5.532  -2.960 -10.264  0.00  0.00     0.027 H 
ATOM     23  H   LIG d   1       6.453  -2.144 -11.574  0.00  0.00     0.027 H 
ENDROOT
BRANCH  12  24
ATOM     24  C   LIG d   1       5.715   0.251  -7.654  0.00  0.00     0.038 C 
ATOM     25  H   LIG d   1       4.964   1.041  -7.503  0.00  0.00     0.040 H 
BRANCH  24  26
ATOM     26  C   LIG d   1       7.016   0.862  -8.177  0.00  0.00    -0.054 C 
ATOM     27  H   LIG d   1       7.094   0.690  -9.260  0.00  0.00     0.024 H 
ATOM     28  H   LIG d   1       7.871   0.394  -7.667  0.00  0.00     0.024 H 
ATOM     29  H   LIG d   1       7.018   1.945  -7.977  0.00  0.00     0.024 H 
ENDBRANCH  24  26
BRANCH  24  30
ATOM     30  C   LIG d   1       5.973  -0.426  -6.333  0.00  0.00     0.216 C 
ATOM     31  O   LIG d   1       6.801  -1.310  -6.255  0.00  0.00    -0.276 OA
ATOM     32  N   LIG d   1       5.289  -0.047  -5.235  0.00  0.00    -0.312 N 
ATOM     33  H   LIG d   1       4.541   0.757  -5.305  0.00  0.00     0.149 HD
BRANCH  32  34
ATOM     34  C   LIG d   1       5.540  -0.706  -3.951  0.00  0.00     0.023 C 
ATOM     35  C   LIG d   1       5.623   0.344  -2.828  0.00  0.00    -0.035 C 
ATOM     36  C   LIG d   1       4.494   0.011  -1.831  0.00  0.00    -0.051 C 
ATOM     37  H   LIG d   1       6.607   0.283  -2.342  0.00  0.00     0.028 H 
ATOM     38  H   LIG d   1       5.486   1.349  -3.255  0.00  0.00     0.028 H 
ATOM     39  C   LIG d   1       4.215  -1.495  -2.061  0.00  0.00    -0.051 C 
ATOM     40  H   LIG d   1       3.580   0.589  -2.033  0.00  0.00     0.027 H 
ATOM     41  H   LIG d   1       4.805   0.171  -0.788  0.00  0.00     0.027 H 
ATOM     42  C   LIG d   1       4.364  -1.638  -3.596  0.00  0.00    -0.035 C 
ATOM     43  H   LIG d   1       3.197  -1.788  -1.764  0.00  0.00     0.027 H 
ATOM     44  H   LIG d   1       4.946  -2.145  -1.559  0.00  0.00     0.027 H 
ATOM     45  H   LIG d   1       3.461  -1.311  -4.132  0.00  0.00     0.028 H 
ATOM     46  H   LIG d   1       4.612  -2.669  -3.892  0.00  0.00     0.028 H 
ATOM     47  H   LIG d   1       6.486  -1.249  -4.087  0.00  0.00     0.050 H 
ENDBRANCH  32  34
ENDBRANCH  24  30
ENDBRANCH  12  24
BRANCH  10  48
ATOM     48  O   LIG d   1       2.916  -0.091  -8.233  0.00  0.00    -0.391 OA
ATOM     49  H   LIG d   1       1.951   0.385  -8.459  0.00  0.00     0.210 HD
ENDBRANCH  10  48
BRANCH   1  50
ATOM     50  C   LIG d   1       1.016  -0.606  -9.775  0.00  0.00    -0.060 C 
ATOM     51  H   LIG d   1       0.967  -1.513  -9.154  0.00  0.00     0.023 H 
ATOM     52  H   LIG d   1       0.030  -0.414 -10.224  0.00  0.00     0.023 H 
ATOM     53  H   LIG d   1       1.307   0.252  -9.151  0.00  0.00     0.023 H 
ENDBRANCH   1  50
BRANCH   7  54
ATOM     54  C   LIG d   1       4.642  -0.170 -12.097  0.00  0.00    -0.059 C 
ATOM     55  H   LIG d   1       5.609  -0.207 -12.621  0.00  0.00     0.024 H 
ATOM     56  H   LIG d   1       4.656   0.644 -11.357  0.00  0.00     0.024 H 
ATOM     57  H   LIG d   1       3.837   0.009 -12.825  0.00  0.00     0.024 H 
ENDBRANCH   7  54
BRANCH   3  58
ATOM     58  N   LIG d   1       0.275  -1.352 -12.474  0.00  0.00    -0.312 N 
ATOM     59  C   LIG d   1      -0.629  -2.233 -12.945  0.00  0.00     0.216 C 
ATOM     60  O   LIG d   1      -0.403  -3.423 -12.887  0.00  0.00    -0.276 OA
ATOM     61  H   LIG d   1       0.071  -0.272 -12.527  0.00  0.00     0.149 HD
BRANCH  59  62
ATOM     62  C   LIG d   1      -1.921  -1.739 -13.545  0.00  0.00     0.036 C 
ATOM     63  C   LIG d   1      -3.074  -2.628 -13.075  0.00  0.00    -0.042 C 
ATOM     64  C   LIG d   1      -4.385  -2.127 -13.684  0.00  0.00    -0.052 C 
ATOM     65  H   LIG d   1      -2.893  -3.664 -13.396  0.00  0.00     0.027 H 
ATOM     66  H   LIG d   1      -3.142  -2.590 -11.977  0.00  0.00     0.027 H 
ATOM     67  C   LIG d   1      -4.637  -0.685 -13.238  0.00  0.00    -0.053 C 
ATOM     68  H   LIG d   1      -5.214  -2.766 -13.345  0.00  0.00     0.026 H 
ATOM     69  H   LIG d   1      -4.318  -2.165 -14.781  0.00  0.00     0.026 H 
ATOM     70  C   LIG d   1      -3.484   0.203 -13.708  0.00  0.00    -0.052 C 
ATOM     71  H   LIG d   1      -4.704  -0.648 -12.141  0.00  0.00     0.026 H 
ATOM     72  H   LIG d   1      -5.580  -0.326 -13.675  0.00  0.00     0.026 H 
ATOM     73  C   LIG d   1      -2.173  -0.297 -13.099  0.00  0.00    -0.042 C 
ATOM     74  H   LIG d   1      -3.664   1.239 -13.388  0.00  0.00     0.026 H 
ATOM     75  H   LIG d   1      -3.416   0.165 -14.806  0.00  0.00     0.026 H 
ATOM     76  H   LIG d   1      -2.240  -0.260 -12.002  0.00  0.00     0.027 H 
ATOM     77  H   LIG d   1      -1.343   0.341 -13.438  0.00  0.00     0.027 H 
ATOM     78  H   LIG d   1      -1.839  -1.782 -14.642  0.00  0.00     0.039 H 
ENDBRANCH  59  62
ENDBRANCH   3  58
TORSDOF 9
ENDMDL
MODEL 9
REMARK VINA RESULT:      -6.0      3.915      7.732
REMARK  9 active torsions:
REMARK  status: ('A' for Active; 'I' for Inactive)
REMARK    1  A    between atoms: C_1  and  C_2 
REMARK    2  A    between atoms: C_4  and  N_30 
REMARK    3  A    between atoms: C_8  and  C_29 
REMARK    4  A    between atoms: C_11  and  O_28 
REMARK    5  A    between atoms: C_13  and  C_17 
REMARK    6  A    between atoms: C_17  and  C_19 
REMARK    7  A    between atoms: C_17  and  C_20 
REMARK       I    between atoms: C_20  and  N_22 
REMARK    8  A    between atoms: N_22  and  C_23 
REMARK       I    between atoms: N_30  and  C_31 
REMARK    9  A    between atoms: C_31  and  C_33 
ROOT
ATOM      1  C   LIG d   1       7.620   0.130  -4.876  0.00  0.00    -0.020 C 
ATOM      2  H   LIG d   1       7.005   0.443  -5.732  0.00  0.00     0.032 H 
ATOM      3  C   LIG d   1       7.667   1.257  -3.843  0.00  0.00     0.026 C 
ATOM      4  H   LIG d   1       8.310   0.979  -2.994  0.00  0.00     0.050 H 
ATOM      5  C   LIG d   1       6.247   1.569  -3.364  0.00  0.00    -0.034 C 
ATOM      6  C   LIG d   1       5.638   0.319  -2.728  0.00  0.00    -0.046 C 
ATOM      7  C   LIG d   1       5.592  -0.809  -3.761  0.00  0.00    -0.026 C 
ATOM      8  C   LIG d   1       7.011  -1.120  -4.240  0.00  0.00    -0.005 C 
ATOM      9  H   LIG d   1       7.626  -1.434  -3.384  0.00  0.00     0.033 H 
ATOM     10  C   LIG d   1       6.965  -2.247  -5.274  0.00  0.00     0.062 C 
ATOM     11  H   LIG d   1       6.405  -1.943  -6.171  0.00  0.00     0.060 H 
ATOM     12  C   LIG d   1       6.354  -3.497  -4.637  0.00  0.00    -0.004 C 
ATOM     13  H   LIG d   1       6.970  -3.811  -3.781  0.00  0.00     0.033 H 
ATOM     14  C   LIG d   1       4.935  -3.186  -4.158  0.00  0.00    -0.047 C 
ATOM     15  C   LIG d   1       4.981  -2.059  -3.124  0.00  0.00    -0.047 C 
ATOM     16  H   LIG d   1       6.282   2.380  -2.621  0.00  0.00     0.028 H 
ATOM     17  H   LIG d   1       5.632   1.882  -4.220  0.00  0.00     0.028 H 
ATOM     18  H   LIG d   1       6.253   0.006  -1.871  0.00  0.00     0.027 H 
ATOM     19  H   LIG d   1       4.618   0.543  -2.383  0.00  0.00     0.027 H 
ATOM     20  H   LIG d   1       4.320  -2.873  -5.015  0.00  0.00     0.027 H 
ATOM     21  H   LIG d   1       4.497  -4.085  -3.700  0.00  0.00     0.027 H 
ATOM     22  H   LIG d   1       5.597  -2.372  -2.268  0.00  0.00     0.027 H 
ATOM     23  H   LIG d   1       3.961  -1.835  -2.781  0.00  0.00     0.027 H 
ENDROOT
BRANCH  12  24
ATOM     24  C   LIG d   1       6.308  -4.625  -5.670  0.00  0.00     0.038 C 
ATOM     25  H   LIG d   1       6.554  -4.230  -6.668  0.00  0.00     0.040 H 
BRANCH  24  26
ATOM     26  C   LIG d   1       4.909  -5.244  -5.687  0.00  0.00    -0.054 C 
ATOM     27  H   LIG d   1       4.291  -4.777  -4.907  0.00  0.00     0.024 H 
ATOM     28  H   LIG d   1       4.985  -6.326  -5.498  0.00  0.00     0.024 H 
ATOM     29  H   LIG d   1       4.446  -5.076  -6.671  0.00  0.00     0.024 H 
ENDBRANCH  24  26
BRANCH  24  30
ATOM     30  C   LIG d   1       7.320  -5.681  -5.308  0.00  0.00     0.216 C 
ATOM     31  O   LIG d   1       7.176  -6.820  -5.701  0.00  0.00    -0.276 OA
ATOM     32  N   LIG d   1       8.389  -5.360  -4.552  0.00  0.00    -0.312 N 
ATOM     33  H   LIG d   1       8.522  -4.326  -4.199  0.00  0.00     0.149 HD
BRANCH  32  34
ATOM     34  C   LIG d   1       9.372  -6.387  -4.199  0.00  0.00     0.023 C 
ATOM     35  C   LIG d   1      10.775  -5.952  -4.658  0.00  0.00    -0.035 C 
ATOM     36  C   LIG d   1      11.647  -5.866  -3.389  0.00  0.00    -0.051 C 
ATOM     37  H   LIG d   1      11.178  -6.696  -5.361  0.00  0.00     0.028 H 
ATOM     38  H   LIG d   1      10.711  -4.974  -5.157  0.00  0.00     0.028 H 
ATOM     39  C   LIG d   1      10.942  -6.804  -2.379  0.00  0.00    -0.051 C 
ATOM     40  H   LIG d   1      11.681  -4.846  -2.979  0.00  0.00     0.027 H 
ATOM     41  H   LIG d   1      12.672  -6.224  -3.567  0.00  0.00     0.027 H 
ATOM     42  C   LIG d   1       9.441  -6.549  -2.667  0.00  0.00    -0.035 C 
ATOM     43  H   LIG d   1      11.162  -6.545  -1.333  0.00  0.00     0.027 H 
ATOM     44  H   LIG d   1      11.172  -7.865  -2.551  0.00  0.00     0.027 H 
ATOM     45  H   LIG d   1       9.078  -5.630  -2.184  0.00  0.00     0.028 H 
ATOM     46  H   LIG d   1       8.811  -7.398  -2.361  0.00  0.00     0.028 H 
ATOM     47  H   LIG d   1       9.029  -7.300  -4.707  0.00  0.00     0.050 H 
ENDBRANCH  32  34
ENDBRANCH  24  30
ENDBRANCH  12  24
BRANCH  10  48
ATOM     48  O   LIG d   1       8.290  -2.539  -5.721  0.00  0.00    -0.391 OA
ATOM     49  H   LIG d   1       9.153  -2.282  -5.090  0.00  0.00     0.210 HD
ENDBRANCH  10  48
BRANCH   1  50
ATOM     50  C   LIG d   1       9.040  -0.182  -5.355  0.00  0.00    -0.060 C 
ATOM     51  H   LIG d   1       9.120   0.038  -6.430  0.00  0.00     0.023 H 
ATOM     52  H   LIG d   1       9.261  -1.245  -5.180  0.00  0.00     0.023 H 
ATOM     53  H   LIG d   1       9.758   0.438  -4.799  0.00  0.00     0.023 H 
ENDBRANCH   1  50
BRANCH   7  54
ATOM     54  C   LIG d   1       4.736  -0.373  -4.952  0.00  0.00    -0.059 C 
ATOM     55  H   LIG d   1       4.844   0.711  -5.104  0.00  0.00     0.024 H 
ATOM     56  H   LIG d   1       3.681  -0.612  -4.752  0.00  0.00     0.024 H 
ATOM     57  H   LIG d   1       5.067  -0.905  -5.856  0.00  0.00     0.024 H 
ENDBRANCH   7  54
BRANCH   3  58
ATOM     58  N   LIG d   1       8.251   2.455  -4.452  0.00  0.00    -0.312 N 
ATOM     59  C   LIG d   1       9.385   2.981  -3.950  0.00  0.00     0.216 C 
ATOM     60  O   LIG d   1       9.923   2.463  -2.995  0.00  0.00    -0.276 OA
ATOM     61  H   LIG d   1       7.763   2.925  -5.319  0.00  0.00     0.149 HD
BRANCH  59  62
ATOM     62  C   LIG d   1       9.987   4.213  -4.577  0.00  0.00     0.036 C 
ATOM     63  C   LIG d   1       9.707   4.209  -6.081  0.00  0.00    -0.042 C 
ATOM     64  C   LIG d   1      10.318   5.459  -6.717  0.00  0.00    -0.052 C 
ATOM     65  H   LIG d   1      10.153   3.312  -6.534  0.00  0.00     0.027 H 
ATOM     66  H   LIG d   1       8.620   4.205  -6.252  0.00  0.00     0.027 H 
ATOM     67  C   LIG d   1       9.697   6.708  -6.086  0.00  0.00    -0.053 C 
ATOM     68  H   LIG d   1      10.117   5.456  -7.798  0.00  0.00     0.026 H 
ATOM     69  H   LIG d   1      11.405   5.464  -6.547  0.00  0.00     0.026 H 
ATOM     70  C   LIG d   1       9.977   6.712  -4.582  0.00  0.00    -0.052 C 
ATOM     71  H   LIG d   1       8.611   6.703  -6.257  0.00  0.00     0.026 H 
ATOM     72  H   LIG d   1      10.136   7.606  -6.544  0.00  0.00     0.026 H 
ATOM     73  C   LIG d   1       9.366   5.462  -3.946  0.00  0.00    -0.042 C 
ATOM     74  H   LIG d   1       9.531   7.608  -4.129  0.00  0.00     0.026 H 
ATOM     75  H   LIG d   1      11.064   6.716  -4.412  0.00  0.00     0.026 H 
ATOM     76  H   LIG d   1       8.280   5.457  -4.117  0.00  0.00     0.027 H 
ATOM     77  H   LIG d   1       9.568   5.464  -2.865  0.00  0.00     0.027 H 
ATOM     78  H   LIG d   1      11.073   4.204  -4.398  0.00  0.00     0.039 H 
ENDBRANCH  59  62
ENDBRANCH   3  58
TORSDOF 9
ENDMDL
