MODEL 1
REMARK VINA RESULT:      -6.9      0.000      0.000
REMARK  7 active torsions:
REMARK  status: ('A' for Active; 'I' for Inactive)
REMARK    1  A    between atoms: C_1  and  C_2 
REMARK    2  A    between atoms: C_6  and  O_12 
REMARK    3  A    between atoms: C_9  and  C_11 
REMARK    4  A    between atoms: O_12  and  C_13 
REMARK    5  A    between atoms: C_13  and  C_15 
REMARK    6  A    between atoms: C_15  and  C_16 
REMARK    7  A    between atoms: C_15  and  C_20 
ROOT
ATOM      1  C   LIG d   1       4.734   0.737  -8.914  0.00  0.00    -0.041 C 
ATOM      2  H   LIG d   1       4.885  -0.021  -9.681  0.00  0.00     0.030 H 
ATOM      3  C   LIG d   1       6.060   1.018  -8.206  0.00  0.00    -0.047 C 
ATOM      4  C   LIG d   1       6.573  -0.269  -7.556  0.00  0.00    -0.015 C 
ATOM      5  C   LIG d   1       5.548  -0.771  -6.538  0.00  0.00     0.103 C 
ATOM      6  H   LIG d   1       5.913  -1.688  -6.075  0.00  0.00     0.073 H 
ATOM      7  C   LIG d   1       4.221  -1.052  -7.247  0.00  0.00    -0.013 C 
ATOM      8  C   LIG d   1       3.707   0.235  -7.896  0.00  0.00    -0.038 C 
ATOM      9  H   LIG d   1       3.556   0.994  -7.128  0.00  0.00     0.030 H 
ATOM     10  H   LIG d   1       6.791   1.375  -8.931  0.00  0.00     0.027 H 
ATOM     11  H   LIG d   1       5.908   1.776  -7.438  0.00  0.00     0.027 H 
ATOM     12  H   LIG d   1       6.726  -1.029  -8.324  0.00  0.00     0.030 H 
ATOM     13  H   LIG d   1       7.519  -0.070  -7.051  0.00  0.00     0.030 H 
ATOM     14  H   LIG d   1       4.372  -1.811  -8.015  0.00  0.00     0.030 H 
ATOM     15  H   LIG d   1       3.490  -1.409  -6.522  0.00  0.00     0.030 H 
ENDROOT
BRANCH   5  16
ATOM     16  O   LIG d   1       5.349   0.224  -5.532  0.00  0.00    -0.460 OA
BRANCH  16  17
ATOM     17  C   LIG d   1       5.279  -0.201  -4.260  0.00  0.00     0.347 C 
ATOM     18  O   LIG d   1       6.222  -0.766  -3.760  0.00  0.00    -0.248 OA
BRANCH  17  19
ATOM     19  C   LIG d   1       4.024   0.027  -3.458  0.00  0.00     0.328 C 
ATOM     20 CL   LIG d   1       2.757   0.751  -4.516  0.00  0.00    -0.088 Cl
BRANCH  19  21
ATOM     21  C   LIG d   1       3.524  -1.309  -2.904  0.00  0.00     0.427 C 
ATOM     22  F   LIG d   1       2.186  -1.182  -2.517  0.00  0.00    -0.168 F 
ATOM     23  F   LIG d   1       3.633  -2.294  -3.891  0.00  0.00    -0.168 F 
ATOM     24  F   LIG d   1       4.297  -1.672  -1.795  0.00  0.00    -0.168 F 
ENDBRANCH  19  21
BRANCH  19  25
ATOM     25  C   LIG d   1       4.326   0.979  -2.299  0.00  0.00     0.427 C 
ATOM     26  F   LIG d   1       3.187   1.738  -2.010  0.00  0.00    -0.168 F 
ATOM     27  F   LIG d   1       4.690   0.237  -1.170  0.00  0.00    -0.168 F 
ATOM     28  F   LIG d   1       5.377   1.831  -2.657  0.00  0.00    -0.168 F 
ENDBRANCH  19  25
ENDBRANCH  17  19
ENDBRANCH  16  17
ENDBRANCH   5  16
BRANCH   8  29
ATOM     29  C   LIG d   1       2.382  -0.045  -8.605  0.00  0.00    -0.062 C 
ATOM     30  H   LIG d   1       1.927  -0.943  -8.185  0.00  0.00     0.023 H 
ATOM     31  H   LIG d   1       1.709   0.801  -8.466  0.00  0.00     0.023 H 
ATOM     32  H   LIG d   1       2.563  -0.195  -9.670  0.00  0.00     0.023 H 
ENDBRANCH   8  29
BRANCH   1  33
ATOM     33  C   LIG d   1       4.221   2.024  -9.564  0.00  0.00    -0.062 C 
ATOM     34  H   LIG d   1       4.958   2.817  -9.430  0.00  0.00     0.023 H 
ATOM     35  H   LIG d   1       4.058   1.854 -10.628  0.00  0.00     0.023 H 
ATOM     36  H   LIG d   1       3.283   2.318  -9.095  0.00  0.00     0.023 H 
ENDBRANCH   1  33
TORSDOF 7
ENDMDL
MODEL 2
REMARK VINA RESULT:      -6.7      1.439      2.891
REMARK  7 active torsions:
REMARK  status: ('A' for Active; 'I' for Inactive)
REMARK    1  A    between atoms: C_1  and  C_2 
REMARK    2  A    between atoms: C_6  and  O_12 
REMARK    3  A    between atoms: C_9  and  C_11 
REMARK    4  A    between atoms: O_12  and  C_13 
REMARK    5  A    between atoms: C_13  and  C_15 
REMARK    6  A    between atoms: C_15  and  C_16 
REMARK    7  A    between atoms: C_15  and  C_20 
ROOT
ATOM      1  C   LIG d   1       5.060   0.415  -9.134  0.00  0.00    -0.041 C 
ATOM      2  H   LIG d   1       4.658  -0.147  -9.977  0.00  0.00     0.030 H 
ATOM      3  C   LIG d   1       5.358  -0.541  -7.978  0.00  0.00    -0.047 C 
ATOM      4  C   LIG d   1       4.067  -1.244  -7.553  0.00  0.00    -0.015 C 
ATOM      5  C   LIG d   1       3.043  -0.201  -7.101  0.00  0.00     0.103 C 
ATOM      6  H   LIG d   1       2.123  -0.701  -6.798  0.00  0.00     0.073 H 
ATOM      7  C   LIG d   1       2.745   0.756  -8.258  0.00  0.00    -0.013 C 
ATOM      8  C   LIG d   1       4.036   1.459  -8.683  0.00  0.00    -0.038 C 
ATOM      9  H   LIG d   1       4.437   2.022  -7.840  0.00  0.00     0.030 H 
ATOM     10  H   LIG d   1       6.087  -1.284  -8.299  0.00  0.00     0.027 H 
ATOM     11  H   LIG d   1       5.759   0.022  -7.135  0.00  0.00     0.027 H 
ATOM     12  H   LIG d   1       3.664  -1.807  -8.395  0.00  0.00     0.030 H 
ATOM     13  H   LIG d   1       4.278  -1.925  -6.729  0.00  0.00     0.030 H 
ATOM     14  H   LIG d   1       2.343   0.193  -9.101  0.00  0.00     0.030 H 
ATOM     15  H   LIG d   1       2.016   1.499  -7.936  0.00  0.00     0.030 H 
ENDROOT
BRANCH   5  16
ATOM     16  O   LIG d   1       3.570   0.537  -5.996  0.00  0.00    -0.460 OA
BRANCH  16  17
ATOM     17  C   LIG d   1       3.185   0.153  -4.769  0.00  0.00     0.347 C 
ATOM     18  O   LIG d   1       2.011   0.018  -4.518  0.00  0.00    -0.248 OA
BRANCH  17  19
ATOM     19  C   LIG d   1       4.219  -0.109  -3.704  0.00  0.00     0.328 C 
ATOM     20 CL   LIG d   1       5.868   0.034  -4.418  0.00  0.00    -0.088 Cl
BRANCH  19  21
ATOM     21  C   LIG d   1       4.060   0.913  -2.577  0.00  0.00     0.427 C 
ATOM     22  F   LIG d   1       2.802   0.763  -1.984  0.00  0.00    -0.168 F 
ATOM     23  F   LIG d   1       5.056   0.707  -1.617  0.00  0.00    -0.168 F 
ATOM     24  F   LIG d   1       4.178   2.206  -3.100  0.00  0.00    -0.168 F 
ENDBRANCH  19  21
BRANCH  19  25
ATOM     25  C   LIG d   1       4.026  -1.520  -3.144  0.00  0.00     0.427 C 
ATOM     26  F   LIG d   1       5.099  -1.840  -2.306  0.00  0.00    -0.168 F 
ATOM     27  F   LIG d   1       2.833  -1.573  -2.414  0.00  0.00    -0.168 F 
ATOM     28  F   LIG d   1       3.968  -2.437  -4.199  0.00  0.00    -0.168 F 
ENDBRANCH  19  25
ENDBRANCH  17  19
ENDBRANCH  16  17
ENDBRANCH   5  16
BRANCH   8  29
ATOM     29  C   LIG d   1       3.739   2.415  -9.839  0.00  0.00    -0.062 C 
ATOM     30  H   LIG d   1       2.904   2.029 -10.425  0.00  0.00     0.023 H 
ATOM     31  H   LIG d   1       3.481   3.396  -9.442  0.00  0.00     0.023 H 
ATOM     32  H   LIG d   1       4.620   2.500 -10.476  0.00  0.00     0.023 H 
ENDBRANCH   8  29
BRANCH   1  33
ATOM     33  C   LIG d   1       6.351   1.118  -9.560  0.00  0.00    -0.062 C 
ATOM     34  H   LIG d   1       6.614   0.812 -10.573  0.00  0.00     0.023 H 
ATOM     35  H   LIG d   1       6.204   2.197  -9.532  0.00  0.00     0.023 H 
ATOM     36  H   LIG d   1       7.155   0.843  -8.877  0.00  0.00     0.023 H 
ENDBRANCH   1  33
TORSDOF 7
ENDMDL
MODEL 3
REMARK VINA RESULT:      -6.5      1.755      2.624
REMARK  7 active torsions:
REMARK  status: ('A' for Active; 'I' for Inactive)
REMARK    1  A    between atoms: C_1  and  C_2 
REMARK    2  A    between atoms: C_6  and  O_12 
REMARK    3  A    between atoms: C_9  and  C_11 
REMARK    4  A    between atoms: O_12  and  C_13 
REMARK    5  A    between atoms: C_13  and  C_15 
REMARK    6  A    between atoms: C_15  and  C_16 
REMARK    7  A    between atoms: C_15  and  C_20 
ROOT
ATOM      1  C   LIG d   1       5.026   0.451  -8.981  0.00  0.00    -0.041 C 
ATOM      2  H   LIG d   1       4.490   0.018  -9.825  0.00  0.00     0.030 H 
ATOM      3  C   LIG d   1       5.313  -0.639  -7.946  0.00  0.00    -0.047 C 
ATOM      4  C   LIG d   1       3.992  -1.238  -7.458  0.00  0.00    -0.015 C 
ATOM      5  C   LIG d   1       3.138  -0.141  -6.821  0.00  0.00     0.103 C 
ATOM      6  H   LIG d   1       2.197  -0.569  -6.473  0.00  0.00     0.073 H 
ATOM      7  C   LIG d   1       2.851   0.948  -7.856  0.00  0.00    -0.013 C 
ATOM      8  C   LIG d   1       4.171   1.549  -8.344  0.00  0.00    -0.038 C 
ATOM      9  H   LIG d   1       4.707   1.982  -7.499  0.00  0.00     0.030 H 
ATOM     10  H   LIG d   1       5.921  -1.420  -8.400  0.00  0.00     0.027 H 
ATOM     11  H   LIG d   1       5.848  -0.205  -7.101  0.00  0.00     0.027 H 
ATOM     12  H   LIG d   1       3.456  -1.673  -8.303  0.00  0.00     0.030 H 
ATOM     13  H   LIG d   1       4.196  -2.015  -6.721  0.00  0.00     0.030 H 
ATOM     14  H   LIG d   1       2.315   0.515  -8.701  0.00  0.00     0.030 H 
ATOM     15  H   LIG d   1       2.242   1.730  -7.402  0.00  0.00     0.030 H 
ENDROOT
BRANCH   5  16
ATOM     16  O   LIG d   1       3.841   0.427  -5.714  0.00  0.00    -0.460 OA
BRANCH  16  17
ATOM     17  C   LIG d   1       3.448   0.052  -4.486  0.00  0.00     0.347 C 
ATOM     18  O   LIG d   1       2.278  -0.146  -4.261  0.00  0.00    -0.248 OA
BRANCH  17  19
ATOM     19  C   LIG d   1       4.467  -0.122  -3.390  0.00  0.00     0.328 C 
ATOM     20 CL   LIG d   1       3.865  -1.327  -2.192  0.00  0.00    -0.088 Cl
BRANCH  19  21
ATOM     21  C   LIG d   1       5.785  -0.615  -3.992  0.00  0.00     0.427 C 
ATOM     22  F   LIG d   1       6.732  -0.774  -2.975  0.00  0.00    -0.168 F 
ATOM     23  F   LIG d   1       5.575  -1.842  -4.631  0.00  0.00    -0.168 F 
ATOM     24  F   LIG d   1       6.251   0.321  -4.922  0.00  0.00    -0.168 F 
ENDBRANCH  19  21
BRANCH  19  25
ATOM     25  C   LIG d   1       4.698   1.220  -2.691  0.00  0.00     0.427 C 
ATOM     26  F   LIG d   1       5.945   1.731  -3.063  0.00  0.00    -0.168 F 
ATOM     27  F   LIG d   1       3.694   2.120  -3.068  0.00  0.00    -0.168 F 
ATOM     28  F   LIG d   1       4.662   1.036  -1.305  0.00  0.00    -0.168 F 
ENDBRANCH  19  25
ENDBRANCH  17  19
ENDBRANCH  16  17
ENDBRANCH   5  16
BRANCH   8  29
ATOM     29  C   LIG d   1       3.885   2.637  -9.379  0.00  0.00    -0.062 C 
ATOM     30  H   LIG d   1       4.348   3.572  -9.062  0.00  0.00     0.023 H 
ATOM     31  H   LIG d   1       4.293   2.338 -10.344  0.00  0.00     0.023 H 
ATOM     32  H   LIG d   1       2.808   2.779  -9.469  0.00  0.00     0.023 H 
ENDBRANCH   8  29
BRANCH   1  33
ATOM     33  C   LIG d   1       6.347   1.051  -9.469  0.00  0.00    -0.062 C 
ATOM     34  H   LIG d   1       6.971   1.300  -8.610  0.00  0.00     0.023 H 
ATOM     35  H   LIG d   1       6.864   0.327 -10.098  0.00  0.00     0.023 H 
ATOM     36  H   LIG d   1       6.144   1.954 -10.044  0.00  0.00     0.023 H 
ENDBRANCH   1  33
TORSDOF 7
ENDMDL
MODEL 4
REMARK VINA RESULT:      -6.5      1.239      2.370
REMARK  7 active torsions:
REMARK  status: ('A' for Active; 'I' for Inactive)
REMARK    1  A    between atoms: C_1  and  C_2 
REMARK    2  A    between atoms: C_6  and  O_12 
REMARK    3  A    between atoms: C_9  and  C_11 
REMARK    4  A    between atoms: O_12  and  C_13 
REMARK    5  A    between atoms: C_13  and  C_15 
REMARK    6  A    between atoms: C_15  and  C_16 
REMARK    7  A    between atoms: C_15  and  C_20 
ROOT
ATOM      1  C   LIG d   1       4.799   0.781  -8.690  0.00  0.00    -0.041 C 
ATOM      2  H   LIG d   1       4.942   0.087  -9.517  0.00  0.00     0.030 H 
ATOM      3  C   LIG d   1       6.122   0.966  -7.944  0.00  0.00    -0.047 C 
ATOM      4  C   LIG d   1       6.592  -0.385  -7.399  0.00  0.00    -0.015 C 
ATOM      5  C   LIG d   1       5.540  -0.943  -6.441  0.00  0.00     0.103 C 
ATOM      6  H   LIG d   1       5.875  -1.905  -6.053  0.00  0.00     0.073 H 
ATOM      7  C   LIG d   1       4.217  -1.128  -7.187  0.00  0.00    -0.013 C 
ATOM      8  C   LIG d   1       3.746   0.222  -7.732  0.00  0.00    -0.038 C 
ATOM      9  H   LIG d   1       3.602   0.917  -6.904  0.00  0.00     0.030 H 
ATOM     10  H   LIG d   1       6.872   1.364  -8.627  0.00  0.00     0.027 H 
ATOM     11  H   LIG d   1       5.978   1.661  -7.116  0.00  0.00     0.027 H 
ATOM     12  H   LIG d   1       6.737  -1.080  -8.227  0.00  0.00     0.030 H 
ATOM     13  H   LIG d   1       7.535  -0.254  -6.867  0.00  0.00     0.030 H 
ATOM     14  H   LIG d   1       4.360  -1.823  -8.015  0.00  0.00     0.030 H 
ATOM     15  H   LIG d   1       3.467  -1.526  -6.504  0.00  0.00     0.030 H 
ENDROOT
BRANCH   5  16
ATOM     16  O   LIG d   1       5.351  -0.032  -5.356  0.00  0.00    -0.460 OA
BRANCH  16  17
ATOM     17  C   LIG d   1       5.536  -0.514  -4.117  0.00  0.00     0.347 C 
ATOM     18  O   LIG d   1       6.511  -1.181  -3.867  0.00  0.00    -0.248 OA
BRANCH  17  19
ATOM     19  C   LIG d   1       4.525  -0.222  -3.038  0.00  0.00     0.328 C 
ATOM     20 CL   LIG d   1       4.721  -1.406  -1.693  0.00  0.00    -0.088 Cl
BRANCH  19  21
ATOM     21  C   LIG d   1       4.743   1.196  -2.505  0.00  0.00     0.427 C 
ATOM     22  F   LIG d   1       4.641   1.191  -1.110  0.00  0.00    -0.168 F 
ATOM     23  F   LIG d   1       6.013   1.645  -2.879  0.00  0.00    -0.168 F 
ATOM     24  F   LIG d   1       3.771   2.049  -3.041  0.00  0.00    -0.168 F 
ENDBRANCH  19  21
BRANCH  19  25
ATOM     25  C   LIG d   1       3.113  -0.338  -3.617  0.00  0.00     0.427 C 
ATOM     26  F   LIG d   1       2.944  -1.605  -4.183  0.00  0.00    -0.168 F 
ATOM     27  F   LIG d   1       2.174  -0.154  -2.596  0.00  0.00    -0.168 F 
ATOM     28  F   LIG d   1       2.931   0.641  -4.600  0.00  0.00    -0.168 F 
ENDBRANCH  19  25
ENDBRANCH  17  19
ENDBRANCH  16  17
ENDBRANCH   5  16
BRANCH   8  29
ATOM     29  C   LIG d   1       2.424   0.038  -8.478  0.00  0.00    -0.062 C 
ATOM     30  H   LIG d   1       1.624  -0.150  -7.761  0.00  0.00     0.023 H 
ATOM     31  H   LIG d   1       2.198   0.941  -9.045  0.00  0.00     0.023 H 
ATOM     32  H   LIG d   1       2.507  -0.809  -9.160  0.00  0.00     0.023 H 
ENDBRANCH   8  29
BRANCH   1  33
ATOM     33  C   LIG d   1       4.329   2.132  -9.235  0.00  0.00    -0.062 C 
ATOM     34  H   LIG d   1       3.751   2.650  -8.469  0.00  0.00     0.023 H 
ATOM     35  H   LIG d   1       5.194   2.735  -9.509  0.00  0.00     0.023 H 
ATOM     36  H   LIG d   1       3.704   1.971 -10.114  0.00  0.00     0.023 H 
ENDBRANCH   1  33
TORSDOF 7
ENDMDL
MODEL 5
REMARK VINA RESULT:      -6.5      2.746      3.471
REMARK  7 active torsions:
REMARK  status: ('A' for Active; 'I' for Inactive)
REMARK    1  A    between atoms: C_1  and  C_2 
REMARK    2  A    between atoms: C_6  and  O_12 
REMARK    3  A    between atoms: C_9  and  C_11 
REMARK    4  A    between atoms: O_12  and  C_13 
REMARK    5  A    between atoms: C_13  and  C_15 
REMARK    6  A    between atoms: C_15  and  C_16 
REMARK    7  A    between atoms: C_15  and  C_20 
ROOT
ATOM      1  C   LIG d   1       8.990   1.817  -6.325  0.00  0.00    -0.041 C 
ATOM      2  H   LIG d   1      10.024   1.522  -6.152  0.00  0.00     0.030 H 
ATOM      3  C   LIG d   1       8.527   2.741  -5.197  0.00  0.00    -0.047 C 
ATOM      4  C   LIG d   1       8.630   2.004  -3.860  0.00  0.00    -0.015 C 
ATOM      5  C   LIG d   1       7.744   0.758  -3.894  0.00  0.00     0.103 C 
ATOM      6  H   LIG d   1       7.817   0.233  -2.942  0.00  0.00     0.073 H 
ATOM      7  C   LIG d   1       8.206  -0.166  -5.022  0.00  0.00    -0.013 C 
ATOM      8  C   LIG d   1       8.103   0.570  -6.360  0.00  0.00    -0.038 C 
ATOM      9  H   LIG d   1       7.068   0.865  -6.532  0.00  0.00     0.030 H 
ATOM     10  H   LIG d   1       9.159   3.629  -5.172  0.00  0.00     0.027 H 
ATOM     11  H   LIG d   1       7.492   3.035  -5.370  0.00  0.00     0.027 H 
ATOM     12  H   LIG d   1       9.666   1.709  -3.686  0.00  0.00     0.030 H 
ATOM     13  H   LIG d   1       8.301   2.662  -3.055  0.00  0.00     0.030 H 
ATOM     14  H   LIG d   1       9.242  -0.461  -4.850  0.00  0.00     0.030 H 
ATOM     15  H   LIG d   1       7.575  -1.054  -5.047  0.00  0.00     0.030 H 
ENDROOT
BRANCH   5  16
ATOM     16  O   LIG d   1       6.387   1.145  -4.121  0.00  0.00    -0.460 OA
BRANCH  16  17
ATOM     17  C   LIG d   1       5.487   0.780  -3.195  0.00  0.00     0.347 C 
ATOM     18  O   LIG d   1       5.479   1.322  -2.115  0.00  0.00    -0.248 OA
BRANCH  17  19
ATOM     19  C   LIG d   1       4.487  -0.304  -3.502  0.00  0.00     0.328 C 
ATOM     20 CL   LIG d   1       4.642  -0.795  -5.229  0.00  0.00    -0.088 Cl
BRANCH  19  21
ATOM     21  C   LIG d   1       4.752  -1.513  -2.602  0.00  0.00     0.427 C 
ATOM     22  F   LIG d   1       4.015  -2.609  -3.062  0.00  0.00    -0.168 F 
ATOM     23  F   LIG d   1       6.116  -1.824  -2.628  0.00  0.00    -0.168 F 
ATOM     24  F   LIG d   1       4.369  -1.210  -1.290  0.00  0.00    -0.168 F 
ENDBRANCH  19  21
BRANCH  19  25
ATOM     25  C   LIG d   1       3.072   0.220  -3.247  0.00  0.00     0.427 C 
ATOM     26  F   LIG d   1       2.663   1.007  -4.328  0.00  0.00    -0.168 F 
ATOM     27  F   LIG d   1       2.194  -0.860  -3.098  0.00  0.00    -0.168 F 
ATOM     28  F   LIG d   1       3.064   0.991  -2.079  0.00  0.00    -0.168 F 
ENDBRANCH  19  25
ENDBRANCH  17  19
ENDBRANCH  16  17
ENDBRANCH   5  16
BRANCH   8  29
ATOM     29  C   LIG d   1       8.566  -0.353  -7.488  0.00  0.00    -0.062 C 
ATOM     30  H   LIG d   1       9.022  -1.247  -7.062  0.00  0.00     0.023 H 
ATOM     31  H   LIG d   1       7.709  -0.639  -8.098  0.00  0.00     0.023 H 
ATOM     32  H   LIG d   1       9.296   0.168  -8.107  0.00  0.00     0.023 H 
ENDBRANCH   8  29
BRANCH   1  33
ATOM     33  C   LIG d   1       8.886   2.554  -7.662  0.00  0.00    -0.062 C 
ATOM     34  H   LIG d   1       7.932   3.078  -7.715  0.00  0.00     0.023 H 
ATOM     35  H   LIG d   1       9.701   3.273  -7.745  0.00  0.00     0.023 H 
ATOM     36  H   LIG d   1       8.952   1.835  -8.479  0.00  0.00     0.023 H 
ENDBRANCH   1  33
TORSDOF 7
ENDMDL
MODEL 6
REMARK VINA RESULT:      -6.4      1.383      2.187
REMARK  7 active torsions:
REMARK  status: ('A' for Active; 'I' for Inactive)
REMARK    1  A    between atoms: C_1  and  C_2 
REMARK    2  A    between atoms: C_6  and  O_12 
REMARK    3  A    between atoms: C_9  and  C_11 
REMARK    4  A    between atoms: O_12  and  C_13 
REMARK    5  A    between atoms: C_13  and  C_15 
REMARK    6  A    between atoms: C_15  and  C_16 
REMARK    7  A    between atoms: C_15  and  C_20 
ROOT
ATOM      1  C   LIG d   1       4.262   0.996  -9.136  0.00  0.00    -0.041 C 
ATOM      2  H   LIG d   1       4.559   0.471 -10.043  0.00  0.00     0.030 H 
ATOM      3  C   LIG d   1       5.493   1.239  -8.261  0.00  0.00    -0.047 C 
ATOM      4  C   LIG d   1       6.128  -0.103  -7.889  0.00  0.00    -0.015 C 
ATOM      5  C   LIG d   1       5.114  -0.951  -7.118  0.00  0.00     0.103 C 
ATOM      6  H   LIG d   1       5.566  -1.907  -6.853  0.00  0.00     0.073 H 
ATOM      7  C   LIG d   1       3.883  -1.194  -7.993  0.00  0.00    -0.013 C 
ATOM      8  C   LIG d   1       3.248   0.148  -8.365  0.00  0.00    -0.038 C 
ATOM      9  H   LIG d   1       2.951   0.673  -7.457  0.00  0.00     0.030 H 
ATOM     10  H   LIG d   1       6.216   1.843  -8.809  0.00  0.00     0.027 H 
ATOM     11  H   LIG d   1       5.195   1.764  -7.352  0.00  0.00     0.027 H 
ATOM     12  H   LIG d   1       6.426  -0.628  -8.797  0.00  0.00     0.030 H 
ATOM     13  H   LIG d   1       7.005   0.070  -7.265  0.00  0.00     0.030 H 
ATOM     14  H   LIG d   1       4.180  -1.719  -8.902  0.00  0.00     0.030 H 
ATOM     15  H   LIG d   1       3.160  -1.798  -7.445  0.00  0.00     0.030 H 
ENDROOT
BRANCH   5  16
ATOM     16  O   LIG d   1       4.724  -0.262  -5.928  0.00  0.00    -0.460 OA
BRANCH  16  17
ATOM     17  C   LIG d   1       4.487  -1.012  -4.841  0.00  0.00     0.347 C 
ATOM     18  O   LIG d   1       4.308  -2.201  -4.955  0.00  0.00    -0.248 OA
BRANCH  17  19
ATOM     19  C   LIG d   1       4.445  -0.370  -3.478  0.00  0.00     0.328 C 
ATOM     20 CL   LIG d   1       5.725   0.894  -3.368  0.00  0.00    -0.088 Cl
BRANCH  19  21
ATOM     21  C   LIG d   1       3.073   0.272  -3.259  0.00  0.00     0.427 C 
ATOM     22  F   LIG d   1       2.648   0.879  -4.445  0.00  0.00    -0.168 F 
ATOM     23  F   LIG d   1       2.153  -0.711  -2.881  0.00  0.00    -0.168 F 
ATOM     24  F   LIG d   1       3.166   1.236  -2.249  0.00  0.00    -0.168 F 
ENDBRANCH  19  21
BRANCH  19  25
ATOM     25  C   LIG d   1       4.686  -1.435  -2.405  0.00  0.00     0.427 C 
ATOM     26  F   LIG d   1       5.984  -1.939  -2.532  0.00  0.00    -0.168 F 
ATOM     27  F   LIG d   1       4.530  -0.863  -1.138  0.00  0.00    -0.168 F 
ATOM     28  F   LIG d   1       3.764  -2.475  -2.565  0.00  0.00    -0.168 F 
ENDBRANCH  19  25
ENDBRANCH  17  19
ENDBRANCH  16  17
ENDBRANCH   5  16
BRANCH   8  29
ATOM     29  C   LIG d   1       2.017  -0.095  -9.240  0.00  0.00    -0.062 C 
ATOM     30  H   LIG d   1       2.308  -0.072 -10.291  0.00  0.00     0.023 H 
ATOM     31  H   LIG d   1       1.589  -1.069  -9.003  0.00  0.00     0.023 H 
ATOM     32  H   LIG d   1       1.278   0.683  -9.051  0.00  0.00     0.023 H 
ENDBRANCH   8  29
BRANCH   1  33
ATOM     33  C   LIG d   1       3.628   2.338  -9.507  0.00  0.00    -0.062 C 
ATOM     34  H   LIG d   1       3.704   3.022  -8.662  0.00  0.00     0.023 H 
ATOM     35  H   LIG d   1       4.150   2.761 -10.365  0.00  0.00     0.023 H 
ATOM     36  H   LIG d   1       2.578   2.186  -9.758  0.00  0.00     0.023 H 
ENDBRANCH   1  33
TORSDOF 7
ENDMDL
MODEL 7
REMARK VINA RESULT:      -6.4      1.893      3.140
REMARK  7 active torsions:
REMARK  status: ('A' for Active; 'I' for Inactive)
REMARK    1  A    between atoms: C_1  and  C_2 
REMARK    2  A    between atoms: C_6  and  O_12 
REMARK    3  A    between atoms: C_9  and  C_11 
REMARK    4  A    between atoms: O_12  and  C_13 
REMARK    5  A    between atoms: C_13  and  C_15 
REMARK    6  A    between atoms: C_15  and  C_16 
REMARK    7  A    between atoms: C_15  and  C_20 
ROOT
ATOM      1  C   LIG d   1       2.887  -1.147  -9.341  0.00  0.00    -0.041 C 
ATOM      2  H   LIG d   1       3.537  -0.821 -10.152  0.00  0.00     0.030 H 
ATOM      3  C   LIG d   1       2.410   0.071  -8.548  0.00  0.00    -0.047 C 
ATOM      4  C   LIG d   1       3.619   0.807  -7.967  0.00  0.00    -0.015 C 
ATOM      5  C   LIG d   1       4.392  -0.133  -7.041  0.00  0.00     0.103 C 
ATOM      6  H   LIG d   1       5.254   0.391  -6.627  0.00  0.00     0.073 H 
ATOM      7  C   LIG d   1       4.870  -1.352  -7.834  0.00  0.00    -0.013 C 
ATOM      8  C   LIG d   1       3.661  -2.088  -8.415  0.00  0.00    -0.038 C 
ATOM      9  H   LIG d   1       3.010  -2.415  -7.603  0.00  0.00     0.030 H 
ATOM     10  H   LIG d   1       1.859   0.741  -9.208  0.00  0.00     0.027 H 
ATOM     11  H   LIG d   1       1.760  -0.256  -7.736  0.00  0.00     0.027 H 
ATOM     12  H   LIG d   1       4.270   1.134  -8.779  0.00  0.00     0.030 H 
ATOM     13  H   LIG d   1       3.280   1.675  -7.403  0.00  0.00     0.030 H 
ATOM     14  H   LIG d   1       5.520  -1.026  -8.646  0.00  0.00     0.030 H 
ATOM     15  H   LIG d   1       5.420  -2.022  -7.174  0.00  0.00     0.030 H 
ENDROOT
BRANCH   5  16
ATOM     16  O   LIG d   1       3.539  -0.562  -5.977  0.00  0.00    -0.460 OA
BRANCH  16  17
ATOM     17  C   LIG d   1       3.921  -0.251  -4.728  0.00  0.00     0.347 C 
ATOM     18  O   LIG d   1       3.796   0.879  -4.322  0.00  0.00    -0.248 OA
BRANCH  17  19
ATOM     19  C   LIG d   1       4.506  -1.314  -3.834  0.00  0.00     0.328 C 
ATOM     20 CL   LIG d   1       4.514  -2.894  -4.702  0.00  0.00    -0.088 Cl
BRANCH  19  21
ATOM     21  C   LIG d   1       5.939  -0.931  -3.457  0.00  0.00     0.427 C 
ATOM     22  F   LIG d   1       6.686  -0.720  -4.620  0.00  0.00    -0.168 F 
ATOM     23  F   LIG d   1       5.923   0.240  -2.693  0.00  0.00    -0.168 F 
ATOM     24  F   LIG d   1       6.516  -1.966  -2.712  0.00  0.00    -0.168 F 
ENDBRANCH  19  21
BRANCH  19  25
ATOM     25  C   LIG d   1       3.660  -1.434  -2.564  0.00  0.00     0.427 C 
ATOM     26  F   LIG d   1       4.193  -0.609  -1.569  0.00  0.00    -0.168 F 
ATOM     27  F   LIG d   1       2.345  -1.041  -2.842  0.00  0.00    -0.168 F 
ATOM     28  F   LIG d   1       3.666  -2.762  -2.123  0.00  0.00    -0.168 F 
ENDBRANCH  19  25
ENDBRANCH  17  19
ENDBRANCH  16  17
ENDBRANCH   5  16
BRANCH   8  29
ATOM     29  C   LIG d   1       4.138  -3.306  -9.207  0.00  0.00    -0.062 C 
ATOM     30  H   LIG d   1       5.192  -3.186  -9.460  0.00  0.00     0.023 H 
ATOM     31  H   LIG d   1       4.009  -4.205  -8.605  0.00  0.00     0.023 H 
ATOM     32  H   LIG d   1       3.553  -3.395 -10.123  0.00  0.00     0.023 H 
ENDBRANCH   8  29
BRANCH   1  33
ATOM     33  C   LIG d   1       1.678  -1.883  -9.922  0.00  0.00    -0.062 C 
ATOM     34  H   LIG d   1       0.771  -1.541  -9.423  0.00  0.00     0.023 H 
ATOM     35  H   LIG d   1       1.606  -1.678 -10.990  0.00  0.00     0.023 H 
ATOM     36  H   LIG d   1       1.796  -2.955  -9.765  0.00  0.00     0.023 H 
ENDBRANCH   1  33
TORSDOF 7
ENDMDL
MODEL 8
REMARK VINA RESULT:      -6.3      1.900      2.896
REMARK  7 active torsions:
REMARK  status: ('A' for Active; 'I' for Inactive)
REMARK    1  A    between atoms: C_1  and  C_2 
REMARK    2  A    between atoms: C_6  and  O_12 
REMARK    3  A    between atoms: C_9  and  C_11 
REMARK    4  A    between atoms: O_12  and  C_13 
REMARK    5  A    between atoms: C_13  and  C_15 
REMARK    6  A    between atoms: C_15  and  C_16 
REMARK    7  A    between atoms: C_15  and  C_20 
ROOT
ATOM      1  C   LIG d   1       8.703   0.985  -6.703  0.00  0.00    -0.041 C 
ATOM      2  H   LIG d   1       9.224   0.309  -7.380  0.00  0.00     0.030 H 
ATOM      3  C   LIG d   1       8.510   0.303  -5.347  0.00  0.00    -0.047 C 
ATOM      4  C   LIG d   1       7.683  -0.971  -5.531  0.00  0.00    -0.015 C 
ATOM      5  C   LIG d   1       6.317  -0.613  -6.120  0.00  0.00     0.103 C 
ATOM      6  H   LIG d   1       5.728  -1.521  -6.251  0.00  0.00     0.073 H 
ATOM      7  C   LIG d   1       6.510   0.070  -7.476  0.00  0.00    -0.013 C 
ATOM      8  C   LIG d   1       7.337   1.344  -7.293  0.00  0.00    -0.038 C 
ATOM      9  H   LIG d   1       6.815   2.021  -6.616  0.00  0.00     0.030 H 
ATOM     10  H   LIG d   1       9.483   0.048  -4.927  0.00  0.00     0.027 H 
ATOM     11  H   LIG d   1       7.988   0.980  -4.671  0.00  0.00     0.027 H 
ATOM     12  H   LIG d   1       8.204  -1.649  -6.208  0.00  0.00     0.030 H 
ATOM     13  H   LIG d   1       7.545  -1.458  -4.566  0.00  0.00     0.030 H 
ATOM     14  H   LIG d   1       7.032  -0.607  -8.153  0.00  0.00     0.030 H 
ATOM     15  H   LIG d   1       5.537   0.325  -7.896  0.00  0.00     0.030 H 
ENDROOT
BRANCH   5  16
ATOM     16  O   LIG d   1       5.634   0.275  -5.233  0.00  0.00    -0.460 OA
BRANCH  16  17
ATOM     17  C   LIG d   1       4.441  -0.128  -4.767  0.00  0.00     0.347 C 
ATOM     18  O   LIG d   1       3.561  -0.427  -5.539  0.00  0.00    -0.248 OA
BRANCH  17  19
ATOM     19  C   LIG d   1       4.201  -0.208  -3.282  0.00  0.00     0.328 C 
ATOM     20 CL   LIG d   1       2.474  -0.618  -2.972  0.00  0.00    -0.088 Cl
BRANCH  19  21
ATOM     21  C   LIG d   1       5.099  -1.291  -2.678  0.00  0.00     0.427 C 
ATOM     22  F   LIG d   1       5.139  -2.396  -3.535  0.00  0.00    -0.168 F 
ATOM     23  F   LIG d   1       6.392  -0.784  -2.509  0.00  0.00    -0.168 F 
ATOM     24  F   LIG d   1       4.586  -1.682  -1.436  0.00  0.00    -0.168 F 
ENDBRANCH  19  21
BRANCH  19  25
ATOM     25  C   LIG d   1       4.529   1.142  -2.640  0.00  0.00     0.427 C 
ATOM     26  F   LIG d   1       3.609   2.101  -3.076  0.00  0.00    -0.168 F 
ATOM     27  F   LIG d   1       4.455   1.025  -1.247  0.00  0.00    -0.168 F 
ATOM     28  F   LIG d   1       5.821   1.532  -3.007  0.00  0.00    -0.168 F 
ENDBRANCH  19  25
ENDBRANCH  17  19
ENDBRANCH  16  17
ENDBRANCH   5  16
BRANCH   8  29
ATOM     29  C   LIG d   1       7.530   2.026  -8.648  0.00  0.00    -0.062 C 
ATOM     30  H   LIG d   1       8.437   2.630  -8.625  0.00  0.00     0.023 H 
ATOM     31  H   LIG d   1       7.617   1.269  -9.427  0.00  0.00     0.023 H 
ATOM     32  H   LIG d   1       6.673   2.666  -8.858  0.00  0.00     0.023 H 
ENDBRANCH   8  29
BRANCH   1  33
ATOM     33  C   LIG d   1       9.530   2.260  -6.519  0.00  0.00    -0.062 C 
ATOM     34  H   LIG d   1      10.541   1.994  -6.210  0.00  0.00     0.023 H 
ATOM     35  H   LIG d   1       9.569   2.807  -7.461  0.00  0.00     0.023 H 
ATOM     36  H   LIG d   1       9.069   2.884  -5.754  0.00  0.00     0.023 H 
ENDBRANCH   1  33
TORSDOF 7
ENDMDL
MODEL 9
REMARK VINA RESULT:      -6.2      2.156      3.425
REMARK  7 active torsions:
REMARK  status: ('A' for Active; 'I' for Inactive)
REMARK    1  A    between atoms: C_1  and  C_2 
REMARK    2  A    between atoms: C_6  and  O_12 
REMARK    3  A    between atoms: C_9  and  C_11 
REMARK    4  A    between atoms: O_12  and  C_13 
REMARK    5  A    between atoms: C_13  and  C_15 
REMARK    6  A    between atoms: C_15  and  C_16 
REMARK    7  A    between atoms: C_15  and  C_20 
ROOT
ATOM      1  C   LIG d   1       8.852   1.484  -6.438  0.00  0.00    -0.041 C 
ATOM      2  H   LIG d   1       9.650   0.889  -6.881  0.00  0.00     0.030 H 
ATOM      3  C   LIG d   1       8.507   0.927  -5.055  0.00  0.00    -0.047 C 
ATOM      4  C   LIG d   1       8.045  -0.525  -5.192  0.00  0.00    -0.015 C 
ATOM      5  C   LIG d   1       6.807  -0.585  -6.089  0.00  0.00     0.103 C 
ATOM      6  H   LIG d   1       6.478  -1.619  -6.186  0.00  0.00     0.073 H 
ATOM      7  C   LIG d   1       7.152  -0.028  -7.471  0.00  0.00    -0.013 C 
ATOM      8  C   LIG d   1       7.614   1.425  -7.336  0.00  0.00    -0.038 C 
ATOM      9  H   LIG d   1       6.815   2.020  -6.893  0.00  0.00     0.030 H 
ATOM     10  H   LIG d   1       9.389   0.970  -4.416  0.00  0.00     0.027 H 
ATOM     11  H   LIG d   1       7.708   1.523  -4.613  0.00  0.00     0.027 H 
ATOM     12  H   LIG d   1       8.844  -1.121  -5.634  0.00  0.00     0.030 H 
ATOM     13  H   LIG d   1       7.799  -0.922  -4.207  0.00  0.00     0.030 H 
ATOM     14  H   LIG d   1       7.951  -0.623  -7.914  0.00  0.00     0.030 H 
ATOM     15  H   LIG d   1       6.270  -0.070  -8.111  0.00  0.00     0.030 H 
ENDROOT
BRANCH   5  16
ATOM     16  O   LIG d   1       5.760   0.196  -5.508  0.00  0.00    -0.460 OA
BRANCH  16  17
ATOM     17  C   LIG d   1       4.804  -0.468  -4.840  0.00  0.00     0.347 C 
ATOM     18  O   LIG d   1       4.136  -1.298  -5.409  0.00  0.00    -0.248 OA
BRANCH  17  19
ATOM     19  C   LIG d   1       4.565  -0.177  -3.381  0.00  0.00     0.328 C 
ATOM     20 CL   LIG d   1       5.712   1.098  -2.826  0.00  0.00    -0.088 Cl
BRANCH  19  21
ATOM     21  C   LIG d   1       3.127   0.309  -3.187  0.00  0.00     0.427 C 
ATOM     22  F   LIG d   1       2.292  -0.788  -2.948  0.00  0.00    -0.168 F 
ATOM     23  F   LIG d   1       3.074   1.183  -2.096  0.00  0.00    -0.168 F 
ATOM     24  F   LIG d   1       2.702   0.977  -4.340  0.00  0.00    -0.168 F 
ENDBRANCH  19  21
BRANCH  19  25
ATOM     25  C   LIG d   1       4.787  -1.453  -2.564  0.00  0.00     0.427 C 
ATOM     26  F   LIG d   1       4.519  -1.196  -1.216  0.00  0.00    -0.168 F 
ATOM     27  F   LIG d   1       3.929  -2.457  -3.027  0.00  0.00    -0.168 F 
ATOM     28  F   LIG d   1       6.114  -1.872  -2.705  0.00  0.00    -0.168 F 
ENDBRANCH  19  25
ENDBRANCH  17  19
ENDBRANCH  16  17
ENDBRANCH   5  16
BRANCH   8  29
ATOM     29  C   LIG d   1       7.959   1.981  -8.718  0.00  0.00    -0.062 C 
ATOM     30  H   LIG d   1       7.091   1.895  -9.372  0.00  0.00     0.023 H 
ATOM     31  H   LIG d   1       8.242   3.030  -8.627  0.00  0.00     0.023 H 
ATOM     32  H   LIG d   1       8.790   1.416  -9.140  0.00  0.00     0.023 H 
ENDBRANCH   8  29
BRANCH   1  33
ATOM     33  C   LIG d   1       9.314   2.936  -6.302  0.00  0.00    -0.062 C 
ATOM     34  H   LIG d   1       9.524   3.345  -7.291  0.00  0.00     0.023 H 
ATOM     35  H   LIG d   1       8.531   3.524  -5.824  0.00  0.00     0.023 H 
ATOM     36  H   LIG d   1      10.219   2.974  -5.695  0.00  0.00     0.023 H 
ENDBRANCH   1  33
TORSDOF 7
ENDMDL
MODEL 10
REMARK VINA RESULT:      -6.0      2.098      3.756
REMARK  7 active torsions:
REMARK  status: ('A' for Active; 'I' for Inactive)
REMARK    1  A    between atoms: C_1  and  C_2 
REMARK    2  A    between atoms: C_6  and  O_12 
REMARK    3  A    between atoms: C_9  and  C_11 
REMARK    4  A    between atoms: O_12  and  C_13 
REMARK    5  A    between atoms: C_13  and  C_15 
REMARK    6  A    between atoms: C_15  and  C_16 
REMARK    7  A    between atoms: C_15  and  C_20 
ROOT
ATOM      1  C   LIG d   1       9.109  -0.926  -6.006  0.00  0.00    -0.041 C 
ATOM      2  H   LIG d   1       9.544  -0.465  -6.891  0.00  0.00     0.030 H 
ATOM      3  C   LIG d   1       8.054  -1.951  -6.429  0.00  0.00    -0.047 C 
ATOM      4  C   LIG d   1       6.956  -1.249  -7.232  0.00  0.00    -0.015 C 
ATOM      5  C   LIG d   1       6.301  -0.171  -6.367  0.00  0.00     0.103 C 
ATOM      6  H   LIG d   1       5.518   0.328  -6.938  0.00  0.00     0.073 H 
ATOM      7  C   LIG d   1       7.355   0.853  -5.943  0.00  0.00    -0.013 C 
ATOM      8  C   LIG d   1       8.454   0.153  -5.140  0.00  0.00    -0.038 C 
ATOM      9  H   LIG d   1       8.017  -0.308  -4.254  0.00  0.00     0.030 H 
ATOM     10  H   LIG d   1       8.521  -2.719  -7.046  0.00  0.00     0.027 H 
ATOM     11  H   LIG d   1       7.618  -2.411  -5.542  0.00  0.00     0.027 H 
ATOM     12  H   LIG d   1       7.392  -0.789  -8.119  0.00  0.00     0.030 H 
ATOM     13  H   LIG d   1       6.204  -1.979  -7.534  0.00  0.00     0.030 H 
ATOM     14  H   LIG d   1       7.792   1.314  -6.830  0.00  0.00     0.030 H 
ATOM     15  H   LIG d   1       6.889   1.621  -5.327  0.00  0.00     0.030 H 
ENDROOT
BRANCH   5  16
ATOM     16  O   LIG d   1       5.730  -0.775  -5.204  0.00  0.00    -0.460 OA
BRANCH  16  17
ATOM     17  C   LIG d   1       4.572  -0.263  -4.758  0.00  0.00     0.347 C 
ATOM     18  O   LIG d   1       3.805   0.258  -5.532  0.00  0.00    -0.248 OA
BRANCH  17  19
ATOM     19  C   LIG d   1       4.231  -0.338  -3.292  0.00  0.00     0.328 C 
ATOM     20 CL   LIG d   1       2.453  -0.569  -3.099  0.00  0.00    -0.088 Cl
BRANCH  19  21
ATOM     21  C   LIG d   1       4.971  -1.516  -2.656  0.00  0.00     0.427 C 
ATOM     22  F   LIG d   1       6.347  -1.262  -2.665  0.00  0.00    -0.168 F 
ATOM     23  F   LIG d   1       4.536  -1.683  -1.337  0.00  0.00    -0.168 F 
ATOM     24  F   LIG d   1       4.707  -2.681  -3.385  0.00  0.00    -0.168 F 
ENDBRANCH  19  21
BRANCH  19  25
ATOM     25  C   LIG d   1       4.653   0.962  -2.604  0.00  0.00     0.427 C 
ATOM     26  F   LIG d   1       5.946   1.306  -3.011  0.00  0.00    -0.168 F 
ATOM     27  F   LIG d   1       3.766   1.986  -2.955  0.00  0.00    -0.168 F 
ATOM     28  F   LIG d   1       4.633   0.783  -1.216  0.00  0.00    -0.168 F 
ENDBRANCH  19  25
ENDBRANCH  17  19
ENDBRANCH  16  17
ENDBRANCH   5  16
BRANCH   8  29
ATOM     29  C   LIG d   1       9.508   1.177  -4.717  0.00  0.00    -0.062 C 
ATOM     30  H   LIG d   1      10.150   1.410  -5.567  0.00  0.00     0.023 H 
ATOM     31  H   LIG d   1       9.014   2.086  -4.374  0.00  0.00     0.023 H 
ATOM     32  H   LIG d   1      10.111   0.764  -3.909  0.00  0.00     0.023 H 
ENDBRANCH   8  29
BRANCH   1  33
ATOM     33  C   LIG d   1      10.207  -1.627  -5.203  0.00  0.00    -0.062 C 
ATOM     34  H   LIG d   1      11.051  -0.949  -5.075  0.00  0.00     0.023 H 
ATOM     35  H   LIG d   1       9.817  -1.913  -4.226  0.00  0.00     0.023 H 
ATOM     36  H   LIG d   1      10.535  -2.518  -5.739  0.00  0.00     0.023 H 
ENDBRANCH   1  33
TORSDOF 7
ENDMDL
