MODEL 1
REMARK VINA RESULT:      -7.4      0.000      0.000
REMARK  7 active torsions:
REMARK  status: ('A' for Active; 'I' for Inactive)
REMARK    1  A    between atoms: C_1  and  C_2 
REMARK    2  A    between atoms: C_6  and  O_30 
REMARK    3  A    between atoms: C_12  and  C_13 
REMARK    4  A    between atoms: C_13  and  C_14 
REMARK       I    between atoms: C_14  and  N_16 
REMARK    5  A    between atoms: C_19  and  C_22 
REMARK    6  A    between atoms: C_19  and  C_28 
REMARK    7  A    between atoms: O_30  and  C_31 
ROOT
ATOM      1  C   LIG d   1      10.968   1.331  -5.961  0.00  0.00     0.220 C 
ATOM      2  O   LIG d   1      11.867   0.526  -5.851  0.00  0.00    -0.275 OA
ATOM      3  N   LIG d   1       9.686   0.914  -5.961  0.00  0.00    -0.301 N 
ATOM      4  C   LIG d   1       8.585   1.879  -6.087  0.00  0.00     0.016 C 
ATOM      5  C   LIG d   1       7.609   1.674  -4.929  0.00  0.00    -0.022 C 
ATOM      6  C   LIG d   1       7.162   0.211  -4.895  0.00  0.00     0.038 C 
ATOM      7  C   LIG d   1       8.378  -0.691  -4.669  0.00  0.00    -0.022 C 
ATOM      8  C   LIG d   1       9.363  -0.513  -5.829  0.00  0.00     0.016 C 
ATOM      9  H   LIG d   1       8.982   2.893  -6.053  0.00  0.00     0.046 H 
ATOM     10  H   LIG d   1       8.065   1.719  -7.032  0.00  0.00     0.046 H 
ATOM     11  H   LIG d   1       6.739   2.317  -5.067  0.00  0.00     0.029 H 
ATOM     12  H   LIG d   1       8.103   1.926  -3.991  0.00  0.00     0.029 H 
ATOM     13  H   LIG d   1       8.056  -1.731  -4.620  0.00  0.00     0.029 H 
ATOM     14  H   LIG d   1       8.865  -0.417  -3.733  0.00  0.00     0.029 H 
ATOM     15  H   LIG d   1       8.908  -0.872  -6.752  0.00  0.00     0.046 H 
ATOM     16  H   LIG d   1      10.274  -1.076  -5.627  0.00  0.00     0.046 H 
ENDROOT
BRANCH   1  17
ATOM     17  C   LIG d   1      11.282   2.799  -6.097  0.00  0.00     0.056 C 
ATOM     18  H   LIG d   1      10.532   3.275  -6.728  0.00  0.00     0.041 H 
ATOM     19  H   LIG d   1      12.267   2.919  -6.550  0.00  0.00     0.041 H 
BRANCH  17  20
ATOM     20  C   LIG d   1      11.275   3.442  -4.735  0.00  0.00     0.049 A 
ATOM     21  C   LIG d   1      10.444   4.487  -4.480  0.00  0.00    -0.029 A 
ATOM     22  C   LIG d   1      10.470   5.081  -3.142  0.00  0.00     0.022 A 
ATOM     23  C   LIG d   1      11.349   4.553  -2.178  0.00  0.00     0.143 A 
ATOM     24  C   LIG d   1       9.638   6.158  -2.815  0.00  0.00    -0.029 A 
ATOM     25  C   LIG d   1      11.382   5.108  -0.908  0.00  0.00     0.025 A 
ATOM     26  O   LIG d   1      12.150   3.513  -2.498  0.00  0.00    -0.422 OA
ATOM     27  C   LIG d   1      10.556   6.177  -0.603  0.00  0.00     0.142 A 
ATOM     28  H   LIG d   1      12.052   4.711  -0.160  0.00  0.00     0.069 H 
ATOM     29  C   LIG d   1       9.682   6.692  -1.560  0.00  0.00     0.083 A 
ATOM     30 CL   LIG d   1       8.651   8.029  -1.154  0.00  0.00    -0.080 Cl
ATOM     31  C   LIG d   1      12.130   2.964  -3.722  0.00  0.00     0.341 A 
ATOM     32  O   LIG d   1      12.870   2.027  -3.965  0.00  0.00    -0.245 OA
ATOM     33  H   LIG d   1       8.962   6.565  -3.553  0.00  0.00     0.064 H 
BRANCH  21  34
ATOM     34  C   LIG d   1       9.519   5.018  -5.545  0.00  0.00    -0.038 C 
ATOM     35  H   LIG d   1       9.497   4.325  -6.386  0.00  0.00     0.028 H 
ATOM     36  H   LIG d   1       8.514   5.122  -5.134  0.00  0.00     0.028 H 
ATOM     37  H   LIG d   1       9.876   5.990  -5.884  0.00  0.00     0.028 H 
ENDBRANCH  21  34
BRANCH  27  38
ATOM     38  O   LIG d   1      10.594   6.723   0.640  0.00  0.00    -0.493 OA
BRANCH  38  39
ATOM     39  C   LIG d   1      10.993   5.868   1.713  0.00  0.00     0.079 C 
ATOM     40  H   LIG d   1      12.080   5.779   1.721  0.00  0.00     0.066 H 
ATOM     41  H   LIG d   1      10.656   6.291   2.659  0.00  0.00     0.066 H 
ATOM     42  H   LIG d   1      10.548   4.883   1.576  0.00  0.00     0.066 H 
ENDBRANCH  38  39
ENDBRANCH  27  38
ENDBRANCH  17  20
ENDBRANCH   1  17
BRANCH   6  43
ATOM     43  C   LIG d   1       6.176   0.014  -3.772  0.00  0.00    -0.036 A 
ATOM     44  C   LIG d   1       5.729  -1.256  -3.460  0.00  0.00    -0.058 A 
ATOM     45  C   LIG d   1       4.825  -1.436  -2.430  0.00  0.00    -0.061 A 
ATOM     46  H   LIG d   1       6.087  -2.107  -4.020  0.00  0.00     0.062 H 
ATOM     47  C   LIG d   1       4.368  -0.347  -1.712  0.00  0.00    -0.062 A 
ATOM     48  H   LIG d   1       4.477  -2.429  -2.185  0.00  0.00     0.062 H 
ATOM     49  C   LIG d   1       4.815   0.923  -2.024  0.00  0.00    -0.061 A 
ATOM     50  H   LIG d   1       3.661  -0.489  -0.907  0.00  0.00     0.062 H 
ATOM     51  C   LIG d   1       5.723   1.104  -3.052  0.00  0.00    -0.058 A 
ATOM     52  H   LIG d   1       4.457   1.775  -1.464  0.00  0.00     0.062 H 
ATOM     53  H   LIG d   1       6.075   2.096  -3.292  0.00  0.00     0.062 H 
ENDBRANCH   6  43
BRANCH   6  54
ATOM     54  C   LIG d   1       6.509  -0.146  -6.205  0.00  0.00     0.052 C 
ATOM     55  O   LIG d   1       5.820   0.664  -6.778  0.00  0.00    -0.549 OA
ATOM     56  O   LIG d   1       6.692  -1.365  -6.735  0.00  0.00    -0.549 OA
ENDBRANCH   6  54
TORSDOF 7
ENDMDL
MODEL 2
REMARK VINA RESULT:      -7.3      6.729      9.541
REMARK  7 active torsions:
REMARK  status: ('A' for Active; 'I' for Inactive)
REMARK    1  A    between atoms: C_1  and  C_2 
REMARK    2  A    between atoms: C_6  and  O_30 
REMARK    3  A    between atoms: C_12  and  C_13 
REMARK    4  A    between atoms: C_13  and  C_14 
REMARK       I    between atoms: C_14  and  N_16 
REMARK    5  A    between atoms: C_19  and  C_22 
REMARK    6  A    between atoms: C_19  and  C_28 
REMARK    7  A    between atoms: O_30  and  C_31 
ROOT
ATOM      1  C   LIG d   1       7.680  -5.288  -5.293  0.00  0.00     0.220 C 
ATOM      2  O   LIG d   1       7.095  -6.345  -5.196  0.00  0.00    -0.275 OA
ATOM      3  N   LIG d   1       6.987  -4.151  -5.494  0.00  0.00    -0.301 N 
ATOM      4  C   LIG d   1       7.682  -2.860  -5.608  0.00  0.00     0.016 C 
ATOM      5  C   LIG d   1       7.075  -1.879  -4.606  0.00  0.00    -0.022 C 
ATOM      6  C   LIG d   1       5.562  -1.799  -4.825  0.00  0.00     0.038 C 
ATOM      7  C   LIG d   1       4.938  -3.178  -4.592  0.00  0.00    -0.022 C 
ATOM      8  C   LIG d   1       5.522  -4.175  -5.598  0.00  0.00     0.016 C 
ATOM      9  H   LIG d   1       8.740  -2.995  -5.389  0.00  0.00     0.046 H 
ATOM     10  H   LIG d   1       7.562  -2.468  -6.617  0.00  0.00     0.046 H 
ATOM     11  H   LIG d   1       7.515  -0.892  -4.750  0.00  0.00     0.029 H 
ATOM     12  H   LIG d   1       7.278  -2.224  -3.593  0.00  0.00     0.029 H 
ATOM     13  H   LIG d   1       3.858  -3.116  -4.724  0.00  0.00     0.029 H 
ATOM     14  H   LIG d   1       5.161  -3.512  -3.578  0.00  0.00     0.029 H 
ATOM     15  H   LIG d   1       5.222  -3.893  -6.607  0.00  0.00     0.046 H 
ATOM     16  H   LIG d   1       5.157  -5.178  -5.376  0.00  0.00     0.046 H 
ENDROOT
BRANCH   1  17
ATOM     17  C   LIG d   1       9.184  -5.246  -5.188  0.00  0.00     0.056 C 
ATOM     18  H   LIG d   1       9.520  -4.210  -5.211  0.00  0.00     0.041 H 
ATOM     19  H   LIG d   1       9.621  -5.790  -6.026  0.00  0.00     0.041 H 
BRANCH  17  20
ATOM     20  C   LIG d   1       9.614  -5.886  -3.894  0.00  0.00     0.049 A 
ATOM     21  C   LIG d   1      10.039  -7.177  -3.882  0.00  0.00    -0.029 A 
ATOM     22  C   LIG d   1      10.448  -7.758  -2.601  0.00  0.00     0.022 A 
ATOM     23  C   LIG d   1      10.386  -6.964  -1.441  0.00  0.00     0.143 A 
ATOM     24  C   LIG d   1      10.895  -9.082  -2.520  0.00  0.00    -0.029 A 
ATOM     25  C   LIG d   1      10.771  -7.505  -0.223  0.00  0.00     0.025 A 
ATOM     26  O   LIG d   1       9.953  -5.687  -1.523  0.00  0.00    -0.422 OA
ATOM     27  C   LIG d   1      11.206  -8.818  -0.160  0.00  0.00     0.142 A 
ATOM     28  H   LIG d   1      10.728  -6.905   0.674  0.00  0.00     0.069 H 
ATOM     29  C   LIG d   1      11.271  -9.598  -1.314  0.00  0.00     0.083 A 
ATOM     30 CL   LIG d   1      11.827 -11.240  -1.214  0.00  0.00    -0.080 Cl
ATOM     31  C   LIG d   1       9.578  -5.149  -2.693  0.00  0.00     0.341 A 
ATOM     32  O   LIG d   1       9.195  -3.992  -2.720  0.00  0.00    -0.245 OA
ATOM     33  H   LIG d   1      10.944  -9.693  -3.410  0.00  0.00     0.064 H 
BRANCH  21  34
ATOM     34  C   LIG d   1      10.088  -7.989  -5.151  0.00  0.00    -0.038 C 
ATOM     35  H   LIG d   1       9.183  -7.810  -5.732  0.00  0.00     0.028 H 
ATOM     36  H   LIG d   1      10.960  -7.694  -5.736  0.00  0.00     0.028 H 
ATOM     37  H   LIG d   1      10.157  -9.047  -4.903  0.00  0.00     0.028 H 
ENDBRANCH  21  34
BRANCH  27  38
ATOM     38  O   LIG d   1      11.578  -9.347   1.034  0.00  0.00    -0.493 OA
BRANCH  38  39
ATOM     39  C   LIG d   1      11.188  -8.634   2.209  0.00  0.00     0.079 C 
ATOM     40  H   LIG d   1      12.072  -8.410   2.808  0.00  0.00     0.066 H 
ATOM     41  H   LIG d   1      10.698  -7.703   1.923  0.00  0.00     0.066 H 
ATOM     42  H   LIG d   1      10.499  -9.244   2.792  0.00  0.00     0.066 H 
ENDBRANCH  38  39
ENDBRANCH  27  38
ENDBRANCH  17  20
ENDBRANCH   1  17
BRANCH   6  43
ATOM     43  C   LIG d   1       4.967  -0.809  -3.858  0.00  0.00    -0.036 A 
ATOM     44  C   LIG d   1       5.774   0.134  -3.251  0.00  0.00    -0.058 A 
ATOM     45  C   LIG d   1       5.227   1.043  -2.365  0.00  0.00    -0.061 A 
ATOM     46  H   LIG d   1       6.831   0.162  -3.470  0.00  0.00     0.062 H 
ATOM     47  C   LIG d   1       3.874   1.009  -2.086  0.00  0.00    -0.062 A 
ATOM     48  H   LIG d   1       5.858   1.781  -1.891  0.00  0.00     0.062 H 
ATOM     49  C   LIG d   1       3.067   0.066  -2.693  0.00  0.00    -0.061 A 
ATOM     50  H   LIG d   1       3.447   1.720  -1.393  0.00  0.00     0.062 H 
ATOM     51  C   LIG d   1       3.612  -0.841  -3.584  0.00  0.00    -0.058 A 
ATOM     52  H   LIG d   1       2.009   0.038  -2.475  0.00  0.00     0.062 H 
ATOM     53  H   LIG d   1       2.981  -1.575  -4.062  0.00  0.00     0.062 H 
ENDBRANCH   6  43
BRANCH   6  54
ATOM     54  C   LIG d   1       5.281  -1.355  -6.237  0.00  0.00     0.052 C 
ATOM     55  O   LIG d   1       6.003  -0.546  -6.771  0.00  0.00    -0.549 OA
ATOM     56  O   LIG d   1       4.228  -1.856  -6.901  0.00  0.00    -0.549 OA
ENDBRANCH   6  54
TORSDOF 7
ENDMDL
MODEL 3
REMARK VINA RESULT:      -7.2      6.897      9.924
REMARK  7 active torsions:
REMARK  status: ('A' for Active; 'I' for Inactive)
REMARK    1  A    between atoms: C_1  and  C_2 
REMARK    2  A    between atoms: C_6  and  O_30 
REMARK    3  A    between atoms: C_12  and  C_13 
REMARK    4  A    between atoms: C_13  and  C_14 
REMARK       I    between atoms: C_14  and  N_16 
REMARK    5  A    between atoms: C_19  and  C_22 
REMARK    6  A    between atoms: C_19  and  C_28 
REMARK    7  A    between atoms: O_30  and  C_31 
ROOT
ATOM      1  C   LIG d   1       8.021  -5.699  -5.189  0.00  0.00     0.220 C 
ATOM      2  O   LIG d   1       7.368  -6.718  -5.121  0.00  0.00    -0.275 OA
ATOM      3  N   LIG d   1       7.403  -4.513  -5.351  0.00  0.00    -0.301 N 
ATOM      4  C   LIG d   1       8.180  -3.268  -5.429  0.00  0.00     0.016 C 
ATOM      5  C   LIG d   1       7.643  -2.281  -4.394  0.00  0.00    -0.022 C 
ATOM      6  C   LIG d   1       6.138  -2.096  -4.601  0.00  0.00     0.038 C 
ATOM      7  C   LIG d   1       5.426  -3.437  -4.407  0.00  0.00    -0.022 C 
ATOM      8  C   LIG d   1       5.939  -4.438  -5.447  0.00  0.00     0.016 C 
ATOM      9  H   LIG d   1       9.229  -3.479  -5.222  0.00  0.00     0.046 H 
ATOM     10  H   LIG d   1       8.082  -2.838  -6.426  0.00  0.00     0.046 H 
ATOM     11  H   LIG d   1       8.146  -1.320  -4.511  0.00  0.00     0.029 H 
ATOM     12  H   LIG d   1       7.828  -2.670  -3.393  0.00  0.00     0.029 H 
ATOM     13  H   LIG d   1       4.352  -3.301  -4.530  0.00  0.00     0.029 H 
ATOM     14  H   LIG d   1       5.631  -3.816  -3.405  0.00  0.00     0.029 H 
ATOM     15  H   LIG d   1       5.654  -4.106  -6.445  0.00  0.00     0.046 H 
ATOM     16  H   LIG d   1       5.510  -5.422  -5.253  0.00  0.00     0.046 H 
ENDROOT
BRANCH   1  17
ATOM     17  C   LIG d   1       9.524  -5.759  -5.093  0.00  0.00     0.056 C 
ATOM     18  H   LIG d   1       9.904  -4.798  -4.747  0.00  0.00     0.041 H 
ATOM     19  H   LIG d   1       9.943  -5.984  -6.075  0.00  0.00     0.041 H 
BRANCH  17  20
ATOM     20  C   LIG d   1       9.922  -6.837  -4.119  0.00  0.00     0.049 A 
ATOM     21  C   LIG d   1      10.063  -6.545  -2.799  0.00  0.00    -0.029 A 
ATOM     22  C   LIG d   1      10.451  -7.624  -1.889  0.00  0.00     0.022 A 
ATOM     23  C   LIG d   1      10.663  -8.914  -2.411  0.00  0.00     0.143 A 
ATOM     24  C   LIG d   1      10.612  -7.388  -0.518  0.00  0.00    -0.029 A 
ATOM     25  C   LIG d   1      11.031  -9.943  -1.557  0.00  0.00     0.025 A 
ATOM     26  O   LIG d   1      10.506  -9.137  -3.734  0.00  0.00    -0.422 OA
ATOM     27  C   LIG d   1      11.190  -9.691  -0.205  0.00  0.00     0.142 A 
ATOM     28  H   LIG d   1      11.195 -10.937  -1.947  0.00  0.00     0.069 H 
ATOM     29  C   LIG d   1      10.973  -8.413   0.308  0.00  0.00     0.083 A 
ATOM     30 CL   LIG d   1      11.173  -8.121   2.008  0.00  0.00    -0.080 Cl
ATOM     31  C   LIG d   1      10.150  -8.152  -4.573  0.00  0.00     0.341 A 
ATOM     32  O   LIG d   1      10.021  -8.400  -5.759  0.00  0.00    -0.245 OA
ATOM     33  H   LIG d   1      10.449  -6.399  -0.116  0.00  0.00     0.064 H 
BRANCH  21  34
ATOM     34  C   LIG d   1       9.825  -5.147  -2.286  0.00  0.00    -0.038 C 
ATOM     35  H   LIG d   1       9.569  -5.188  -1.227  0.00  0.00     0.028 H 
ATOM     36  H   LIG d   1      10.730  -4.553  -2.418  0.00  0.00     0.028 H 
ATOM     37  H   LIG d   1       9.005  -4.691  -2.841  0.00  0.00     0.028 H 
ENDBRANCH  21  34
BRANCH  27  38
ATOM     38  O   LIG d   1      11.556 -10.699   0.628  0.00  0.00    -0.493 OA
BRANCH  38  39
ATOM     39  C   LIG d   1      10.523 -11.581   1.073  0.00  0.00     0.079 C 
ATOM     40  H   LIG d   1      10.069 -11.181   1.980  0.00  0.00     0.066 H 
ATOM     41  H   LIG d   1       9.764 -11.672   0.295  0.00  0.00     0.066 H 
ATOM     42  H   LIG d   1      10.949 -12.562   1.281  0.00  0.00     0.066 H 
ENDBRANCH  38  39
ENDBRANCH  27  38
ENDBRANCH  17  20
ENDBRANCH   1  17
BRANCH   6  43
ATOM     43  C   LIG d   1       5.613  -1.099  -3.601  0.00  0.00    -0.036 A 
ATOM     44  C   LIG d   1       4.766  -1.515  -2.591  0.00  0.00    -0.058 A 
ATOM     45  C   LIG d   1       4.285  -0.600  -1.673  0.00  0.00    -0.061 A 
ATOM     46  H   LIG d   1       4.482  -2.554  -2.518  0.00  0.00     0.062 H 
ATOM     47  C   LIG d   1       4.650   0.729  -1.764  0.00  0.00    -0.062 A 
ATOM     48  H   LIG d   1       3.624  -0.926  -0.883  0.00  0.00     0.062 H 
ATOM     49  C   LIG d   1       5.497   1.145  -2.775  0.00  0.00    -0.061 A 
ATOM     50  H   LIG d   1       4.274   1.444  -1.047  0.00  0.00     0.062 H 
ATOM     51  C   LIG d   1       5.983   0.230  -3.691  0.00  0.00    -0.058 A 
ATOM     52  H   LIG d   1       5.783   2.185  -2.847  0.00  0.00     0.062 H 
ATOM     53  H   LIG d   1       6.648   0.554  -4.477  0.00  0.00     0.062 H 
ENDBRANCH   6  43
BRANCH   6  54
ATOM     54  C   LIG d   1       5.881  -1.590  -5.997  0.00  0.00     0.052 C 
ATOM     55  O   LIG d   1       6.796  -1.174  -6.668  0.00  0.00    -0.549 OA
ATOM     56  O   LIG d   1       4.635  -1.600  -6.495  0.00  0.00    -0.549 OA
ENDBRANCH   6  54
TORSDOF 7
ENDMDL
MODEL 4
REMARK VINA RESULT:      -7.1      1.978      2.563
REMARK  7 active torsions:
REMARK  status: ('A' for Active; 'I' for Inactive)
REMARK    1  A    between atoms: C_1  and  C_2 
REMARK    2  A    between atoms: C_6  and  O_30 
REMARK    3  A    between atoms: C_12  and  C_13 
REMARK    4  A    between atoms: C_13  and  C_14 
REMARK       I    between atoms: C_14  and  N_16 
REMARK    5  A    between atoms: C_19  and  C_22 
REMARK    6  A    between atoms: C_19  and  C_28 
REMARK    7  A    between atoms: O_30  and  C_31 
ROOT
ATOM      1  C   LIG d   1      10.309   0.565  -5.217  0.00  0.00     0.220 C 
ATOM      2  O   LIG d   1      11.199  -0.011  -4.629  0.00  0.00    -0.275 OA
ATOM      3  N   LIG d   1       9.151  -0.073  -5.477  0.00  0.00    -0.301 N 
ATOM      4  C   LIG d   1       8.060   0.614  -6.184  0.00  0.00     0.016 C 
ATOM      5  C   LIG d   1       6.782   0.501  -5.354  0.00  0.00    -0.022 C 
ATOM      6  C   LIG d   1       6.503  -0.972  -5.048  0.00  0.00     0.038 C 
ATOM      7  C   LIG d   1       7.662  -1.554  -4.235  0.00  0.00    -0.022 C 
ATOM      8  C   LIG d   1       8.952  -1.466  -5.056  0.00  0.00     0.016 C 
ATOM      9  H   LIG d   1       8.316   1.664  -6.317  0.00  0.00     0.046 H 
ATOM     10  H   LIG d   1       7.904   0.147  -7.156  0.00  0.00     0.046 H 
ATOM     11  H   LIG d   1       5.946   0.921  -5.914  0.00  0.00     0.029 H 
ATOM     12  H   LIG d   1       6.907   1.050  -4.421  0.00  0.00     0.029 H 
ATOM     13  H   LIG d   1       7.451  -2.596  -3.996  0.00  0.00     0.029 H 
ATOM     14  H   LIG d   1       7.779  -0.987  -3.311  0.00  0.00     0.029 H 
ATOM     15  H   LIG d   1       8.870  -2.106  -5.934  0.00  0.00     0.046 H 
ATOM     16  H   LIG d   1       9.797  -1.787  -4.447  0.00  0.00     0.046 H 
ENDROOT
BRANCH   1  17
ATOM     17  C   LIG d   1      10.498   1.995  -5.656  0.00  0.00     0.056 C 
ATOM     18  H   LIG d   1       9.614   2.327  -6.200  0.00  0.00     0.041 H 
ATOM     19  H   LIG d   1      11.372   2.063  -6.304  0.00  0.00     0.041 H 
BRANCH  17  20
ATOM     20  C   LIG d   1      10.701   2.869  -4.446  0.00  0.00     0.049 A 
ATOM     21  C   LIG d   1      11.949   3.284  -4.107  0.00  0.00    -0.029 A 
ATOM     22  C   LIG d   1      12.099   4.131  -2.923  0.00  0.00     0.022 A 
ATOM     23  C   LIG d   1      10.953   4.481  -2.185  0.00  0.00     0.143 A 
ATOM     24  C   LIG d   1      13.359   4.593  -2.521  0.00  0.00    -0.029 A 
ATOM     25  C   LIG d   1      11.085   5.284  -1.061  0.00  0.00     0.025 A 
ATOM     26  O   LIG d   1       9.740   4.034  -2.576  0.00  0.00    -0.422 OA
ATOM     27  C   LIG d   1      12.338   5.728  -0.676  0.00  0.00     0.142 A 
ATOM     28  H   LIG d   1      10.212   5.560  -0.488  0.00  0.00     0.069 H 
ATOM     29  C   LIG d   1      13.470   5.383  -1.414  0.00  0.00     0.083 A 
ATOM     30 CL   LIG d   1      15.031   5.955  -0.916  0.00  0.00    -0.080 Cl
ATOM     31  C   LIG d   1       9.596   3.258  -3.660  0.00  0.00     0.341 A 
ATOM     32  O   LIG d   1       8.482   2.878  -3.975  0.00  0.00    -0.245 OA
ATOM     33  H   LIG d   1      14.239   4.326  -3.087  0.00  0.00     0.064 H 
BRANCH  21  34
ATOM     34  C   LIG d   1      13.148   2.883  -4.929  0.00  0.00    -0.038 C 
ATOM     35  H   LIG d   1      13.651   3.777  -5.297  0.00  0.00     0.028 H 
ATOM     36  H   LIG d   1      13.836   2.307  -4.310  0.00  0.00     0.028 H 
ATOM     37  H   LIG d   1      12.823   2.276  -5.774  0.00  0.00     0.028 H 
ENDBRANCH  21  34
BRANCH  27  38
ATOM     38  O   LIG d   1      12.465   6.509   0.428  0.00  0.00    -0.493 OA
BRANCH  38  39
ATOM     39  C   LIG d   1      11.273   7.107   0.940  0.00  0.00     0.079 C 
ATOM     40  H   LIG d   1      10.451   6.931   0.246  0.00  0.00     0.066 H 
ATOM     41  H   LIG d   1      11.033   6.666   1.908  0.00  0.00     0.066 H 
ATOM     42  H   LIG d   1      11.427   8.180   1.057  0.00  0.00     0.066 H 
ENDBRANCH  38  39
ENDBRANCH  27  38
ENDBRANCH  17  20
ENDBRANCH   1  17
BRANCH   6  43
ATOM     43  C   LIG d   1       5.226  -1.086  -4.257  0.00  0.00    -0.036 A 
ATOM     44  C   LIG d   1       4.136  -0.304  -4.587  0.00  0.00    -0.058 A 
ATOM     45  C   LIG d   1       2.964  -0.410  -3.861  0.00  0.00    -0.061 A 
ATOM     46  H   LIG d   1       4.198   0.389  -5.413  0.00  0.00     0.062 H 
ATOM     47  C   LIG d   1       2.882  -1.297  -2.805  0.00  0.00    -0.062 A 
ATOM     48  H   LIG d   1       2.111   0.202  -4.120  0.00  0.00     0.062 H 
ATOM     49  C   LIG d   1       3.973  -2.080  -2.475  0.00  0.00    -0.061 A 
ATOM     50  H   LIG d   1       1.966  -1.380  -2.238  0.00  0.00     0.062 H 
ATOM     51  C   LIG d   1       5.144  -1.978  -3.203  0.00  0.00    -0.058 A 
ATOM     52  H   LIG d   1       3.910  -2.774  -1.649  0.00  0.00     0.062 H 
ATOM     53  H   LIG d   1       5.994  -2.593  -2.948  0.00  0.00     0.062 H 
ENDBRANCH   6  43
BRANCH   6  54
ATOM     54  C   LIG d   1       6.363  -1.736  -6.339  0.00  0.00     0.052 C 
ATOM     55  O   LIG d   1       6.573  -2.925  -6.364  0.00  0.00    -0.549 OA
ATOM     56  O   LIG d   1       6.008  -1.094  -7.463  0.00  0.00    -0.549 OA
ENDBRANCH   6  54
TORSDOF 7
ENDMDL
MODEL 5
REMARK VINA RESULT:      -7.0      1.816      2.271
REMARK  7 active torsions:
REMARK  status: ('A' for Active; 'I' for Inactive)
REMARK    1  A    between atoms: C_1  and  C_2 
REMARK    2  A    between atoms: C_6  and  O_30 
REMARK    3  A    between atoms: C_12  and  C_13 
REMARK    4  A    between atoms: C_13  and  C_14 
REMARK       I    between atoms: C_14  and  N_16 
REMARK    5  A    between atoms: C_19  and  C_22 
REMARK    6  A    between atoms: C_19  and  C_28 
REMARK    7  A    between atoms: O_30  and  C_31 
ROOT
ATOM      1  C   LIG d   1      10.379   0.337  -5.371  0.00  0.00     0.220 C 
ATOM      2  O   LIG d   1      11.262  -0.213  -4.748  0.00  0.00    -0.275 OA
ATOM      3  N   LIG d   1       9.205  -0.292  -5.573  0.00  0.00    -0.301 N 
ATOM      4  C   LIG d   1       8.123   0.364  -6.321  0.00  0.00     0.016 C 
ATOM      5  C   LIG d   1       6.851   0.345  -5.475  0.00  0.00    -0.022 C 
ATOM      6  C   LIG d   1       6.541  -1.094  -5.055  0.00  0.00     0.038 C 
ATOM      7  C   LIG d   1       7.695  -1.639  -4.209  0.00  0.00    -0.022 C 
ATOM      8  C   LIG d   1       8.979  -1.644  -5.044  0.00  0.00     0.016 C 
ATOM      9  H   LIG d   1       8.401   1.395  -6.537  0.00  0.00     0.046 H 
ATOM     10  H   LIG d   1       7.947  -0.172  -7.254  0.00  0.00     0.046 H 
ATOM     11  H   LIG d   1       6.018   0.739  -6.059  0.00  0.00     0.029 H 
ATOM     12  H   LIG d   1       6.997   0.960  -4.588  0.00  0.00     0.029 H 
ATOM     13  H   LIG d   1       7.464  -2.655  -3.889  0.00  0.00     0.029 H 
ATOM     14  H   LIG d   1       7.834  -1.006  -3.332  0.00  0.00     0.029 H 
ATOM     15  H   LIG d   1       8.874  -2.347  -5.871  0.00  0.00     0.046 H 
ATOM     16  H   LIG d   1       9.822  -1.937  -4.420  0.00  0.00     0.046 H 
ENDROOT
BRANCH   1  17
ATOM     17  C   LIG d   1      10.596   1.724  -5.920  0.00  0.00     0.056 C 
ATOM     18  H   LIG d   1       9.631   2.188  -6.125  0.00  0.00     0.041 H 
ATOM     19  H   LIG d   1      11.174   1.663  -6.843  0.00  0.00     0.041 H 
BRANCH  17  20
ATOM     20  C   LIG d   1      11.347   2.552  -4.910  0.00  0.00     0.049 A 
ATOM     21  C   LIG d   1      10.688   3.114  -3.864  0.00  0.00    -0.029 A 
ATOM     22  C   LIG d   1      11.459   3.910  -2.907  0.00  0.00     0.022 A 
ATOM     23  C   LIG d   1      12.844   4.063  -3.107  0.00  0.00     0.143 A 
ATOM     24  C   LIG d   1      10.839   4.515  -1.808  0.00  0.00    -0.029 A 
ATOM     25  C   LIG d   1      13.584   4.815  -2.206  0.00  0.00     0.025 A 
ATOM     26  O   LIG d   1      13.438   3.477  -4.169  0.00  0.00    -0.422 OA
ATOM     27  C   LIG d   1      12.954   5.411  -1.127  0.00  0.00     0.142 A 
ATOM     28  H   LIG d   1      14.647   4.938  -2.349  0.00  0.00     0.069 H 
ATOM     29  C   LIG d   1      11.582   5.251  -0.931  0.00  0.00     0.083 A 
ATOM     30 CL   LIG d   1      10.813   6.002   0.433  0.00  0.00    -0.080 Cl
ATOM     31  C   LIG d   1      12.737   2.746  -5.049  0.00  0.00     0.341 A 
ATOM     32  O   LIG d   1      13.316   2.236  -5.992  0.00  0.00    -0.245 OA
ATOM     33  H   LIG d   1       9.776   4.399  -1.653  0.00  0.00     0.064 H 
BRANCH  21  34
ATOM     34  C   LIG d   1       9.202   2.923  -3.692  0.00  0.00    -0.038 C 
ATOM     35  H   LIG d   1       8.933   3.089  -2.649  0.00  0.00     0.028 H 
ATOM     36  H   LIG d   1       8.669   3.634  -4.323  0.00  0.00     0.028 H 
ATOM     37  H   LIG d   1       8.931   1.907  -3.979  0.00  0.00     0.028 H 
ENDBRANCH  21  34
BRANCH  27  38
ATOM     38  O   LIG d   1      13.678   6.151  -0.249  0.00  0.00    -0.493 OA
BRANCH  38  39
ATOM     39  C   LIG d   1      15.031   6.442  -0.608  0.00  0.00     0.079 C 
ATOM     40  H   LIG d   1      15.219   6.097  -1.625  0.00  0.00     0.066 H 
ATOM     41  H   LIG d   1      15.197   7.518  -0.552  0.00  0.00     0.066 H 
ATOM     42  H   LIG d   1      15.706   5.934   0.080  0.00  0.00     0.066 H 
ENDBRANCH  38  39
ENDBRANCH  27  38
ENDBRANCH  17  20
ENDBRANCH   1  17
BRANCH   6  43
ATOM     43  C   LIG d   1       5.270  -1.118  -4.247  0.00  0.00    -0.036 A 
ATOM     44  C   LIG d   1       4.213  -0.299  -4.597  0.00  0.00    -0.058 A 
ATOM     45  C   LIG d   1       3.047  -0.323  -3.856  0.00  0.00    -0.061 A 
ATOM     46  H   LIG d   1       4.298   0.357  -5.450  0.00  0.00     0.062 H 
ATOM     47  C   LIG d   1       2.937  -1.164  -2.765  0.00  0.00    -0.062 A 
ATOM     48  H   LIG d   1       2.220   0.317  -4.130  0.00  0.00     0.062 H 
ATOM     49  C   LIG d   1       3.994  -1.982  -2.415  0.00  0.00    -0.061 A 
ATOM     50  H   LIG d   1       2.025  -1.181  -2.185  0.00  0.00     0.062 H 
ATOM     51  C   LIG d   1       5.159  -1.964  -3.158  0.00  0.00    -0.058 A 
ATOM     52  H   LIG d   1       3.909  -2.640  -1.562  0.00  0.00     0.062 H 
ATOM     53  H   LIG d   1       5.984  -2.607  -2.888  0.00  0.00     0.062 H 
ENDBRANCH   6  43
BRANCH   6  54
ATOM     54  C   LIG d   1       6.372  -1.951  -6.283  0.00  0.00     0.052 C 
ATOM     55  O   LIG d   1       6.600  -3.136  -6.229  0.00  0.00    -0.549 OA
ATOM     56  O   LIG d   1       5.970  -1.397  -7.437  0.00  0.00    -0.549 OA
ENDBRANCH   6  54
TORSDOF 7
ENDMDL
MODEL 6
REMARK VINA RESULT:      -6.8      2.975      7.873
REMARK  7 active torsions:
REMARK  status: ('A' for Active; 'I' for Inactive)
REMARK    1  A    between atoms: C_1  and  C_2 
REMARK    2  A    between atoms: C_6  and  O_30 
REMARK    3  A    between atoms: C_12  and  C_13 
REMARK    4  A    between atoms: C_13  and  C_14 
REMARK       I    between atoms: C_14  and  N_16 
REMARK    5  A    between atoms: C_19  and  C_22 
REMARK    6  A    between atoms: C_19  and  C_28 
REMARK    7  A    between atoms: O_30  and  C_31 
ROOT
ATOM      1  C   LIG d   1       9.978   3.990  -6.615  0.00  0.00     0.220 C 
ATOM      2  O   LIG d   1       9.190   4.065  -7.533  0.00  0.00    -0.275 OA
ATOM      3  N   LIG d   1      10.466   5.113  -6.053  0.00  0.00    -0.301 N 
ATOM      4  C   LIG d   1      11.418   5.038  -4.936  0.00  0.00     0.016 C 
ATOM      5  C   LIG d   1      10.888   5.876  -3.774  0.00  0.00    -0.022 C 
ATOM      6  C   LIG d   1      10.603   7.298  -4.262  0.00  0.00     0.038 C 
ATOM      7  C   LIG d   1       9.535   7.259  -5.358  0.00  0.00    -0.022 C 
ATOM      8  C   LIG d   1      10.053   6.436  -6.541  0.00  0.00     0.016 C 
ATOM      9  H   LIG d   1      11.526   4.002  -4.617  0.00  0.00     0.046 H 
ATOM     10  H   LIG d   1      12.385   5.428  -5.253  0.00  0.00     0.046 H 
ATOM     11  H   LIG d   1      11.632   5.908  -2.977  0.00  0.00     0.029 H 
ATOM     12  H   LIG d   1       9.969   5.430  -3.396  0.00  0.00     0.029 H 
ATOM     13  H   LIG d   1       9.314   8.274  -5.689  0.00  0.00     0.029 H 
ATOM     14  H   LIG d   1       8.627   6.800  -4.966  0.00  0.00     0.029 H 
ATOM     15  H   LIG d   1      10.907   6.942  -6.992  0.00  0.00     0.046 H 
ATOM     16  H   LIG d   1       9.263   6.320  -7.283  0.00  0.00     0.046 H 
ENDROOT
BRANCH   1  17
ATOM     17  C   LIG d   1      10.411   2.640  -6.103  0.00  0.00     0.056 C 
ATOM     18  H   LIG d   1      10.969   2.766  -5.175  0.00  0.00     0.041 H 
ATOM     19  H   LIG d   1      11.046   2.156  -6.847  0.00  0.00     0.041 H 
BRANCH  17  20
ATOM     20  C   LIG d   1       9.197   1.787  -5.847  0.00  0.00     0.049 A 
ATOM     21  C   LIG d   1       8.517   1.903  -4.676  0.00  0.00    -0.029 A 
ATOM     22  C   LIG d   1       7.343   1.053  -4.471  0.00  0.00     0.022 A 
ATOM     23  C   LIG d   1       6.965   0.155  -5.485  0.00  0.00     0.143 A 
ATOM     24  C   LIG d   1       6.599   1.125  -3.286  0.00  0.00    -0.029 A 
ATOM     25  C   LIG d   1       5.853  -0.655  -5.301  0.00  0.00     0.025 A 
ATOM     26  O   LIG d   1       7.685   0.089  -6.627  0.00  0.00    -0.422 OA
ATOM     27  C   LIG d   1       5.132  -0.574  -4.121  0.00  0.00     0.142 A 
ATOM     28  H   LIG d   1       5.554  -1.347  -6.073  0.00  0.00     0.069 H 
ATOM     29  C   LIG d   1       5.508   0.323  -3.121  0.00  0.00     0.083 A 
ATOM     30 CL   LIG d   1       4.585   0.411  -1.653  0.00  0.00    -0.080 Cl
ATOM     31  C   LIG d   1       8.761   0.865  -6.821  0.00  0.00     0.341 A 
ATOM     32  O   LIG d   1       9.380   0.771  -7.867  0.00  0.00    -0.245 OA
ATOM     33  H   LIG d   1       6.888   1.815  -2.506  0.00  0.00     0.064 H 
BRANCH  21  34
ATOM     34  C   LIG d   1       8.960   2.881  -3.618  0.00  0.00    -0.038 C 
ATOM     35  H   LIG d   1       9.941   2.588  -3.241  0.00  0.00     0.028 H 
ATOM     36  H   LIG d   1       9.020   3.880  -4.049  0.00  0.00     0.028 H 
ATOM     37  H   LIG d   1       8.242   2.879  -2.798  0.00  0.00     0.028 H 
ENDBRANCH  21  34
BRANCH  27  38
ATOM     38  O   LIG d   1       4.048  -1.371  -3.940  0.00  0.00    -0.493 OA
BRANCH  38  39
ATOM     39  C   LIG d   1       4.290  -2.699  -3.470  0.00  0.00     0.079 C 
ATOM     40  H   LIG d   1       5.325  -2.974  -3.675  0.00  0.00     0.066 H 
ATOM     41  H   LIG d   1       4.107  -2.743  -2.396  0.00  0.00     0.066 H 
ATOM     42  H   LIG d   1       3.622  -3.392  -3.981  0.00  0.00     0.066 H 
ENDBRANCH  38  39
ENDBRANCH  27  38
ENDBRANCH  17  20
ENDBRANCH   1  17
BRANCH   6  43
ATOM     43  C   LIG d   1      10.109   8.135  -3.110  0.00  0.00    -0.036 A 
ATOM     44  C   LIG d   1       9.609   7.522  -1.976  0.00  0.00    -0.058 A 
ATOM     45  C   LIG d   1       9.156   8.290  -0.920  0.00  0.00    -0.061 A 
ATOM     46  H   LIG d   1       9.572   6.445  -1.916  0.00  0.00     0.062 H 
ATOM     47  C   LIG d   1       9.204   9.669  -0.996  0.00  0.00    -0.062 A 
ATOM     48  H   LIG d   1       8.766   7.811  -0.033  0.00  0.00     0.062 H 
ATOM     49  C   LIG d   1       9.704  10.281  -2.129  0.00  0.00    -0.061 A 
ATOM     50  H   LIG d   1       8.850  10.269  -0.169  0.00  0.00     0.062 H 
ATOM     51  C   LIG d   1      10.161   9.514  -3.185  0.00  0.00    -0.058 A 
ATOM     52  H   LIG d   1       9.741  11.359  -2.190  0.00  0.00     0.062 H 
ATOM     53  H   LIG d   1      10.557   9.993  -4.069  0.00  0.00     0.062 H 
ENDBRANCH   6  43
BRANCH   6  54
ATOM     54  C   LIG d   1      11.867   7.903  -4.816  0.00  0.00     0.052 C 
ATOM     55  O   LIG d   1      12.922   7.717  -4.256  0.00  0.00    -0.549 OA
ATOM     56  O   LIG d   1      11.821   8.649  -5.930  0.00  0.00    -0.549 OA
ENDBRANCH   6  54
TORSDOF 7
ENDMDL
MODEL 7
REMARK VINA RESULT:      -6.8      7.552     12.410
REMARK  7 active torsions:
REMARK  status: ('A' for Active; 'I' for Inactive)
REMARK    1  A    between atoms: C_1  and  C_2 
REMARK    2  A    between atoms: C_6  and  O_30 
REMARK    3  A    between atoms: C_12  and  C_13 
REMARK    4  A    between atoms: C_13  and  C_14 
REMARK       I    between atoms: C_14  and  N_16 
REMARK    5  A    between atoms: C_19  and  C_22 
REMARK    6  A    between atoms: C_19  and  C_28 
REMARK    7  A    between atoms: O_30  and  C_31 
ROOT
ATOM      1  C   LIG d   1       3.940  -0.904 -10.622  0.00  0.00     0.220 C 
ATOM      2  O   LIG d   1       3.358   0.045 -11.102  0.00  0.00    -0.275 OA
ATOM      3  N   LIG d   1       4.538  -0.789  -9.420  0.00  0.00    -0.301 N 
ATOM      4  C   LIG d   1       5.243  -1.932  -8.822  0.00  0.00     0.016 C 
ATOM      5  C   LIG d   1       4.697  -2.172  -7.416  0.00  0.00    -0.022 C 
ATOM      6  C   LIG d   1       4.795  -0.879  -6.604  0.00  0.00     0.038 C 
ATOM      7  C   LIG d   1       3.952   0.210  -7.272  0.00  0.00    -0.022 C 
ATOM      8  C   LIG d   1       4.494   0.479  -8.679  0.00  0.00     0.016 C 
ATOM      9  H   LIG d   1       5.082  -2.820  -9.432  0.00  0.00     0.046 H 
ATOM     10  H   LIG d   1       6.309  -1.714  -8.764  0.00  0.00     0.046 H 
ATOM     11  H   LIG d   1       5.279  -2.953  -6.926  0.00  0.00     0.029 H 
ATOM     12  H   LIG d   1       3.654  -2.482  -7.481  0.00  0.00     0.029 H 
ATOM     13  H   LIG d   1       4.003   1.125  -6.681  0.00  0.00     0.029 H 
ATOM     14  H   LIG d   1       2.916  -0.121  -7.339  0.00  0.00     0.029 H 
ATOM     15  H   LIG d   1       5.498   0.898  -8.610  0.00  0.00     0.046 H 
ATOM     16  H   LIG d   1       3.841   1.181  -9.197  0.00  0.00     0.046 H 
ENDROOT
BRANCH   1  17
ATOM     17  C   LIG d   1       3.995  -2.212 -11.369  0.00  0.00     0.056 C 
ATOM     18  H   LIG d   1       4.434  -2.977 -10.730  0.00  0.00     0.041 H 
ATOM     19  H   LIG d   1       4.604  -2.093 -12.266  0.00  0.00     0.041 H 
BRANCH  17  20
ATOM     20  C   LIG d   1       2.600  -2.625 -11.761  0.00  0.00     0.049 A 
ATOM     21  C   LIG d   1       1.859  -3.400 -10.926  0.00  0.00    -0.029 A 
ATOM     22  C   LIG d   1       0.509  -3.776 -11.348  0.00  0.00     0.022 A 
ATOM     23  C   LIG d   1       0.032  -3.326 -12.593  0.00  0.00     0.143 A 
ATOM     24  C   LIG d   1      -0.306  -4.572 -10.534  0.00  0.00    -0.029 A 
ATOM     25  C   LIG d   1      -1.246  -3.677 -13.003  0.00  0.00     0.025 A 
ATOM     26  O   LIG d   1       0.821  -2.558 -13.376  0.00  0.00    -0.422 OA
ATOM     27  C   LIG d   1      -2.036  -4.469 -12.187  0.00  0.00     0.142 A 
ATOM     28  H   LIG d   1      -1.621  -3.336 -13.956  0.00  0.00     0.069 H 
ATOM     29  C   LIG d   1      -1.561  -4.908 -10.951  0.00  0.00     0.083 A 
ATOM     30 CL   LIG d   1      -2.571  -5.895  -9.941  0.00  0.00    -0.080 Cl
ATOM     31  C   LIG d   1       2.059  -2.209 -12.995  0.00  0.00     0.341 A 
ATOM     32  O   LIG d   1       2.735  -1.514 -13.734  0.00  0.00    -0.245 OA
ATOM     33  H   LIG d   1       0.058  -4.919  -9.577  0.00  0.00     0.064 H 
BRANCH  21  34
ATOM     34  C   LIG d   1       2.412  -3.858  -9.601  0.00  0.00    -0.038 C 
ATOM     35  H   LIG d   1       3.495  -3.732  -9.596  0.00  0.00     0.028 H 
ATOM     36  H   LIG d   1       1.974  -3.263  -8.799  0.00  0.00     0.028 H 
ATOM     37  H   LIG d   1       2.168  -4.909  -9.449  0.00  0.00     0.028 H 
ENDBRANCH  21  34
BRANCH  27  38
ATOM     38  O   LIG d   1      -3.284  -4.817 -12.592  0.00  0.00    -0.493 OA
BRANCH  38  39
ATOM     39  C   LIG d   1      -4.314  -3.839 -12.431  0.00  0.00     0.079 C 
ATOM     40  H   LIG d   1      -5.210  -4.165 -12.960  0.00  0.00     0.066 H 
ATOM     41  H   LIG d   1      -4.540  -3.720 -11.372  0.00  0.00     0.066 H 
ATOM     42  H   LIG d   1      -3.977  -2.887 -12.840  0.00  0.00     0.066 H 
ENDBRANCH  38  39
ENDBRANCH  27  38
ENDBRANCH  17  20
ENDBRANCH   1  17
BRANCH   6  43
ATOM     43  C   LIG d   1       4.285  -1.122  -5.207  0.00  0.00    -0.036 A 
ATOM     44  C   LIG d   1       3.321  -0.291  -4.669  0.00  0.00    -0.058 A 
ATOM     45  C   LIG d   1       2.853  -0.515  -3.388  0.00  0.00    -0.061 A 
ATOM     46  H   LIG d   1       2.933   0.533  -5.250  0.00  0.00     0.062 H 
ATOM     47  C   LIG d   1       3.348  -1.570  -2.645  0.00  0.00    -0.062 A 
ATOM     48  H   LIG d   1       2.098   0.134  -2.968  0.00  0.00     0.062 H 
ATOM     49  C   LIG d   1       4.312  -2.401  -3.183  0.00  0.00    -0.061 A 
ATOM     50  H   LIG d   1       2.982  -1.745  -1.644  0.00  0.00     0.062 H 
ATOM     51  C   LIG d   1       4.778  -2.181  -4.467  0.00  0.00    -0.058 A 
ATOM     52  H   LIG d   1       4.700  -3.226  -2.603  0.00  0.00     0.062 H 
ATOM     53  H   LIG d   1       5.528  -2.834  -4.889  0.00  0.00     0.062 H 
ENDBRANCH   6  43
BRANCH   6  54
ATOM     54  C   LIG d   1       6.233  -0.432  -6.543  0.00  0.00     0.052 C 
ATOM     55  O   LIG d   1       6.498   0.722  -6.300  0.00  0.00    -0.549 OA
ATOM     56  O   LIG d   1       7.220  -1.316  -6.759  0.00  0.00    -0.549 OA
ENDBRANCH   6  54
TORSDOF 7
ENDMDL
MODEL 8
REMARK VINA RESULT:      -6.8      5.007      7.669
REMARK  7 active torsions:
REMARK  status: ('A' for Active; 'I' for Inactive)
REMARK    1  A    between atoms: C_1  and  C_2 
REMARK    2  A    between atoms: C_6  and  O_30 
REMARK    3  A    between atoms: C_12  and  C_13 
REMARK    4  A    between atoms: C_13  and  C_14 
REMARK       I    between atoms: C_14  and  N_16 
REMARK    5  A    between atoms: C_19  and  C_22 
REMARK    6  A    between atoms: C_19  and  C_28 
REMARK    7  A    between atoms: O_30  and  C_31 
ROOT
ATOM      1  C   LIG d   1      10.725   5.931  -6.419  0.00  0.00     0.220 C 
ATOM      2  O   LIG d   1      11.701   5.355  -5.990  0.00  0.00    -0.275 OA
ATOM      3  N   LIG d   1      10.743   6.449  -7.664  0.00  0.00    -0.301 N 
ATOM      4  C   LIG d   1       9.565   7.146  -8.201  0.00  0.00     0.016 C 
ATOM      5  C   LIG d   1       9.185   6.518  -9.541  0.00  0.00    -0.022 C 
ATOM      6  C   LIG d   1      10.400   6.529 -10.471  0.00  0.00     0.038 C 
ATOM      7  C   LIG d   1      11.528   5.700  -9.849  0.00  0.00    -0.022 C 
ATOM      8  C   LIG d   1      11.936   6.322  -8.511  0.00  0.00     0.016 C 
ATOM      9  H   LIG d   1       8.734   7.048  -7.504  0.00  0.00     0.046 H 
ATOM     10  H   LIG d   1       9.800   8.200  -8.348  0.00  0.00     0.046 H 
ATOM     11  H   LIG d   1       8.375   7.090  -9.995  0.00  0.00     0.029 H 
ATOM     12  H   LIG d   1       8.859   5.491  -9.380  0.00  0.00     0.029 H 
ATOM     13  H   LIG d   1      12.384   5.688 -10.523  0.00  0.00     0.029 H 
ATOM     14  H   LIG d   1      11.180   4.680  -9.686  0.00  0.00     0.029 H 
ATOM     15  H   LIG d   1      12.368   7.308  -8.683  0.00  0.00     0.046 H 
ATOM     16  H   LIG d   1      12.668   5.684  -8.017  0.00  0.00     0.046 H 
ENDROOT
BRANCH   1  17
ATOM     17  C   LIG d   1       9.493   6.070  -5.563  0.00  0.00     0.056 C 
ATOM     18  H   LIG d   1       9.065   5.084  -5.380  0.00  0.00     0.041 H 
ATOM     19  H   LIG d   1       8.761   6.695  -6.077  0.00  0.00     0.041 H 
BRANCH  17  20
ATOM     20  C   LIG d   1       9.864   6.708  -4.250  0.00  0.00     0.049 A 
ATOM     21  C   LIG d   1       9.984   5.945  -3.132  0.00  0.00    -0.029 A 
ATOM     22  C   LIG d   1      10.346   6.608  -1.877  0.00  0.00     0.022 A 
ATOM     23  C   LIG d   1      10.554   8.000  -1.877  0.00  0.00     0.143 A 
ATOM     24  C   LIG d   1      10.487   5.879  -0.691  0.00  0.00    -0.029 A 
ATOM     25  C   LIG d   1      10.897   8.638  -0.694  0.00  0.00     0.025 A 
ATOM     26  O   LIG d   1      10.417   8.700  -3.024  0.00  0.00    -0.422 OA
ATOM     27  C   LIG d   1      11.028   7.902   0.472  0.00  0.00     0.142 A 
ATOM     28  H   LIG d   1      11.059   9.705  -0.682  0.00  0.00     0.069 H 
ATOM     29  C   LIG d   1      10.827   6.522   0.464  0.00  0.00     0.083 A 
ATOM     30 CL   LIG d   1      11.001   5.618   1.936  0.00  0.00    -0.080 Cl
ATOM     31  C   LIG d   1      10.086   8.099  -4.176  0.00  0.00     0.341 A 
ATOM     32  O   LIG d   1       9.975   8.770  -5.187  0.00  0.00    -0.245 OA
ATOM     33  H   LIG d   1      10.329   4.810  -0.690  0.00  0.00     0.064 H 
BRANCH  21  34
ATOM     34  C   LIG d   1       9.752   4.456  -3.181  0.00  0.00    -0.038 C 
ATOM     35  H   LIG d   1      10.008   4.017  -2.217  0.00  0.00     0.028 H 
ATOM     36  H   LIG d   1       8.703   4.260  -3.404  0.00  0.00     0.028 H 
ATOM     37  H   LIG d   1      10.378   4.017  -3.958  0.00  0.00     0.028 H 
ENDBRANCH  21  34
BRANCH  27  38
ATOM     38  O   LIG d   1      11.358   8.529   1.630  0.00  0.00    -0.493 OA
BRANCH  38  39
ATOM     39  C   LIG d   1      11.832   9.873   1.528  0.00  0.00     0.079 C 
ATOM     40  H   LIG d   1      12.183  10.059   0.512  0.00  0.00     0.066 H 
ATOM     41  H   LIG d   1      11.021  10.562   1.764  0.00  0.00     0.066 H 
ATOM     42  H   LIG d   1      12.652  10.023   2.229  0.00  0.00     0.066 H 
ENDBRANCH  38  39
ENDBRANCH  27  38
ENDBRANCH  17  20
ENDBRANCH   1  17
BRANCH   6  43
ATOM     43  C   LIG d   1      10.019   5.939 -11.803  0.00  0.00    -0.036 A 
ATOM     44  C   LIG d   1       9.017   6.523 -12.556  0.00  0.00    -0.058 A 
ATOM     45  C   LIG d   1       8.668   5.981 -13.779  0.00  0.00    -0.061 A 
ATOM     46  H   LIG d   1       8.509   7.403 -12.190  0.00  0.00     0.062 H 
ATOM     47  C   LIG d   1       9.318   4.857 -14.249  0.00  0.00    -0.062 A 
ATOM     48  H   LIG d   1       7.885   6.439 -14.368  0.00  0.00     0.062 H 
ATOM     49  C   LIG d   1      10.319   4.272 -13.496  0.00  0.00    -0.061 A 
ATOM     50  H   LIG d   1       9.045   4.433 -15.205  0.00  0.00     0.062 H 
ATOM     51  C   LIG d   1      10.674   4.816 -12.275  0.00  0.00    -0.058 A 
ATOM     52  H   LIG d   1      10.828   3.393 -13.863  0.00  0.00     0.062 H 
ATOM     53  H   LIG d   1      11.459   4.363 -11.689  0.00  0.00     0.062 H 
ENDBRANCH   6  43
BRANCH   6  54
ATOM     54  C   LIG d   1      10.871   7.947 -10.666  0.00  0.00     0.052 C 
ATOM     55  O   LIG d   1      11.958   8.163 -11.148  0.00  0.00    -0.549 OA
ATOM     56  O   LIG d   1      10.083   8.971 -10.304  0.00  0.00    -0.549 OA
ENDBRANCH   6  54
TORSDOF 7
ENDMDL
MODEL 9
REMARK VINA RESULT:      -6.7      9.511     12.693
REMARK  7 active torsions:
REMARK  status: ('A' for Active; 'I' for Inactive)
REMARK    1  A    between atoms: C_1  and  C_2 
REMARK    2  A    between atoms: C_6  and  O_30 
REMARK    3  A    between atoms: C_12  and  C_13 
REMARK    4  A    between atoms: C_13  and  C_14 
REMARK       I    between atoms: C_14  and  N_16 
REMARK    5  A    between atoms: C_19  and  C_22 
REMARK    6  A    between atoms: C_19  and  C_28 
REMARK    7  A    between atoms: O_30  and  C_31 
ROOT
ATOM      1  C   LIG d   1       3.169  -5.459  -9.702  0.00  0.00     0.220 C 
ATOM      2  O   LIG d   1       2.191  -5.998  -9.232  0.00  0.00    -0.275 OA
ATOM      3  N   LIG d   1       3.056  -4.252 -10.291  0.00  0.00    -0.301 N 
ATOM      4  C   LIG d   1       4.234  -3.583 -10.861  0.00  0.00     0.016 C 
ATOM      5  C   LIG d   1       4.341  -2.178 -10.271  0.00  0.00    -0.022 C 
ATOM      6  C   LIG d   1       3.025  -1.430 -10.495  0.00  0.00     0.038 C 
ATOM      7  C   LIG d   1       1.889  -2.170  -9.783  0.00  0.00    -0.022 C 
ATOM      8  C   LIG d   1       1.753  -3.577 -10.372  0.00  0.00     0.016 C 
ATOM      9  H   LIG d   1       5.131  -4.150 -10.614  0.00  0.00     0.046 H 
ATOM     10  H   LIG d   1       4.128  -3.514 -11.943  0.00  0.00     0.046 H 
ATOM     11  H   LIG d   1       5.153  -1.638 -10.759  0.00  0.00     0.029 H 
ATOM     12  H   LIG d   1       4.542  -2.248  -9.202  0.00  0.00     0.029 H 
ATOM     13  H   LIG d   1       0.956  -1.624  -9.923  0.00  0.00     0.029 H 
ATOM     14  H   LIG d   1       2.112  -2.240  -8.719  0.00  0.00     0.029 H 
ATOM     15  H   LIG d   1       1.441  -3.509 -11.414  0.00  0.00     0.046 H 
ATOM     16  H   LIG d   1       1.014  -4.143  -9.805  0.00  0.00     0.046 H 
ENDROOT
BRANCH   1  17
ATOM     17  C   LIG d   1       4.513  -6.138  -9.628  0.00  0.00     0.056 C 
ATOM     18  H   LIG d   1       5.300  -5.384  -9.610  0.00  0.00     0.041 H 
ATOM     19  H   LIG d   1       4.644  -6.780 -10.499  0.00  0.00     0.041 H 
BRANCH  17  20
ATOM     20  C   LIG d   1       4.586  -6.970  -8.374  0.00  0.00     0.049 A 
ATOM     21  C   LIG d   1       4.466  -8.321  -8.446  0.00  0.00    -0.029 A 
ATOM     22  C   LIG d   1       4.542  -9.090  -7.202  0.00  0.00     0.022 A 
ATOM     23  C   LIG d   1       4.735  -8.405  -5.988  0.00  0.00     0.143 A 
ATOM     24  C   LIG d   1       4.426 -10.485  -7.208  0.00  0.00    -0.029 A 
ATOM     25  C   LIG d   1       4.809  -9.124  -4.804  0.00  0.00     0.025 A 
ATOM     26  O   LIG d   1       4.846  -7.059  -5.986  0.00  0.00    -0.422 OA
ATOM     27  C   LIG d   1       4.688 -10.503  -4.828  0.00  0.00     0.142 A 
ATOM     28  H   LIG d   1       4.957  -8.609  -3.866  0.00  0.00     0.069 H 
ATOM     29  C   LIG d   1       4.502 -11.177  -6.035  0.00  0.00     0.083 A 
ATOM     30 CL   LIG d   1       4.359 -12.907  -6.042  0.00  0.00    -0.080 Cl
ATOM     31  C   LIG d   1       4.778  -6.349  -7.123  0.00  0.00     0.341 A 
ATOM     32  O   LIG d   1       4.884  -5.136  -7.073  0.00  0.00    -0.245 OA
ATOM     33  H   LIG d   1       4.279 -11.012  -8.140  0.00  0.00     0.064 H 
BRANCH  21  34
ATOM     34  C   LIG d   1       4.260  -9.011  -9.771  0.00  0.00    -0.038 C 
ATOM     35  H   LIG d   1       4.117  -8.263 -10.551  0.00  0.00     0.028 H 
ATOM     36  H   LIG d   1       5.136  -9.616 -10.004  0.00  0.00     0.028 H 
ATOM     37  H   LIG d   1       3.379  -9.650  -9.715  0.00  0.00     0.028 H 
ENDBRANCH  21  34
BRANCH  27  38
ATOM     38  O   LIG d   1       4.755 -11.204  -3.667  0.00  0.00    -0.493 OA
BRANCH  38  39
ATOM     39  C   LIG d   1       5.245 -10.511  -2.517  0.00  0.00     0.079 C 
ATOM     40  H   LIG d   1       6.328 -10.410  -2.589  0.00  0.00     0.066 H 
ATOM     41  H   LIG d   1       4.790  -9.522  -2.468  0.00  0.00     0.066 H 
ATOM     42  H   LIG d   1       4.991 -11.074  -1.619  0.00  0.00     0.066 H 
ENDBRANCH  38  39
ENDBRANCH  27  38
ENDBRANCH  17  20
ENDBRANCH   1  17
BRANCH   6  43
ATOM     43  C   LIG d   1       3.140  -0.034  -9.941  0.00  0.00    -0.036 A 
ATOM     44  C   LIG d   1       2.660   0.249  -8.677  0.00  0.00    -0.058 A 
ATOM     45  C   LIG d   1       2.766   1.530  -8.168  0.00  0.00    -0.061 A 
ATOM     46  H   LIG d   1       2.203  -0.530  -8.085  0.00  0.00     0.062 H 
ATOM     47  C   LIG d   1       3.352   2.528  -8.924  0.00  0.00    -0.062 A 
ATOM     48  H   LIG d   1       2.391   1.751  -7.179  0.00  0.00     0.062 H 
ATOM     49  C   LIG d   1       3.832   2.245 -10.188  0.00  0.00    -0.061 A 
ATOM     50  H   LIG d   1       3.434   3.530  -8.526  0.00  0.00     0.062 H 
ATOM     51  C   LIG d   1       3.731   0.963 -10.696  0.00  0.00    -0.058 A 
ATOM     52  H   LIG d   1       4.290   3.024 -10.780  0.00  0.00     0.062 H 
ATOM     53  H   LIG d   1       4.110   0.740 -11.683  0.00  0.00     0.062 H 
ENDBRANCH   6  43
BRANCH   6  54
ATOM     54  C   LIG d   1       2.731  -1.362 -11.971  0.00  0.00     0.052 C 
ATOM     55  O   LIG d   1       1.597  -1.197 -12.355  0.00  0.00    -0.549 OA
ATOM     56  O   LIG d   1       3.728  -1.486 -12.860  0.00  0.00    -0.549 OA
ENDBRANCH   6  54
TORSDOF 7
ENDMDL
MODEL 10
REMARK VINA RESULT:      -6.6      6.759     11.418
REMARK  7 active torsions:
REMARK  status: ('A' for Active; 'I' for Inactive)
REMARK    1  A    between atoms: C_1  and  C_2 
REMARK    2  A    between atoms: C_6  and  O_30 
REMARK    3  A    between atoms: C_12  and  C_13 
REMARK    4  A    between atoms: C_13  and  C_14 
REMARK       I    between atoms: C_14  and  N_16 
REMARK    5  A    between atoms: C_19  and  C_22 
REMARK    6  A    between atoms: C_19  and  C_28 
REMARK    7  A    between atoms: O_30  and  C_31 
ROOT
ATOM      1  C   LIG d   1       5.871  -4.303  -8.378  0.00  0.00     0.220 C 
ATOM      2  O   LIG d   1       4.936  -4.641  -9.071  0.00  0.00    -0.275 OA
ATOM      3  N   LIG d   1       5.913  -3.057  -7.866  0.00  0.00    -0.301 N 
ATOM      4  C   LIG d   1       7.038  -2.633  -7.019  0.00  0.00     0.016 C 
ATOM      5  C   LIG d   1       6.489  -2.084  -5.703  0.00  0.00    -0.022 C 
ATOM      6  C   LIG d   1       5.473  -0.979  -5.997  0.00  0.00     0.038 C 
ATOM      7  C   LIG d   1       4.307  -1.557  -6.804  0.00  0.00    -0.022 C 
ATOM      8  C   LIG d   1       4.833  -2.099  -8.137  0.00  0.00     0.016 C 
ATOM      9  H   LIG d   1       7.684  -3.486  -6.817  0.00  0.00     0.046 H 
ATOM     10  H   LIG d   1       7.605  -1.855  -7.528  0.00  0.00     0.046 H 
ATOM     11  H   LIG d   1       7.308  -1.676  -5.109  0.00  0.00     0.029 H 
ATOM     12  H   LIG d   1       6.004  -2.888  -5.150  0.00  0.00     0.029 H 
ATOM     13  H   LIG d   1       3.572  -0.775  -6.993  0.00  0.00     0.029 H 
ATOM     14  H   LIG d   1       3.841  -2.366  -6.241  0.00  0.00     0.029 H 
ATOM     15  H   LIG d   1       5.217  -1.276  -8.740  0.00  0.00     0.046 H 
ATOM     16  H   LIG d   1       4.027  -2.600  -8.674  0.00  0.00     0.046 H 
ENDROOT
BRANCH   1  17
ATOM     17  C   LIG d   1       6.988  -5.274  -8.091  0.00  0.00     0.056 C 
ATOM     18  H   LIG d   1       7.583  -4.906  -7.256  0.00  0.00     0.041 H 
ATOM     19  H   LIG d   1       7.620  -5.373  -8.974  0.00  0.00     0.041 H 
BRANCH  17  20
ATOM     20  C   LIG d   1       6.404  -6.618  -7.738  0.00  0.00     0.049 A 
ATOM     21  C   LIG d   1       5.960  -6.857  -6.477  0.00  0.00    -0.029 A 
ATOM     22  C   LIG d   1       5.402  -8.178  -6.179  0.00  0.00     0.022 A 
ATOM     23  C   LIG d   1       5.347  -9.142  -7.203  0.00  0.00     0.143 A 
ATOM     24  C   LIG d   1       4.926  -8.488  -4.899  0.00  0.00    -0.029 A 
ATOM     25  C   LIG d   1       4.819 -10.396  -6.932  0.00  0.00     0.025 A 
ATOM     26  O   LIG d   1       5.806  -8.839  -8.437  0.00  0.00    -0.422 OA
ATOM     27  C   LIG d   1       4.358 -10.687  -5.659  0.00  0.00     0.142 A 
ATOM     28  H   LIG d   1       4.772 -11.143  -7.710  0.00  0.00     0.069 H 
ATOM     29  C   LIG d   1       4.409  -9.726  -4.650  0.00  0.00     0.083 A 
ATOM     30 CL   LIG d   1       3.820 -10.111  -3.063  0.00  0.00    -0.080 Cl
ATOM     31  C   LIG d   1       6.319  -7.631  -8.716  0.00  0.00     0.341 A 
ATOM     32  O   LIG d   1       6.721  -7.402  -9.843  0.00  0.00    -0.245 OA
ATOM     33  H   LIG d   1       4.967  -7.749  -4.112  0.00  0.00     0.064 H 
BRANCH  21  34
ATOM     34  C   LIG d   1       6.040  -5.793  -5.412  0.00  0.00    -0.038 C 
ATOM     35  H   LIG d   1       5.195  -5.897  -4.731  0.00  0.00     0.028 H 
ATOM     36  H   LIG d   1       6.971  -5.905  -4.856  0.00  0.00     0.028 H 
ATOM     37  H   LIG d   1       6.010  -4.809  -5.880  0.00  0.00     0.028 H 
ENDBRANCH  21  34
BRANCH  27  38
ATOM     38  O   LIG d   1       3.847 -11.917  -5.394  0.00  0.00    -0.493 OA
BRANCH  38  39
ATOM     39  C   LIG d   1       3.355 -12.669  -6.505  0.00  0.00     0.079 C 
ATOM     40  H   LIG d   1       2.267 -12.722  -6.455  0.00  0.00     0.066 H 
ATOM     41  H   LIG d   1       3.653 -12.181  -7.434  0.00  0.00     0.066 H 
ATOM     42  H   LIG d   1       3.771 -13.676  -6.474  0.00  0.00     0.066 H 
ENDBRANCH  38  39
ENDBRANCH  27  38
ENDBRANCH  17  20
ENDBRANCH   1  17
BRANCH   6  43
ATOM     43  C   LIG d   1       4.955  -0.415  -4.699  0.00  0.00    -0.036 A 
ATOM     44  C   LIG d   1       3.599  -0.204  -4.531  0.00  0.00    -0.058 A 
ATOM     45  C   LIG d   1       3.124   0.312  -3.340  0.00  0.00    -0.061 A 
ATOM     46  H   LIG d   1       2.912  -0.443  -5.328  0.00  0.00     0.062 H 
ATOM     47  C   LIG d   1       4.002   0.617  -2.318  0.00  0.00    -0.062 A 
ATOM     48  H   LIG d   1       2.064   0.476  -3.208  0.00  0.00     0.062 H 
ATOM     49  C   LIG d   1       5.358   0.405  -2.487  0.00  0.00    -0.061 A 
ATOM     50  H   LIG d   1       3.631   1.021  -1.387  0.00  0.00     0.062 H 
ATOM     51  C   LIG d   1       5.834  -0.115  -3.676  0.00  0.00    -0.058 A 
ATOM     52  H   LIG d   1       6.046   0.644  -1.689  0.00  0.00     0.062 H 
ATOM     53  H   LIG d   1       6.893  -0.285  -3.806  0.00  0.00     0.062 H 
ENDBRANCH   6  43
BRANCH   6  54
ATOM     54  C   LIG d   1       6.137   0.116  -6.790  0.00  0.00     0.052 C 
ATOM     55  O   LIG d   1       7.332   0.278  -6.716  0.00  0.00    -0.549 OA
ATOM     56  O   LIG d   1       5.400   0.914  -7.579  0.00  0.00    -0.549 OA
ENDBRANCH   6  54
TORSDOF 7
ENDMDL
