MODEL 1
REMARK VINA RESULT:      -5.6      0.000      0.000
REMARK  3 active torsions:
REMARK  status: ('A' for Active; 'I' for Inactive)
REMARK    1  A    between atoms: C_1  and  O_2 
REMARK    2  A    between atoms: O_2  and  C_3 
REMARK    3  A    between atoms: CA_10  and  C_13 
ROOT
ATOM      1  C   LIG d   1       3.554  -0.036  -4.417  0.00  0.00     0.146 A 
ATOM      2  C   LIG d   1       2.702  -0.636  -3.534  0.00  0.00    -0.018 A 
ATOM      3  C   LIG d   1       3.177  -1.521  -2.569  0.00  0.00    -0.058 A 
ATOM      4  C   LIG d   1       4.504  -1.813  -2.477  0.00  0.00    -0.052 A 
ATOM      5  C   LIG d   1       5.412  -1.217  -3.366  0.00  0.00     0.004 A 
ATOM      6  C   LIG d   1       4.937  -0.314  -4.352  0.00  0.00     0.113 A 
ATOM      7  N   LIG d   1       5.791   0.255  -5.200  0.00  0.00    -0.242 NA
ATOM      8  CA  LIG d   1       7.084   0.000  -5.146  0.00  0.00     0.087 A 
ATOM      9  C   LIG d   1       7.618  -0.884  -4.195  0.00  0.00    -0.034 A 
ATOM     10  C   LIG d   1       6.791  -1.497  -3.300  0.00  0.00    -0.050 A 
ATOM     11  H   LIG d   1       1.645  -0.421  -3.585  0.00  0.00     0.066 H 
ATOM     12  H   LIG d   1       2.482  -1.982  -1.883  0.00  0.00     0.062 H 
ATOM     13  H   LIG d   1       4.857  -2.502  -1.723  0.00  0.00     0.062 H 
ATOM     14  H   LIG d   1       8.680  -1.076  -4.170  0.00  0.00     0.064 H 
ATOM     15  H   LIG d   1       7.182  -2.180  -2.561  0.00  0.00     0.062 H 
ENDROOT
BRANCH   1  16
ATOM     16  O   LIG d   1       3.072   0.821  -5.355  0.00  0.00    -0.493 OA
BRANCH  16  17
ATOM     17  C   LIG d   1       2.728   0.265  -6.626  0.00  0.00     0.079 C 
ATOM     18  H   LIG d   1       3.014   0.960  -7.415  0.00  0.00     0.066 H 
ATOM     19  H   LIG d   1       3.256  -0.679  -6.764  0.00  0.00     0.066 H 
ATOM     20  H   LIG d   1       1.653   0.090  -6.667  0.00  0.00     0.066 H 
ENDBRANCH  16  17
ENDBRANCH   1  16
BRANCH   8  21
ATOM     21  C   LIG d   1       7.993   0.659  -6.111  0.00  0.00     0.090 C 
ATOM     22  O   LIG d   1       9.137   0.271  -6.231  0.00  0.00    -0.543 OA
ATOM     23  OXT LIG d   1       7.551   1.691  -6.856  0.00  0.00    -0.543 OA
ENDBRANCH   8  21
TORSDOF 3
ENDMDL
MODEL 2
REMARK VINA RESULT:      -5.5      2.111      3.949
REMARK  3 active torsions:
REMARK  status: ('A' for Active; 'I' for Inactive)
REMARK    1  A    between atoms: C_1  and  O_2 
REMARK    2  A    between atoms: O_2  and  C_3 
REMARK    3  A    between atoms: CA_10  and  C_13 
ROOT
ATOM      1  C   LIG d   1       5.593  -1.290  -4.014  0.00  0.00     0.146 A 
ATOM      2  C   LIG d   1       5.431  -1.611  -2.696  0.00  0.00    -0.018 A 
ATOM      3  C   LIG d   1       4.239  -1.332  -2.031  0.00  0.00    -0.058 A 
ATOM      4  C   LIG d   1       3.200  -0.731  -2.675  0.00  0.00    -0.052 A 
ATOM      5  C   LIG d   1       3.326  -0.385  -4.029  0.00  0.00     0.004 A 
ATOM      6  C   LIG d   1       4.536  -0.666  -4.715  0.00  0.00     0.113 A 
ATOM      7  N   LIG d   1       4.665  -0.341  -5.999  0.00  0.00    -0.242 NA
ATOM      8  CA  LIG d   1       3.684   0.242  -6.660  0.00  0.00     0.087 A 
ATOM      9  C   LIG d   1       2.462   0.547  -6.040  0.00  0.00    -0.034 A 
ATOM     10  C   LIG d   1       2.272   0.238  -4.726  0.00  0.00    -0.050 A 
ATOM     11  H   LIG d   1       6.239  -2.088  -2.162  0.00  0.00     0.066 H 
ATOM     12  H   LIG d   1       4.138  -1.596  -0.989  0.00  0.00     0.062 H 
ATOM     13  H   LIG d   1       2.282  -0.521  -2.145  0.00  0.00     0.062 H 
ATOM     14  H   LIG d   1       1.673   1.024  -6.603  0.00  0.00     0.064 H 
ATOM     15  H   LIG d   1       1.339   0.464  -4.231  0.00  0.00     0.062 H 
ENDROOT
BRANCH   1  16
ATOM     16  O   LIG d   1       6.763  -1.565  -4.644  0.00  0.00    -0.493 OA
BRANCH  16  17
ATOM     17  C   LIG d   1       7.674  -2.437  -3.970  0.00  0.00     0.079 C 
ATOM     18  H   LIG d   1       8.053  -3.179  -4.673  0.00  0.00     0.066 H 
ATOM     19  H   LIG d   1       8.506  -1.855  -3.572  0.00  0.00     0.066 H 
ATOM     20  H   LIG d   1       7.158  -2.939  -3.153  0.00  0.00     0.066 H 
ENDBRANCH  16  17
ENDBRANCH   1  16
BRANCH   8  21
ATOM     21  C   LIG d   1       3.876   0.584  -8.088  0.00  0.00     0.090 C 
ATOM     22  O   LIG d   1       4.040   1.741  -8.420  0.00  0.00    -0.543 OA
ATOM     23  OXT LIG d   1       3.867  -0.389  -9.020  0.00  0.00    -0.543 OA
ENDBRANCH   8  21
TORSDOF 3
ENDMDL
MODEL 3
REMARK VINA RESULT:      -5.5      2.626      3.530
REMARK  3 active torsions:
REMARK  status: ('A' for Active; 'I' for Inactive)
REMARK    1  A    between atoms: C_1  and  O_2 
REMARK    2  A    between atoms: O_2  and  C_3 
REMARK    3  A    between atoms: CA_10  and  C_13 
ROOT
ATOM      1  C   LIG d   1       5.996   0.676  -3.626  0.00  0.00     0.146 A 
ATOM      2  C   LIG d   1       5.419   1.389  -2.613  0.00  0.00    -0.018 A 
ATOM      3  C   LIG d   1       4.472   0.805  -1.775  0.00  0.00    -0.058 A 
ATOM      4  C   LIG d   1       4.093  -0.492  -1.940  0.00  0.00    -0.052 A 
ATOM      5  C   LIG d   1       4.662  -1.259  -2.969  0.00  0.00     0.004 A 
ATOM      6  C   LIG d   1       5.628  -0.673  -3.827  0.00  0.00     0.113 A 
ATOM      7  N   LIG d   1       6.172  -1.392  -4.806  0.00  0.00    -0.242 NA
ATOM      8  CA  LIG d   1       5.834  -2.652  -5.001  0.00  0.00     0.087 A 
ATOM      9  C   LIG d   1       4.885  -3.291  -4.187  0.00  0.00    -0.034 A 
ATOM     10  C   LIG d   1       4.293  -2.604  -3.168  0.00  0.00    -0.050 A 
ATOM     11  H   LIG d   1       5.702   2.420  -2.460  0.00  0.00     0.066 H 
ATOM     12  H   LIG d   1       4.031   1.391  -0.982  0.00  0.00     0.062 H 
ATOM     13  H   LIG d   1       3.357  -0.930  -1.282  0.00  0.00     0.062 H 
ATOM     14  H   LIG d   1       4.625  -4.324  -4.366  0.00  0.00     0.064 H 
ATOM     15  H   LIG d   1       3.561  -3.077  -2.531  0.00  0.00     0.062 H 
ENDROOT
BRANCH   1  16
ATOM     16  O   LIG d   1       6.914   1.263  -4.436  0.00  0.00    -0.493 OA
BRANCH  16  17
ATOM     17  C   LIG d   1       8.085   1.794  -3.812  0.00  0.00     0.079 C 
ATOM     18  H   LIG d   1       8.059   2.883  -3.859  0.00  0.00     0.066 H 
ATOM     19  H   LIG d   1       8.117   1.476  -2.770  0.00  0.00     0.066 H 
ATOM     20  H   LIG d   1       8.971   1.429  -4.331  0.00  0.00     0.066 H 
ENDBRANCH  16  17
ENDBRANCH   1  16
BRANCH   8  21
ATOM     21  C   LIG d   1       6.469  -3.411  -6.103  0.00  0.00     0.090 C 
ATOM     22  O   LIG d   1       7.023  -4.467  -5.874  0.00  0.00    -0.543 OA
ATOM     23  OXT LIG d   1       6.431  -2.929  -7.360  0.00  0.00    -0.543 OA
ENDBRANCH   8  21
TORSDOF 3
ENDMDL
MODEL 4
REMARK VINA RESULT:      -5.2      2.592      3.859
REMARK  3 active torsions:
REMARK  status: ('A' for Active; 'I' for Inactive)
REMARK    1  A    between atoms: C_1  and  O_2 
REMARK    2  A    between atoms: O_2  and  C_3 
REMARK    3  A    between atoms: CA_10  and  C_13 
ROOT
ATOM      1  C   LIG d   1       4.766  -1.356  -6.530  0.00  0.00     0.146 A 
ATOM      2  C   LIG d   1       4.870  -2.570  -7.150  0.00  0.00    -0.018 A 
ATOM      3  C   LIG d   1       4.818  -3.754  -6.419  0.00  0.00    -0.058 A 
ATOM      4  C   LIG d   1       4.663  -3.738  -5.066  0.00  0.00    -0.052 A 
ATOM      5  C   LIG d   1       4.553  -2.513  -4.392  0.00  0.00     0.004 A 
ATOM      6  C   LIG d   1       4.603  -1.300  -5.128  0.00  0.00     0.113 A 
ATOM      7  N   LIG d   1       4.500  -0.133  -4.497  0.00  0.00    -0.242 NA
ATOM      8  CA  LIG d   1       4.349  -0.072  -3.188  0.00  0.00     0.087 A 
ATOM      9  C   LIG d   1       4.292  -1.234  -2.402  0.00  0.00    -0.034 A 
ATOM     10  C   LIG d   1       4.392  -2.459  -2.993  0.00  0.00    -0.050 A 
ATOM     11  H   LIG d   1       4.993  -2.610  -8.222  0.00  0.00     0.066 H 
ATOM     12  H   LIG d   1       4.903  -4.700  -6.934  0.00  0.00     0.062 H 
ATOM     13  H   LIG d   1       4.626  -4.666  -4.514  0.00  0.00     0.062 H 
ATOM     14  H   LIG d   1       4.167  -1.159  -1.331  0.00  0.00     0.064 H 
ATOM     15  H   LIG d   1       4.350  -3.364  -2.406  0.00  0.00     0.062 H 
ENDROOT
BRANCH   1  16
ATOM     16  O   LIG d   1       4.823  -0.211  -7.258  0.00  0.00    -0.493 OA
BRANCH  16  17
ATOM     17  C   LIG d   1       6.095   0.149  -7.803  0.00  0.00     0.079 C 
ATOM     18  H   LIG d   1       5.992   0.336  -8.872  0.00  0.00     0.066 H 
ATOM     19  H   LIG d   1       6.458   1.051  -7.310  0.00  0.00     0.066 H 
ATOM     20  H   LIG d   1       6.802  -0.664  -7.642  0.00  0.00     0.066 H 
ENDBRANCH  16  17
ENDBRANCH   1  16
BRANCH   8  21
ATOM     21  C   LIG d   1       4.238   1.251  -2.532  0.00  0.00     0.090 C 
ATOM     22  O   LIG d   1       4.651   1.404  -1.400  0.00  0.00    -0.543 OA
ATOM     23  OXT LIG d   1       3.679   2.284  -3.191  0.00  0.00    -0.543 OA
ENDBRANCH   8  21
TORSDOF 3
ENDMDL
MODEL 5
REMARK VINA RESULT:      -5.2      2.711      3.538
REMARK  3 active torsions:
REMARK  status: ('A' for Active; 'I' for Inactive)
REMARK    1  A    between atoms: C_1  and  O_2 
REMARK    2  A    between atoms: O_2  and  C_3 
REMARK    3  A    between atoms: CA_10  and  C_13 
ROOT
ATOM      1  C   LIG d   1       3.615  -0.466  -3.683  0.00  0.00     0.146 A 
ATOM      2  C   LIG d   1       3.882  -1.407  -2.729  0.00  0.00    -0.018 A 
ATOM      3  C   LIG d   1       4.427  -2.642  -3.073  0.00  0.00    -0.058 A 
ATOM      4  C   LIG d   1       4.710  -2.948  -4.369  0.00  0.00    -0.052 A 
ATOM      5  C   LIG d   1       4.450  -2.009  -5.379  0.00  0.00     0.004 A 
ATOM      6  C   LIG d   1       3.896  -0.748  -5.038  0.00  0.00     0.113 A 
ATOM      7  N   LIG d   1       3.647   0.149  -5.990  0.00  0.00    -0.242 NA
ATOM      8  CA  LIG d   1       3.905  -0.106  -7.258  0.00  0.00     0.087 A 
ATOM      9  C   LIG d   1       4.454  -1.334  -7.661  0.00  0.00    -0.034 A 
ATOM     10  C   LIG d   1       4.730  -2.292  -6.731  0.00  0.00    -0.050 A 
ATOM     11  H   LIG d   1       3.667  -1.190  -1.693  0.00  0.00     0.066 H 
ATOM     12  H   LIG d   1       4.628  -3.369  -2.299  0.00  0.00     0.062 H 
ATOM     13  H   LIG d   1       5.131  -3.910  -4.620  0.00  0.00     0.062 H 
ATOM     14  H   LIG d   1       4.657  -1.519  -8.706  0.00  0.00     0.064 H 
ATOM     15  H   LIG d   1       5.152  -3.242  -7.021  0.00  0.00     0.062 H 
ENDROOT
BRANCH   1  16
ATOM     16  O   LIG d   1       3.080   0.731  -3.329  0.00  0.00    -0.493 OA
BRANCH  16  17
ATOM     17  C   LIG d   1       3.745   1.459  -2.294  0.00  0.00     0.079 C 
ATOM     18  H   LIG d   1       3.831   0.832  -1.407  0.00  0.00     0.066 H 
ATOM     19  H   LIG d   1       4.740   1.746  -2.634  0.00  0.00     0.066 H 
ATOM     20  H   LIG d   1       3.171   2.353  -2.053  0.00  0.00     0.066 H 
ENDBRANCH  16  17
ENDBRANCH   1  16
BRANCH   8  21
ATOM     21  C   LIG d   1       3.610   0.925  -8.279  0.00  0.00     0.090 C 
ATOM     22  O   LIG d   1       4.379   1.850  -8.448  0.00  0.00    -0.543 OA
ATOM     23  OXT LIG d   1       2.489   0.836  -9.020  0.00  0.00    -0.543 OA
ENDBRANCH   8  21
TORSDOF 3
ENDMDL
MODEL 6
REMARK VINA RESULT:      -5.0      2.145      2.491
REMARK  3 active torsions:
REMARK  status: ('A' for Active; 'I' for Inactive)
REMARK    1  A    between atoms: C_1  and  O_2 
REMARK    2  A    between atoms: O_2  and  C_3 
REMARK    3  A    between atoms: CA_10  and  C_13 
ROOT
ATOM      1  C   LIG d   1       4.725  -0.403  -2.427  0.00  0.00     0.146 A 
ATOM      2  C   LIG d   1       4.001  -1.558  -2.328  0.00  0.00    -0.018 A 
ATOM      3  C   LIG d   1       4.353  -2.689  -3.060  0.00  0.00    -0.058 A 
ATOM      4  C   LIG d   1       5.428  -2.678  -3.896  0.00  0.00    -0.052 A 
ATOM      5  C   LIG d   1       6.197  -1.511  -4.026  0.00  0.00     0.004 A 
ATOM      6  C   LIG d   1       5.847  -0.354  -3.283  0.00  0.00     0.113 A 
ATOM      7  N   LIG d   1       6.571   0.757  -3.400  0.00  0.00    -0.242 NA
ATOM      8  CA  LIG d   1       7.620   0.811  -4.198  0.00  0.00     0.087 A 
ATOM      9  C   LIG d   1       8.020  -0.299  -4.960  0.00  0.00    -0.034 A 
ATOM     10  C   LIG d   1       7.316  -1.464  -4.881  0.00  0.00    -0.050 A 
ATOM     11  H   LIG d   1       3.144  -1.593  -1.673  0.00  0.00     0.066 H 
ATOM     12  H   LIG d   1       3.763  -3.589  -2.965  0.00  0.00     0.062 H 
ATOM     13  H   LIG d   1       5.688  -3.563  -4.458  0.00  0.00     0.062 H 
ATOM     14  H   LIG d   1       8.883  -0.230  -5.606  0.00  0.00     0.064 H 
ATOM     15  H   LIG d   1       7.607  -2.329  -5.459  0.00  0.00     0.062 H 
ENDROOT
BRANCH   1  16
ATOM     16  O   LIG d   1       4.364   0.692  -1.708  0.00  0.00    -0.493 OA
BRANCH  16  17
ATOM     17  C   LIG d   1       3.466   1.611  -2.334  0.00  0.00     0.079 C 
ATOM     18  H   LIG d   1       3.458   2.547  -1.775  0.00  0.00     0.066 H 
ATOM     19  H   LIG d   1       3.794   1.801  -3.356  0.00  0.00     0.066 H 
ATOM     20  H   LIG d   1       2.463   1.187  -2.348  0.00  0.00     0.066 H 
ENDBRANCH  16  17
ENDBRANCH   1  16
BRANCH   8  21
ATOM     21  C   LIG d   1       8.394   2.070  -4.293  0.00  0.00     0.090 C 
ATOM     22  O   LIG d   1       8.536   2.616  -5.368  0.00  0.00    -0.543 OA
ATOM     23  OXT LIG d   1       8.940   2.610  -3.186  0.00  0.00    -0.543 OA
ENDBRANCH   8  21
TORSDOF 3
ENDMDL
MODEL 7
REMARK VINA RESULT:      -5.0      7.516      9.208
REMARK  3 active torsions:
REMARK  status: ('A' for Active; 'I' for Inactive)
REMARK    1  A    between atoms: C_1  and  O_2 
REMARK    2  A    between atoms: O_2  and  C_3 
REMARK    3  A    between atoms: CA_10  and  C_13 
ROOT
ATOM      1  C   LIG d   1      10.233   4.184  -3.040  0.00  0.00     0.146 A 
ATOM      2  C   LIG d   1       9.797   4.209  -4.335  0.00  0.00    -0.018 A 
ATOM      3  C   LIG d   1       9.313   5.383  -4.906  0.00  0.00    -0.058 A 
ATOM      4  C   LIG d   1       9.259   6.541  -4.191  0.00  0.00    -0.052 A 
ATOM      5  C   LIG d   1       9.697   6.558  -2.858  0.00  0.00     0.004 A 
ATOM      6  C   LIG d   1      10.193   5.366  -2.268  0.00  0.00     0.113 A 
ATOM      7  N   LIG d   1      10.610   5.373  -1.004  0.00  0.00    -0.242 NA
ATOM      8  CA  LIG d   1      10.576   6.473  -0.276  0.00  0.00     0.087 A 
ATOM      9  C   LIG d   1      10.097   7.684  -0.800  0.00  0.00    -0.034 A 
ATOM     10  C   LIG d   1       9.656   7.738  -2.090  0.00  0.00    -0.050 A 
ATOM     11  H   LIG d   1       9.829   3.304  -4.924  0.00  0.00     0.066 H 
ATOM     12  H   LIG d   1       8.974   5.375  -5.932  0.00  0.00     0.062 H 
ATOM     13  H   LIG d   1       8.880   7.444  -4.649  0.00  0.00     0.062 H 
ATOM     14  H   LIG d   1      10.079   8.571  -0.184  0.00  0.00     0.064 H 
ATOM     15  H   LIG d   1       9.284   8.660  -2.511  0.00  0.00     0.062 H 
ENDROOT
BRANCH   1  16
ATOM     16  O   LIG d   1      10.697   3.029  -2.499  0.00  0.00    -0.493 OA
BRANCH  16  17
ATOM     17  C   LIG d   1      11.381   2.130  -3.376  0.00  0.00     0.079 C 
ATOM     18  H   LIG d   1      11.656   2.654  -4.290  0.00  0.00     0.066 H 
ATOM     19  H   LIG d   1      12.280   1.757  -2.885  0.00  0.00     0.066 H 
ATOM     20  H   LIG d   1      10.726   1.292  -3.619  0.00  0.00     0.066 H 
ENDBRANCH  16  17
ENDBRANCH   1  16
BRANCH   8  21
ATOM     21  C   LIG d   1      11.052   6.429   1.125  0.00  0.00     0.090 C 
ATOM     22  O   LIG d   1      10.746   5.497   1.842  0.00  0.00    -0.543 OA
ATOM     23  OXT LIG d   1      11.824   7.423   1.605  0.00  0.00    -0.543 OA
ENDBRANCH   8  21
TORSDOF 3
ENDMDL
MODEL 8
REMARK VINA RESULT:      -4.8      2.632      4.507
REMARK  3 active torsions:
REMARK  status: ('A' for Active; 'I' for Inactive)
REMARK    1  A    between atoms: C_1  and  O_2 
REMARK    2  A    between atoms: O_2  and  C_3 
REMARK    3  A    between atoms: CA_10  and  C_13 
ROOT
ATOM      1  C   LIG d   1       7.178  -2.471  -5.169  0.00  0.00     0.146 A 
ATOM      2  C   LIG d   1       7.119  -3.708  -5.745  0.00  0.00    -0.018 A 
ATOM      3  C   LIG d   1       6.034  -4.552  -5.522  0.00  0.00    -0.058 A 
ATOM      4  C   LIG d   1       5.000  -4.169  -4.722  0.00  0.00    -0.052 A 
ATOM      5  C   LIG d   1       5.022  -2.906  -4.112  0.00  0.00     0.004 A 
ATOM      6  C   LIG d   1       6.123  -2.039  -4.334  0.00  0.00     0.113 A 
ATOM      7  N   LIG d   1       6.153  -0.839  -3.758  0.00  0.00    -0.242 NA
ATOM      8  CA  LIG d   1       5.172  -0.429  -2.977  0.00  0.00     0.087 A 
ATOM      9  C   LIG d   1       4.055  -1.239  -2.716  0.00  0.00    -0.034 A 
ATOM     10  C   LIG d   1       3.969  -2.478  -3.278  0.00  0.00    -0.050 A 
ATOM     11  H   LIG d   1       7.926  -4.036  -6.384  0.00  0.00     0.066 H 
ATOM     12  H   LIG d   1       6.013  -5.525  -5.989  0.00  0.00     0.062 H 
ATOM     13  H   LIG d   1       4.165  -4.836  -4.558  0.00  0.00     0.062 H 
ATOM     14  H   LIG d   1       3.264  -0.880  -2.073  0.00  0.00     0.064 H 
ATOM     15  H   LIG d   1       3.118  -3.115  -3.090  0.00  0.00     0.062 H 
ENDROOT
BRANCH   1  16
ATOM     16  O   LIG d   1       8.246  -1.663  -5.394  0.00  0.00    -0.493 OA
BRANCH  16  17
ATOM     17  C   LIG d   1       9.512  -2.299  -5.586  0.00  0.00     0.079 C 
ATOM     18  H   LIG d   1      10.091  -2.240  -4.665  0.00  0.00     0.066 H 
ATOM     19  H   LIG d   1       9.356  -3.345  -5.851  0.00  0.00     0.066 H 
ATOM     20  H   LIG d   1      10.052  -1.798  -6.389  0.00  0.00     0.066 H 
ENDBRANCH  16  17
ENDBRANCH   1  16
BRANCH   8  21
ATOM     21  C   LIG d   1       5.252   0.915  -2.360  0.00  0.00     0.090 C 
ATOM     22  O   LIG d   1       4.763   1.111  -1.265  0.00  0.00    -0.543 OA
ATOM     23  OXT LIG d   1       5.866   1.920  -3.013  0.00  0.00    -0.543 OA
ENDBRANCH   8  21
TORSDOF 3
ENDMDL
MODEL 9
REMARK VINA RESULT:      -4.7      1.236      4.472
REMARK  3 active torsions:
REMARK  status: ('A' for Active; 'I' for Inactive)
REMARK    1  A    between atoms: C_1  and  O_2 
REMARK    2  A    between atoms: O_2  and  C_3 
REMARK    3  A    between atoms: CA_10  and  C_13 
ROOT
ATOM      1  C   LIG d   1       7.203  -0.154  -5.403  0.00  0.00     0.146 A 
ATOM      2  C   LIG d   1       8.348  -0.876  -5.216  0.00  0.00    -0.018 A 
ATOM      3  C   LIG d   1       8.341  -2.047  -4.463  0.00  0.00    -0.058 A 
ATOM      4  C   LIG d   1       7.194  -2.507  -3.890  0.00  0.00    -0.052 A 
ATOM      5  C   LIG d   1       5.997  -1.794  -4.059  0.00  0.00     0.004 A 
ATOM      6  C   LIG d   1       5.994  -0.600  -4.825  0.00  0.00     0.113 A 
ATOM      7  N   LIG d   1       4.864   0.084  -4.990  0.00  0.00    -0.242 NA
ATOM      8  CA  LIG d   1       3.730  -0.326  -4.453  0.00  0.00     0.087 A 
ATOM      9  C   LIG d   1       3.665  -1.499  -3.683  0.00  0.00    -0.034 A 
ATOM     10  C   LIG d   1       4.792  -2.240  -3.480  0.00  0.00    -0.050 A 
ATOM     11  H   LIG d   1       9.271  -0.534  -5.660  0.00  0.00     0.066 H 
ATOM     12  H   LIG d   1       9.260  -2.599  -4.330  0.00  0.00     0.062 H 
ATOM     13  H   LIG d   1       7.205  -3.417  -3.308  0.00  0.00     0.062 H 
ATOM     14  H   LIG d   1       2.725  -1.814  -3.254  0.00  0.00     0.064 H 
ATOM     15  H   LIG d   1       4.763  -3.145  -2.892  0.00  0.00     0.062 H 
ENDROOT
BRANCH   1  16
ATOM     16  O   LIG d   1       7.230   0.989  -6.138  0.00  0.00    -0.493 OA
BRANCH  16  17
ATOM     17  C   LIG d   1       8.107   1.014  -7.267  0.00  0.00     0.079 C 
ATOM     18  H   LIG d   1       8.042   0.065  -7.798  0.00  0.00     0.066 H 
ATOM     19  H   LIG d   1       7.815   1.825  -7.935  0.00  0.00     0.066 H 
ATOM     20  H   LIG d   1       9.130   1.173  -6.928  0.00  0.00     0.066 H 
ENDBRANCH  16  17
ENDBRANCH   1  16
BRANCH   8  21
ATOM     21  C   LIG d   1       2.499   0.469  -4.665  0.00  0.00     0.090 C 
ATOM     22  O   LIG d   1       2.575   1.662  -4.879  0.00  0.00    -0.543 OA
ATOM     23  OXT LIG d   1       1.294  -0.132  -4.622  0.00  0.00    -0.543 OA
ENDBRANCH   8  21
TORSDOF 3
ENDMDL
MODEL 10
REMARK VINA RESULT:      -4.5     11.661     12.814
REMARK  3 active torsions:
REMARK  status: ('A' for Active; 'I' for Inactive)
REMARK    1  A    between atoms: C_1  and  O_2 
REMARK    2  A    between atoms: O_2  and  C_3 
REMARK    3  A    between atoms: CA_10  and  C_13 
ROOT
ATOM      1  C   LIG d   1      11.044   6.929   0.435  0.00  0.00     0.146 A 
ATOM      2  C   LIG d   1      10.313   6.550  -0.655  0.00  0.00    -0.018 A 
ATOM      3  C   LIG d   1       9.683   7.495  -1.460  0.00  0.00    -0.058 A 
ATOM      4  C   LIG d   1       9.778   8.826  -1.185  0.00  0.00    -0.052 A 
ATOM      5  C   LIG d   1      10.520   9.257  -0.075  0.00  0.00     0.004 A 
ATOM      6  C   LIG d   1      11.165   8.300   0.751  0.00  0.00     0.113 A 
ATOM      7  N   LIG d   1      11.870   8.699   1.807  0.00  0.00    -0.242 NA
ATOM      8  CA  LIG d   1      11.988   9.978   2.109  0.00  0.00     0.087 A 
ATOM      9  C   LIG d   1      11.375  10.974   1.333  0.00  0.00    -0.034 A 
ATOM     10  C   LIG d   1      10.639  10.625   0.239  0.00  0.00    -0.050 A 
ATOM     11  H   LIG d   1      10.221   5.501  -0.895  0.00  0.00     0.066 H 
ATOM     12  H   LIG d   1       9.111   7.169  -2.316  0.00  0.00     0.062 H 
ATOM     13  H   LIG d   1       9.284   9.547  -1.819  0.00  0.00     0.062 H 
ATOM     14  H   LIG d   1      11.486  12.015   1.601  0.00  0.00     0.064 H 
ATOM     15  H   LIG d   1      10.160  11.376  -0.370  0.00  0.00     0.062 H 
ENDROOT
BRANCH   1  16
ATOM     16  O   LIG d   1      11.647   5.992   1.212  0.00  0.00    -0.493 OA
BRANCH  16  17
ATOM     17  C   LIG d   1      10.852   5.389   2.236  0.00  0.00     0.079 C 
ATOM     18  H   LIG d   1      11.053   5.880   3.188  0.00  0.00     0.066 H 
ATOM     19  H   LIG d   1       9.796   5.496   1.987  0.00  0.00     0.066 H 
ATOM     20  H   LIG d   1      11.101   4.331   2.313  0.00  0.00     0.066 H 
ENDBRANCH  16  17
ENDBRANCH   1  16
BRANCH   8  21
ATOM     21  C   LIG d   1      12.784  10.372   3.294  0.00  0.00     0.090 C 
ATOM     22  O   LIG d   1      12.614  11.460   3.806  0.00  0.00    -0.543 OA
ATOM     23  OXT LIG d   1      13.698   9.524   3.804  0.00  0.00    -0.543 OA
ENDBRANCH   8  21
TORSDOF 3
ENDMDL
