MODEL 1
REMARK VINA RESULT:      -5.7      0.000      0.000
REMARK  13 active torsions:
REMARK  status: ('A' for Active; 'I' for Inactive)
REMARK    1  A    between atoms: C_1  and  C_2 
REMARK    2  A    between atoms: C_2  and  O_3 
REMARK    3  A    between atoms: O_3  and  C_4 
REMARK    4  A    between atoms: C_6  and  C_27 
REMARK    5  A    between atoms: N_9  and  C_10 
REMARK    6  A    between atoms: C_13  and  O_18 
REMARK    7  A    between atoms: C_14  and  O_16 
REMARK    8  A    between atoms: O_16  and  C_17 
REMARK    9  A    between atoms: O_18  and  C_19 
REMARK   10  A    between atoms: C_22  and  C_26 
REMARK   11  A    between atoms: C_24  and  C_25 
REMARK   12  A    between atoms: C_30  and  O_33 
REMARK   13  A    between atoms: O_33  and  C_34 
ROOT
ATOM      1  C   LIG d   1       3.272  -5.533  -9.502  0.00  0.00     0.132 A 
ATOM      2  C   LIG d   1       3.208  -4.178  -9.356  0.00  0.00    -0.011 A 
ATOM      3  C   LIG d   1       3.607  -3.365  -8.279  0.00  0.00    -0.012 A 
ATOM      4  C   LIG d   1       4.177  -3.676  -7.061  0.00  0.00    -0.028 A 
ATOM      5  C   LIG d   1       4.531  -4.940  -6.539  0.00  0.00     0.076 A 
ATOM      6  N   LIG d   1       5.071  -4.954  -5.328  0.00  0.00    -0.247 NA
ATOM      7  C   LIG d   1       4.364  -6.247  -7.204  0.00  0.00     0.052 A 
ATOM      8  C   LIG d   1       3.795  -6.509  -8.541  0.00  0.00     0.067 A 
ATOM      9  C   LIG d   1       3.852  -7.854  -8.708  0.00  0.00     0.113 A 
ATOM     10  O   LIG d   1       4.394  -8.395  -7.607  0.00  0.00    -0.464 OA
ATOM     11  C   LIG d   1       4.704  -7.453  -6.702  0.00  0.00     0.112 A 
ATOM     12  H   LIG d   1       2.784  -3.647 -10.195  0.00  0.00     0.066 H 
ATOM     13  H   LIG d   1       4.382  -2.834  -6.417  0.00  0.00     0.065 H 
ENDROOT
BRANCH   6  14
ATOM     14  C   LIG d   1       5.369  -3.779  -4.700  0.00  0.00     0.068 A 
ATOM     15  C   LIG d   1       4.425  -3.170  -3.867  0.00  0.00     0.009 A 
ATOM     16  C   LIG d   1       4.735  -1.982  -3.230  0.00  0.00     0.164 A 
ATOM     17  H   LIG d   1       3.457  -3.626  -3.720  0.00  0.00     0.068 H 
ATOM     18  C   LIG d   1       5.980  -1.391  -3.425  0.00  0.00     0.162 A 
ATOM     19  C   LIG d   1       6.916  -1.992  -4.254  0.00  0.00    -0.014 A 
ATOM     20  C   LIG d   1       6.617  -3.179  -4.891  0.00  0.00    -0.033 A 
ATOM     21  H   LIG d   1       7.880  -1.529  -4.403  0.00  0.00     0.066 H 
ATOM     22  H   LIG d   1       7.348  -3.645  -5.537  0.00  0.00     0.064 H 
BRANCH  16  23
ATOM     23  O   LIG d   1       3.821  -1.389  -2.417  0.00  0.00    -0.491 OA
BRANCH  23  24
ATOM     24  C   LIG d   1       2.855  -0.539  -3.036  0.00  0.00     0.079 C 
ATOM     25  H   LIG d   1       2.869  -0.697  -4.115  0.00  0.00     0.066 H 
ATOM     26  H   LIG d   1       1.864  -0.771  -2.647  0.00  0.00     0.066 H 
ATOM     27  H   LIG d   1       3.095   0.502  -2.819  0.00  0.00     0.066 H 
ENDBRANCH  23  24
ENDBRANCH  16  23
BRANCH  18  28
ATOM     28  O   LIG d   1       6.281  -0.220  -2.801  0.00  0.00    -0.491 OA
BRANCH  28  29
ATOM     29  C   LIG d   1       6.870   0.809  -3.599  0.00  0.00     0.079 C 
ATOM     30  H   LIG d   1       6.102   1.273  -4.218  0.00  0.00     0.066 H 
ATOM     31  H   LIG d   1       7.317   1.561  -2.949  0.00  0.00     0.066 H 
ATOM     32  H   LIG d   1       7.640   0.377  -4.238  0.00  0.00     0.066 H 
ENDBRANCH  28  29
ENDBRANCH  18  28
ENDBRANCH   6  14
BRANCH   3  33
ATOM     33  C   LIG d   1       3.374  -1.919  -8.489  0.00  0.00    -0.018 A 
ATOM     34  C   LIG d   1       2.473  -1.490  -9.465  0.00  0.00    -0.051 A 
ATOM     35  C   LIG d   1       2.258  -0.142  -9.658  0.00  0.00    -0.019 A 
ATOM     36  H   LIG d   1       1.945  -2.213 -10.069  0.00  0.00     0.062 H 
ATOM     37  C   LIG d   1       2.935   0.789  -8.881  0.00  0.00     0.120 A 
ATOM     38  H   LIG d   1       1.561   0.191 -10.413  0.00  0.00     0.065 H 
ATOM     39  C   LIG d   1       3.833   0.366  -7.908  0.00  0.00    -0.019 A 
ATOM     40  C   LIG d   1       4.048  -0.980  -7.706  0.00  0.00    -0.051 A 
ATOM     41  H   LIG d   1       4.358   1.093  -7.306  0.00  0.00     0.065 H 
ATOM     42  H   LIG d   1       4.743  -1.308  -6.946  0.00  0.00     0.062 H 
BRANCH  37  43
ATOM     43  O   LIG d   1       2.721   2.116  -9.073  0.00  0.00    -0.495 OA
BRANCH  43  44
ATOM     44  C   LIG d   1       3.862   2.921  -9.379  0.00  0.00     0.079 C 
ATOM     45  H   LIG d   1       4.762   2.307  -9.333  0.00  0.00     0.066 H 
ATOM     46  H   LIG d   1       3.755   3.335 -10.382  0.00  0.00     0.066 H 
ATOM     47  H   LIG d   1       3.937   3.733  -8.657  0.00  0.00     0.066 H 
ENDBRANCH  43  44
ENDBRANCH  37  43
ENDBRANCH   3  33
BRANCH  11  48
ATOM     48  C   LIG d   1       5.329  -7.702  -5.353  0.00  0.00    -0.006 C 
ATOM     49  H   LIG d   1       6.414  -7.670  -5.444  0.00  0.00     0.031 H 
ATOM     50  H   LIG d   1       5.000  -6.934  -4.654  0.00  0.00     0.031 H 
ATOM     51  H   LIG d   1       5.024  -8.683  -4.987  0.00  0.00     0.031 H 
ENDBRANCH  11  48
BRANCH   1  52
ATOM     52  O   LIG d   1       2.801  -6.032 -10.670  0.00  0.00    -0.491 OA
BRANCH  52  53
ATOM     53  C   LIG d   1       1.544  -5.533 -11.128  0.00  0.00     0.087 C 
ATOM     54  H   LIG d   1       1.412  -4.509 -10.783  0.00  0.00     0.069 H 
ATOM     55  H   LIG d   1       1.520  -5.555 -12.218  0.00  0.00     0.069 H 
BRANCH  53  56
ATOM     56  C   LIG d   1       0.416  -6.407 -10.577  0.00  0.00    -0.031 C 
ATOM     57  H   LIG d   1      -0.006  -7.007 -11.384  0.00  0.00     0.026 H 
ATOM     58  H   LIG d   1       0.812  -7.066  -9.804  0.00  0.00     0.026 H 
ATOM     59  H   LIG d   1      -0.361  -5.773 -10.151  0.00  0.00     0.026 H 
ENDBRANCH  53  56
ENDBRANCH  52  53
ENDBRANCH   1  52
BRANCH   9  60
ATOM     60  C   LIG d   1       3.384  -8.611  -9.924  0.00  0.00    -0.006 C 
ATOM     61  H   LIG d   1       2.447  -8.181 -10.281  0.00  0.00     0.031 H 
ATOM     62  H   LIG d   1       4.137  -8.541 -10.708  0.00  0.00     0.031 H 
ATOM     63  H   LIG d   1       3.226  -9.657  -9.663  0.00  0.00     0.031 H 
ENDBRANCH   9  60
TORSDOF 13
ENDMDL
MODEL 2
REMARK VINA RESULT:      -5.7      8.004     13.516
REMARK  13 active torsions:
REMARK  status: ('A' for Active; 'I' for Inactive)
REMARK    1  A    between atoms: C_1  and  C_2 
REMARK    2  A    between atoms: C_2  and  O_3 
REMARK    3  A    between atoms: O_3  and  C_4 
REMARK    4  A    between atoms: C_6  and  C_27 
REMARK    5  A    between atoms: N_9  and  C_10 
REMARK    6  A    between atoms: C_13  and  O_18 
REMARK    7  A    between atoms: C_14  and  O_16 
REMARK    8  A    between atoms: O_16  and  C_17 
REMARK    9  A    between atoms: O_18  and  C_19 
REMARK   10  A    between atoms: C_22  and  C_26 
REMARK   11  A    between atoms: C_24  and  C_25 
REMARK   12  A    between atoms: C_30  and  O_33 
REMARK   13  A    between atoms: O_33  and  C_34 
ROOT
ATOM      1  C   LIG d   1      10.028   9.562  -2.690  0.00  0.00     0.132 A 
ATOM      2  C   LIG d   1       9.889   9.055  -3.949  0.00  0.00    -0.011 A 
ATOM      3  C   LIG d   1       9.987   7.728  -4.406  0.00  0.00    -0.012 A 
ATOM      4  C   LIG d   1      10.247   6.549  -3.738  0.00  0.00    -0.028 A 
ATOM      5  C   LIG d   1      10.496   6.339  -2.363  0.00  0.00     0.076 A 
ATOM      6  N   LIG d   1      10.719   5.088  -1.984  0.00  0.00    -0.247 NA
ATOM      7  C   LIG d   1      10.532   7.368  -1.306  0.00  0.00     0.052 A 
ATOM      8  C   LIG d   1      10.320   8.821  -1.459  0.00  0.00     0.067 A 
ATOM      9  C   LIG d   1      10.452   9.345  -0.214  0.00  0.00     0.113 A 
ATOM     10  O   LIG d   1      10.718   8.346   0.640  0.00  0.00    -0.464 OA
ATOM     11  C   LIG d   1      10.770   7.163   0.007  0.00  0.00     0.112 A 
ATOM     12  H   LIG d   1       9.670   9.786  -4.714  0.00  0.00     0.066 H 
ATOM     13  H   LIG d   1      10.263   5.662  -4.354  0.00  0.00     0.065 H 
ENDROOT
BRANCH   6  14
ATOM     14  C   LIG d   1      10.582   4.068  -2.880  0.00  0.00     0.068 A 
ATOM     15  C   LIG d   1       9.309   3.666  -3.295  0.00  0.00     0.009 A 
ATOM     16  C   LIG d   1       9.177   2.635  -4.207  0.00  0.00     0.164 A 
ATOM     17  H   LIG d   1       8.430   4.160  -2.906  0.00  0.00     0.068 H 
ATOM     18  C   LIG d   1      10.308   1.993  -4.703  0.00  0.00     0.162 A 
ATOM     19  C   LIG d   1      11.572   2.388  -4.288  0.00  0.00    -0.014 A 
ATOM     20  C   LIG d   1      11.714   3.418  -3.381  0.00  0.00    -0.033 A 
ATOM     21  H   LIG d   1      12.446   1.887  -4.675  0.00  0.00     0.066 H 
ATOM     22  H   LIG d   1      12.699   3.724  -3.060  0.00  0.00     0.064 H 
BRANCH  16  23
ATOM     23  O   LIG d   1       7.940   2.244  -4.616  0.00  0.00    -0.491 OA
BRANCH  23  24
ATOM     24  C   LIG d   1       7.212   1.376  -3.746  0.00  0.00     0.079 C 
ATOM     25  H   LIG d   1       7.904   0.704  -3.239  0.00  0.00     0.066 H 
ATOM     26  H   LIG d   1       6.674   1.970  -3.007  0.00  0.00     0.066 H 
ATOM     27  H   LIG d   1       6.501   0.791  -4.329  0.00  0.00     0.066 H 
ENDBRANCH  23  24
ENDBRANCH  16  23
BRANCH  18  28
ATOM     28  O   LIG d   1      10.176   0.976  -5.596  0.00  0.00    -0.491 OA
BRANCH  28  29
ATOM     29  C   LIG d   1      10.709  -0.295  -5.218  0.00  0.00     0.079 C 
ATOM     30  H   LIG d   1      11.188  -0.211  -4.242  0.00  0.00     0.066 H 
ATOM     31  H   LIG d   1       9.903  -1.026  -5.165  0.00  0.00     0.066 H 
ATOM     32  H   LIG d   1      11.442  -0.615  -5.958  0.00  0.00     0.066 H 
ENDBRANCH  28  29
ENDBRANCH  18  28
ENDBRANCH   6  14
BRANCH   3  33
ATOM     33  C   LIG d   1       9.773   7.568  -5.861  0.00  0.00    -0.018 A 
ATOM     34  C   LIG d   1      10.039   6.344  -6.477  0.00  0.00    -0.051 A 
ATOM     35  C   LIG d   1       9.838   6.198  -7.833  0.00  0.00    -0.019 A 
ATOM     36  H   LIG d   1      10.400   5.511  -5.892  0.00  0.00     0.062 H 
ATOM     37  C   LIG d   1       9.372   7.268  -8.586  0.00  0.00     0.120 A 
ATOM     38  H   LIG d   1      10.043   5.251  -8.311  0.00  0.00     0.065 H 
ATOM     39  C   LIG d   1       9.107   8.489  -7.977  0.00  0.00    -0.019 A 
ATOM     40  C   LIG d   1       9.299   8.639  -6.620  0.00  0.00    -0.051 A 
ATOM     41  H   LIG d   1       8.745   9.319  -8.566  0.00  0.00     0.065 H 
ATOM     42  H   LIG d   1       9.089   9.587  -6.147  0.00  0.00     0.062 H 
BRANCH  37  43
ATOM     43  O   LIG d   1       9.175   7.122  -9.922  0.00  0.00    -0.495 OA
BRANCH  43  44
ATOM     44  C   LIG d   1       8.727   5.844 -10.377  0.00  0.00     0.079 C 
ATOM     45  H   LIG d   1       9.580   5.171 -10.468  0.00  0.00     0.066 H 
ATOM     46  H   LIG d   1       8.014   5.433  -9.662  0.00  0.00     0.066 H 
ATOM     47  H   LIG d   1       8.245   5.953 -11.348  0.00  0.00     0.066 H 
ENDBRANCH  43  44
ENDBRANCH  37  43
ENDBRANCH   3  33
BRANCH  11  48
ATOM     48  C   LIG d   1      11.045   5.831   0.655  0.00  0.00    -0.006 C 
ATOM     49  H   LIG d   1      10.198   5.164   0.490  0.00  0.00     0.031 H 
ATOM     50  H   LIG d   1      11.942   5.393   0.219  0.00  0.00     0.031 H 
ATOM     51  H   LIG d   1      11.192   5.971   1.727  0.00  0.00     0.031 H 
ENDBRANCH  11  48
BRANCH   1  52
ATOM     52  O   LIG d   1       9.876  10.902  -2.563  0.00  0.00    -0.491 OA
BRANCH  52  53
ATOM     53  C   LIG d   1       8.829  11.511  -3.321  0.00  0.00     0.087 C 
ATOM     54  H   LIG d   1       8.974  11.297  -4.378  0.00  0.00     0.069 H 
ATOM     55  H   LIG d   1       7.867  11.110  -2.997  0.00  0.00     0.069 H 
BRANCH  53  56
ATOM     56  C   LIG d   1       8.851  13.024  -3.098  0.00  0.00    -0.031 C 
ATOM     57  H   LIG d   1       8.140  13.501  -3.772  0.00  0.00     0.026 H 
ATOM     58  H   LIG d   1       8.577  13.243  -2.066  0.00  0.00     0.026 H 
ATOM     59  H   LIG d   1       9.852  13.406  -3.298  0.00  0.00     0.026 H 
ENDBRANCH  53  56
ENDBRANCH  52  53
ENDBRANCH   1  52
BRANCH   9  60
ATOM     60  C   LIG d   1      10.323  10.803   0.145  0.00  0.00    -0.006 C 
ATOM     61  H   LIG d   1       9.980  11.362  -0.725  0.00  0.00     0.031 H 
ATOM     62  H   LIG d   1       9.603  10.915   0.955  0.00  0.00     0.031 H 
ATOM     63  H   LIG d   1      11.293  11.186   0.464  0.00  0.00     0.031 H 
ENDBRANCH   9  60
TORSDOF 13
ENDMDL
MODEL 3
REMARK VINA RESULT:      -5.6      9.448     14.598
REMARK  13 active torsions:
REMARK  status: ('A' for Active; 'I' for Inactive)
REMARK    1  A    between atoms: C_1  and  C_2 
REMARK    2  A    between atoms: C_2  and  O_3 
REMARK    3  A    between atoms: O_3  and  C_4 
REMARK    4  A    between atoms: C_6  and  C_27 
REMARK    5  A    between atoms: N_9  and  C_10 
REMARK    6  A    between atoms: C_13  and  O_18 
REMARK    7  A    between atoms: C_14  and  O_16 
REMARK    8  A    between atoms: O_16  and  C_17 
REMARK    9  A    between atoms: O_18  and  C_19 
REMARK   10  A    between atoms: C_22  and  C_26 
REMARK   11  A    between atoms: C_24  and  C_25 
REMARK   12  A    between atoms: C_30  and  O_33 
REMARK   13  A    between atoms: O_33  and  C_34 
ROOT
ATOM      1  C   LIG d   1      10.172   4.965  -4.425  0.00  0.00     0.132 A 
ATOM      2  C   LIG d   1      10.384   5.487  -3.182  0.00  0.00    -0.011 A 
ATOM      3  C   LIG d   1      10.433   6.828  -2.761  0.00  0.00    -0.012 A 
ATOM      4  C   LIG d   1      10.284   8.010  -3.456  0.00  0.00    -0.028 A 
ATOM      5  C   LIG d   1      10.031   8.210  -4.832  0.00  0.00     0.076 A 
ATOM      6  N   LIG d   1       9.931   9.467  -5.242  0.00  0.00    -0.247 NA
ATOM      7  C   LIG d   1       9.866   7.164  -5.859  0.00  0.00     0.052 A 
ATOM      8  C   LIG d   1       9.930   5.700  -5.671  0.00  0.00     0.067 A 
ATOM      9  C   LIG d   1       9.719   5.161  -6.897  0.00  0.00     0.113 A 
ATOM     10  O   LIG d   1       9.540   6.160  -7.774  0.00  0.00    -0.464 OA
ATOM     11  C   LIG d   1       9.625   7.358  -7.173  0.00  0.00     0.112 A 
ATOM     12  H   LIG d   1      10.540   4.757  -2.401  0.00  0.00     0.066 H 
ATOM     13  H   LIG d   1      10.372   8.910  -2.865  0.00  0.00     0.065 H 
ENDROOT
BRANCH   6  14
ATOM     14  C   LIG d   1       9.951  10.485  -4.334  0.00  0.00     0.068 A 
ATOM     15  C   LIG d   1      11.157  10.873  -3.742  0.00  0.00     0.009 A 
ATOM     16  C   LIG d   1      11.172  11.909  -2.826  0.00  0.00     0.164 A 
ATOM     17  H   LIG d   1      12.076  10.367  -4.001  0.00  0.00     0.068 H 
ATOM     18  C   LIG d   1       9.987  12.557  -2.488  0.00  0.00     0.162 A 
ATOM     19  C   LIG d   1       8.789  12.171  -3.071  0.00  0.00    -0.014 A 
ATOM     20  C   LIG d   1       8.766  11.140  -3.989  0.00  0.00    -0.033 A 
ATOM     21  H   LIG d   1       7.873  12.675  -2.804  0.00  0.00     0.066 H 
ATOM     22  H   LIG d   1       7.831  10.841  -4.441  0.00  0.00     0.064 H 
BRANCH  16  23
ATOM     23  O   LIG d   1      12.344  12.291  -2.252  0.00  0.00    -0.491 OA
BRANCH  23  24
ATOM     24  C   LIG d   1      12.870  11.448  -1.226  0.00  0.00     0.079 C 
ATOM     25  H   LIG d   1      12.869  10.413  -1.569  0.00  0.00     0.066 H 
ATOM     26  H   LIG d   1      13.890  11.753  -0.993  0.00  0.00     0.066 H 
ATOM     27  H   LIG d   1      12.252  11.534  -0.332  0.00  0.00     0.066 H 
ENDBRANCH  23  24
ENDBRANCH  16  23
BRANCH  18  28
ATOM     28  O   LIG d   1      10.003  13.572  -1.583  0.00  0.00    -0.491 OA
BRANCH  28  29
ATOM     29  C   LIG d   1       9.185  14.709  -1.867  0.00  0.00     0.079 C 
ATOM     30  H   LIG d   1       9.351  15.027  -2.897  0.00  0.00     0.066 H 
ATOM     31  H   LIG d   1       8.136  14.445  -1.733  0.00  0.00     0.066 H 
ATOM     32  H   LIG d   1       9.445  15.522  -1.189  0.00  0.00     0.066 H 
ENDBRANCH  28  29
ENDBRANCH  18  28
ENDBRANCH   6  14
BRANCH   3  33
ATOM     33  C   LIG d   1      10.691   7.003  -1.314  0.00  0.00    -0.018 A 
ATOM     34  C   LIG d   1      10.833   8.284  -0.778  0.00  0.00    -0.051 A 
ATOM     35  C   LIG d   1      11.073   8.442   0.570  0.00  0.00    -0.019 A 
ATOM     36  H   LIG d   1      10.755   9.149  -1.418  0.00  0.00     0.062 H 
ATOM     37  C   LIG d   1      11.173   7.329   1.395  0.00  0.00     0.120 A 
ATOM     38  H   LIG d   1      11.183   9.433   0.986  0.00  0.00     0.065 H 
ATOM     39  C   LIG d   1      11.033   6.052   0.865  0.00  0.00    -0.019 A 
ATOM     40  C   LIG d   1      10.786   5.887  -0.481  0.00  0.00    -0.051 A 
ATOM     41  H   LIG d   1      11.111   5.189   1.509  0.00  0.00     0.065 H 
ATOM     42  H   LIG d   1      10.673   4.894  -0.892  0.00  0.00     0.062 H 
BRANCH  37  43
ATOM     43  O   LIG d   1      11.410   7.488   2.723  0.00  0.00    -0.495 OA
BRANCH  43  44
ATOM     44  C   LIG d   1      11.017   6.418   3.585  0.00  0.00     0.079 C 
ATOM     45  H   LIG d   1      11.782   6.266   4.347  0.00  0.00     0.066 H 
ATOM     46  H   LIG d   1      10.071   6.667   4.066  0.00  0.00     0.066 H 
ATOM     47  H   LIG d   1      10.899   5.506   3.001  0.00  0.00     0.066 H 
ENDBRANCH  43  44
ENDBRANCH  37  43
ENDBRANCH   3  33
BRANCH  11  48
ATOM     48  C   LIG d   1       9.473   8.694  -7.853  0.00  0.00    -0.006 C 
ATOM     49  H   LIG d   1       8.430   8.844  -8.132  0.00  0.00     0.031 H 
ATOM     50  H   LIG d   1       9.783   9.485  -7.171  0.00  0.00     0.031 H 
ATOM     51  H   LIG d   1      10.096   8.720  -8.747  0.00  0.00     0.031 H 
ENDBRANCH  11  48
BRANCH   1  52
ATOM     52  O   LIG d   1      10.184   3.613  -4.518  0.00  0.00    -0.491 OA
BRANCH  52  53
ATOM     53  C   LIG d   1       9.670   2.883  -3.403  0.00  0.00     0.087 C 
ATOM     54  H   LIG d   1      10.411   2.156  -3.073  0.00  0.00     0.069 H 
ATOM     55  H   LIG d   1       9.448   3.573  -2.588  0.00  0.00     0.069 H 
BRANCH  53  56
ATOM     56  C   LIG d   1       8.390   2.155  -3.817  0.00  0.00    -0.031 C 
ATOM     57  H   LIG d   1       8.519   1.732  -4.813  0.00  0.00     0.026 H 
ATOM     58  H   LIG d   1       8.182   1.354  -3.107  0.00  0.00     0.026 H 
ATOM     59  H   LIG d   1       7.559   2.858  -3.826  0.00  0.00     0.026 H 
ENDBRANCH  53  56
ENDBRANCH  52  53
ENDBRANCH   1  52
BRANCH   9  60
ATOM     60  C   LIG d   1       9.693   3.689  -7.219  0.00  0.00    -0.006 C 
ATOM     61  H   LIG d   1      10.545   3.199  -6.748  0.00  0.00     0.031 H 
ATOM     62  H   LIG d   1       8.769   3.251  -6.842  0.00  0.00     0.031 H 
ATOM     63  H   LIG d   1       9.746   3.552  -8.299  0.00  0.00     0.031 H 
ENDBRANCH   9  60
TORSDOF 13
ENDMDL
MODEL 4
REMARK VINA RESULT:      -5.4      2.170      5.963
REMARK  13 active torsions:
REMARK  status: ('A' for Active; 'I' for Inactive)
REMARK    1  A    between atoms: C_1  and  C_2 
REMARK    2  A    between atoms: C_2  and  O_3 
REMARK    3  A    between atoms: O_3  and  C_4 
REMARK    4  A    between atoms: C_6  and  C_27 
REMARK    5  A    between atoms: N_9  and  C_10 
REMARK    6  A    between atoms: C_13  and  O_18 
REMARK    7  A    between atoms: C_14  and  O_16 
REMARK    8  A    between atoms: O_16  and  C_17 
REMARK    9  A    between atoms: O_18  and  C_19 
REMARK   10  A    between atoms: C_22  and  C_26 
REMARK   11  A    between atoms: C_24  and  C_25 
REMARK   12  A    between atoms: C_30  and  O_33 
REMARK   13  A    between atoms: O_33  and  C_34 
ROOT
ATOM      1  C   LIG d   1       3.914  -2.970 -11.194  0.00  0.00     0.132 A 
ATOM      2  C   LIG d   1       4.048  -3.732 -10.070  0.00  0.00    -0.011 A 
ATOM      3  C   LIG d   1       4.131  -3.345  -8.720  0.00  0.00    -0.012 A 
ATOM      4  C   LIG d   1       4.104  -2.102  -8.123  0.00  0.00    -0.028 A 
ATOM      5  C   LIG d   1       3.979  -0.828  -8.720  0.00  0.00     0.076 A 
ATOM      6  N   LIG d   1       3.981   0.216  -7.902  0.00  0.00    -0.247 NA
ATOM      7  C   LIG d   1       3.847  -0.539 -10.161  0.00  0.00     0.052 A 
ATOM      8  C   LIG d   1       3.818  -1.509 -11.274  0.00  0.00     0.067 A 
ATOM      9  C   LIG d   1       3.684  -0.770 -12.404  0.00  0.00     0.113 A 
ATOM     10  O   LIG d   1       3.632   0.525 -12.059  0.00  0.00    -0.464 OA
ATOM     11  C   LIG d   1       3.728   0.681 -10.729  0.00  0.00     0.112 A 
ATOM     12  H   LIG d   1       4.098  -4.797 -10.244  0.00  0.00     0.066 H 
ATOM     13  H   LIG d   1       4.189  -2.103  -7.046  0.00  0.00     0.065 H 
ENDROOT
BRANCH   6  14
ATOM     14  C   LIG d   1       3.977   0.024  -6.551  0.00  0.00     0.068 A 
ATOM     15  C   LIG d   1       5.123  -0.453  -5.907  0.00  0.00     0.009 A 
ATOM     16  C   LIG d   1       5.114  -0.641  -4.537  0.00  0.00     0.164 A 
ATOM     17  H   LIG d   1       6.013  -0.673  -6.478  0.00  0.00     0.068 H 
ATOM     18  C   LIG d   1       3.965  -0.364  -3.803  0.00  0.00     0.162 A 
ATOM     19  C   LIG d   1       2.826   0.106  -4.440  0.00  0.00    -0.014 A 
ATOM     20  C   LIG d   1       2.826   0.300  -5.806  0.00  0.00    -0.033 A 
ATOM     21  H   LIG d   1       1.936   0.318  -3.867  0.00  0.00     0.066 H 
ATOM     22  H   LIG d   1       1.937   0.665  -6.301  0.00  0.00     0.064 H 
BRANCH  16  23
ATOM     23  O   LIG d   1       6.228  -1.101  -3.908  0.00  0.00    -0.491 OA
BRANCH  23  24
ATOM     24  C   LIG d   1       7.366  -0.237  -3.888  0.00  0.00     0.079 C 
ATOM     25  H   LIG d   1       7.118   0.704  -4.377  0.00  0.00     0.066 H 
ATOM     26  H   LIG d   1       7.658  -0.045  -2.855  0.00  0.00     0.066 H 
ATOM     27  H   LIG d   1       8.193  -0.713  -4.415  0.00  0.00     0.066 H 
ENDBRANCH  23  24
ENDBRANCH  16  23
BRANCH  18  28
ATOM     28  O   LIG d   1       3.957  -0.554  -2.456  0.00  0.00    -0.491 OA
BRANCH  28  29
ATOM     29  C   LIG d   1       4.410   0.532  -1.644  0.00  0.00     0.079 C 
ATOM     30  H   LIG d   1       3.773   1.401  -1.812  0.00  0.00     0.066 H 
ATOM     31  H   LIG d   1       4.363   0.245  -0.594  0.00  0.00     0.066 H 
ATOM     32  H   LIG d   1       5.438   0.778  -1.907  0.00  0.00     0.066 H 
ENDBRANCH  28  29
ENDBRANCH  18  28
ENDBRANCH   6  14
BRANCH   3  33
ATOM     33  C   LIG d   1       4.274  -4.472  -7.772  0.00  0.00    -0.018 A 
ATOM     34  C   LIG d   1       4.281  -5.786  -8.243  0.00  0.00    -0.051 A 
ATOM     35  C   LIG d   1       4.415  -6.833  -7.356  0.00  0.00    -0.019 A 
ATOM     36  H   LIG d   1       4.182  -5.982  -9.299  0.00  0.00     0.062 H 
ATOM     37  C   LIG d   1       4.544  -6.582  -5.996  0.00  0.00     0.120 A 
ATOM     38  H   LIG d   1       4.421  -7.850  -7.719  0.00  0.00     0.065 H 
ATOM     39  C   LIG d   1       4.538  -5.275  -5.524  0.00  0.00    -0.019 A 
ATOM     40  C   LIG d   1       4.410  -4.223  -6.405  0.00  0.00    -0.051 A 
ATOM     41  H   LIG d   1       4.638  -5.084  -4.465  0.00  0.00     0.065 H 
ATOM     42  H   LIG d   1       4.410  -3.207  -6.037  0.00  0.00     0.062 H 
BRANCH  37  43
ATOM     43  O   LIG d   1       4.676  -7.616  -5.125  0.00  0.00    -0.495 OA
BRANCH  43  44
ATOM     44  C   LIG d   1       4.805  -8.924  -5.685  0.00  0.00     0.079 C 
ATOM     45  H   LIG d   1       3.969  -9.543  -5.358  0.00  0.00     0.066 H 
ATOM     46  H   LIG d   1       4.803  -8.856  -6.773  0.00  0.00     0.066 H 
ATOM     47  H   LIG d   1       5.740  -9.372  -5.351  0.00  0.00     0.066 H 
ENDBRANCH  43  44
ENDBRANCH  37  43
ENDBRANCH   3  33
BRANCH  11  48
ATOM     48  C   LIG d   1       3.705   1.996  -9.994  0.00  0.00    -0.006 C 
ATOM     49  H   LIG d   1       3.979   1.835  -8.951  0.00  0.00     0.031 H 
ATOM     50  H   LIG d   1       4.415   2.682 -10.454  0.00  0.00     0.031 H 
ATOM     51  H   LIG d   1       2.703   2.423 -10.044  0.00  0.00     0.031 H 
ENDBRANCH  11  48
BRANCH   1  52
ATOM     52  O   LIG d   1       3.863  -3.641 -12.370  0.00  0.00    -0.491 OA
BRANCH  52  53
ATOM     53  C   LIG d   1       2.977  -4.759 -12.441  0.00  0.00     0.087 C 
ATOM     54  H   LIG d   1       3.309  -5.436 -13.226  0.00  0.00     0.069 H 
ATOM     55  H   LIG d   1       2.976  -5.282 -11.484  0.00  0.00     0.069 H 
BRANCH  53  56
ATOM     56  C   LIG d   1       1.562  -4.268 -12.755  0.00  0.00    -0.031 C 
ATOM     57  H   LIG d   1       1.610  -3.473 -13.500  0.00  0.00     0.026 H 
ATOM     58  H   LIG d   1       0.970  -5.095 -13.146  0.00  0.00     0.026 H 
ATOM     59  H   LIG d   1       1.099  -3.887 -11.846  0.00  0.00     0.026 H 
ENDBRANCH  53  56
ENDBRANCH  52  53
ENDBRANCH   1  52
BRANCH   9  60
ATOM     60  C   LIG d   1       3.607  -1.313 -13.807  0.00  0.00    -0.006 C 
ATOM     61  H   LIG d   1       2.953  -2.186 -13.823  0.00  0.00     0.031 H 
ATOM     62  H   LIG d   1       3.208  -0.548 -14.472  0.00  0.00     0.031 H 
ATOM     63  H   LIG d   1       4.604  -1.602 -14.140  0.00  0.00     0.031 H 
ENDBRANCH   9  60
TORSDOF 13
ENDMDL
MODEL 5
REMARK VINA RESULT:      -5.4      8.324     14.535
REMARK  13 active torsions:
REMARK  status: ('A' for Active; 'I' for Inactive)
REMARK    1  A    between atoms: C_1  and  C_2 
REMARK    2  A    between atoms: C_2  and  O_3 
REMARK    3  A    between atoms: O_3  and  C_4 
REMARK    4  A    between atoms: C_6  and  C_27 
REMARK    5  A    between atoms: N_9  and  C_10 
REMARK    6  A    between atoms: C_13  and  O_18 
REMARK    7  A    between atoms: C_14  and  O_16 
REMARK    8  A    between atoms: O_16  and  C_17 
REMARK    9  A    between atoms: O_18  and  C_19 
REMARK   10  A    between atoms: C_22  and  C_26 
REMARK   11  A    between atoms: C_24  and  C_25 
REMARK   12  A    between atoms: C_30  and  O_33 
REMARK   13  A    between atoms: O_33  and  C_34 
ROOT
ATOM      1  C   LIG d   1      10.148   7.189  -1.392  0.00  0.00     0.132 A 
ATOM      2  C   LIG d   1       9.954   6.121  -2.217  0.00  0.00    -0.011 A 
ATOM      3  C   LIG d   1       9.889   6.063  -3.622  0.00  0.00    -0.012 A 
ATOM      4  C   LIG d   1      10.002   7.047  -4.583  0.00  0.00    -0.028 A 
ATOM      5  C   LIG d   1      10.221   8.433  -4.419  0.00  0.00     0.076 A 
ATOM      6  N   LIG d   1      10.288   9.160  -5.526  0.00  0.00    -0.247 NA
ATOM      7  C   LIG d   1      10.382   9.155  -3.142  0.00  0.00     0.052 A 
ATOM      8  C   LIG d   1      10.349   8.590  -1.779  0.00  0.00     0.067 A 
ATOM      9  C   LIG d   1      10.543   9.638  -0.940  0.00  0.00     0.113 A 
ATOM     10  O   LIG d   1      10.685  10.749  -1.677  0.00  0.00    -0.464 OA
ATOM     11  C   LIG d   1      10.592  10.480  -2.989  0.00  0.00     0.112 A 
ATOM     12  H   LIG d   1       9.828   5.172  -1.716  0.00  0.00     0.066 H 
ATOM     13  H   LIG d   1       9.910   6.709  -5.605  0.00  0.00     0.065 H 
ENDROOT
BRANCH   6  14
ATOM     14  C   LIG d   1      10.270   8.549  -6.746  0.00  0.00     0.068 A 
ATOM     15  C   LIG d   1      11.451   8.034  -7.290  0.00  0.00     0.009 A 
ATOM     16  C   LIG d   1      11.425   7.411  -8.525  0.00  0.00     0.164 A 
ATOM     17  H   LIG d   1      12.381   8.121  -6.747  0.00  0.00     0.068 H 
ATOM     18  C   LIG d   1      10.228   7.306  -9.227  0.00  0.00     0.162 A 
ATOM     19  C   LIG d   1       9.056   7.819  -8.691  0.00  0.00    -0.014 A 
ATOM     20  C   LIG d   1       9.071   8.439  -7.458  0.00  0.00    -0.033 A 
ATOM     21  H   LIG d   1       8.131   7.736  -9.239  0.00  0.00     0.066 H 
ATOM     22  H   LIG d   1       8.158   8.838  -7.042  0.00  0.00     0.064 H 
BRANCH  16  23
ATOM     23  O   LIG d   1      12.571   6.906  -9.054  0.00  0.00    -0.491 OA
BRANCH  23  24
ATOM     24  C   LIG d   1      13.502   7.843  -9.599  0.00  0.00     0.079 C 
ATOM     25  H   LIG d   1      13.827   8.530  -8.818  0.00  0.00     0.066 H 
ATOM     26  H   LIG d   1      14.366   7.308  -9.995  0.00  0.00     0.066 H 
ATOM     27  H   LIG d   1      13.025   8.405 -10.402  0.00  0.00     0.066 H 
ENDBRANCH  23  24
ENDBRANCH  16  23
BRANCH  18  28
ATOM     28  O   LIG d   1      10.206   6.697 -10.443  0.00  0.00    -0.491 OA
BRANCH  28  29
ATOM     29  C   LIG d   1      10.088   7.541 -11.590  0.00  0.00     0.079 C 
ATOM     30  H   LIG d   1      11.078   7.882 -11.893  0.00  0.00     0.066 H 
ATOM     31  H   LIG d   1       9.630   6.983 -12.407  0.00  0.00     0.066 H 
ATOM     32  H   LIG d   1       9.466   8.402 -11.345  0.00  0.00     0.066 H 
ENDBRANCH  28  29
ENDBRANCH  18  28
ENDBRANCH   6  14
BRANCH   3  33
ATOM     33  C   LIG d   1       9.660   4.706  -4.166  0.00  0.00    -0.018 A 
ATOM     34  C   LIG d   1       9.488   3.625  -3.299  0.00  0.00    -0.051 A 
ATOM     35  C   LIG d   1       9.274   2.363  -3.809  0.00  0.00    -0.019 A 
ATOM     36  H   LIG d   1       9.522   3.778  -2.231  0.00  0.00     0.062 H 
ATOM     37  C   LIG d   1       9.228   2.166  -5.183  0.00  0.00     0.120 A 
ATOM     38  H   LIG d   1       9.140   1.526  -3.140  0.00  0.00     0.065 H 
ATOM     39  C   LIG d   1       9.399   3.239  -6.049  0.00  0.00    -0.019 A 
ATOM     40  C   LIG d   1       9.607   4.505  -5.546  0.00  0.00    -0.051 A 
ATOM     41  H   LIG d   1       9.363   3.082  -7.117  0.00  0.00     0.065 H 
ATOM     42  H   LIG d   1       9.735   5.340  -6.219  0.00  0.00     0.062 H 
BRANCH  37  43
ATOM     43  O   LIG d   1       9.017   0.921  -5.683  0.00  0.00    -0.495 OA
BRANCH  43  44
ATOM     44  C   LIG d   1       8.621   0.829  -7.053  0.00  0.00     0.079 C 
ATOM     45  H   LIG d   1       8.668  -0.212  -7.376  0.00  0.00     0.066 H 
ATOM     46  H   LIG d   1       7.600   1.197  -7.162  0.00  0.00     0.066 H 
ATOM     47  H   LIG d   1       9.291   1.431  -7.666  0.00  0.00     0.066 H 
ENDBRANCH  43  44
ENDBRANCH  37  43
ENDBRANCH   3  33
BRANCH  11  48
ATOM     48  C   LIG d   1      10.704  11.489  -4.103  0.00  0.00    -0.006 C 
ATOM     49  H   LIG d   1       9.890  12.209  -4.025  0.00  0.00     0.031 H 
ATOM     50  H   LIG d   1      11.658  12.009  -4.027  0.00  0.00     0.031 H 
ATOM     51  H   LIG d   1      10.645  10.977  -5.064  0.00  0.00     0.031 H 
ENDBRANCH  11  48
BRANCH   1  52
ATOM     52  O   LIG d   1      10.159   6.925  -0.063  0.00  0.00    -0.491 OA
BRANCH  52  53
ATOM     53  C   LIG d   1      11.035   5.890   0.385  0.00  0.00     0.087 C 
ATOM     54  H   LIG d   1      10.728   4.941  -0.049  0.00  0.00     0.069 H 
ATOM     55  H   LIG d   1      12.055   6.119   0.076  0.00  0.00     0.069 H 
BRANCH  53  56
ATOM     56  C   LIG d   1      10.975   5.796   1.911  0.00  0.00    -0.031 C 
ATOM     57  H   LIG d   1      10.167   6.428   2.282  0.00  0.00     0.026 H 
ATOM     58  H   LIG d   1      10.792   4.763   2.204  0.00  0.00     0.026 H 
ATOM     59  H   LIG d   1      11.921   6.133   2.333  0.00  0.00     0.026 H 
ENDBRANCH  53  56
ENDBRANCH  52  53
ENDBRANCH   1  52
BRANCH   9  60
ATOM     60  C   LIG d   1      10.590   9.565   0.564  0.00  0.00    -0.006 C 
ATOM     61  H   LIG d   1      11.393   8.894   0.871  0.00  0.00     0.031 H 
ATOM     62  H   LIG d   1      10.772  10.559   0.971  0.00  0.00     0.031 H 
ATOM     63  H   LIG d   1       9.639   9.186   0.940  0.00  0.00     0.031 H 
ENDBRANCH   9  60
TORSDOF 13
ENDMDL
MODEL 6
REMARK VINA RESULT:      -5.4      7.372     12.626
REMARK  13 active torsions:
REMARK  status: ('A' for Active; 'I' for Inactive)
REMARK    1  A    between atoms: C_1  and  C_2 
REMARK    2  A    between atoms: C_2  and  O_3 
REMARK    3  A    between atoms: O_3  and  C_4 
REMARK    4  A    between atoms: C_6  and  C_27 
REMARK    5  A    between atoms: N_9  and  C_10 
REMARK    6  A    between atoms: C_13  and  O_18 
REMARK    7  A    between atoms: C_14  and  O_16 
REMARK    8  A    between atoms: O_16  and  C_17 
REMARK    9  A    between atoms: O_18  and  C_19 
REMARK   10  A    between atoms: C_22  and  C_26 
REMARK   11  A    between atoms: C_24  and  C_25 
REMARK   12  A    between atoms: C_30  and  O_33 
REMARK   13  A    between atoms: O_33  and  C_34 
ROOT
ATOM      1  C   LIG d   1       9.960   8.920  -4.526  0.00  0.00     0.132 A 
ATOM      2  C   LIG d   1       9.797   8.200  -5.673  0.00  0.00    -0.011 A 
ATOM      3  C   LIG d   1       9.790   6.806  -5.873  0.00  0.00    -0.012 A 
ATOM      4  C   LIG d   1       9.942   5.757  -4.991  0.00  0.00    -0.028 A 
ATOM      5  C   LIG d   1      10.152   5.788  -3.594  0.00  0.00     0.076 A 
ATOM      6  N   LIG d   1      10.263   4.616  -2.983  0.00  0.00    -0.247 NA
ATOM      7  C   LIG d   1      10.259   6.990  -2.746  0.00  0.00     0.052 A 
ATOM      8  C   LIG d   1      10.172   8.401  -3.171  0.00  0.00     0.067 A 
ATOM      9  C   LIG d   1      10.330   9.137  -2.042  0.00  0.00     0.113 A 
ATOM     10  O   LIG d   1      10.499   8.297  -1.010  0.00  0.00    -0.464 OA
ATOM     11  C   LIG d   1      10.460   7.016  -1.410  0.00  0.00     0.112 A 
ATOM     12  H   LIG d   1       9.652   8.789  -6.566  0.00  0.00     0.066 H 
ATOM     13  H   LIG d   1       9.891   4.771  -5.431  0.00  0.00     0.065 H 
ENDROOT
BRANCH   6  14
ATOM     14  C   LIG d   1      10.054   3.461  -3.678  0.00  0.00     0.068 A 
ATOM     15  C   LIG d   1       8.760   2.950  -3.816  0.00  0.00     0.009 A 
ATOM     16  C   LIG d   1       8.554   1.782  -4.527  0.00  0.00     0.164 A 
ATOM     17  H   LIG d   1       7.922   3.468  -3.372  0.00  0.00     0.068 H 
ATOM     18  C   LIG d   1       9.634   1.111  -5.094  0.00  0.00     0.162 A 
ATOM     19  C   LIG d   1      10.919   1.614  -4.954  0.00  0.00    -0.014 A 
ATOM     20  C   LIG d   1      11.134   2.781  -4.250  0.00  0.00    -0.033 A 
ATOM     21  H   LIG d   1      11.753   1.090  -5.395  0.00  0.00     0.066 H 
ATOM     22  H   LIG d   1      12.136   3.171  -4.143  0.00  0.00     0.064 H 
BRANCH  16  23
ATOM     23  O   LIG d   1       7.296   1.285  -4.666  0.00  0.00    -0.491 OA
BRANCH  23  24
ATOM     24  C   LIG d   1       6.579   0.985  -3.468  0.00  0.00     0.079 C 
ATOM     25  H   LIG d   1       7.035   0.126  -2.975  0.00  0.00     0.066 H 
ATOM     26  H   LIG d   1       6.611   1.846  -2.800  0.00  0.00     0.066 H 
ATOM     27  H   LIG d   1       5.542   0.755  -3.712  0.00  0.00     0.066 H 
ENDBRANCH  23  24
ENDBRANCH  16  23
BRANCH  18  28
ATOM     28  O   LIG d   1       9.429  -0.041  -5.788  0.00  0.00    -0.491 OA
BRANCH  28  29
ATOM     29  C   LIG d   1      10.050  -1.224  -5.281  0.00  0.00     0.079 C 
ATOM     30  H   LIG d   1      10.638  -0.975  -4.397  0.00  0.00     0.066 H 
ATOM     31  H   LIG d   1       9.284  -1.952  -5.015  0.00  0.00     0.066 H 
ATOM     32  H   LIG d   1      10.704  -1.646  -6.045  0.00  0.00     0.066 H 
ENDBRANCH  28  29
ENDBRANCH  18  28
ENDBRANCH   6  14
BRANCH   3  33
ATOM     33  C   LIG d   1       9.585   6.395  -7.279  0.00  0.00    -0.018 A 
ATOM     34  C   LIG d   1       9.302   7.352  -8.255  0.00  0.00    -0.051 A 
ATOM     35  C   LIG d   1       9.112   6.965  -9.564  0.00  0.00    -0.019 A 
ATOM     36  H   LIG d   1       9.233   8.395  -7.985  0.00  0.00     0.062 H 
ATOM     37  C   LIG d   1       9.203   5.623  -9.913  0.00  0.00     0.120 A 
ATOM     38  H   LIG d   1       8.893   7.705 -10.319  0.00  0.00     0.065 H 
ATOM     39  C   LIG d   1       9.484   4.667  -8.945  0.00  0.00    -0.019 A 
ATOM     40  C   LIG d   1       9.682   5.049  -7.635  0.00  0.00    -0.051 A 
ATOM     41  H   LIG d   1       9.553   3.625  -9.220  0.00  0.00     0.065 H 
ATOM     42  H   LIG d   1       9.904   4.305  -6.884  0.00  0.00     0.062 H 
BRANCH  37  43
ATOM     43  O   LIG d   1       9.015   5.245 -11.203  0.00  0.00    -0.495 OA
BRANCH  43  44
ATOM     44  C   LIG d   1       9.105   6.265 -12.200  0.00  0.00     0.079 C 
ATOM     45  H   LIG d   1       8.147   6.778 -12.282  0.00  0.00     0.066 H 
ATOM     46  H   LIG d   1       9.878   6.981 -11.918  0.00  0.00     0.066 H 
ATOM     47  H   LIG d   1       9.359   5.814 -13.159  0.00  0.00     0.066 H 
ENDBRANCH  43  44
ENDBRANCH  37  43
ENDBRANCH   3  33
BRANCH  11  48
ATOM     48  C   LIG d   1      10.613   5.811  -0.519  0.00  0.00    -0.006 C 
ATOM     49  H   LIG d   1       9.787   5.778   0.192  0.00  0.00     0.031 H 
ATOM     50  H   LIG d   1      10.606   4.907  -1.126  0.00  0.00     0.031 H 
ATOM     51  H   LIG d   1      11.556   5.877   0.023  0.00  0.00     0.031 H 
ENDBRANCH  11  48
BRANCH   1  52
ATOM     52  O   LIG d   1       9.920  10.268  -4.654  0.00  0.00    -0.491 OA
BRANCH  52  53
ATOM     53  C   LIG d   1       9.911  10.793  -5.983  0.00  0.00     0.087 C 
ATOM     54  H   LIG d   1      10.878  10.615  -6.450  0.00  0.00     0.069 H 
ATOM     55  H   LIG d   1       9.130  10.299  -6.562  0.00  0.00     0.069 H 
BRANCH  53  56
ATOM     56  C   LIG d   1       9.635  12.297  -5.935  0.00  0.00    -0.031 C 
ATOM     57  H   LIG d   1       9.056  12.589  -6.811  0.00  0.00     0.026 H 
ATOM     58  H   LIG d   1       9.072  12.534  -5.032  0.00  0.00     0.026 H 
ATOM     59  H   LIG d   1      10.580  12.839  -5.927  0.00  0.00     0.026 H 
ENDBRANCH  53  56
ENDBRANCH  52  53
ENDBRANCH   1  52
BRANCH   9  60
ATOM     60  C   LIG d   1      10.318  10.641  -1.962  0.00  0.00    -0.006 C 
ATOM     61  H   LIG d   1       9.516  10.964  -1.298  0.00  0.00     0.031 H 
ATOM     62  H   LIG d   1      11.274  10.992  -1.574  0.00  0.00     0.031 H 
ATOM     63  H   LIG d   1      10.154  11.057  -2.956  0.00  0.00     0.031 H 
ENDBRANCH   9  60
TORSDOF 13
ENDMDL
MODEL 7
REMARK VINA RESULT:      -5.3      1.741      5.635
REMARK  13 active torsions:
REMARK  status: ('A' for Active; 'I' for Inactive)
REMARK    1  A    between atoms: C_1  and  C_2 
REMARK    2  A    between atoms: C_2  and  O_3 
REMARK    3  A    between atoms: O_3  and  C_4 
REMARK    4  A    between atoms: C_6  and  C_27 
REMARK    5  A    between atoms: N_9  and  C_10 
REMARK    6  A    between atoms: C_13  and  O_18 
REMARK    7  A    between atoms: C_14  and  O_16 
REMARK    8  A    between atoms: O_16  and  C_17 
REMARK    9  A    between atoms: O_18  and  C_19 
REMARK   10  A    between atoms: C_22  and  C_26 
REMARK   11  A    between atoms: C_24  and  C_25 
REMARK   12  A    between atoms: C_30  and  O_33 
REMARK   13  A    between atoms: O_33  and  C_34 
ROOT
ATOM      1  C   LIG d   1       4.707  -6.499  -6.260  0.00  0.00     0.132 A 
ATOM      2  C   LIG d   1       4.839  -5.264  -5.695  0.00  0.00    -0.011 A 
ATOM      3  C   LIG d   1       4.644  -3.988  -6.255  0.00  0.00    -0.012 A 
ATOM      4  C   LIG d   1       4.266  -3.594  -7.521  0.00  0.00    -0.028 A 
ATOM      5  C   LIG d   1       3.958  -4.389  -8.648  0.00  0.00     0.076 A 
ATOM      6  N   LIG d   1       3.619  -3.745  -9.756  0.00  0.00    -0.247 NA
ATOM      7  C   LIG d   1       3.973  -5.863  -8.718  0.00  0.00     0.052 A 
ATOM      8  C   LIG d   1       4.312  -6.811  -7.637  0.00  0.00     0.067 A 
ATOM      9  C   LIG d   1       4.184  -8.048  -8.179  0.00  0.00     0.113 A 
ATOM     10  O   LIG d   1       3.808  -7.913  -9.459  0.00  0.00    -0.464 OA
ATOM     11  C   LIG d   1       3.678  -6.620  -9.796  0.00  0.00     0.112 A 
ATOM     12  H   LIG d   1       5.141  -5.266  -4.657  0.00  0.00     0.066 H 
ATOM     13  H   LIG d   1       4.196  -2.527  -7.673  0.00  0.00     0.065 H 
ENDROOT
BRANCH   6  14
ATOM     14  C   LIG d   1       3.464  -2.389  -9.737  0.00  0.00     0.068 A 
ATOM     15  C   LIG d   1       4.542  -1.556 -10.054  0.00  0.00     0.009 A 
ATOM     16  C   LIG d   1       4.377  -0.183 -10.038  0.00  0.00     0.164 A 
ATOM     17  H   LIG d   1       5.500  -1.984 -10.312  0.00  0.00     0.068 H 
ATOM     18  C   LIG d   1       3.144   0.367  -9.699  0.00  0.00     0.162 A 
ATOM     19  C   LIG d   1       2.076  -0.458  -9.381  0.00  0.00    -0.014 A 
ATOM     20  C   LIG d   1       2.229  -1.829  -9.398  0.00  0.00    -0.033 A 
ATOM     21  H   LIG d   1       1.122  -0.026  -9.118  0.00  0.00     0.066 H 
ATOM     22  H   LIG d   1       1.395  -2.469  -9.149  0.00  0.00     0.064 H 
BRANCH  16  23
ATOM     23  O   LIG d   1       5.422   0.629 -10.349  0.00  0.00    -0.491 OA
BRANCH  23  24
ATOM     24  C   LIG d   1       6.377   0.884  -9.317  0.00  0.00     0.079 C 
ATOM     25  H   LIG d   1       5.856   1.076  -8.378  0.00  0.00     0.066 H 
ATOM     26  H   LIG d   1       7.027   0.017  -9.202  0.00  0.00     0.066 H 
ATOM     27  H   LIG d   1       6.976   1.755  -9.583  0.00  0.00     0.066 H 
ENDBRANCH  23  24
ENDBRANCH  16  23
BRANCH  18  28
ATOM     28  O   LIG d   1       2.986   1.718  -9.679  0.00  0.00    -0.491 OA
BRANCH  28  29
ATOM     29  C   LIG d   1       2.865   2.340  -8.398  0.00  0.00     0.079 C 
ATOM     30  H   LIG d   1       3.473   3.245  -8.375  0.00  0.00     0.066 H 
ATOM     31  H   LIG d   1       1.822   2.598  -8.217  0.00  0.00     0.066 H 
ATOM     32  H   LIG d   1       3.208   1.651  -7.626  0.00  0.00     0.066 H 
ENDBRANCH  28  29
ENDBRANCH  18  28
ENDBRANCH   6  14
BRANCH   3  33
ATOM     33  C   LIG d   1       4.890  -2.869  -5.318  0.00  0.00    -0.018 A 
ATOM     34  C   LIG d   1       4.696  -3.049  -3.947  0.00  0.00    -0.051 A 
ATOM     35  C   LIG d   1       4.926  -2.004  -3.078  0.00  0.00    -0.019 A 
ATOM     36  H   LIG d   1       4.367  -4.004  -3.568  0.00  0.00     0.062 H 
ATOM     37  C   LIG d   1       5.351  -0.774  -3.564  0.00  0.00     0.120 A 
ATOM     38  H   LIG d   1       4.777  -2.141  -2.017  0.00  0.00     0.065 H 
ATOM     39  C   LIG d   1       5.545  -0.591  -4.928  0.00  0.00    -0.019 A 
ATOM     40  C   LIG d   1       5.323  -1.634  -5.802  0.00  0.00    -0.051 A 
ATOM     41  H   LIG d   1       5.875   0.367  -5.303  0.00  0.00     0.065 H 
ATOM     42  H   LIG d   1       5.478  -1.492  -6.862  0.00  0.00     0.062 H 
BRANCH  37  43
ATOM     43  O   LIG d   1       5.577   0.254  -2.706  0.00  0.00    -0.495 OA
BRANCH  43  44
ATOM     44  C   LIG d   1       4.470   0.696  -1.917  0.00  0.00     0.079 C 
ATOM     45  H   LIG d   1       4.658   1.711  -1.565  0.00  0.00     0.066 H 
ATOM     46  H   LIG d   1       3.564   0.684  -2.523  0.00  0.00     0.066 H 
ATOM     47  H   LIG d   1       4.345   0.032  -1.063  0.00  0.00     0.066 H 
ENDBRANCH  43  44
ENDBRANCH  37  43
ENDBRANCH   3  33
BRANCH  11  48
ATOM     48  C   LIG d   1       3.268  -6.102 -11.150  0.00  0.00    -0.006 C 
ATOM     49  H   LIG d   1       2.216  -5.820 -11.129  0.00  0.00     0.031 H 
ATOM     50  H   LIG d   1       3.872  -5.231 -11.404  0.00  0.00     0.031 H 
ATOM     51  H   LIG d   1       3.421  -6.880 -11.899  0.00  0.00     0.031 H 
ENDBRANCH  11  48
BRANCH   1  52
ATOM     52  O   LIG d   1       4.969  -7.557  -5.455  0.00  0.00    -0.491 OA
BRANCH  52  53
ATOM     53  C   LIG d   1       6.323  -7.736  -5.039  0.00  0.00     0.087 C 
ATOM     54  H   LIG d   1       6.974  -7.741  -5.911  0.00  0.00     0.069 H 
ATOM     55  H   LIG d   1       6.609  -6.918  -4.376  0.00  0.00     0.069 H 
BRANCH  53  56
ATOM     56  C   LIG d   1       6.457  -9.065  -4.293  0.00  0.00    -0.031 C 
ATOM     57  H   LIG d   1       6.686  -8.872  -3.245  0.00  0.00     0.026 H 
ATOM     58  H   LIG d   1       5.519  -9.617  -4.364  0.00  0.00     0.026 H 
ATOM     59  H   LIG d   1       7.259  -9.652  -4.738  0.00  0.00     0.026 H 
ENDBRANCH  53  56
ENDBRANCH  52  53
ENDBRANCH   1  52
BRANCH   9  60
ATOM     60  C   LIG d   1       4.427  -9.352  -7.463  0.00  0.00    -0.006 C 
ATOM     61  H   LIG d   1       3.757  -9.425  -6.606  0.00  0.00     0.031 H 
ATOM     62  H   LIG d   1       4.237 -10.181  -8.144  0.00  0.00     0.031 H 
ATOM     63  H   LIG d   1       5.461  -9.392  -7.120  0.00  0.00     0.031 H 
ENDBRANCH   9  60
TORSDOF 13
ENDMDL
MODEL 8
REMARK VINA RESULT:      -5.1      1.820      5.792
REMARK  13 active torsions:
REMARK  status: ('A' for Active; 'I' for Inactive)
REMARK    1  A    between atoms: C_1  and  C_2 
REMARK    2  A    between atoms: C_2  and  O_3 
REMARK    3  A    between atoms: O_3  and  C_4 
REMARK    4  A    between atoms: C_6  and  C_27 
REMARK    5  A    between atoms: N_9  and  C_10 
REMARK    6  A    between atoms: C_13  and  O_18 
REMARK    7  A    between atoms: C_14  and  O_16 
REMARK    8  A    between atoms: O_16  and  C_17 
REMARK    9  A    between atoms: O_18  and  C_19 
REMARK   10  A    between atoms: C_22  and  C_26 
REMARK   11  A    between atoms: C_24  and  C_25 
REMARK   12  A    between atoms: C_30  and  O_33 
REMARK   13  A    between atoms: O_33  and  C_34 
ROOT
ATOM      1  C   LIG d   1       1.878  -4.092 -10.388  0.00  0.00     0.132 A 
ATOM      2  C   LIG d   1       2.524  -4.931  -9.529  0.00  0.00    -0.011 A 
ATOM      3  C   LIG d   1       3.422  -4.641  -8.485  0.00  0.00    -0.012 A 
ATOM      4  C   LIG d   1       3.918  -3.443  -8.013  0.00  0.00    -0.028 A 
ATOM      5  C   LIG d   1       3.653  -2.129  -8.462  0.00  0.00     0.076 A 
ATOM      6  N   LIG d   1       4.271  -1.146  -7.822  0.00  0.00    -0.247 NA
ATOM      7  C   LIG d   1       2.759  -1.739  -9.569  0.00  0.00     0.052 A 
ATOM      8  C   LIG d   1       1.960  -2.629 -10.435  0.00  0.00     0.067 A 
ATOM      9  C   LIG d   1       1.306  -1.812 -11.299  0.00  0.00     0.113 A 
ATOM     10  O   LIG d   1       1.644  -0.545 -11.021  0.00  0.00    -0.464 OA
ATOM     11  C   LIG d   1       2.508  -0.483  -9.995  0.00  0.00     0.112 A 
ATOM     12  H   LIG d   1       2.316  -5.982  -9.672  0.00  0.00     0.066 H 
ATOM     13  H   LIG d   1       4.605  -3.520  -7.183  0.00  0.00     0.065 H 
ENDROOT
BRANCH   6  14
ATOM     14  C   LIG d   1       5.017  -1.417  -6.712  0.00  0.00     0.068 A 
ATOM     15  C   LIG d   1       4.507  -1.140  -5.439  0.00  0.00     0.009 A 
ATOM     16  C   LIG d   1       5.266  -1.421  -4.318  0.00  0.00     0.164 A 
ATOM     17  H   LIG d   1       3.522  -0.709  -5.332  0.00  0.00     0.068 H 
ATOM     18  C   LIG d   1       6.538  -1.970  -4.457  0.00  0.00     0.162 A 
ATOM     19  C   LIG d   1       7.047  -2.241  -5.719  0.00  0.00    -0.014 A 
ATOM     20  C   LIG d   1       6.295  -1.967  -6.843  0.00  0.00    -0.033 A 
ATOM     21  H   LIG d   1       8.034  -2.666  -5.821  0.00  0.00     0.066 H 
ATOM     22  H   LIG d   1       6.694  -2.179  -7.825  0.00  0.00     0.064 H 
BRANCH  16  23
ATOM     23  O   LIG d   1       4.771  -1.157  -3.080  0.00  0.00    -0.491 OA
BRANCH  23  24
ATOM     24  C   LIG d   1       3.818  -2.080  -2.550  0.00  0.00     0.079 C 
ATOM     25  H   LIG d   1       4.281  -2.666  -1.755  0.00  0.00     0.066 H 
ATOM     26  H   LIG d   1       2.965  -1.533  -2.149  0.00  0.00     0.066 H 
ATOM     27  H   LIG d   1       3.481  -2.749  -3.342  0.00  0.00     0.066 H 
ENDBRANCH  23  24
ENDBRANCH  16  23
BRANCH  18  28
ATOM     28  O   LIG d   1       7.284  -2.241  -3.353  0.00  0.00    -0.491 OA
BRANCH  28  29
ATOM     29  C   LIG d   1       8.374  -3.152  -3.513  0.00  0.00     0.079 C 
ATOM     30  H   LIG d   1       8.270  -3.678  -4.462  0.00  0.00     0.066 H 
ATOM     31  H   LIG d   1       9.314  -2.600  -3.504  0.00  0.00     0.066 H 
ATOM     32  H   LIG d   1       8.368  -3.873  -2.695  0.00  0.00     0.066 H 
ENDBRANCH  28  29
ENDBRANCH  18  28
ENDBRANCH   6  14
BRANCH   3  33
ATOM     33  C   LIG d   1       3.924  -5.832  -7.765  0.00  0.00    -0.018 A 
ATOM     34  C   LIG d   1       4.382  -5.714  -6.451  0.00  0.00    -0.051 A 
ATOM     35  C   LIG d   1       4.849  -6.826  -5.784  0.00  0.00    -0.019 A 
ATOM     36  H   LIG d   1       4.371  -4.754  -5.959  0.00  0.00     0.062 H 
ATOM     37  C   LIG d   1       4.863  -8.063  -6.416  0.00  0.00     0.120 A 
ATOM     38  H   LIG d   1       5.203  -6.737  -4.767  0.00  0.00     0.065 H 
ATOM     39  C   LIG d   1       4.408  -8.184  -7.724  0.00  0.00    -0.019 A 
ATOM     40  C   LIG d   1       3.934  -7.077  -8.395  0.00  0.00    -0.051 A 
ATOM     41  H   LIG d   1       4.421  -9.147  -8.212  0.00  0.00     0.065 H 
ATOM     42  H   LIG d   1       3.577  -7.173  -9.410  0.00  0.00     0.062 H 
BRANCH  37  43
ATOM     43  O   LIG d   1       5.323  -9.157  -5.756  0.00  0.00    -0.495 OA
BRANCH  43  44
ATOM     44  C   LIG d   1       4.606  -9.561  -4.588  0.00  0.00     0.079 C 
ATOM     45  H   LIG d   1       4.685 -10.642  -4.469  0.00  0.00     0.066 H 
ATOM     46  H   LIG d   1       5.028  -9.067  -3.713  0.00  0.00     0.066 H 
ATOM     47  H   LIG d   1       3.558  -9.282  -4.692  0.00  0.00     0.066 H 
ENDBRANCH  43  44
ENDBRANCH  37  43
ENDBRANCH   3  33
BRANCH  11  48
ATOM     48  C   LIG d   1       3.096   0.778  -9.416  0.00  0.00    -0.006 C 
ATOM     49  H   LIG d   1       2.294   1.416  -9.044  0.00  0.00     0.031 H 
ATOM     50  H   LIG d   1       3.766   0.522  -8.596  0.00  0.00     0.031 H 
ATOM     51  H   LIG d   1       3.653   1.308 -10.189  0.00  0.00     0.031 H 
ENDBRANCH  11  48
BRANCH   1  52
ATOM     52  O   LIG d   1       1.066  -4.678 -11.301  0.00  0.00    -0.491 OA
BRANCH  52  53
ATOM     53  C   LIG d   1       0.165  -5.677 -10.821  0.00  0.00     0.087 C 
ATOM     54  H   LIG d   1      -0.088  -6.358 -11.632  0.00  0.00     0.069 H 
ATOM     55  H   LIG d   1       0.639  -6.235 -10.013  0.00  0.00     0.069 H 
BRANCH  53  56
ATOM     56  C   LIG d   1      -1.108  -5.008 -10.300  0.00  0.00    -0.031 C 
ATOM     57  H   LIG d   1      -1.975  -5.436 -10.803  0.00  0.00     0.026 H 
ATOM     58  H   LIG d   1      -1.192  -5.174  -9.227  0.00  0.00     0.026 H 
ATOM     59  H   LIG d   1      -1.064  -3.938 -10.501  0.00  0.00     0.026 H 
ENDBRANCH  53  56
ENDBRANCH  52  53
ENDBRANCH   1  52
BRANCH   9  60
ATOM     60  C   LIG d   1       0.361  -2.255 -12.386  0.00  0.00    -0.006 C 
ATOM     61  H   LIG d   1       0.910  -2.363 -13.322  0.00  0.00     0.031 H 
ATOM     62  H   LIG d   1      -0.084  -3.212 -12.113  0.00  0.00     0.031 H 
ATOM     63  H   LIG d   1      -0.425  -1.510 -12.510  0.00  0.00     0.031 H 
ENDBRANCH   9  60
TORSDOF 13
ENDMDL
MODEL 9
REMARK VINA RESULT:      -5.1      7.926     12.861
REMARK  13 active torsions:
REMARK  status: ('A' for Active; 'I' for Inactive)
REMARK    1  A    between atoms: C_1  and  C_2 
REMARK    2  A    between atoms: C_2  and  O_3 
REMARK    3  A    between atoms: O_3  and  C_4 
REMARK    4  A    between atoms: C_6  and  C_27 
REMARK    5  A    between atoms: N_9  and  C_10 
REMARK    6  A    between atoms: C_13  and  O_18 
REMARK    7  A    between atoms: C_14  and  O_16 
REMARK    8  A    between atoms: O_16  and  C_17 
REMARK    9  A    between atoms: O_18  and  C_19 
REMARK   10  A    between atoms: C_22  and  C_26 
REMARK   11  A    between atoms: C_24  and  C_25 
REMARK   12  A    between atoms: C_30  and  O_33 
REMARK   13  A    between atoms: O_33  and  C_34 
ROOT
ATOM      1  C   LIG d   1      10.501   6.484  -8.803  0.00  0.00     0.132 A 
ATOM      2  C   LIG d   1      10.107   5.475  -7.974  0.00  0.00    -0.011 A 
ATOM      3  C   LIG d   1      10.149   5.390  -6.569  0.00  0.00    -0.012 A 
ATOM      4  C   LIG d   1      10.589   6.281  -5.613  0.00  0.00    -0.028 A 
ATOM      5  C   LIG d   1      11.140   7.572  -5.782  0.00  0.00     0.076 A 
ATOM      6  N   LIG d   1      11.483   8.221  -4.678  0.00  0.00    -0.247 NA
ATOM      7  C   LIG d   1      11.371   8.271  -7.061  0.00  0.00     0.052 A 
ATOM      8  C   LIG d   1      11.080   7.776  -8.422  0.00  0.00     0.067 A 
ATOM      9  C   LIG d   1      11.463   8.768  -9.264  0.00  0.00     0.113 A 
ATOM     10  O   LIG d   1      11.944   9.783  -8.532  0.00  0.00    -0.464 OA
ATOM     11  C   LIG d   1      11.897   9.504  -7.219  0.00  0.00     0.112 A 
ATOM     12  H   LIG d   1       9.702   4.606  -8.471  0.00  0.00     0.066 H 
ATOM     13  H   LIG d   1      10.501   5.945  -4.590  0.00  0.00     0.065 H 
ENDROOT
BRANCH   6  14
ATOM     14  C   LIG d   1      11.189   7.693  -3.455  0.00  0.00     0.068 A 
ATOM     15  C   LIG d   1      10.102   8.182  -2.723  0.00  0.00     0.009 A 
ATOM     16  C   LIG d   1       9.806   7.638  -1.486  0.00  0.00     0.164 A 
ATOM     17  H   LIG d   1       9.495   8.980  -3.123  0.00  0.00     0.068 H 
ATOM     18  C   LIG d   1      10.594   6.614  -0.969  0.00  0.00     0.162 A 
ATOM     19  C   LIG d   1      11.674   6.130  -1.692  0.00  0.00    -0.014 A 
ATOM     20  C   LIG d   1      11.975   6.664  -2.929  0.00  0.00    -0.033 A 
ATOM     21  H   LIG d   1      12.282   5.336  -1.286  0.00  0.00     0.066 H 
ATOM     22  H   LIG d   1      12.817   6.286  -3.490  0.00  0.00     0.064 H 
BRANCH  16  23
ATOM     23  O   LIG d   1       8.748   8.109  -0.774  0.00  0.00    -0.491 OA
BRANCH  23  24
ATOM     24  C   LIG d   1       8.628   9.527  -0.649  0.00  0.00     0.079 C 
ATOM     25  H   LIG d   1       7.710   9.769  -0.114  0.00  0.00     0.066 H 
ATOM     26  H   LIG d   1       9.484   9.917  -0.097  0.00  0.00     0.066 H 
ATOM     27  H   LIG d   1       8.600   9.978  -1.641  0.00  0.00     0.066 H 
ENDBRANCH  23  24
ENDBRANCH  16  23
BRANCH  18  28
ATOM     28  O   LIG d   1      10.303   6.084   0.250  0.00  0.00    -0.491 OA
BRANCH  28  29
ATOM     29  C   LIG d   1      11.117   6.498   1.349  0.00  0.00     0.079 C 
ATOM     30  H   LIG d   1      11.661   5.639   1.742  0.00  0.00     0.066 H 
ATOM     31  H   LIG d   1      11.827   7.254   1.012  0.00  0.00     0.066 H 
ATOM     32  H   LIG d   1      10.485   6.918   2.132  0.00  0.00     0.066 H 
ENDBRANCH  28  29
ENDBRANCH  18  28
ENDBRANCH   6  14
BRANCH   3  33
ATOM     33  C   LIG d   1       9.628   4.118  -6.021  0.00  0.00    -0.018 A 
ATOM     34  C   LIG d   1       9.443   3.973  -4.645  0.00  0.00    -0.051 A 
ATOM     35  C   LIG d   1       8.957   2.787  -4.138  0.00  0.00    -0.019 A 
ATOM     36  H   LIG d   1       9.680   4.788  -3.979  0.00  0.00     0.062 H 
ATOM     37  C   LIG d   1       8.651   1.737  -4.995  0.00  0.00     0.120 A 
ATOM     38  H   LIG d   1       8.814   2.673  -3.074  0.00  0.00     0.065 H 
ATOM     39  C   LIG d   1       8.834   1.878  -6.365  0.00  0.00    -0.019 A 
ATOM     40  C   LIG d   1       9.313   3.063  -6.879  0.00  0.00    -0.051 A 
ATOM     41  H   LIG d   1       8.595   1.059  -7.028  0.00  0.00     0.065 H 
ATOM     42  H   LIG d   1       9.451   3.173  -7.945  0.00  0.00     0.062 H 
BRANCH  37  43
ATOM     43  O   LIG d   1       8.173   0.569  -4.492  0.00  0.00    -0.495 OA
BRANCH  43  44
ATOM     44  C   LIG d   1       6.781   0.521  -4.173  0.00  0.00     0.079 C 
ATOM     45  H   LIG d   1       6.418  -0.501  -4.282  0.00  0.00     0.066 H 
ATOM     46  H   LIG d   1       6.632   0.852  -3.144  0.00  0.00     0.066 H 
ATOM     47  H   LIG d   1       6.231   1.177  -4.847  0.00  0.00     0.066 H 
ENDBRANCH  43  44
ENDBRANCH  37  43
ENDBRANCH   3  33
BRANCH  11  48
ATOM     48  C   LIG d   1      12.352  10.416  -6.110  0.00  0.00    -0.006 C 
ATOM     49  H   LIG d   1      13.438  10.512  -6.140  0.00  0.00     0.031 H 
ATOM     50  H   LIG d   1      11.898  11.398  -6.237  0.00  0.00     0.031 H 
ATOM     51  H   LIG d   1      12.052   9.998  -5.149  0.00  0.00     0.031 H 
ENDBRANCH  11  48
BRANCH   1  52
ATOM     52  O   LIG d   1      10.334   6.268 -10.130  0.00  0.00    -0.491 OA
BRANCH  52  53
ATOM     53  C   LIG d   1       9.013   5.956 -10.576  0.00  0.00     0.087 C 
ATOM     54  H   LIG d   1       8.814   4.899 -10.409  0.00  0.00     0.069 H 
ATOM     55  H   LIG d   1       8.292   6.556 -10.019  0.00  0.00     0.069 H 
BRANCH  53  56
ATOM     56  C   LIG d   1       8.891   6.270 -12.068  0.00  0.00    -0.031 C 
ATOM     57  H   LIG d   1       9.309   7.257 -12.267  0.00  0.00     0.026 H 
ATOM     58  H   LIG d   1       9.438   5.522 -12.642  0.00  0.00     0.026 H 
ATOM     59  H   LIG d   1       7.841   6.255 -12.358  0.00  0.00     0.026 H 
ENDBRANCH  53  56
ENDBRANCH  52  53
ENDBRANCH   1  52
BRANCH   9  60
ATOM     60  C   LIG d   1      11.366   8.733 -10.767  0.00  0.00    -0.006 C 
ATOM     61  H   LIG d   1      11.605   9.718 -11.170  0.00  0.00     0.031 H 
ATOM     62  H   LIG d   1      12.069   8.000 -11.160  0.00  0.00     0.031 H 
ATOM     63  H   LIG d   1      10.352   8.458 -11.060  0.00  0.00     0.031 H 
ENDBRANCH   9  60
TORSDOF 13
ENDMDL
