MODEL 1
REMARK VINA RESULT:      -5.3      0.000      0.000
REMARK  4 active torsions:
REMARK  status: ('A' for Active; 'I' for Inactive)
REMARK    1  A    between atoms: C_3  and  C_12 
REMARK    2  A    between atoms: C_6  and  C_7 
REMARK    3  A    between atoms: C_7  and  O_8 
REMARK    4  A    between atoms: O_8  and  N_9 
ROOT
ATOM      1  C   LIG d   1       5.519  -1.567  -4.761  0.00  0.00    -0.054 A 
ATOM      2  C   LIG d   1       5.340  -0.326  -4.188  0.00  0.00    -0.052 A 
ATOM      3  C   LIG d   1       4.568  -0.200  -3.031  0.00  0.00    -0.003 A 
ATOM      4  C   LIG d   1       3.977  -1.333  -2.467  0.00  0.00    -0.052 A 
ATOM      5  C   LIG d   1       4.159  -2.567  -3.055  0.00  0.00    -0.054 A 
ATOM      6  C   LIG d   1       4.926  -2.684  -4.201  0.00  0.00    -0.003 A 
ATOM      7  H   LIG d   1       6.119  -1.667  -5.654  0.00  0.00     0.062 H 
ATOM      8  H   LIG d   1       5.800   0.546  -4.629  0.00  0.00     0.062 H 
ATOM      9  H   LIG d   1       3.378  -1.242  -1.573  0.00  0.00     0.062 H 
ATOM     10  H   LIG d   1       3.702  -3.444  -2.620  0.00  0.00     0.062 H 
ENDROOT
BRANCH   6  11
ATOM     11  C   LIG d   1       5.120  -4.036  -4.837  0.00  0.00     0.192 C 
ATOM     12  H   LIG d   1       6.107  -4.434  -4.560  0.00  0.00     0.082 H 
ATOM     13  H   LIG d   1       4.337  -4.724  -4.486  0.00  0.00     0.082 H 
BRANCH  11  14
ATOM     14  O   LIG d   1       5.040  -3.911  -6.259  0.00  0.00    -0.212 OA
BRANCH  14  15
ATOM     15  N   LIG d   1       3.944  -4.596  -6.837  0.00  0.00     0.285 N 
ATOM     16  O   LIG d   1       3.324  -5.415  -6.182  0.00  0.00     0.093 OA
ATOM     17  O   LIG d   1       3.622  -4.367  -7.989  0.00  0.00    -0.534 OA
ENDBRANCH  14  15
ENDBRANCH  11  14
ENDBRANCH   6  11
BRANCH   3  18
ATOM     18  C   LIG d   1       4.377   1.125  -2.408  0.00  0.00     0.072 C 
ATOM     19  O   LIG d   1       4.746   1.318  -1.267  0.00  0.00    -0.545 OA
ATOM     20  O   LIG d   1       3.793   2.120  -3.104  0.00  0.00    -0.545 OA
ENDBRANCH   3  18
TORSDOF 4
ENDMDL
MODEL 2
REMARK VINA RESULT:      -5.2      4.125      4.938
REMARK  4 active torsions:
REMARK  status: ('A' for Active; 'I' for Inactive)
REMARK    1  A    between atoms: C_3  and  C_12 
REMARK    2  A    between atoms: C_6  and  C_7 
REMARK    3  A    between atoms: C_7  and  O_8 
REMARK    4  A    between atoms: O_8  and  N_9 
ROOT
ATOM      1  C   LIG d   1       4.192  -0.850  -6.264  0.00  0.00    -0.054 A 
ATOM      2  C   LIG d   1       4.431  -1.310  -4.986  0.00  0.00    -0.052 A 
ATOM      3  C   LIG d   1       3.638  -0.863  -3.927  0.00  0.00    -0.003 A 
ATOM      4  C   LIG d   1       2.610   0.051  -4.171  0.00  0.00    -0.052 A 
ATOM      5  C   LIG d   1       2.386   0.506  -5.454  0.00  0.00    -0.054 A 
ATOM      6  C   LIG d   1       3.176   0.059  -6.498  0.00  0.00    -0.003 A 
ATOM      7  H   LIG d   1       4.803  -1.198  -7.085  0.00  0.00     0.062 H 
ATOM      8  H   LIG d   1       5.227  -2.016  -4.805  0.00  0.00     0.062 H 
ATOM      9  H   LIG d   1       1.993   0.400  -3.357  0.00  0.00     0.062 H 
ATOM     10  H   LIG d   1       1.591   1.213  -5.644  0.00  0.00     0.062 H 
ENDROOT
BRANCH   6  11
ATOM     11  C   LIG d   1       2.925   0.561  -7.896  0.00  0.00     0.192 C 
ATOM     12  H   LIG d   1       3.576   0.024  -8.602  0.00  0.00     0.082 H 
ATOM     13  H   LIG d   1       1.873   0.388  -8.165  0.00  0.00     0.082 H 
BRANCH  11  14
ATOM     14  O   LIG d   1       3.209   1.961  -7.959  0.00  0.00    -0.212 OA
BRANCH  14  15
ATOM     15  N   LIG d   1       4.059   2.329  -9.030  0.00  0.00     0.285 N 
ATOM     16  O   LIG d   1       3.583   2.621 -10.112  0.00  0.00     0.093 OA
ATOM     17  O   LIG d   1       5.266   2.355  -8.867  0.00  0.00    -0.534 OA
ENDBRANCH  14  15
ENDBRANCH  11  14
ENDBRANCH   6  11
BRANCH   3  18
ATOM     18  C   LIG d   1       3.884  -1.354  -2.557  0.00  0.00     0.072 C 
ATOM     19  O   LIG d   1       4.319  -0.600  -1.710  0.00  0.00    -0.545 OA
ATOM     20  O   LIG d   1       3.625  -2.640  -2.245  0.00  0.00    -0.545 OA
ENDBRANCH   3  18
TORSDOF 4
ENDMDL
MODEL 3
REMARK VINA RESULT:      -5.0      3.481      5.375
REMARK  4 active torsions:
REMARK  status: ('A' for Active; 'I' for Inactive)
REMARK    1  A    between atoms: C_3  and  C_12 
REMARK    2  A    between atoms: C_6  and  C_7 
REMARK    3  A    between atoms: C_7  and  O_8 
REMARK    4  A    between atoms: O_8  and  N_9 
ROOT
ATOM      1  C   LIG d   1       4.439  -1.127  -5.169  0.00  0.00    -0.054 A 
ATOM      2  C   LIG d   1       4.169  -0.647  -6.434  0.00  0.00    -0.052 A 
ATOM      3  C   LIG d   1       3.108   0.240  -6.627  0.00  0.00    -0.003 A 
ATOM      4  C   LIG d   1       2.326   0.632  -5.538  0.00  0.00    -0.052 A 
ATOM      5  C   LIG d   1       2.604   0.139  -4.281  0.00  0.00    -0.054 A 
ATOM      6  C   LIG d   1       3.657  -0.740  -4.096  0.00  0.00    -0.003 A 
ATOM      7  H   LIG d   1       5.262  -1.811  -5.017  0.00  0.00     0.062 H 
ATOM      8  H   LIG d   1       4.778  -0.953  -7.271  0.00  0.00     0.062 H 
ATOM      9  H   LIG d   1       1.504   1.317  -5.682  0.00  0.00     0.062 H 
ATOM     10  H   LIG d   1       1.999   0.440  -3.438  0.00  0.00     0.062 H 
ENDROOT
BRANCH   6  11
ATOM     11  C   LIG d   1       3.955  -1.274  -2.719  0.00  0.00     0.192 C 
ATOM     12  H   LIG d   1       3.187  -0.922  -2.015  0.00  0.00     0.082 H 
ATOM     13  H   LIG d   1       3.952  -2.374  -2.743  0.00  0.00     0.082 H 
BRANCH  11  14
ATOM     14  O   LIG d   1       5.238  -0.811  -2.295  0.00  0.00    -0.212 OA
BRANCH  14  15
ATOM     15  N   LIG d   1       5.322   0.595  -2.141  0.00  0.00     0.285 N 
ATOM     16  O   LIG d   1       4.632   1.157  -1.309  0.00  0.00     0.093 OA
ATOM     17  O   LIG d   1       6.083   1.240  -2.840  0.00  0.00    -0.534 OA
ENDBRANCH  14  15
ENDBRANCH  11  14
ENDBRANCH   6  11
BRANCH   3  18
ATOM     18  C   LIG d   1       2.816   0.764  -7.977  0.00  0.00     0.072 C 
ATOM     19  O   LIG d   1       3.111   1.907  -8.263  0.00  0.00    -0.545 OA
ATOM     20  O   LIG d   1       2.221  -0.027  -8.892  0.00  0.00    -0.545 OA
ENDBRANCH   3  18
TORSDOF 4
ENDMDL
MODEL 4
REMARK VINA RESULT:      -4.8      4.295      6.360
REMARK  4 active torsions:
REMARK  status: ('A' for Active; 'I' for Inactive)
REMARK    1  A    between atoms: C_3  and  C_12 
REMARK    2  A    between atoms: C_6  and  C_7 
REMARK    3  A    between atoms: C_7  and  O_8 
REMARK    4  A    between atoms: O_8  and  N_9 
ROOT
ATOM      1  C   LIG d   1       7.071  -0.784  -3.903  0.00  0.00    -0.054 A 
ATOM      2  C   LIG d   1       5.894  -1.441  -3.609  0.00  0.00    -0.052 A 
ATOM      3  C   LIG d   1       4.814  -0.730  -3.081  0.00  0.00    -0.003 A 
ATOM      4  C   LIG d   1       4.936   0.642  -2.849  0.00  0.00    -0.052 A 
ATOM      5  C   LIG d   1       6.121   1.285  -3.142  0.00  0.00    -0.054 A 
ATOM      6  C   LIG d   1       7.187   0.574  -3.665  0.00  0.00    -0.003 A 
ATOM      7  H   LIG d   1       7.905  -1.332  -4.315  0.00  0.00     0.062 H 
ATOM      8  H   LIG d   1       5.806  -2.501  -3.790  0.00  0.00     0.062 H 
ATOM      9  H   LIG d   1       4.105   1.198  -2.441  0.00  0.00     0.062 H 
ATOM     10  H   LIG d   1       6.217   2.346  -2.963  0.00  0.00     0.062 H 
ENDROOT
BRANCH   6  11
ATOM     11  C   LIG d   1       8.478   1.284  -3.983  0.00  0.00     0.192 C 
ATOM     12  H   LIG d   1       9.316   0.749  -3.512  0.00  0.00     0.082 H 
ATOM     13  H   LIG d   1       8.624   1.307  -5.073  0.00  0.00     0.082 H 
BRANCH  11  14
ATOM     14  O   LIG d   1       8.423   2.621  -3.481  0.00  0.00    -0.212 OA
BRANCH  14  15
ATOM     15  N   LIG d   1       9.676   3.132  -3.065  0.00  0.00     0.285 N 
ATOM     16  O   LIG d   1       9.787   4.310  -2.774  0.00  0.00     0.093 OA
ATOM     17  O   LIG d   1      10.643   2.394  -2.997  0.00  0.00    -0.534 OA
ENDBRANCH  14  15
ENDBRANCH  11  14
ENDBRANCH   6  11
BRANCH   3  18
ATOM     18  C   LIG d   1       3.549  -1.425  -2.769  0.00  0.00     0.072 C 
ATOM     19  O   LIG d   1       2.487  -0.862  -2.944  0.00  0.00    -0.545 OA
ATOM     20  O   LIG d   1       3.572  -2.685  -2.290  0.00  0.00    -0.545 OA
ENDBRANCH   3  18
TORSDOF 4
ENDMDL
MODEL 5
REMARK VINA RESULT:      -4.8      3.823      5.195
REMARK  4 active torsions:
REMARK  status: ('A' for Active; 'I' for Inactive)
REMARK    1  A    between atoms: C_3  and  C_12 
REMARK    2  A    between atoms: C_6  and  C_7 
REMARK    3  A    between atoms: C_7  and  O_8 
REMARK    4  A    between atoms: O_8  and  N_9 
ROOT
ATOM      1  C   LIG d   1       6.965  -0.546  -3.742  0.00  0.00    -0.054 A 
ATOM      2  C   LIG d   1       5.844  -1.306  -3.481  0.00  0.00    -0.052 A 
ATOM      3  C   LIG d   1       4.687  -0.693  -2.997  0.00  0.00    -0.003 A 
ATOM      4  C   LIG d   1       4.676   0.687  -2.776  0.00  0.00    -0.052 A 
ATOM      5  C   LIG d   1       5.806   1.432  -3.035  0.00  0.00    -0.054 A 
ATOM      6  C   LIG d   1       6.950   0.818  -3.515  0.00  0.00    -0.003 A 
ATOM      7  H   LIG d   1       7.860  -1.019  -4.121  0.00  0.00     0.062 H 
ATOM      8  H   LIG d   1       5.859  -2.371  -3.655  0.00  0.00     0.062 H 
ATOM      9  H   LIG d   1       3.784   1.167  -2.401  0.00  0.00     0.062 H 
ATOM     10  H   LIG d   1       5.799   2.499  -2.864  0.00  0.00     0.062 H 
ENDROOT
BRANCH   6  11
ATOM     11  C   LIG d   1       8.181   1.640  -3.796  0.00  0.00     0.192 C 
ATOM     12  H   LIG d   1       8.398   2.284  -2.931  0.00  0.00     0.082 H 
ATOM     13  H   LIG d   1       9.035   0.971  -3.978  0.00  0.00     0.082 H 
BRANCH  11  14
ATOM     14  O   LIG d   1       7.959   2.452  -4.951  0.00  0.00    -0.212 OA
BRANCH  14  15
ATOM     15  N   LIG d   1       8.186   1.783  -6.178  0.00  0.00     0.285 N 
ATOM     16  O   LIG d   1       7.257   1.577  -6.940  0.00  0.00     0.093 OA
ATOM     17  O   LIG d   1       9.309   1.414  -6.472  0.00  0.00    -0.534 OA
ENDBRANCH  14  15
ENDBRANCH  11  14
ENDBRANCH   6  11
BRANCH   3  18
ATOM     18  C   LIG d   1       3.480  -1.498  -2.721  0.00  0.00     0.072 C 
ATOM     19  O   LIG d   1       2.378  -1.006  -2.857  0.00  0.00    -0.545 OA
ATOM     20  O   LIG d   1       3.601  -2.778  -2.319  0.00  0.00    -0.545 OA
ENDBRANCH   3  18
TORSDOF 4
ENDMDL
MODEL 6
REMARK VINA RESULT:      -4.7      2.610      5.773
REMARK  4 active torsions:
REMARK  status: ('A' for Active; 'I' for Inactive)
REMARK    1  A    between atoms: C_3  and  C_12 
REMARK    2  A    between atoms: C_6  and  C_7 
REMARK    3  A    between atoms: C_7  and  O_8 
REMARK    4  A    between atoms: O_8  and  N_9 
ROOT
ATOM      1  C   LIG d   1       6.388  -1.532  -2.991  0.00  0.00    -0.054 A 
ATOM      2  C   LIG d   1       7.092  -2.386  -3.815  0.00  0.00    -0.052 A 
ATOM      3  C   LIG d   1       6.408  -3.328  -4.585  0.00  0.00    -0.003 A 
ATOM      4  C   LIG d   1       5.015  -3.402  -4.512  0.00  0.00    -0.052 A 
ATOM      5  C   LIG d   1       4.325  -2.546  -3.680  0.00  0.00    -0.054 A 
ATOM      6  C   LIG d   1       5.009  -1.614  -2.919  0.00  0.00    -0.003 A 
ATOM      7  H   LIG d   1       6.915  -0.799  -2.398  0.00  0.00     0.062 H 
ATOM      8  H   LIG d   1       8.168  -2.322  -3.867  0.00  0.00     0.062 H 
ATOM      9  H   LIG d   1       4.481  -4.129  -5.105  0.00  0.00     0.062 H 
ATOM     10  H   LIG d   1       3.248  -2.603  -3.622  0.00  0.00     0.062 H 
ENDROOT
BRANCH   6  11
ATOM     11  C   LIG d   1       4.248  -0.682  -2.012  0.00  0.00     0.192 C 
ATOM     12  H   LIG d   1       3.315  -0.372  -2.505  0.00  0.00     0.082 H 
ATOM     13  H   LIG d   1       4.010  -1.199  -1.071  0.00  0.00     0.082 H 
BRANCH  11  14
ATOM     14  O   LIG d   1       5.046   0.470  -1.734  0.00  0.00    -0.212 OA
BRANCH  14  15
ATOM     15  N   LIG d   1       5.004   1.458  -2.748  0.00  0.00     0.285 N 
ATOM     16  O   LIG d   1       3.931   1.886  -3.136  0.00  0.00     0.093 OA
ATOM     17  O   LIG d   1       6.040   1.880  -3.230  0.00  0.00    -0.534 OA
ENDBRANCH  14  15
ENDBRANCH  11  14
ENDBRANCH   6  11
BRANCH   3  18
ATOM     18  C   LIG d   1       7.154  -4.242  -5.474  0.00  0.00     0.072 C 
ATOM     19  O   LIG d   1       6.562  -4.890  -6.314  0.00  0.00    -0.545 OA
ATOM     20  O   LIG d   1       8.491  -4.357  -5.354  0.00  0.00    -0.545 OA
ENDBRANCH   3  18
TORSDOF 4
ENDMDL
MODEL 7
REMARK VINA RESULT:      -4.6      2.305      5.618
REMARK  4 active torsions:
REMARK  status: ('A' for Active; 'I' for Inactive)
REMARK    1  A    between atoms: C_3  and  C_12 
REMARK    2  A    between atoms: C_6  and  C_7 
REMARK    3  A    between atoms: C_7  and  O_8 
REMARK    4  A    between atoms: O_8  and  N_9 
ROOT
ATOM      1  C   LIG d   1       5.716  -1.035  -5.417  0.00  0.00    -0.054 A 
ATOM      2  C   LIG d   1       5.184  -2.026  -6.216  0.00  0.00    -0.052 A 
ATOM      3  C   LIG d   1       4.671  -3.186  -5.633  0.00  0.00    -0.003 A 
ATOM      4  C   LIG d   1       4.703  -3.336  -4.244  0.00  0.00    -0.052 A 
ATOM      5  C   LIG d   1       5.243  -2.339  -3.459  0.00  0.00    -0.054 A 
ATOM      6  C   LIG d   1       5.751  -1.192  -4.043  0.00  0.00    -0.003 A 
ATOM      7  H   LIG d   1       6.110  -0.135  -5.867  0.00  0.00     0.062 H 
ATOM      8  H   LIG d   1       5.162  -1.904  -7.288  0.00  0.00     0.062 H 
ATOM      9  H   LIG d   1       4.308  -4.231  -3.787  0.00  0.00     0.062 H 
ATOM     10  H   LIG d   1       5.270  -2.454  -2.385  0.00  0.00     0.062 H 
ENDROOT
BRANCH   6  11
ATOM     11  C   LIG d   1       6.339  -0.107  -3.179  0.00  0.00     0.192 C 
ATOM     12  H   LIG d   1       6.156  -0.342  -2.120  0.00  0.00     0.082 H 
ATOM     13  H   LIG d   1       7.423  -0.043  -3.357  0.00  0.00     0.082 H 
BRANCH  11  14
ATOM     14  O   LIG d   1       5.728   1.144  -3.501  0.00  0.00    -0.212 OA
BRANCH  14  15
ATOM     15  N   LIG d   1       4.545   1.413  -2.770  0.00  0.00     0.285 N 
ATOM     16  O   LIG d   1       4.462   1.077  -1.602  0.00  0.00     0.093 OA
ATOM     17  O   LIG d   1       3.612   1.981  -3.309  0.00  0.00    -0.534 OA
ENDBRANCH  14  15
ENDBRANCH  11  14
ENDBRANCH   6  11
BRANCH   3  18
ATOM     18  C   LIG d   1       4.094  -4.250  -6.480  0.00  0.00     0.072 C 
ATOM     19  O   LIG d   1       3.549  -5.207  -5.967  0.00  0.00    -0.545 OA
ATOM     20  O   LIG d   1       4.173  -4.159  -7.822  0.00  0.00    -0.545 OA
ENDBRANCH   3  18
TORSDOF 4
ENDMDL
MODEL 8
REMARK VINA RESULT:      -4.5      2.123      2.702
REMARK  4 active torsions:
REMARK  status: ('A' for Active; 'I' for Inactive)
REMARK    1  A    between atoms: C_3  and  C_12 
REMARK    2  A    between atoms: C_6  and  C_7 
REMARK    3  A    between atoms: C_7  and  O_8 
REMARK    4  A    between atoms: O_8  and  N_9 
ROOT
ATOM      1  C   LIG d   1       5.909  -1.430  -4.361  0.00  0.00    -0.054 A 
ATOM      2  C   LIG d   1       5.571  -0.289  -3.663  0.00  0.00    -0.052 A 
ATOM      3  C   LIG d   1       4.550  -0.333  -2.712  0.00  0.00    -0.003 A 
ATOM      4  C   LIG d   1       3.874  -1.533  -2.478  0.00  0.00    -0.052 A 
ATOM      5  C   LIG d   1       4.219  -2.664  -3.187  0.00  0.00    -0.054 A 
ATOM      6  C   LIG d   1       5.231  -2.613  -4.129  0.00  0.00    -0.003 A 
ATOM      7  H   LIG d   1       6.701  -1.398  -5.095  0.00  0.00     0.062 H 
ATOM      8  H   LIG d   1       6.097   0.635  -3.849  0.00  0.00     0.062 H 
ATOM      9  H   LIG d   1       3.084  -1.574  -1.744  0.00  0.00     0.062 H 
ATOM     10  H   LIG d   1       3.697  -3.593  -3.007  0.00  0.00     0.062 H 
ENDROOT
BRANCH   6  11
ATOM     11  C   LIG d   1       5.602  -3.854  -4.900  0.00  0.00     0.192 C 
ATOM     12  H   LIG d   1       5.518  -4.733  -4.243  0.00  0.00     0.082 H 
ATOM     13  H   LIG d   1       4.921  -3.971  -5.756  0.00  0.00     0.082 H 
BRANCH  11  14
ATOM     14  O   LIG d   1       6.946  -3.739  -5.372  0.00  0.00    -0.212 OA
BRANCH  14  15
ATOM     15  N   LIG d   1       7.883  -4.503  -4.636  0.00  0.00     0.285 N 
ATOM     16  O   LIG d   1       8.533  -3.979  -3.748  0.00  0.00     0.093 OA
ATOM     17  O   LIG d   1       8.040  -5.684  -4.890  0.00  0.00    -0.534 OA
ENDBRANCH  14  15
ENDBRANCH  11  14
ENDBRANCH   6  11
BRANCH   3  18
ATOM     18  C   LIG d   1       4.186   0.882  -1.957  0.00  0.00     0.072 C 
ATOM     19  O   LIG d   1       3.138   1.450  -2.187  0.00  0.00    -0.545 OA
ATOM     20  O   LIG d   1       5.017   1.362  -1.010  0.00  0.00    -0.545 OA
ENDBRANCH   3  18
TORSDOF 4
ENDMDL
MODEL 9
REMARK VINA RESULT:      -4.5      1.175      1.848
REMARK  4 active torsions:
REMARK  status: ('A' for Active; 'I' for Inactive)
REMARK    1  A    between atoms: C_3  and  C_12 
REMARK    2  A    between atoms: C_6  and  C_7 
REMARK    3  A    between atoms: C_7  and  O_8 
REMARK    4  A    between atoms: O_8  and  N_9 
ROOT
ATOM      1  C   LIG d   1       4.913  -2.502  -4.218  0.00  0.00    -0.054 A 
ATOM      2  C   LIG d   1       4.581  -1.456  -3.383  0.00  0.00    -0.052 A 
ATOM      3  C   LIG d   1       4.154  -0.242  -3.926  0.00  0.00    -0.003 A 
ATOM      4  C   LIG d   1       4.071  -0.097  -5.313  0.00  0.00    -0.052 A 
ATOM      5  C   LIG d   1       4.412  -1.149  -6.135  0.00  0.00    -0.054 A 
ATOM      6  C   LIG d   1       4.835  -2.349  -5.590  0.00  0.00    -0.003 A 
ATOM      7  H   LIG d   1       5.240  -3.443  -3.798  0.00  0.00     0.062 H 
ATOM      8  H   LIG d   1       4.647  -1.576  -2.312  0.00  0.00     0.062 H 
ATOM      9  H   LIG d   1       3.742   0.839  -5.739  0.00  0.00     0.062 H 
ATOM     10  H   LIG d   1       4.349  -1.038  -7.208  0.00  0.00     0.062 H 
ENDROOT
BRANCH   6  11
ATOM     11  C   LIG d   1       5.205  -3.495  -6.496  0.00  0.00     0.192 C 
ATOM     12  H   LIG d   1       6.093  -3.224  -7.086  0.00  0.00     0.082 H 
ATOM     13  H   LIG d   1       5.427  -4.385  -5.889  0.00  0.00     0.082 H 
BRANCH  11  14
ATOM     14  O   LIG d   1       4.116  -3.779  -7.376  0.00  0.00    -0.212 OA
BRANCH  14  15
ATOM     15  N   LIG d   1       3.558  -5.069  -7.205  0.00  0.00     0.285 N 
ATOM     16  O   LIG d   1       3.494  -5.563  -6.093  0.00  0.00     0.093 OA
ATOM     17  O   LIG d   1       3.142  -5.685  -8.170  0.00  0.00    -0.534 OA
ENDBRANCH  14  15
ENDBRANCH  11  14
ENDBRANCH   6  11
BRANCH   3  18
ATOM     18  C   LIG d   1       3.791   0.881  -3.039  0.00  0.00     0.072 C 
ATOM     19  O   LIG d   1       3.482   1.955  -3.514  0.00  0.00    -0.545 OA
ATOM     20  O   LIG d   1       3.802   0.715  -1.702  0.00  0.00    -0.545 OA
ENDBRANCH   3  18
TORSDOF 4
ENDMDL
MODEL 10
REMARK VINA RESULT:      -4.4      4.215      6.307
REMARK  4 active torsions:
REMARK  status: ('A' for Active; 'I' for Inactive)
REMARK    1  A    between atoms: C_3  and  C_12 
REMARK    2  A    between atoms: C_6  and  C_7 
REMARK    3  A    between atoms: C_7  and  O_8 
REMARK    4  A    between atoms: O_8  and  N_9 
ROOT
ATOM      1  C   LIG d   1       4.954  -0.578  -6.836  0.00  0.00    -0.054 A 
ATOM      2  C   LIG d   1       4.960  -0.305  -8.189  0.00  0.00    -0.052 A 
ATOM      3  C   LIG d   1       3.864   0.332  -8.774  0.00  0.00    -0.003 A 
ATOM      4  C   LIG d   1       2.766   0.683  -7.985  0.00  0.00    -0.052 A 
ATOM      5  C   LIG d   1       2.771   0.399  -6.636  0.00  0.00    -0.054 A 
ATOM      6  C   LIG d   1       3.861  -0.233  -6.062  0.00  0.00    -0.003 A 
ATOM      7  H   LIG d   1       5.804  -1.066  -6.382  0.00  0.00     0.062 H 
ATOM      8  H   LIG d   1       5.812  -0.579  -8.792  0.00  0.00     0.062 H 
ATOM      9  H   LIG d   1       1.915   1.175  -8.431  0.00  0.00     0.062 H 
ATOM     10  H   LIG d   1       1.922   0.670  -6.024  0.00  0.00     0.062 H 
ENDROOT
BRANCH   6  11
ATOM     11  C   LIG d   1       3.859  -0.539  -4.587  0.00  0.00     0.192 C 
ATOM     12  H   LIG d   1       2.823  -0.565  -4.218  0.00  0.00     0.082 H 
ATOM     13  H   LIG d   1       4.333  -1.518  -4.415  0.00  0.00     0.082 H 
BRANCH  11  14
ATOM     14  O   LIG d   1       4.589   0.471  -3.888  0.00  0.00    -0.212 OA
BRANCH  14  15
ATOM     15  N   LIG d   1       3.776   1.351  -3.133  0.00  0.00     0.285 N 
ATOM     16  O   LIG d   1       3.517   1.093  -1.971  0.00  0.00     0.093 OA
ATOM     17  O   LIG d   1       3.337   2.365  -3.644  0.00  0.00    -0.534 OA
ENDBRANCH  14  15
ENDBRANCH  11  14
ENDBRANCH   6  11
BRANCH   3  18
ATOM     18  C   LIG d   1       3.865   0.633 -10.219  0.00  0.00     0.072 C 
ATOM     19  O   LIG d   1       4.373   1.658 -10.626  0.00  0.00    -0.545 OA
ATOM     20  O   LIG d   1       3.303  -0.231 -11.088  0.00  0.00    -0.545 OA
ENDBRANCH   3  18
TORSDOF 4
ENDMDL
