MODEL 1
REMARK VINA RESULT:      -6.3      0.000      0.000
REMARK  6 active torsions:
REMARK  status: ('A' for Active; 'I' for Inactive)
REMARK    1  A    between atoms: C_1  and  C_2 
REMARK    2  A    between atoms: C_6  and  O_10 
REMARK    3  A    between atoms: C_7  and  C_8 
REMARK    4  A    between atoms: C_15  and  O_21 
REMARK    5  A    between atoms: C_17  and  O_20 
REMARK    6  A    between atoms: C_18  and  O_19 
ROOT
ATOM      1  C   LIG d   1      10.814  11.119  -0.191  0.00  0.00    -0.027 A 
ATOM      2  C   LIG d   1      10.726   9.732  -0.232  0.00  0.00     0.037 A 
ATOM      3  C   LIG d   1      11.237   8.963   0.832  0.00  0.00     0.037 A 
ATOM      4  C   LIG d   1      11.831   9.587   1.919  0.00  0.00    -0.008 A 
ATOM      5  C   LIG d   1      11.920  10.975   1.960  0.00  0.00     0.127 A 
ATOM      6  C   LIG d   1      11.412  11.744   0.904  0.00  0.00     0.042 A 
ATOM      7  C   LIG d   1      11.137   7.484   0.780  0.00  0.00     0.198 C 
ATOM      8  O   LIG d   1      11.336   6.819   1.778  0.00  0.00    -0.286 OA
ATOM      9  C   LIG d   1      10.791   6.833  -0.495  0.00  0.00     0.082 A 
ATOM     10  C   LIG d   1      10.285   7.609  -1.563  0.00  0.00     0.078 A 
ATOM     11  C   LIG d   1       9.954   6.992  -2.771  0.00  0.00     0.132 A 
ATOM     12  C   LIG d   1      10.132   5.619  -2.922  0.00  0.00     0.026 A 
ATOM     13  C   LIG d   1      10.630   4.859  -1.882  0.00  0.00     0.163 A 
ATOM     14  C   LIG d   1      10.963   5.460  -0.659  0.00  0.00     0.170 A 
ATOM     15  C   LIG d   1      10.097   9.058  -1.386  0.00  0.00     0.198 C 
ATOM     16  O   LIG d   1       9.435   9.693  -2.185  0.00  0.00    -0.286 OA
ATOM     17  H   LIG d   1      12.223   8.997   2.734  0.00  0.00     0.066 H 
ATOM     18  H   LIG d   1       9.878   5.146  -3.859  0.00  0.00     0.069 H 
ENDROOT
BRANCH   1  19
ATOM     19  C   LIG d   1      10.267  11.945  -1.327  0.00  0.00    -0.038 C 
ATOM     20  H   LIG d   1       9.195  12.087  -1.190  0.00  0.00     0.028 H 
ATOM     21  H   LIG d   1      10.763  12.915  -1.341  0.00  0.00     0.028 H 
ATOM     22  H   LIG d   1      10.449  11.430  -2.271  0.00  0.00     0.028 H 
ENDBRANCH   1  19
BRANCH   6  23
ATOM     23  C   LIG d   1      11.506  13.216   0.951  0.00  0.00     0.075 C 
ATOM     24  O   LIG d   1      10.701  13.856   1.597  0.00  0.00    -0.544 OA
ATOM     25  O   LIG d   1      12.486  13.850   0.279  0.00  0.00    -0.544 OA
ENDBRANCH   6  23
BRANCH   5  26
ATOM     26  O   LIG d   1      12.501  11.585   3.022  0.00  0.00    -0.506 OA
ATOM     27  H   LIG d   1      11.923  11.669   3.793  0.00  0.00     0.292 HD
ENDBRANCH   5  26
BRANCH  11  28
ATOM     28  O   LIG d   1       9.465   7.730  -3.799  0.00  0.00    -0.506 OA
ATOM     29  H   LIG d   1       8.747   8.327  -3.547  0.00  0.00     0.292 HD
ENDBRANCH  11  28
BRANCH  14  30
ATOM     30  O   LIG d   1      11.451   4.709   0.358  0.00  0.00    -0.503 OA
ATOM     31  H   LIG d   1      11.522   3.767   0.152  0.00  0.00     0.292 HD
ENDBRANCH  14  30
BRANCH  13  32
ATOM     32  O   LIG d   1      10.797   3.522  -2.044  0.00  0.00    -0.503 OA
ATOM     33  H   LIG d   1       9.976   3.013  -1.981  0.00  0.00     0.292 HD
ENDBRANCH  13  32
TORSDOF 6
ENDMDL
MODEL 2
REMARK VINA RESULT:      -6.2      2.738      6.292
REMARK  6 active torsions:
REMARK  status: ('A' for Active; 'I' for Inactive)
REMARK    1  A    between atoms: C_1  and  C_2 
REMARK    2  A    between atoms: C_6  and  O_10 
REMARK    3  A    between atoms: C_7  and  C_8 
REMARK    4  A    between atoms: C_15  and  O_21 
REMARK    5  A    between atoms: C_17  and  O_20 
REMARK    6  A    between atoms: C_18  and  O_19 
ROOT
ATOM      1  C   LIG d   1       9.759   7.522  -5.421  0.00  0.00    -0.027 A 
ATOM      2  C   LIG d   1       9.855   7.735  -4.051  0.00  0.00     0.037 A 
ATOM      3  C   LIG d   1       9.863   9.049  -3.541  0.00  0.00     0.037 A 
ATOM      4  C   LIG d   1       9.776  10.130  -4.405  0.00  0.00    -0.008 A 
ATOM      5  C   LIG d   1       9.680   9.918  -5.777  0.00  0.00     0.127 A 
ATOM      6  C   LIG d   1       9.672   8.613  -6.288  0.00  0.00     0.042 A 
ATOM      7  C   LIG d   1       9.964   9.264  -2.077  0.00  0.00     0.198 C 
ATOM      8  O   LIG d   1       9.722  10.355  -1.598  0.00  0.00    -0.286 OA
ATOM      9  C   LIG d   1      10.360   8.140  -1.212  0.00  0.00     0.082 A 
ATOM     10  C   LIG d   1      10.359   6.825  -1.729  0.00  0.00     0.078 A 
ATOM     11  C   LIG d   1      10.731   5.757  -0.908  0.00  0.00     0.132 A 
ATOM     12  C   LIG d   1      11.110   5.995   0.410  0.00  0.00     0.026 A 
ATOM     13  C   LIG d   1      11.116   7.280   0.917  0.00  0.00     0.163 A 
ATOM     14  C   LIG d   1      10.741   8.363   0.110  0.00  0.00     0.170 A 
ATOM     15  C   LIG d   1       9.950   6.589  -3.123  0.00  0.00     0.198 C 
ATOM     16  O   LIG d   1       9.697   5.463  -3.508  0.00  0.00    -0.286 OA
ATOM     17  H   LIG d   1       9.782  11.137  -4.013  0.00  0.00     0.066 H 
ATOM     18  H   LIG d   1      11.401   5.168   1.041  0.00  0.00     0.069 H 
ENDROOT
BRANCH   1  19
ATOM     19  C   LIG d   1       9.749   6.119  -5.970  0.00  0.00    -0.038 C 
ATOM     20  H   LIG d   1       9.273   6.114  -6.950  0.00  0.00     0.028 H 
ATOM     21  H   LIG d   1      10.774   5.760  -6.063  0.00  0.00     0.028 H 
ATOM     22  H   LIG d   1       9.197   5.468  -5.293  0.00  0.00     0.028 H 
ENDBRANCH   1  19
BRANCH   6  23
ATOM     23  C   LIG d   1       9.568   8.392  -7.743  0.00  0.00     0.075 C 
ATOM     24  O   LIG d   1       8.485   8.446  -8.290  0.00  0.00    -0.544 OA
ATOM     25  O   LIG d   1      10.675   8.129  -8.465  0.00  0.00    -0.544 OA
ENDBRANCH   6  23
BRANCH   5  26
ATOM     26  O   LIG d   1       9.596  10.975  -6.620  0.00  0.00    -0.506 OA
ATOM     27  H   LIG d   1       9.635  11.835  -6.180  0.00  0.00     0.292 HD
ENDBRANCH   5  26
BRANCH  11  28
ATOM     28  O   LIG d   1      10.729   4.493  -1.397  0.00  0.00    -0.506 OA
ATOM     29  H   LIG d   1       9.877   4.213  -1.760  0.00  0.00     0.292 HD
ENDBRANCH  11  28
BRANCH  14  30
ATOM     30  O   LIG d   1      10.749   9.622   0.613  0.00  0.00    -0.503 OA
ATOM     31  H   LIG d   1       9.871   9.962   0.833  0.00  0.00     0.292 HD
ENDBRANCH  14  30
BRANCH  13  32
ATOM     32  O   LIG d   1      11.487   7.495   2.205  0.00  0.00    -0.503 OA
ATOM     33  H   LIG d   1      10.847   7.176   2.857  0.00  0.00     0.292 HD
ENDBRANCH  13  32
TORSDOF 6
ENDMDL
MODEL 3
REMARK VINA RESULT:      -6.2      3.694      7.878
REMARK  6 active torsions:
REMARK  status: ('A' for Active; 'I' for Inactive)
REMARK    1  A    between atoms: C_1  and  C_2 
REMARK    2  A    between atoms: C_6  and  O_10 
REMARK    3  A    between atoms: C_7  and  C_8 
REMARK    4  A    between atoms: C_15  and  O_21 
REMARK    5  A    between atoms: C_17  and  O_20 
REMARK    6  A    between atoms: C_18  and  O_19 
ROOT
ATOM      1  C   LIG d   1       9.557   6.771  -7.170  0.00  0.00    -0.027 A 
ATOM      2  C   LIG d   1       9.964   6.399  -5.895  0.00  0.00     0.037 A 
ATOM      3  C   LIG d   1      10.362   5.072  -5.641  0.00  0.00     0.037 A 
ATOM      4  C   LIG d   1      10.345   4.134  -6.663  0.00  0.00    -0.008 A 
ATOM      5  C   LIG d   1       9.936   4.505  -7.941  0.00  0.00     0.127 A 
ATOM      6  C   LIG d   1       9.541   5.826  -8.197  0.00  0.00     0.042 A 
ATOM      7  C   LIG d   1      10.797   4.686  -4.277  0.00  0.00     0.198 C 
ATOM      8  O   LIG d   1      11.375   3.633  -4.091  0.00  0.00    -0.286 OA
ATOM      9  C   LIG d   1      10.520   5.595  -3.151  0.00  0.00     0.082 A 
ATOM     10  C   LIG d   1      10.114   6.924  -3.409  0.00  0.00     0.078 A 
ATOM     11  C   LIG d   1       9.855   7.788  -2.342  0.00  0.00     0.132 A 
ATOM     12  C   LIG d   1       9.988   7.334  -1.033  0.00  0.00     0.026 A 
ATOM     13  C   LIG d   1      10.381   6.035  -0.778  0.00  0.00     0.163 A 
ATOM     14  C   LIG d   1      10.650   5.154  -1.836  0.00  0.00     0.170 A 
ATOM     15  C   LIG d   1       9.984   7.390  -4.799  0.00  0.00     0.198 C 
ATOM     16  O   LIG d   1       9.888   8.579  -5.042  0.00  0.00    -0.286 OA
ATOM     17  H   LIG d   1      10.650   3.116  -6.469  0.00  0.00     0.066 H 
ATOM     18  H   LIG d   1       9.783   8.004  -0.210  0.00  0.00     0.069 H 
ENDROOT
BRANCH   1  19
ATOM     19  C   LIG d   1       9.132   8.191  -7.445  0.00  0.00    -0.038 C 
ATOM     20  H   LIG d   1       9.246   8.787  -6.539  0.00  0.00     0.028 H 
ATOM     21  H   LIG d   1       9.754   8.609  -8.235  0.00  0.00     0.028 H 
ATOM     22  H   LIG d   1       8.088   8.203  -7.759  0.00  0.00     0.028 H 
ENDBRANCH   1  19
BRANCH   6  23
ATOM     23  C   LIG d   1       9.109   6.217  -9.552  0.00  0.00     0.075 C 
ATOM     24  O   LIG d   1       8.041   5.832  -9.984  0.00  0.00    -0.544 OA
ATOM     25  O   LIG d   1       9.899   7.000 -10.311  0.00  0.00    -0.544 OA
ENDBRANCH   6  23
BRANCH   5  26
ATOM     26  O   LIG d   1       9.919   3.589  -8.939  0.00  0.00    -0.506 OA
ATOM     27  H   LIG d   1       9.224   3.734  -9.595  0.00  0.00     0.292 HD
ENDBRANCH   5  26
BRANCH  11  28
ATOM     28  O   LIG d   1       9.468   9.065  -2.582  0.00  0.00    -0.506 OA
ATOM     29  H   LIG d   1      10.148   9.609  -3.003  0.00  0.00     0.292 HD
ENDBRANCH  11  28
BRANCH  14  30
ATOM     30  O   LIG d   1      11.036   3.879  -1.580  0.00  0.00    -0.503 OA
ATOM     31  H   LIG d   1      11.859   3.812  -1.078  0.00  0.00     0.292 HD
ENDBRANCH  14  30
BRANCH  13  32
ATOM     32  O   LIG d   1      10.507   5.607   0.504  0.00  0.00    -0.503 OA
ATOM     33  H   LIG d   1      11.038   6.192   1.063  0.00  0.00     0.292 HD
ENDBRANCH  13  32
TORSDOF 6
ENDMDL
MODEL 4
REMARK VINA RESULT:      -6.0      3.063      6.308
REMARK  6 active torsions:
REMARK  status: ('A' for Active; 'I' for Inactive)
REMARK    1  A    between atoms: C_1  and  C_2 
REMARK    2  A    between atoms: C_6  and  O_10 
REMARK    3  A    between atoms: C_7  and  C_8 
REMARK    4  A    between atoms: C_15  and  O_21 
REMARK    5  A    between atoms: C_17  and  O_20 
REMARK    6  A    between atoms: C_18  and  O_19 
ROOT
ATOM      1  C   LIG d   1      10.683   7.466  -1.863  0.00  0.00    -0.027 A 
ATOM      2  C   LIG d   1      10.279   7.460  -3.192  0.00  0.00     0.037 A 
ATOM      3  C   LIG d   1      10.167   6.241  -3.890  0.00  0.00     0.037 A 
ATOM      4  C   LIG d   1      10.463   5.046  -3.251  0.00  0.00    -0.008 A 
ATOM      5  C   LIG d   1      10.868   5.050  -1.920  0.00  0.00     0.127 A 
ATOM      6  C   LIG d   1      10.979   6.262  -1.222  0.00  0.00     0.042 A 
ATOM      7  C   LIG d   1       9.733   6.246  -5.307  0.00  0.00     0.198 C 
ATOM      8  O   LIG d   1       9.390   5.213  -5.849  0.00  0.00    -0.286 OA
ATOM      9  C   LIG d   1       9.722   7.518  -6.050  0.00  0.00     0.082 A 
ATOM     10  C   LIG d   1       9.842   8.739  -5.349  0.00  0.00     0.078 A 
ATOM     11  C   LIG d   1       9.828   9.946  -6.052  0.00  0.00     0.132 A 
ATOM     12  C   LIG d   1       9.706   9.940  -7.439  0.00  0.00     0.026 A 
ATOM     13  C   LIG d   1       9.593   8.749  -8.127  0.00  0.00     0.163 A 
ATOM     14  C   LIG d   1       9.600   7.527  -7.438  0.00  0.00     0.170 A 
ATOM     15  C   LIG d   1       9.963   8.729  -3.882  0.00  0.00     0.198 C 
ATOM     16  O   LIG d   1       9.811   9.754  -3.245  0.00  0.00    -0.286 OA
ATOM     17  H   LIG d   1      10.378   4.111  -3.786  0.00  0.00     0.066 H 
ATOM     18  H   LIG d   1       9.699  10.876  -7.979  0.00  0.00     0.069 H 
ENDROOT
BRANCH   1  19
ATOM     19  C   LIG d   1      10.802   8.769  -1.114  0.00  0.00    -0.038 C 
ATOM     20  H   LIG d   1      10.069   8.793  -0.307  0.00  0.00     0.028 H 
ATOM     21  H   LIG d   1      11.805   8.856  -0.696  0.00  0.00     0.028 H 
ATOM     22  H   LIG d   1      10.619   9.598  -1.797  0.00  0.00     0.028 H 
ENDBRANCH   1  19
BRANCH   6  23
ATOM     23  C   LIG d   1      11.408   6.263   0.189  0.00  0.00     0.075 C 
ATOM     24  O   LIG d   1      10.614   5.983   1.065  0.00  0.00    -0.544 OA
ATOM     25  O   LIG d   1      12.679   6.575   0.507  0.00  0.00    -0.544 OA
ENDBRANCH   6  23
BRANCH   5  26
ATOM     26  O   LIG d   1      11.158   3.883  -1.296  0.00  0.00    -0.506 OA
ATOM     27  H   LIG d   1      10.384   3.336  -1.106  0.00  0.00     0.292 HD
ENDBRANCH   5  26
BRANCH  11  28
ATOM     28  O   LIG d   1       9.939  11.121  -5.384  0.00  0.00    -0.506 OA
ATOM     29  H   LIG d   1       9.637  11.082  -4.466  0.00  0.00     0.292 HD
ENDBRANCH  11  28
BRANCH  14  30
ATOM     30  O   LIG d   1       9.489   6.360  -8.120  0.00  0.00    -0.503 OA
ATOM     31  H   LIG d   1      10.296   5.827  -8.121  0.00  0.00     0.292 HD
ENDBRANCH  14  30
BRANCH  13  32
ATOM     32  O   LIG d   1       9.474   8.760  -9.479  0.00  0.00    -0.503 OA
ATOM     33  H   LIG d   1      10.316   8.857  -9.947  0.00  0.00     0.292 HD
ENDBRANCH  13  32
TORSDOF 6
ENDMDL
MODEL 5
REMARK VINA RESULT:      -6.0     12.229     15.256
REMARK  6 active torsions:
REMARK  status: ('A' for Active; 'I' for Inactive)
REMARK    1  A    between atoms: C_1  and  C_2 
REMARK    2  A    between atoms: C_6  and  O_10 
REMARK    3  A    between atoms: C_7  and  C_8 
REMARK    4  A    between atoms: C_15  and  O_21 
REMARK    5  A    between atoms: C_17  and  O_20 
REMARK    6  A    between atoms: C_18  and  O_19 
ROOT
ATOM      1  C   LIG d   1       2.859  -0.462  -9.221  0.00  0.00    -0.027 A 
ATOM      2  C   LIG d   1       3.379  -0.774  -7.971  0.00  0.00     0.037 A 
ATOM      3  C   LIG d   1       3.989  -2.025  -7.753  0.00  0.00     0.037 A 
ATOM      4  C   LIG d   1       4.067  -2.949  -8.785  0.00  0.00    -0.008 A 
ATOM      5  C   LIG d   1       3.546  -2.639 -10.037  0.00  0.00     0.127 A 
ATOM      6  C   LIG d   1       2.939  -1.394 -10.258  0.00  0.00     0.042 A 
ATOM      7  C   LIG d   1       4.543  -2.346  -6.416  0.00  0.00     0.198 C 
ATOM      8  O   LIG d   1       5.285  -3.298  -6.270  0.00  0.00    -0.286 OA
ATOM      9  C   LIG d   1       4.184  -1.496  -5.267  0.00  0.00     0.082 A 
ATOM     10  C   LIG d   1       3.566  -0.245  -5.489  0.00  0.00     0.078 A 
ATOM     11  C   LIG d   1       3.228   0.563  -4.400  0.00  0.00     0.132 A 
ATOM     12  C   LIG d   1       3.493   0.129  -3.104  0.00  0.00     0.026 A 
ATOM     13  C   LIG d   1       4.093  -1.095  -2.885  0.00  0.00     0.163 A 
ATOM     14  C   LIG d   1       4.444  -1.918  -3.965  0.00  0.00     0.170 A 
ATOM     15  C   LIG d   1       3.299   0.203  -6.865  0.00  0.00     0.198 C 
ATOM     16  O   LIG d   1       3.010   1.364  -7.088  0.00  0.00    -0.286 OA
ATOM     17  H   LIG d   1       4.534  -3.908  -8.617  0.00  0.00     0.066 H 
ATOM     18  H   LIG d   1       3.227   0.755  -2.265  0.00  0.00     0.069 H 
ENDROOT
BRANCH   1  19
ATOM     19  C   LIG d   1       2.207   0.876  -9.458  0.00  0.00    -0.038 C 
ATOM     20  H   LIG d   1       1.652   1.173  -8.568  0.00  0.00     0.028 H 
ATOM     21  H   LIG d   1       2.975   1.620  -9.671  0.00  0.00     0.028 H 
ATOM     22  H   LIG d   1       1.526   0.803 -10.306  0.00  0.00     0.028 H 
ENDBRANCH   1  19
BRANCH   6  23
ATOM     23  C   LIG d   1       2.389  -1.068 -11.586  0.00  0.00     0.075 C 
ATOM     24  O   LIG d   1       3.136  -0.781 -12.500  0.00  0.00    -0.544 OA
ATOM     25  O   LIG d   1       1.057  -1.088 -11.788  0.00  0.00    -0.544 OA
ENDBRANCH   6  23
BRANCH   5  26
ATOM     26  O   LIG d   1       3.622  -3.542 -11.044  0.00  0.00    -0.506 OA
ATOM     27  H   LIG d   1       3.239  -4.404 -10.831  0.00  0.00     0.292 HD
ENDBRANCH   5  26
BRANCH  11  28
ATOM     28  O   LIG d   1       2.638   1.767  -4.606  0.00  0.00    -0.506 OA
ATOM     29  H   LIG d   1       1.890   1.738  -5.218  0.00  0.00     0.292 HD
ENDBRANCH  11  28
BRANCH  14  30
ATOM     30  O   LIG d   1       5.033  -3.120  -3.743  0.00  0.00    -0.503 OA
ATOM     31  H   LIG d   1       5.758  -3.319  -4.350  0.00  0.00     0.292 HD
ENDBRANCH  14  30
BRANCH  13  32
ATOM     32  O   LIG d   1       4.345  -1.505  -1.615  0.00  0.00    -0.503 OA
ATOM     33  H   LIG d   1       4.223  -0.815  -0.948  0.00  0.00     0.292 HD
ENDBRANCH  13  32
TORSDOF 6
ENDMDL
MODEL 6
REMARK VINA RESULT:      -5.7      2.967      7.284
REMARK  6 active torsions:
REMARK  status: ('A' for Active; 'I' for Inactive)
REMARK    1  A    between atoms: C_1  and  C_2 
REMARK    2  A    between atoms: C_6  and  O_10 
REMARK    3  A    between atoms: C_7  and  C_8 
REMARK    4  A    between atoms: C_15  and  O_21 
REMARK    5  A    between atoms: C_17  and  O_20 
REMARK    6  A    between atoms: C_18  and  O_19 
ROOT
ATOM      1  C   LIG d   1       9.883   6.249  -5.034  0.00  0.00    -0.027 A 
ATOM      2  C   LIG d   1       9.937   7.442  -4.322  0.00  0.00     0.037 A 
ATOM      3  C   LIG d   1       9.980   7.421  -2.914  0.00  0.00     0.037 A 
ATOM      4  C   LIG d   1       9.965   6.210  -2.236  0.00  0.00    -0.008 A 
ATOM      5  C   LIG d   1       9.909   5.016  -2.948  0.00  0.00     0.127 A 
ATOM      6  C   LIG d   1       9.867   5.033  -4.349  0.00  0.00     0.042 A 
ATOM      7  C   LIG d   1      10.041   8.698  -2.164  0.00  0.00     0.198 C 
ATOM      8  O   LIG d   1      10.329   8.706  -0.983  0.00  0.00    -0.286 OA
ATOM      9  C   LIG d   1       9.749   9.959  -2.869  0.00  0.00     0.082 A 
ATOM     10  C   LIG d   1       9.699   9.975  -4.282  0.00  0.00     0.078 A 
ATOM     11  C   LIG d   1       9.426  11.170  -4.951  0.00  0.00     0.132 A 
ATOM     12  C   LIG d   1       9.194  12.335  -4.225  0.00  0.00     0.026 A 
ATOM     13  C   LIG d   1       9.238  12.322  -2.845  0.00  0.00     0.163 A 
ATOM     14  C   LIG d   1       9.516  11.132  -2.156  0.00  0.00     0.170 A 
ATOM     15  C   LIG d   1       9.952   8.737  -5.035  0.00  0.00     0.198 C 
ATOM     16  O   LIG d   1      10.167   8.778  -6.232  0.00  0.00    -0.286 OA
ATOM     17  H   LIG d   1       9.997   6.194  -1.157  0.00  0.00     0.066 H 
ATOM     18  H   LIG d   1       8.980  13.257  -4.746  0.00  0.00     0.069 H 
ENDROOT
BRANCH   1  19
ATOM     19  C   LIG d   1       9.838   6.269  -6.540  0.00  0.00    -0.038 C 
ATOM     20  H   LIG d   1      10.754   5.830  -6.937  0.00  0.00     0.028 H 
ATOM     21  H   LIG d   1       8.980   5.692  -6.885  0.00  0.00     0.028 H 
ATOM     22  H   LIG d   1       9.747   7.298  -6.888  0.00  0.00     0.028 H 
ENDBRANCH   1  19
BRANCH   6  23
ATOM     23  C   LIG d   1       9.810   3.765  -5.101  0.00  0.00     0.075 C 
ATOM     24  O   LIG d   1       8.761   3.158  -5.189  0.00  0.00    -0.544 OA
ATOM     25  O   LIG d   1      10.919   3.280  -5.690  0.00  0.00    -0.544 OA
ENDBRANCH   6  23
BRANCH   5  26
ATOM     26  O   LIG d   1       9.893   3.834  -2.286  0.00  0.00    -0.506 OA
ATOM     27  H   LIG d   1      10.478   3.805  -1.517  0.00  0.00     0.292 HD
ENDBRANCH   5  26
BRANCH  11  28
ATOM     28  O   LIG d   1       9.380  11.194  -6.306  0.00  0.00    -0.506 OA
ATOM     29  H   LIG d   1       9.390  12.084  -6.685  0.00  0.00     0.292 HD
ENDBRANCH  11  28
BRANCH  14  30
ATOM     30  O   LIG d   1       9.557  11.125  -0.800  0.00  0.00    -0.503 OA
ATOM     31  H   LIG d   1       8.727  11.389  -0.380  0.00  0.00     0.292 HD
ENDBRANCH  14  30
BRANCH  13  32
ATOM     32  O   LIG d   1       9.011  13.466  -2.152  0.00  0.00    -0.503 OA
ATOM     33  H   LIG d   1       8.086  13.597  -1.900  0.00  0.00     0.292 HD
ENDBRANCH  13  32
TORSDOF 6
ENDMDL
MODEL 7
REMARK VINA RESULT:      -5.7      4.135      6.452
REMARK  6 active torsions:
REMARK  status: ('A' for Active; 'I' for Inactive)
REMARK    1  A    between atoms: C_1  and  C_2 
REMARK    2  A    between atoms: C_6  and  O_10 
REMARK    3  A    between atoms: C_7  and  C_8 
REMARK    4  A    between atoms: C_15  and  O_21 
REMARK    5  A    between atoms: C_17  and  O_20 
REMARK    6  A    between atoms: C_18  and  O_19 
ROOT
ATOM      1  C   LIG d   1      10.065   8.672  -4.606  0.00  0.00    -0.027 A 
ATOM      2  C   LIG d   1      10.096   7.301  -4.831  0.00  0.00     0.037 A 
ATOM      3  C   LIG d   1       9.779   6.789  -6.105  0.00  0.00     0.037 A 
ATOM      4  C   LIG d   1       9.433   7.652  -7.135  0.00  0.00    -0.008 A 
ATOM      5  C   LIG d   1       9.401   9.025  -6.909  0.00  0.00     0.127 A 
ATOM      6  C   LIG d   1       9.717   9.538  -5.643  0.00  0.00     0.042 A 
ATOM      7  C   LIG d   1       9.817   5.325  -6.336  0.00  0.00     0.198 C 
ATOM      8  O   LIG d   1       9.796   4.880  -7.467  0.00  0.00    -0.286 OA
ATOM      9  C   LIG d   1       9.882   4.417  -5.177  0.00  0.00     0.082 A 
ATOM     10  C   LIG d   1      10.193   4.935  -3.899  0.00  0.00     0.078 A 
ATOM     11  C   LIG d   1      10.258   4.075  -2.801  0.00  0.00     0.132 A 
ATOM     12  C   LIG d   1      10.007   2.716  -2.967  0.00  0.00     0.026 A 
ATOM     13  C   LIG d   1       9.699   2.207  -4.214  0.00  0.00     0.163 A 
ATOM     14  C   LIG d   1       9.634   3.055  -5.330  0.00  0.00     0.170 A 
ATOM     15  C   LIG d   1      10.462   6.373  -3.741  0.00  0.00     0.198 C 
ATOM     16  O   LIG d   1      10.974   6.794  -2.721  0.00  0.00    -0.286 OA
ATOM     17  H   LIG d   1       9.189   7.260  -8.111  0.00  0.00     0.066 H 
ATOM     18  H   LIG d   1      10.055   2.054  -2.115  0.00  0.00     0.069 H 
ENDROOT
BRANCH   1  19
ATOM     19  C   LIG d   1      10.405   9.223  -3.245  0.00  0.00    -0.038 C 
ATOM     20  H   LIG d   1       9.650   8.907  -2.525  0.00  0.00     0.028 H 
ATOM     21  H   LIG d   1      11.381   8.847  -2.935  0.00  0.00     0.028 H 
ATOM     22  H   LIG d   1      10.433  10.311  -3.290  0.00  0.00     0.028 H 
ENDBRANCH   1  19
BRANCH   6  23
ATOM     23  C   LIG d   1       9.683  10.994  -5.408  0.00  0.00     0.075 C 
ATOM     24  O   LIG d   1      10.534  11.709  -5.901  0.00  0.00    -0.544 OA
ATOM     25  O   LIG d   1       8.711  11.532  -4.648  0.00  0.00    -0.544 OA
ENDBRANCH   6  23
BRANCH   5  26
ATOM     26  O   LIG d   1       9.062   9.868  -7.915  0.00  0.00    -0.506 OA
ATOM     27  H   LIG d   1       8.969  10.791  -7.641  0.00  0.00     0.292 HD
ENDBRANCH   5  26
BRANCH  11  28
ATOM     28  O   LIG d   1      10.560   4.564  -1.572  0.00  0.00    -0.506 OA
ATOM     29  H   LIG d   1       9.908   4.346  -0.892  0.00  0.00     0.292 HD
ENDBRANCH  11  28
BRANCH  14  30
ATOM     30  O   LIG d   1       9.331   2.550  -6.551  0.00  0.00    -0.503 OA
ATOM     31  H   LIG d   1       9.229   3.222  -7.239  0.00  0.00     0.292 HD
ENDBRANCH  14  30
BRANCH  13  32
ATOM     32  O   LIG d   1       9.458   0.880  -4.360  0.00  0.00    -0.503 OA
ATOM     33  H   LIG d   1       9.819   0.502  -5.175  0.00  0.00     0.292 HD
ENDBRANCH  13  32
TORSDOF 6
ENDMDL
MODEL 8
REMARK VINA RESULT:      -5.6      3.300      6.721
REMARK  6 active torsions:
REMARK  status: ('A' for Active; 'I' for Inactive)
REMARK    1  A    between atoms: C_1  and  C_2 
REMARK    2  A    between atoms: C_6  and  O_10 
REMARK    3  A    between atoms: C_7  and  C_8 
REMARK    4  A    between atoms: C_15  and  O_21 
REMARK    5  A    between atoms: C_17  and  O_20 
REMARK    6  A    between atoms: C_18  and  O_19 
ROOT
ATOM      1  C   LIG d   1      10.475   8.882  -1.662  0.00  0.00    -0.027 A 
ATOM      2  C   LIG d   1      10.122   9.396  -2.904  0.00  0.00     0.037 A 
ATOM      3  C   LIG d   1      10.084   8.550  -4.031  0.00  0.00     0.037 A 
ATOM      4  C   LIG d   1      10.401   7.206  -3.903  0.00  0.00    -0.008 A 
ATOM      5  C   LIG d   1      10.756   6.691  -2.660  0.00  0.00     0.127 A 
ATOM      6  C   LIG d   1      10.794   7.529  -1.536  0.00  0.00     0.042 A 
ATOM      7  C   LIG d   1       9.703   9.108  -5.352  0.00  0.00     0.198 C 
ATOM      8  O   LIG d   1       9.420   8.368  -6.273  0.00  0.00    -0.286 OA
ATOM      9  C   LIG d   1       9.670  10.570  -5.531  0.00  0.00     0.082 A 
ATOM     10  C   LIG d   1       9.717  11.415  -4.399  0.00  0.00     0.078 A 
ATOM     11  C   LIG d   1       9.683  12.801  -4.568  0.00  0.00     0.132 A 
ATOM     12  C   LIG d   1       9.614  13.343  -5.849  0.00  0.00     0.026 A 
ATOM     13  C   LIG d   1       9.572  12.520  -6.957  0.00  0.00     0.163 A 
ATOM     14  C   LIG d   1       9.600  11.126  -6.806  0.00  0.00     0.170 A 
ATOM     15  C   LIG d   1       9.784  10.827  -3.052  0.00  0.00     0.198 C 
ATOM     16  O   LIG d   1       9.569  11.512  -2.070  0.00  0.00    -0.286 OA
ATOM     17  H   LIG d   1      10.371   6.559  -4.767  0.00  0.00     0.066 H 
ATOM     18  H   LIG d   1       9.591  14.416  -5.976  0.00  0.00     0.069 H 
ENDROOT
BRANCH   1  19
ATOM     19  C   LIG d   1      10.516   9.783  -0.455  0.00  0.00    -0.038 C 
ATOM     20  H   LIG d   1      11.551   9.935  -0.149  0.00  0.00     0.028 H 
ATOM     21  H   LIG d   1      10.068  10.745  -0.705  0.00  0.00     0.028 H 
ATOM     22  H   LIG d   1       9.959   9.323   0.361  0.00  0.00     0.028 H 
ENDBRANCH   1  19
BRANCH   6  23
ATOM     23  C   LIG d   1      11.169   6.980  -0.220  0.00  0.00     0.075 C 
ATOM     24  O   LIG d   1      10.366   6.328   0.418  0.00  0.00    -0.544 OA
ATOM     25  O   LIG d   1      12.402   7.200   0.276  0.00  0.00    -0.544 OA
ENDBRANCH   6  23
BRANCH   5  26
ATOM     26  O   LIG d   1      11.067   5.378  -2.535  0.00  0.00    -0.506 OA
ATOM     27  H   LIG d   1      12.016   5.197  -2.529  0.00  0.00     0.292 HD
ENDBRANCH   5  26
BRANCH  11  28
ATOM     28  O   LIG d   1       9.724  13.618  -3.486  0.00  0.00    -0.506 OA
ATOM     29  H   LIG d   1       8.853  13.834  -3.124  0.00  0.00     0.292 HD
ENDBRANCH  11  28
BRANCH  14  30
ATOM     30  O   LIG d   1       9.560  10.322  -7.898  0.00  0.00    -0.503 OA
ATOM     31  H   LIG d   1      10.424   9.983  -8.169  0.00  0.00     0.292 HD
ENDBRANCH  14  30
BRANCH  13  32
ATOM     32  O   LIG d   1       9.504  13.064  -8.199  0.00  0.00    -0.503 OA
ATOM     33  H   LIG d   1       9.629  14.023  -8.215  0.00  0.00     0.292 HD
ENDBRANCH  13  32
TORSDOF 6
ENDMDL
MODEL 9
REMARK VINA RESULT:      -5.6      4.413      7.370
REMARK  6 active torsions:
REMARK  status: ('A' for Active; 'I' for Inactive)
REMARK    1  A    between atoms: C_1  and  C_2 
REMARK    2  A    between atoms: C_6  and  O_10 
REMARK    3  A    between atoms: C_7  and  C_8 
REMARK    4  A    between atoms: C_15  and  O_21 
REMARK    5  A    between atoms: C_17  and  O_20 
REMARK    6  A    between atoms: C_18  and  O_19 
ROOT
ATOM      1  C   LIG d   1       9.973   6.457  -3.784  0.00  0.00    -0.027 A 
ATOM      2  C   LIG d   1       9.941   6.642  -5.161  0.00  0.00     0.037 A 
ATOM      3  C   LIG d   1       9.930   7.944  -5.698  0.00  0.00     0.037 A 
ATOM      4  C   LIG d   1       9.949   9.044  -4.853  0.00  0.00    -0.008 A 
ATOM      5  C   LIG d   1       9.980   8.861  -3.474  0.00  0.00     0.127 A 
ATOM      6  C   LIG d   1       9.991   7.566  -2.936  0.00  0.00     0.042 A 
ATOM      7  C   LIG d   1       9.899   8.130  -7.169  0.00  0.00     0.198 C 
ATOM      8  O   LIG d   1      10.141   9.216  -7.657  0.00  0.00    -0.286 OA
ATOM      9  C   LIG d   1       9.573   6.980  -8.030  0.00  0.00     0.082 A 
ATOM     10  C   LIG d   1       9.576   5.675  -7.487  0.00  0.00     0.078 A 
ATOM     11  C   LIG d   1       9.270   4.584  -8.304  0.00  0.00     0.132 A 
ATOM     12  C   LIG d   1       8.953   4.787  -9.644  0.00  0.00     0.026 A 
ATOM     13  C   LIG d   1       8.945   6.061 -10.177  0.00  0.00     0.163 A 
ATOM     14  C   LIG d   1       9.254   7.169  -9.373  0.00  0.00     0.170 A 
ATOM     15  C   LIG d   1       9.919   5.476  -6.070  0.00  0.00     0.198 C 
ATOM     16  O   LIG d   1      10.177   4.364  -5.650  0.00  0.00    -0.286 OA
ATOM     17  H   LIG d   1       9.940  10.043  -5.265  0.00  0.00     0.066 H 
ATOM     18  H   LIG d   1       8.714   3.941 -10.272  0.00  0.00     0.069 H 
ENDROOT
BRANCH   1  19
ATOM     19  C   LIG d   1       9.985   5.065  -3.207  0.00  0.00    -0.038 C 
ATOM     20  H   LIG d   1      10.515   4.396  -3.884  0.00  0.00     0.028 H 
ATOM     21  H   LIG d   1      10.489   5.078  -2.241  0.00  0.00     0.028 H 
ATOM     22  H   LIG d   1       8.960   4.717  -3.078  0.00  0.00     0.028 H 
ENDBRANCH   1  19
BRANCH   6  23
ATOM     23  C   LIG d   1      10.025   7.375  -1.474  0.00  0.00     0.075 C 
ATOM     24  O   LIG d   1       9.003   7.474  -0.825  0.00  0.00    -0.544 OA
ATOM     25  O   LIG d   1      11.189   7.091  -0.858  0.00  0.00    -0.544 OA
ENDBRANCH   6  23
BRANCH   5  26
ATOM     26  O   LIG d   1       9.997   9.936  -2.649  0.00  0.00    -0.506 OA
ATOM     27  H   LIG d   1      10.267  10.758  -3.079  0.00  0.00     0.292 HD
ENDBRANCH   5  26
BRANCH  11  28
ATOM     28  O   LIG d   1       9.276   3.329  -7.790  0.00  0.00    -0.506 OA
ATOM     29  H   LIG d   1      10.033   3.142  -7.218  0.00  0.00     0.292 HD
ENDBRANCH  11  28
BRANCH  14  30
ATOM     30  O   LIG d   1       9.244   8.418  -9.902  0.00  0.00    -0.503 OA
ATOM     31  H   LIG d   1       8.450   8.620 -10.415  0.00  0.00     0.292 HD
ENDBRANCH  14  30
BRANCH  13  32
ATOM     32  O   LIG d   1       8.635   6.243 -11.486  0.00  0.00    -0.503 OA
ATOM     33  H   LIG d   1       8.604   5.424 -12.000  0.00  0.00     0.292 HD
ENDBRANCH  13  32
TORSDOF 6
ENDMDL
MODEL 10
REMARK VINA RESULT:      -5.6      4.181      8.462
REMARK  6 active torsions:
REMARK  status: ('A' for Active; 'I' for Inactive)
REMARK    1  A    between atoms: C_1  and  C_2 
REMARK    2  A    between atoms: C_6  and  O_10 
REMARK    3  A    between atoms: C_7  and  C_8 
REMARK    4  A    between atoms: C_15  and  O_21 
REMARK    5  A    between atoms: C_17  and  O_20 
REMARK    6  A    between atoms: C_18  and  O_19 
ROOT
ATOM      1  C   LIG d   1       9.618   5.731  -7.649  0.00  0.00    -0.027 A 
ATOM      2  C   LIG d   1       9.595   6.400  -6.431  0.00  0.00     0.037 A 
ATOM      3  C   LIG d   1       9.565   7.808  -6.400  0.00  0.00     0.037 A 
ATOM      4  C   LIG d   1       9.562   8.529  -7.585  0.00  0.00    -0.008 A 
ATOM      5  C   LIG d   1       9.586   7.861  -8.805  0.00  0.00     0.127 A 
ATOM      6  C   LIG d   1       9.615   6.459  -8.840  0.00  0.00     0.042 A 
ATOM      7  C   LIG d   1       9.538   8.512  -5.095  0.00  0.00     0.198 C 
ATOM      8  O   LIG d   1       9.261   9.694  -5.039  0.00  0.00    -0.286 OA
ATOM      9  C   LIG d   1       9.849   7.759  -3.867  0.00  0.00     0.082 A 
ATOM     10  C   LIG d   1       9.886   6.347  -3.903  0.00  0.00     0.078 A 
ATOM     11  C   LIG d   1      10.177   5.632  -2.739  0.00  0.00     0.132 A 
ATOM     12  C   LIG d   1      10.440   6.313  -1.553  0.00  0.00     0.026 A 
ATOM     13  C   LIG d   1      10.409   7.694  -1.516  0.00  0.00     0.163 A 
ATOM     14  C   LIG d   1      10.113   8.428  -2.674  0.00  0.00     0.170 A 
ATOM     15  C   LIG d   1       9.600   5.641  -5.162  0.00  0.00     0.198 C 
ATOM     16  O   LIG d   1       9.375   4.445  -5.160  0.00  0.00    -0.286 OA
ATOM     17  H   LIG d   1       9.539   9.609  -7.562  0.00  0.00     0.066 H 
ATOM     18  H   LIG d   1      10.669   5.757  -0.655  0.00  0.00     0.069 H 
ENDROOT
BRANCH   1  19
ATOM     19  C   LIG d   1       9.649   4.225  -7.684  0.00  0.00    -0.038 C 
ATOM     20  H   LIG d   1       9.075   3.869  -8.539  0.00  0.00     0.028 H 
ATOM     21  H   LIG d   1      10.681   3.886  -7.774  0.00  0.00     0.028 H 
ATOM     22  H   LIG d   1       9.215   3.831  -6.765  0.00  0.00     0.028 H 
ENDBRANCH   1  19
BRANCH   6  23
ATOM     23  C   LIG d   1       9.639   5.753 -10.135  0.00  0.00     0.075 C 
ATOM     24  O   LIG d   1       8.611   5.606 -10.766  0.00  0.00    -0.544 OA
ATOM     25  O   LIG d   1      10.800   5.273 -10.619  0.00  0.00    -0.544 OA
ENDBRANCH   6  23
BRANCH   5  26
ATOM     26  O   LIG d   1       9.584   8.565  -9.963  0.00  0.00    -0.506 OA
ATOM     27  H   LIG d   1       8.986   8.213 -10.637  0.00  0.00     0.292 HD
ENDBRANCH   5  26
BRANCH  11  28
ATOM     28  O   LIG d   1      10.211   4.277  -2.765  0.00  0.00    -0.506 OA
ATOM     29  H   LIG d   1      10.705   3.910  -3.511  0.00  0.00     0.292 HD
ENDBRANCH  11  28
BRANCH  14  30
ATOM     30  O   LIG d   1      10.084   9.783  -2.632  0.00  0.00    -0.503 OA
ATOM     31  H   LIG d   1       9.313  10.173  -3.066  0.00  0.00     0.292 HD
ENDBRANCH  14  30
BRANCH  13  32
ATOM     32  O   LIG d   1      10.666   8.343  -0.353  0.00  0.00    -0.503 OA
ATOM     33  H   LIG d   1       9.904   8.816   0.010  0.00  0.00     0.292 HD
ENDBRANCH  13  32
TORSDOF 6
ENDMDL
