MODEL 1
REMARK VINA RESULT:      -8.5      0.000      0.000
REMARK  3 active torsions:
REMARK  status: ('A' for Active; 'I' for Inactive)
REMARK    1  A    between atoms: C_10  and  C_11 
REMARK    2  A    between atoms: N_30  and  C_33 
REMARK    3  A    between atoms: C_33  and  C_34 
ROOT
ATOM      1  C   LIG d   1       7.545   1.141  -8.970  0.00  0.00     0.093 C 
ATOM      2  H   LIG d   1       8.135   0.516  -9.641  0.00  0.00     0.062 H 
ATOM      3  C   LIG d   1       8.225   2.480  -8.788  0.00  0.00     0.046 A 
ATOM      4  C   LIG d   1       8.849   2.849  -7.648  0.00  0.00    -0.015 A 
ATOM      5  C   LIG d   1       9.374   4.183  -7.866  0.00  0.00     0.003 A 
ATOM      6  C   LIG d   1      10.102   5.059  -7.056  0.00  0.00    -0.052 A 
ATOM      7  C   LIG d   1      10.438   6.273  -7.601  0.00  0.00    -0.061 A 
ATOM      8  C   LIG d   1      10.080   6.626  -8.892  0.00  0.00    -0.060 A 
ATOM      9  C   LIG d   1       9.360   5.778  -9.716  0.00  0.00    -0.038 A 
ATOM     10  C   LIG d   1       9.004   4.537  -9.189  0.00  0.00     0.047 A 
ATOM     11  N   LIG d   1       8.312   3.485  -9.714  0.00  0.00    -0.356 N 
ATOM     12  H   LIG d   1       7.938   3.453 -10.609  0.00  0.00     0.166 HD
ATOM     13  C   LIG d   1       8.951   1.997  -6.410  0.00  0.00     0.002 C 
ATOM     14  C   LIG d   1       8.642   0.540  -6.784  0.00  0.00     0.107 A 
ATOM     15  H   LIG d   1       9.481   0.135  -7.350  0.00  0.00     0.060 H 
ATOM     16  N   LIG d   1       7.455   0.506  -7.638  0.00  0.00    -0.276 N 
ATOM     17  C   LIG d   1       6.308  -0.071  -7.273  0.00  0.00     0.234 A 
ATOM     18  O   LIG d   1       5.364   0.019  -8.029  0.00  0.00    -0.274 OA
ATOM     19  C   LIG d   1       6.109  -0.818  -5.995  0.00  0.00     0.092 A 
ATOM     20  N   LIG d   1       7.324  -0.871  -5.198  0.00  0.00    -0.287 N 
ATOM     21  C   LIG d   1       8.461  -0.270  -5.541  0.00  0.00     0.237 A 
ATOM     22  O   LIG d   1       9.414  -0.393  -4.800  0.00  0.00    -0.274 OA
ATOM     23  H   LIG d   1      10.386   4.793  -6.048  0.00  0.00     0.062 H 
ATOM     24  H   LIG d   1      11.001   6.976  -7.004  0.00  0.00     0.062 H 
ATOM     25  H   LIG d   1      10.371   7.595  -9.268  0.00  0.00     0.062 H 
ATOM     26  H   LIG d   1       9.086   6.065 -10.720  0.00  0.00     0.064 H 
ATOM     27  H   LIG d   1       8.234   2.344  -5.668  0.00  0.00     0.034 H 
ATOM     28  H   LIG d   1       9.960   2.061  -6.002  0.00  0.00     0.034 H 
ATOM     29  H   LIG d   1       5.326  -0.329  -5.416  0.00  0.00     0.056 H 
ATOM     30  H   LIG d   1       5.794  -1.836  -6.225  0.00  0.00     0.056 H 
ENDROOT
BRANCH   1  31
ATOM     31  C   LIG d   1       6.164   1.341  -9.537  0.00  0.00    -0.013 A 
ATOM     32  C   LIG d   1       5.705   0.525 -10.584  0.00  0.00    -0.013 A 
ATOM     33  C   LIG d   1       6.509  -0.498 -11.118  0.00  0.00    -0.054 A 
ATOM     34  C   LIG d   1       4.401   0.724 -11.102  0.00  0.00    -0.018 A 
ATOM     35  C   LIG d   1       6.028  -1.274 -12.128  0.00  0.00    -0.061 A 
ATOM     36  H   LIG d   1       7.502  -0.665 -10.731  0.00  0.00     0.062 H 
ATOM     37  C   LIG d   1       4.748  -1.074 -12.640  0.00  0.00    -0.061 A 
ATOM     38  H   LIG d   1       6.649  -2.057 -12.538  0.00  0.00     0.062 H 
ATOM     39  C   LIG d   1       3.940  -0.097 -12.145  0.00  0.00    -0.054 A 
ATOM     40  H   LIG d   1       4.391  -1.703 -13.442  0.00  0.00     0.062 H 
ATOM     41  H   LIG d   1       2.950   0.047 -12.553  0.00  0.00     0.062 H 
ATOM     42  C   LIG d   1       3.595   1.743 -10.565  0.00  0.00    -0.054 A 
ATOM     43  C   LIG d   1       4.075   2.518  -9.554  0.00  0.00    -0.061 A 
ATOM     44  H   LIG d   1       2.601   1.909 -10.952  0.00  0.00     0.062 H 
ATOM     45  C   LIG d   1       5.355   2.318  -9.042  0.00  0.00    -0.056 A 
ATOM     46  H   LIG d   1       3.454   3.301  -9.143  0.00  0.00     0.062 H 
ATOM     47  H   LIG d   1       5.712   2.947  -8.240  0.00  0.00     0.062 H 
ENDBRANCH   1  31
BRANCH  20  48
ATOM     48  C   LIG d   1       7.294  -1.630  -3.945  0.00  0.00     0.043 C 
ATOM     49  H   LIG d   1       7.391  -2.694  -4.162  0.00  0.00     0.051 H 
ATOM     50  H   LIG d   1       8.121  -1.313  -3.310  0.00  0.00     0.051 H 
BRANCH  48  51
ATOM     51  C   LIG d   1       5.989  -1.378  -3.236  0.00  0.00     0.005 A 
ATOM     52  C   LIG d   1       5.722  -0.130  -2.700  0.00  0.00     0.128 A 
ATOM     53  C   LIG d   1       4.520   0.101  -2.052  0.00  0.00    -0.026 A 
ATOM     54  F   LIG d   1       6.631   0.862  -2.812  0.00  0.00    -0.205 F 
ATOM     55  C   LIG d   1       3.593  -0.916  -1.933  0.00  0.00    -0.059 A 
ATOM     56  H   LIG d   1       4.309   1.076  -1.637  0.00  0.00     0.065 H 
ATOM     57  C   LIG d   1       3.863  -2.164  -2.465  0.00  0.00    -0.061 A 
ATOM     58  H   LIG d   1       2.656  -0.737  -1.424  0.00  0.00     0.062 H 
ATOM     59  C   LIG d   1       5.060  -2.394  -3.116  0.00  0.00    -0.054 A 
ATOM     60  H   LIG d   1       3.137  -2.958  -2.371  0.00  0.00     0.062 H 
ATOM     61  H   LIG d   1       5.270  -3.369  -3.530  0.00  0.00     0.062 H 
ENDBRANCH  48  51
ENDBRANCH  20  48
TORSDOF 3
ENDMDL
MODEL 2
REMARK VINA RESULT:      -8.5      3.540      7.781
REMARK  3 active torsions:
REMARK  status: ('A' for Active; 'I' for Inactive)
REMARK    1  A    between atoms: C_10  and  C_11 
REMARK    2  A    between atoms: N_30  and  C_33 
REMARK    3  A    between atoms: C_33  and  C_34 
ROOT
ATOM      1  C   LIG d   1       6.760  -0.625  -6.017  0.00  0.00     0.093 C 
ATOM      2  H   LIG d   1       7.218   0.273  -5.600  0.00  0.00     0.062 H 
ATOM      3  C   LIG d   1       7.837  -1.581  -6.479  0.00  0.00     0.046 A 
ATOM      4  C   LIG d   1       8.116  -1.818  -7.779  0.00  0.00    -0.015 A 
ATOM      5  C   LIG d   1       9.201  -2.777  -7.812  0.00  0.00     0.003 A 
ATOM      6  C   LIG d   1       9.899  -3.383  -8.860  0.00  0.00    -0.052 A 
ATOM      7  C   LIG d   1      10.891  -4.267  -8.516  0.00  0.00    -0.061 A 
ATOM      8  C   LIG d   1      11.198  -4.553  -7.196  0.00  0.00    -0.060 A 
ATOM      9  C   LIG d   1      10.524  -3.967  -6.138  0.00  0.00    -0.038 A 
ATOM     10  C   LIG d   1       9.510  -3.065  -6.457  0.00  0.00     0.047 A 
ATOM     11  N   LIG d   1       8.666  -2.325  -5.682  0.00  0.00    -0.356 N 
ATOM     12  H   LIG d   1       8.655  -2.324  -4.711  0.00  0.00     0.166 HD
ATOM     13  C   LIG d   1       7.400  -1.178  -8.940  0.00  0.00     0.002 C 
ATOM     14  C   LIG d   1       6.648   0.062  -8.437  0.00  0.00     0.107 A 
ATOM     15  H   LIG d   1       7.371   0.848  -8.217  0.00  0.00     0.060 H 
ATOM     16  N   LIG d   1       5.946  -0.272  -7.199  0.00  0.00    -0.276 N 
ATOM     17  C   LIG d   1       4.615  -0.269  -7.090  0.00  0.00     0.234 A 
ATOM     18  O   LIG d   1       4.133  -0.630  -6.037  0.00  0.00    -0.274 OA
ATOM     19  C   LIG d   1       3.680   0.147  -8.177  0.00  0.00     0.092 A 
ATOM     20  N   LIG d   1       4.388   0.580  -9.371  0.00  0.00    -0.287 N 
ATOM     21  C   LIG d   1       5.714   0.548  -9.498  0.00  0.00     0.237 A 
ATOM     22  O   LIG d   1       6.193   0.945 -10.539  0.00  0.00    -0.274 OA
ATOM     23  H   LIG d   1       9.668  -3.167  -9.893  0.00  0.00     0.062 H 
ATOM     24  H   LIG d   1      11.453  -4.754  -9.300  0.00  0.00     0.062 H 
ATOM     25  H   LIG d   1      11.988  -5.257  -6.984  0.00  0.00     0.062 H 
ATOM     26  H   LIG d   1      10.772  -4.198  -5.113  0.00  0.00     0.064 H 
ATOM     27  H   LIG d   1       6.692  -1.886  -9.368  0.00  0.00     0.034 H 
ATOM     28  H   LIG d   1       8.124  -0.881  -9.700  0.00  0.00     0.034 H 
ATOM     29  H   LIG d   1       3.036  -0.694  -8.433  0.00  0.00     0.056 H 
ATOM     30  H   LIG d   1       3.062   0.970  -7.818  0.00  0.00     0.056 H 
ENDROOT
BRANCH   1  31
ATOM     31  C   LIG d   1       5.896  -1.290  -4.977  0.00  0.00    -0.013 A 
ATOM     32  C   LIG d   1       5.497  -0.581  -3.832  0.00  0.00    -0.013 A 
ATOM     33  C   LIG d   1       5.878   0.757  -3.632  0.00  0.00    -0.054 A 
ATOM     34  C   LIG d   1       4.679  -1.221  -2.868  0.00  0.00    -0.018 A 
ATOM     35  C   LIG d   1       5.467   1.415  -2.514  0.00  0.00    -0.061 A 
ATOM     36  H   LIG d   1       6.497   1.260  -4.360  0.00  0.00     0.062 H 
ATOM     37  C   LIG d   1       4.668   0.783  -1.562  0.00  0.00    -0.061 A 
ATOM     38  H   LIG d   1       5.765   2.442  -2.361  0.00  0.00     0.062 H 
ATOM     39  C   LIG d   1       4.275  -0.510  -1.725  0.00  0.00    -0.054 A 
ATOM     40  H   LIG d   1       4.356   1.327  -0.683  0.00  0.00     0.062 H 
ATOM     41  H   LIG d   1       3.656  -0.987  -0.979  0.00  0.00     0.062 H 
ATOM     42  C   LIG d   1       4.293  -2.557  -3.070  0.00  0.00    -0.054 A 
ATOM     43  C   LIG d   1       4.703  -3.214  -4.190  0.00  0.00    -0.061 A 
ATOM     44  H   LIG d   1       3.674  -3.059  -2.342  0.00  0.00     0.062 H 
ATOM     45  C   LIG d   1       5.502  -2.582  -5.140  0.00  0.00    -0.056 A 
ATOM     46  H   LIG d   1       4.406  -4.241  -4.343  0.00  0.00     0.062 H 
ATOM     47  H   LIG d   1       5.814  -3.127  -6.020  0.00  0.00     0.062 H 
ENDBRANCH   1  31
BRANCH  20  48
ATOM     48  C   LIG d   1       3.598   1.079 -10.499  0.00  0.00     0.043 C 
ATOM     49  H   LIG d   1       2.779   1.694 -10.126  0.00  0.00     0.051 H 
ATOM     50  H   LIG d   1       4.234   1.680 -11.150  0.00  0.00     0.051 H 
BRANCH  48  51
ATOM     51  C   LIG d   1       3.040  -0.085 -11.275  0.00  0.00     0.005 A 
ATOM     52  C   LIG d   1       1.806  -0.614 -10.939  0.00  0.00     0.128 A 
ATOM     53  C   LIG d   1       1.293  -1.682 -11.656  0.00  0.00    -0.026 A 
ATOM     54  F   LIG d   1       1.101  -0.085  -9.916  0.00  0.00    -0.205 F 
ATOM     55  C   LIG d   1       2.018  -2.226 -12.699  0.00  0.00    -0.059 A 
ATOM     56  H   LIG d   1       0.328  -2.093 -11.397  0.00  0.00     0.065 H 
ATOM     57  C   LIG d   1       3.253  -1.700 -13.030  0.00  0.00    -0.061 A 
ATOM     58  H   LIG d   1       1.620  -3.062 -13.256  0.00  0.00     0.062 H 
ATOM     59  C   LIG d   1       3.764  -0.631 -12.319  0.00  0.00    -0.054 A 
ATOM     60  H   LIG d   1       3.819  -2.125 -13.846  0.00  0.00     0.062 H 
ATOM     61  H   LIG d   1       4.729  -0.222 -12.579  0.00  0.00     0.062 H 
ENDBRANCH  48  51
ENDBRANCH  20  48
TORSDOF 3
ENDMDL
MODEL 3
REMARK VINA RESULT:      -8.4      2.628      7.519
REMARK  3 active torsions:
REMARK  status: ('A' for Active; 'I' for Inactive)
REMARK    1  A    between atoms: C_10  and  C_11 
REMARK    2  A    between atoms: N_30  and  C_33 
REMARK    3  A    between atoms: C_33  and  C_34 
ROOT
ATOM      1  C   LIG d   1       4.851  -1.533  -7.324  0.00  0.00     0.093 C 
ATOM      2  H   LIG d   1       5.074  -2.543  -6.977  0.00  0.00     0.062 H 
ATOM      3  C   LIG d   1       4.110  -1.596  -8.641  0.00  0.00     0.046 A 
ATOM      4  C   LIG d   1       4.665  -1.258  -9.825  0.00  0.00    -0.015 A 
ATOM      5  C   LIG d   1       3.650  -1.457 -10.840  0.00  0.00     0.003 A 
ATOM      6  C   LIG d   1       3.649  -1.276 -12.226  0.00  0.00    -0.052 A 
ATOM      7  C   LIG d   1       2.482  -1.568 -12.889  0.00  0.00    -0.061 A 
ATOM      8  C   LIG d   1       1.352  -2.020 -12.226  0.00  0.00    -0.060 A 
ATOM      9  C   LIG d   1       1.326  -2.207 -10.855  0.00  0.00    -0.038 A 
ATOM     10  C   LIG d   1       2.497  -1.920 -10.156  0.00  0.00     0.047 A 
ATOM     11  N   LIG d   1       2.812  -1.991  -8.831  0.00  0.00    -0.356 N 
ATOM     12  H   LIG d   1       2.209  -2.279  -8.127  0.00  0.00     0.166 HD
ATOM     13  C   LIG d   1       6.080  -0.772 -10.002  0.00  0.00     0.002 C 
ATOM     14  C   LIG d   1       6.889  -1.132  -8.748  0.00  0.00     0.107 A 
ATOM     15  H   LIG d   1       7.069  -2.207  -8.741  0.00  0.00     0.060 H 
ATOM     16  N   LIG d   1       6.108  -0.792  -7.559  0.00  0.00    -0.276 N 
ATOM     17  C   LIG d   1       6.480   0.145  -6.685  0.00  0.00     0.234 A 
ATOM     18  O   LIG d   1       5.724   0.397  -5.770  0.00  0.00    -0.274 OA
ATOM     19  C   LIG d   1       7.763   0.906  -6.757  0.00  0.00     0.092 A 
ATOM     20  N   LIG d   1       8.583   0.489  -7.883  0.00  0.00    -0.287 N 
ATOM     21  C   LIG d   1       8.204  -0.422  -8.777  0.00  0.00     0.237 A 
ATOM     22  O   LIG d   1       8.978  -0.698  -9.669  0.00  0.00    -0.274 OA
ATOM     23  H   LIG d   1       4.524  -0.925 -12.752  0.00  0.00     0.062 H 
ATOM     24  H   LIG d   1       2.444  -1.441 -13.961  0.00  0.00     0.062 H 
ATOM     25  H   LIG d   1       0.462  -2.233 -12.798  0.00  0.00     0.062 H 
ATOM     26  H   LIG d   1       0.439  -2.560 -10.350  0.00  0.00     0.064 H 
ATOM     27  H   LIG d   1       6.080   0.309 -10.139  0.00  0.00     0.034 H 
ATOM     28  H   LIG d   1       6.527  -1.250 -10.874  0.00  0.00     0.034 H 
ATOM     29  H   LIG d   1       7.540   1.968  -6.856  0.00  0.00     0.056 H 
ATOM     30  H   LIG d   1       8.323   0.747  -5.835  0.00  0.00     0.056 H 
ENDROOT
BRANCH   1  31
ATOM     31  C   LIG d   1       4.014  -0.812  -6.299  0.00  0.00    -0.013 A 
ATOM     32  C   LIG d   1       3.958  -1.282  -4.977  0.00  0.00    -0.013 A 
ATOM     33  C   LIG d   1       4.682  -2.418  -4.574  0.00  0.00    -0.054 A 
ATOM     34  C   LIG d   1       3.170  -0.588  -4.025  0.00  0.00    -0.018 A 
ATOM     35  C   LIG d   1       4.608  -2.841  -3.282  0.00  0.00    -0.061 A 
ATOM     36  H   LIG d   1       5.290  -2.955  -5.287  0.00  0.00     0.062 H 
ATOM     37  C   LIG d   1       3.828  -2.161  -2.348  0.00  0.00    -0.061 A 
ATOM     38  H   LIG d   1       5.163  -3.716  -2.977  0.00  0.00     0.062 H 
ATOM     39  C   LIG d   1       3.119  -1.055  -2.700  0.00  0.00    -0.054 A 
ATOM     40  H   LIG d   1       3.787  -2.518  -1.329  0.00  0.00     0.062 H 
ATOM     41  H   LIG d   1       2.518  -0.539  -1.965  0.00  0.00     0.062 H 
ATOM     42  C   LIG d   1       2.451   0.551  -4.425  0.00  0.00    -0.054 A 
ATOM     43  C   LIG d   1       2.525   0.974  -5.717  0.00  0.00    -0.061 A 
ATOM     44  H   LIG d   1       1.843   1.087  -3.713  0.00  0.00     0.062 H 
ATOM     45  C   LIG d   1       3.305   0.295  -6.651  0.00  0.00    -0.056 A 
ATOM     46  H   LIG d   1       1.971   1.849  -6.023  0.00  0.00     0.062 H 
ATOM     47  H   LIG d   1       3.347   0.652  -7.670  0.00  0.00     0.062 H 
ENDBRANCH   1  31
BRANCH  20  48
ATOM     48  C   LIG d   1       9.903   1.105  -8.042  0.00  0.00     0.043 C 
ATOM     49  H   LIG d   1      10.515   0.884  -7.168  0.00  0.00     0.051 H 
ATOM     50  H   LIG d   1      10.385   0.706  -8.933  0.00  0.00     0.051 H 
BRANCH  48  51
ATOM     51  C   LIG d   1       9.745   2.597  -8.180  0.00  0.00     0.005 A 
ATOM     52  C   LIG d   1       9.334   3.142  -9.385  0.00  0.00     0.128 A 
ATOM     53  C   LIG d   1       9.187   4.513  -9.509  0.00  0.00    -0.026 A 
ATOM     54  F   LIG d   1       9.074   2.335 -10.436  0.00  0.00    -0.205 F 
ATOM     55  C   LIG d   1       9.460   5.337  -8.435  0.00  0.00    -0.059 A 
ATOM     56  H   LIG d   1       8.863   4.939 -10.448  0.00  0.00     0.065 H 
ATOM     57  C   LIG d   1       9.875   4.793  -7.234  0.00  0.00    -0.061 A 
ATOM     58  H   LIG d   1       9.349   6.408  -8.533  0.00  0.00     0.062 H 
ATOM     59  C   LIG d   1      10.018   3.424  -7.106  0.00  0.00    -0.054 A 
ATOM     60  H   LIG d   1      10.088   5.438  -6.394  0.00  0.00     0.062 H 
ATOM     61  H   LIG d   1      10.343   3.000  -6.168  0.00  0.00     0.062 H 
ENDBRANCH  48  51
ENDBRANCH  20  48
TORSDOF 3
ENDMDL
MODEL 4
REMARK VINA RESULT:      -8.4      4.903      8.292
REMARK  3 active torsions:
REMARK  status: ('A' for Active; 'I' for Inactive)
REMARK    1  A    between atoms: C_10  and  C_11 
REMARK    2  A    between atoms: N_30  and  C_33 
REMARK    3  A    between atoms: C_33  and  C_34 
ROOT
ATOM      1  C   LIG d   1       4.152  -3.193  -6.235  0.00  0.00     0.093 C 
ATOM      2  H   LIG d   1       3.258  -3.193  -5.610  0.00  0.00     0.062 H 
ATOM      3  C   LIG d   1       3.796  -2.754  -7.639  0.00  0.00     0.046 A 
ATOM      4  C   LIG d   1       3.759  -3.595  -8.695  0.00  0.00    -0.015 A 
ATOM      5  C   LIG d   1       3.375  -2.807  -9.849  0.00  0.00     0.003 A 
ATOM      6  C   LIG d   1       3.176  -3.132 -11.194  0.00  0.00    -0.052 A 
ATOM      7  C   LIG d   1       2.809  -2.108 -12.032  0.00  0.00    -0.061 A 
ATOM      8  C   LIG d   1       2.641  -0.810 -11.578  0.00  0.00    -0.060 A 
ATOM      9  C   LIG d   1       2.832  -0.460 -10.253  0.00  0.00    -0.038 A 
ATOM     10  C   LIG d   1       3.204  -1.480  -9.378  0.00  0.00     0.047 A 
ATOM     11  N   LIG d   1       3.467  -1.487  -8.040  0.00  0.00    -0.356 N 
ATOM     12  H   LIG d   1       3.426  -0.711  -7.458  0.00  0.00     0.166 HD
ATOM     13  C   LIG d   1       4.068  -5.069  -8.631  0.00  0.00     0.002 C 
ATOM     14  C   LIG d   1       3.995  -5.528  -7.168  0.00  0.00     0.107 A 
ATOM     15  H   LIG d   1       2.951  -5.550  -6.857  0.00  0.00     0.060 H 
ATOM     16  N   LIG d   1       4.702  -4.562  -6.327  0.00  0.00    -0.276 N 
ATOM     17  C   LIG d   1       5.808  -4.862  -5.642  0.00  0.00     0.234 A 
ATOM     18  O   LIG d   1       6.354  -3.968  -5.030  0.00  0.00    -0.274 OA
ATOM     19  C   LIG d   1       6.419  -6.223  -5.579  0.00  0.00     0.092 A 
ATOM     20  N   LIG d   1       5.651  -7.202  -6.332  0.00  0.00    -0.287 N 
ATOM     21  C   LIG d   1       4.566  -6.904  -7.044  0.00  0.00     0.237 A 
ATOM     22  O   LIG d   1       4.002  -7.806  -7.624  0.00  0.00    -0.274 OA
ATOM     23  H   LIG d   1       3.303  -4.141 -11.557  0.00  0.00     0.062 H 
ATOM     24  H   LIG d   1       2.646  -2.321 -13.078  0.00  0.00     0.062 H 
ATOM     25  H   LIG d   1       2.353  -0.044 -12.282  0.00  0.00     0.062 H 
ATOM     26  H   LIG d   1       2.698   0.556  -9.911  0.00  0.00     0.064 H 
ATOM     27  H   LIG d   1       5.068  -5.249  -9.022  0.00  0.00     0.034 H 
ATOM     28  H   LIG d   1       3.339  -5.623  -9.223  0.00  0.00     0.034 H 
ATOM     29  H   LIG d   1       7.429  -6.178  -5.984  0.00  0.00     0.056 H 
ATOM     30  H   LIG d   1       6.469  -6.542  -4.538  0.00  0.00     0.056 H 
ENDROOT
BRANCH   1  31
ATOM     31  C   LIG d   1       5.185  -2.263  -5.654  0.00  0.00    -0.013 A 
ATOM     32  C   LIG d   1       4.980  -1.680  -4.393  0.00  0.00    -0.013 A 
ATOM     33  C   LIG d   1       3.824  -1.954  -3.641  0.00  0.00    -0.054 A 
ATOM     34  C   LIG d   1       5.964  -0.812  -3.859  0.00  0.00    -0.018 A 
ATOM     35  C   LIG d   1       3.663  -1.377  -2.419  0.00  0.00    -0.061 A 
ATOM     36  H   LIG d   1       3.067  -2.618  -4.032  0.00  0.00     0.062 H 
ATOM     37  C   LIG d   1       4.629  -0.518  -1.897  0.00  0.00    -0.061 A 
ATOM     38  H   LIG d   1       2.772  -1.587  -1.845  0.00  0.00     0.062 H 
ATOM     39  C   LIG d   1       5.762  -0.234  -2.595  0.00  0.00    -0.054 A 
ATOM     40  H   LIG d   1       4.476  -0.072  -0.926  0.00  0.00     0.062 H 
ATOM     41  H   LIG d   1       6.502   0.434  -2.178  0.00  0.00     0.062 H 
ATOM     42  C   LIG d   1       7.122  -0.541  -4.608  0.00  0.00    -0.054 A 
ATOM     43  C   LIG d   1       7.285  -1.121  -5.830  0.00  0.00    -0.061 A 
ATOM     44  H   LIG d   1       7.880   0.121  -4.217  0.00  0.00     0.062 H 
ATOM     45  C   LIG d   1       6.319  -1.978  -6.351  0.00  0.00    -0.056 A 
ATOM     46  H   LIG d   1       8.175  -0.911  -6.404  0.00  0.00     0.062 H 
ATOM     47  H   LIG d   1       6.472  -2.425  -7.322  0.00  0.00     0.062 H 
ENDBRANCH   1  31
BRANCH  20  48
ATOM     48  C   LIG d   1       6.098  -8.598  -6.307  0.00  0.00     0.043 C 
ATOM     49  H   LIG d   1       5.573  -9.161  -7.078  0.00  0.00     0.051 H 
ATOM     50  H   LIG d   1       7.170  -8.638  -6.493  0.00  0.00     0.051 H 
BRANCH  48  51
ATOM     51  C   LIG d   1       5.798  -9.195  -4.957  0.00  0.00     0.005 A 
ATOM     52  C   LIG d   1       6.822  -9.403  -4.048  0.00  0.00     0.128 A 
ATOM     53  C   LIG d   1       6.544  -9.949  -2.807  0.00  0.00    -0.026 A 
ATOM     54  F   LIG d   1       8.090  -9.069  -4.372  0.00  0.00    -0.205 F 
ATOM     55  C   LIG d   1       5.248 -10.295  -2.478  0.00  0.00    -0.059 A 
ATOM     56  H   LIG d   1       7.342 -10.108  -2.096  0.00  0.00     0.065 H 
ATOM     57  C   LIG d   1       4.227 -10.092  -3.388  0.00  0.00    -0.061 A 
ATOM     58  H   LIG d   1       5.032 -10.725  -1.511  0.00  0.00     0.062 H 
ATOM     59  C   LIG d   1       4.502  -9.543  -4.627  0.00  0.00    -0.054 A 
ATOM     60  H   LIG d   1       3.213 -10.363  -3.131  0.00  0.00     0.062 H 
ATOM     61  H   LIG d   1       3.703  -9.385  -5.336  0.00  0.00     0.062 H 
ENDBRANCH  48  51
ENDBRANCH  20  48
TORSDOF 3
ENDMDL
MODEL 5
REMARK VINA RESULT:      -8.1      4.770      7.226
REMARK  3 active torsions:
REMARK  status: ('A' for Active; 'I' for Inactive)
REMARK    1  A    between atoms: C_10  and  C_11 
REMARK    2  A    between atoms: N_30  and  C_33 
REMARK    3  A    between atoms: C_33  and  C_34 
ROOT
ATOM      1  C   LIG d   1       6.210  -2.553  -5.957  0.00  0.00     0.093 C 
ATOM      2  H   LIG d   1       5.892  -2.124  -6.907  0.00  0.00     0.062 H 
ATOM      3  C   LIG d   1       7.678  -2.266  -5.731  0.00  0.00     0.046 A 
ATOM      4  C   LIG d   1       8.643  -3.207  -5.820  0.00  0.00    -0.015 A 
ATOM      5  C   LIG d   1       9.904  -2.547  -5.547  0.00  0.00     0.003 A 
ATOM      6  C   LIG d   1      11.223  -3.006  -5.499  0.00  0.00    -0.052 A 
ATOM      7  C   LIG d   1      12.192  -2.080  -5.200  0.00  0.00    -0.061 A 
ATOM      8  C   LIG d   1      11.890  -0.751  -4.955  0.00  0.00    -0.060 A 
ATOM      9  C   LIG d   1      10.593  -0.269  -4.995  0.00  0.00    -0.038 A 
ATOM     10  C   LIG d   1       9.588  -1.187  -5.297  0.00  0.00     0.047 A 
ATOM     11  N   LIG d   1       8.235  -1.055  -5.417  0.00  0.00    -0.356 N 
ATOM     12  H   LIG d   1       7.741  -0.228  -5.299  0.00  0.00     0.166 HD
ATOM     13  C   LIG d   1       8.401  -4.658  -6.145  0.00  0.00     0.002 C 
ATOM     14  C   LIG d   1       7.006  -4.800  -6.771  0.00  0.00     0.107 A 
ATOM     15  H   LIG d   1       7.031  -4.391  -7.782  0.00  0.00     0.060 H 
ATOM     16  N   LIG d   1       6.047  -4.022  -5.987  0.00  0.00    -0.276 N 
ATOM     17  C   LIG d   1       5.039  -4.576  -5.310  0.00  0.00     0.234 A 
ATOM     18  O   LIG d   1       4.343  -3.846  -4.635  0.00  0.00    -0.274 OA
ATOM     19  C   LIG d   1       4.711  -6.032  -5.324  0.00  0.00     0.092 A 
ATOM     20  N   LIG d   1       5.605  -6.785  -6.190  0.00  0.00    -0.287 N 
ATOM     21  C   LIG d   1       6.632  -6.245  -6.843  0.00  0.00     0.237 A 
ATOM     22  O   LIG d   1       7.303  -6.971  -7.545  0.00  0.00    -0.274 OA
ATOM     23  H   LIG d   1      11.470  -4.040  -5.690  0.00  0.00     0.062 H 
ATOM     24  H   LIG d   1      13.224  -2.398  -5.156  0.00  0.00     0.062 H 
ATOM     25  H   LIG d   1      12.692  -0.067  -4.723  0.00  0.00     0.062 H 
ATOM     26  H   LIG d   1      10.370   0.770  -4.801  0.00  0.00     0.064 H 
ATOM     27  H   LIG d   1       8.453  -5.250  -5.232  0.00  0.00     0.034 H 
ATOM     28  H   LIG d   1       9.154  -5.008  -6.851  0.00  0.00     0.034 H 
ATOM     29  H   LIG d   1       4.788  -6.424  -4.310  0.00  0.00     0.056 H 
ATOM     30  H   LIG d   1       3.688  -6.162  -5.677  0.00  0.00     0.056 H 
ENDROOT
BRANCH   1  31
ATOM     31  C   LIG d   1       5.396  -1.970  -4.831  0.00  0.00    -0.013 A 
ATOM     32  C   LIG d   1       4.342  -1.084  -5.108  0.00  0.00    -0.013 A 
ATOM     33  C   LIG d   1       4.013  -0.730  -6.429  0.00  0.00    -0.054 A 
ATOM     34  C   LIG d   1       3.583  -0.549  -4.037  0.00  0.00    -0.018 A 
ATOM     35  C   LIG d   1       2.981   0.126  -6.659  0.00  0.00    -0.061 A 
ATOM     36  H   LIG d   1       4.579  -1.133  -7.255  0.00  0.00     0.062 H 
ATOM     37  C   LIG d   1       2.239   0.657  -5.605  0.00  0.00    -0.061 A 
ATOM     38  H   LIG d   1       2.733   0.400  -7.675  0.00  0.00     0.062 H 
ATOM     39  C   LIG d   1       2.524   0.332  -4.315  0.00  0.00    -0.054 A 
ATOM     40  H   LIG d   1       1.425   1.335  -5.816  0.00  0.00     0.062 H 
ATOM     41  H   LIG d   1       1.941   0.751  -3.508  0.00  0.00     0.062 H 
ATOM     42  C   LIG d   1       3.907  -0.908  -2.718  0.00  0.00    -0.054 A 
ATOM     43  C   LIG d   1       4.939  -1.766  -2.487  0.00  0.00    -0.061 A 
ATOM     44  H   LIG d   1       3.340  -0.506  -1.891  0.00  0.00     0.062 H 
ATOM     45  C   LIG d   1       5.681  -2.295  -3.540  0.00  0.00    -0.056 A 
ATOM     46  H   LIG d   1       5.186  -2.039  -1.472  0.00  0.00     0.062 H 
ATOM     47  H   LIG d   1       6.494  -2.974  -3.330  0.00  0.00     0.062 H 
ENDBRANCH   1  31
BRANCH  20  48
ATOM     48  C   LIG d   1       5.361  -8.221  -6.353  0.00  0.00     0.043 C 
ATOM     49  H   LIG d   1       4.360  -8.376  -6.758  0.00  0.00     0.051 H 
ATOM     50  H   LIG d   1       6.098  -8.638  -7.039  0.00  0.00     0.051 H 
BRANCH  48  51
ATOM     51  C   LIG d   1       5.473  -8.904  -5.016  0.00  0.00     0.005 A 
ATOM     52  C   LIG d   1       6.706  -9.010  -4.393  0.00  0.00     0.128 A 
ATOM     53  C   LIG d   1       6.806  -9.635  -3.162  0.00  0.00    -0.026 A 
ATOM     54  F   LIG d   1       7.807  -8.500  -4.985  0.00  0.00    -0.205 F 
ATOM     55  C   LIG d   1       5.680 -10.161  -2.560  0.00  0.00    -0.059 A 
ATOM     56  H   LIG d   1       7.767  -9.715  -2.674  0.00  0.00     0.065 H 
ATOM     57  C   LIG d   1       4.451 -10.060  -3.185  0.00  0.00    -0.061 A 
ATOM     58  H   LIG d   1       5.759 -10.653  -1.601  0.00  0.00     0.062 H 
ATOM     59  C   LIG d   1       4.348  -9.432  -4.412  0.00  0.00    -0.054 A 
ATOM     60  H   LIG d   1       3.571 -10.471  -2.714  0.00  0.00     0.062 H 
ATOM     61  H   LIG d   1       3.387  -9.354  -4.899  0.00  0.00     0.062 H 
ENDBRANCH  48  51
ENDBRANCH  20  48
TORSDOF 3
ENDMDL
MODEL 6
REMARK VINA RESULT:      -8.1      3.384      6.421
REMARK  3 active torsions:
REMARK  status: ('A' for Active; 'I' for Inactive)
REMARK    1  A    between atoms: C_10  and  C_11 
REMARK    2  A    between atoms: N_30  and  C_33 
REMARK    3  A    between atoms: C_33  and  C_34 
ROOT
ATOM      1  C   LIG d   1      10.300   1.471  -5.870  0.00  0.00     0.093 C 
ATOM      2  H   LIG d   1      10.583   1.735  -6.890  0.00  0.00     0.062 H 
ATOM      3  C   LIG d   1      11.377   0.611  -5.246  0.00  0.00     0.046 A 
ATOM      4  C   LIG d   1      11.234  -0.711  -5.014  0.00  0.00    -0.015 A 
ATOM      5  C   LIG d   1      12.472  -1.174  -4.419  0.00  0.00     0.003 A 
ATOM      6  C   LIG d   1      12.900  -2.428  -3.976  0.00  0.00    -0.052 A 
ATOM      7  C   LIG d   1      14.166  -2.503  -3.451  0.00  0.00    -0.061 A 
ATOM      8  C   LIG d   1      14.991  -1.394  -3.360  0.00  0.00    -0.060 A 
ATOM      9  C   LIG d   1      14.594  -0.140  -3.791  0.00  0.00    -0.038 A 
ATOM     10  C   LIG d   1      13.312  -0.034  -4.329  0.00  0.00     0.047 A 
ATOM     11  N   LIG d   1      12.618   1.024  -4.837  0.00  0.00    -0.356 N 
ATOM     12  H   LIG d   1      12.952   1.933  -4.901  0.00  0.00     0.166 HD
ATOM     13  C   LIG d   1       9.996  -1.509  -5.333  0.00  0.00     0.002 C 
ATOM     14  C   LIG d   1       9.136  -0.715  -6.326  0.00  0.00     0.107 A 
ATOM     15  H   LIG d   1       9.618  -0.735  -7.304  0.00  0.00     0.060 H 
ATOM     16  N   LIG d   1       9.054   0.676  -5.884  0.00  0.00    -0.276 N 
ATOM     17  C   LIG d   1       7.914   1.255  -5.501  0.00  0.00     0.234 A 
ATOM     18  O   LIG d   1       7.969   2.394  -5.086  0.00  0.00    -0.274 OA
ATOM     19  C   LIG d   1       6.575   0.595  -5.546  0.00  0.00     0.092 A 
ATOM     20  N   LIG d   1       6.648  -0.753  -6.087  0.00  0.00    -0.287 N 
ATOM     21  C   LIG d   1       7.786  -1.348  -6.440  0.00  0.00     0.237 A 
ATOM     22  O   LIG d   1       7.723  -2.473  -6.888  0.00  0.00    -0.274 OA
ATOM     23  H   LIG d   1      12.264  -3.299  -4.044  0.00  0.00     0.062 H 
ATOM     24  H   LIG d   1      14.531  -3.456  -3.100  0.00  0.00     0.062 H 
ATOM     25  H   LIG d   1      15.978  -1.511  -2.938  0.00  0.00     0.062 H 
ATOM     26  H   LIG d   1      15.247   0.717  -3.714  0.00  0.00     0.064 H 
ATOM     27  H   LIG d   1       9.430  -1.686  -4.419  0.00  0.00     0.034 H 
ATOM     28  H   LIG d   1      10.278  -2.464  -5.777  0.00  0.00     0.034 H 
ATOM     29  H   LIG d   1       6.167   0.550  -4.537  0.00  0.00     0.056 H 
ATOM     30  H   LIG d   1       5.908   1.188  -6.172  0.00  0.00     0.056 H 
ENDROOT
BRANCH   1  31
ATOM     31  C   LIG d   1      10.104   2.720  -5.052  0.00  0.00    -0.013 A 
ATOM     32  C   LIG d   1       9.996   3.969  -5.685  0.00  0.00    -0.013 A 
ATOM     33  C   LIG d   1      10.057   4.086  -7.085  0.00  0.00    -0.054 A 
ATOM     34  C   LIG d   1       9.806   5.134  -4.900  0.00  0.00    -0.018 A 
ATOM     35  C   LIG d   1       9.942   5.312  -7.664  0.00  0.00    -0.061 A 
ATOM     36  H   LIG d   1      10.197   3.208  -7.697  0.00  0.00     0.062 H 
ATOM     37  C   LIG d   1       9.761   6.458  -6.891  0.00  0.00    -0.061 A 
ATOM     38  H   LIG d   1       9.993   5.399  -8.740  0.00  0.00     0.062 H 
ATOM     39  C   LIG d   1       9.693   6.382  -5.534  0.00  0.00    -0.054 A 
ATOM     40  H   LIG d   1       9.674   7.419  -7.375  0.00  0.00     0.062 H 
ATOM     41  H   LIG d   1       9.552   7.279  -4.947  0.00  0.00     0.062 H 
ATOM     42  C   LIG d   1       9.740   5.017  -3.501  0.00  0.00    -0.054 A 
ATOM     43  C   LIG d   1       9.853   3.790  -2.921  0.00  0.00    -0.061 A 
ATOM     44  H   LIG d   1       9.599   5.895  -2.889  0.00  0.00     0.062 H 
ATOM     45  C   LIG d   1      10.035   2.646  -3.695  0.00  0.00    -0.056 A 
ATOM     46  H   LIG d   1       9.803   3.703  -1.846  0.00  0.00     0.062 H 
ATOM     47  H   LIG d   1      10.121   1.684  -3.210  0.00  0.00     0.062 H 
ENDBRANCH   1  31
BRANCH  20  48
ATOM     48  C   LIG d   1       5.399  -1.500  -6.251  0.00  0.00     0.043 C 
ATOM     49  H   LIG d   1       4.821  -1.066  -7.067  0.00  0.00     0.051 H 
ATOM     50  H   LIG d   1       5.626  -2.541  -6.482  0.00  0.00     0.051 H 
BRANCH  48  51
ATOM     51  C   LIG d   1       4.600  -1.429  -4.976  0.00  0.00     0.005 A 
ATOM     52  C   LIG d   1       4.908  -2.267  -3.918  0.00  0.00     0.128 A 
ATOM     53  C   LIG d   1       4.175  -2.198  -2.745  0.00  0.00    -0.026 A 
ATOM     54  F   LIG d   1       5.925  -3.149  -4.029  0.00  0.00    -0.205 F 
ATOM     55  C   LIG d   1       3.131  -1.300  -2.635  0.00  0.00    -0.059 A 
ATOM     56  H   LIG d   1       4.417  -2.849  -1.918  0.00  0.00     0.065 H 
ATOM     57  C   LIG d   1       2.821  -0.467  -3.694  0.00  0.00    -0.061 A 
ATOM     58  H   LIG d   1       2.556  -1.248  -1.721  0.00  0.00     0.062 H 
ATOM     59  C   LIG d   1       3.555  -0.531  -4.864  0.00  0.00    -0.054 A 
ATOM     60  H   LIG d   1       2.005   0.235  -3.607  0.00  0.00     0.062 H 
ATOM     61  H   LIG d   1       3.312   0.119  -5.690  0.00  0.00     0.062 H 
ENDBRANCH  48  51
ENDBRANCH  20  48
TORSDOF 3
ENDMDL
MODEL 7
REMARK VINA RESULT:      -8.0      3.460      7.903
REMARK  3 active torsions:
REMARK  status: ('A' for Active; 'I' for Inactive)
REMARK    1  A    between atoms: C_10  and  C_11 
REMARK    2  A    between atoms: N_30  and  C_33 
REMARK    3  A    between atoms: C_33  and  C_34 
ROOT
ATOM      1  C   LIG d   1       7.603  -1.118  -5.082  0.00  0.00     0.093 C 
ATOM      2  H   LIG d   1       7.952  -0.178  -4.655  0.00  0.00     0.062 H 
ATOM      3  C   LIG d   1       8.673  -2.177  -4.932  0.00  0.00     0.046 A 
ATOM      4  C   LIG d   1       9.407  -2.646  -5.964  0.00  0.00    -0.015 A 
ATOM      5  C   LIG d   1      10.319  -3.633  -5.421  0.00  0.00     0.003 A 
ATOM      6  C   LIG d   1      11.302  -4.436  -6.005  0.00  0.00    -0.052 A 
ATOM      7  C   LIG d   1      11.991  -5.280  -5.169  0.00  0.00    -0.061 A 
ATOM      8  C   LIG d   1      11.733  -5.341  -3.809  0.00  0.00    -0.060 A 
ATOM      9  C   LIG d   1      10.765  -4.558  -3.205  0.00  0.00    -0.038 A 
ATOM     10  C   LIG d   1      10.050  -3.690  -4.030  0.00  0.00     0.047 A 
ATOM     11  N   LIG d   1       9.051  -2.798  -3.772  0.00  0.00    -0.356 N 
ATOM     12  H   LIG d   1       8.665  -2.628  -2.897  0.00  0.00     0.166 HD
ATOM     13  C   LIG d   1       9.264  -2.194  -7.395  0.00  0.00     0.002 C 
ATOM     14  C   LIG d   1       8.504  -0.860  -7.420  0.00  0.00     0.107 A 
ATOM     15  H   LIG d   1       9.161  -0.073  -7.049  0.00  0.00     0.060 H 
ATOM     16  N   LIG d   1       7.348  -0.950  -6.529  0.00  0.00    -0.276 N 
ATOM     17  C   LIG d   1       6.087  -0.882  -6.960  0.00  0.00     0.234 A 
ATOM     18  O   LIG d   1       5.201  -1.037  -6.145  0.00  0.00    -0.274 OA
ATOM     19  C   LIG d   1       5.691  -0.630  -8.377  0.00  0.00     0.092 A 
ATOM     20  N   LIG d   1       6.846  -0.436  -9.241  0.00  0.00    -0.287 N 
ATOM     21  C   LIG d   1       8.107  -0.535  -8.824  0.00  0.00     0.237 A 
ATOM     22  O   LIG d   1       8.988  -0.343  -9.633  0.00  0.00    -0.274 OA
ATOM     23  H   LIG d   1      11.512  -4.395  -7.064  0.00  0.00     0.062 H 
ATOM     24  H   LIG d   1      12.760  -5.915  -5.584  0.00  0.00     0.062 H 
ATOM     25  H   LIG d   1      12.305  -6.024  -3.199  0.00  0.00     0.062 H 
ATOM     26  H   LIG d   1      10.573  -4.615  -2.144  0.00  0.00     0.064 H 
ATOM     27  H   LIG d   1       8.709  -2.942  -7.960  0.00  0.00     0.034 H 
ATOM     28  H   LIG d   1      10.251  -2.060  -7.838  0.00  0.00     0.034 H 
ATOM     29  H   LIG d   1       5.115  -1.480  -8.742  0.00  0.00     0.056 H 
ATOM     30  H   LIG d   1       5.068   0.264  -8.419  0.00  0.00     0.056 H 
ENDROOT
BRANCH   1  31
ATOM     31  C   LIG d   1       6.342  -1.562  -4.387  0.00  0.00    -0.013 A 
ATOM     32  C   LIG d   1       5.647  -0.673  -3.551  0.00  0.00    -0.013 A 
ATOM     33  C   LIG d   1       6.096   0.644  -3.350  0.00  0.00    -0.054 A 
ATOM     34  C   LIG d   1       4.460  -1.106  -2.909  0.00  0.00    -0.018 A 
ATOM     35  C   LIG d   1       5.393   1.479  -2.538  0.00  0.00    -0.061 A 
ATOM     36  H   LIG d   1       6.996   0.990  -3.836  0.00  0.00     0.062 H 
ATOM     37  C   LIG d   1       4.228   1.051  -1.903  0.00  0.00    -0.061 A 
ATOM     38  H   LIG d   1       5.743   2.489  -2.383  0.00  0.00     0.062 H 
ATOM     39  C   LIG d   1       3.761  -0.215  -2.078  0.00  0.00    -0.054 A 
ATOM     40  H   LIG d   1       3.689   1.733  -1.263  0.00  0.00     0.062 H 
ATOM     41  H   LIG d   1       2.857  -0.533  -1.578  0.00  0.00     0.062 H 
ATOM     42  C   LIG d   1       4.007  -2.421  -3.114  0.00  0.00    -0.054 A 
ATOM     43  C   LIG d   1       4.710  -3.256  -3.928  0.00  0.00    -0.061 A 
ATOM     44  H   LIG d   1       3.107  -2.766  -2.629  0.00  0.00     0.062 H 
ATOM     45  C   LIG d   1       5.874  -2.828  -4.562  0.00  0.00    -0.056 A 
ATOM     46  H   LIG d   1       4.360  -4.266  -4.083  0.00  0.00     0.062 H 
ATOM     47  H   LIG d   1       6.412  -3.510  -5.203  0.00  0.00     0.062 H 
ENDBRANCH   1  31
BRANCH  20  48
ATOM     48  C   LIG d   1       6.608  -0.115 -10.650  0.00  0.00     0.043 C 
ATOM     49  H   LIG d   1       6.538   0.967 -10.769  0.00  0.00     0.051 H 
ATOM     50  H   LIG d   1       7.432  -0.494 -11.253  0.00  0.00     0.051 H 
BRANCH  48  51
ATOM     51  C   LIG d   1       5.320  -0.754 -11.100  0.00  0.00     0.005 A 
ATOM     52  C   LIG d   1       4.201   0.029 -11.331  0.00  0.00     0.128 A 
ATOM     53  C   LIG d   1       3.020  -0.560 -11.747  0.00  0.00    -0.026 A 
ATOM     54  F   LIG d   1       4.265   1.366 -11.154  0.00  0.00    -0.205 F 
ATOM     55  C   LIG d   1       2.954  -1.929 -11.922  0.00  0.00    -0.059 A 
ATOM     56  H   LIG d   1       2.147   0.050 -11.932  0.00  0.00     0.065 H 
ATOM     57  C   LIG d   1       4.070  -2.710 -11.686  0.00  0.00    -0.061 A 
ATOM     58  H   LIG d   1       2.031  -2.389 -12.244  0.00  0.00     0.062 H 
ATOM     59  C   LIG d   1       5.252  -2.123 -11.275  0.00  0.00    -0.054 A 
ATOM     60  H   LIG d   1       4.018  -3.780 -11.824  0.00  0.00     0.062 H 
ATOM     61  H   LIG d   1       6.122  -2.735 -11.091  0.00  0.00     0.062 H 
ENDBRANCH  48  51
ENDBRANCH  20  48
TORSDOF 3
ENDMDL
MODEL 8
REMARK VINA RESULT:      -7.9      4.199      7.598
REMARK  3 active torsions:
REMARK  status: ('A' for Active; 'I' for Inactive)
REMARK    1  A    between atoms: C_10  and  C_11 
REMARK    2  A    between atoms: N_30  and  C_33 
REMARK    3  A    between atoms: C_33  and  C_34 
ROOT
ATOM      1  C   LIG d   1       4.215  -1.810  -6.263  0.00  0.00     0.093 C 
ATOM      2  H   LIG d   1       3.221  -1.691  -5.829  0.00  0.00     0.062 H 
ATOM      3  C   LIG d   1       4.189  -1.406  -7.721  0.00  0.00     0.046 A 
ATOM      4  C   LIG d   1       4.270  -2.289  -8.740  0.00  0.00    -0.015 A 
ATOM      5  C   LIG d   1       4.206  -1.524  -9.969  0.00  0.00     0.003 A 
ATOM      6  C   LIG d   1       4.240  -1.891 -11.317  0.00  0.00    -0.052 A 
ATOM      7  C   LIG d   1       4.156  -0.878 -12.239  0.00  0.00    -0.061 A 
ATOM      8  C   LIG d   1       4.042   0.451 -11.864  0.00  0.00    -0.060 A 
ATOM      9  C   LIG d   1       4.006   0.843 -10.537  0.00  0.00    -0.038 A 
ATOM     10  C   LIG d   1       4.089  -0.165  -9.578  0.00  0.00     0.047 A 
ATOM     11  N   LIG d   1       4.082  -0.133  -8.214  0.00  0.00    -0.356 N 
ATOM     12  H   LIG d   1       4.011   0.670  -7.674  0.00  0.00     0.166 HD
ATOM     13  C   LIG d   1       4.402  -3.781  -8.574  0.00  0.00     0.002 C 
ATOM     14  C   LIG d   1       3.996  -4.159  -7.143  0.00  0.00     0.107 A 
ATOM     15  H   LIG d   1       2.914  -4.063  -7.046  0.00  0.00     0.060 H 
ATOM     16  N   LIG d   1       4.623  -3.229  -6.205  0.00  0.00    -0.276 N 
ATOM     17  C   LIG d   1       5.535  -3.603  -5.305  0.00  0.00     0.234 A 
ATOM     18  O   LIG d   1       6.043  -2.740  -4.622  0.00  0.00    -0.274 OA
ATOM     19  C   LIG d   1       5.973  -5.014  -5.083  0.00  0.00     0.092 A 
ATOM     20  N   LIG d   1       5.268  -5.947  -5.947  0.00  0.00    -0.287 N 
ATOM     21  C   LIG d   1       4.381  -5.577  -6.870  0.00  0.00     0.237 A 
ATOM     22  O   LIG d   1       3.848  -6.447  -7.525  0.00  0.00    -0.274 OA
ATOM     23  H   LIG d   1       4.328  -2.925 -11.619  0.00  0.00     0.062 H 
ATOM     24  H   LIG d   1       4.178  -1.125 -13.290  0.00  0.00     0.062 H 
ATOM     25  H   LIG d   1       3.980   1.206 -12.633  0.00  0.00     0.062 H 
ATOM     26  H   LIG d   1       3.916   1.883 -10.258  0.00  0.00     0.064 H 
ATOM     27  H   LIG d   1       5.434  -4.078  -8.752  0.00  0.00     0.034 H 
ATOM     28  H   LIG d   1       3.748  -4.289  -9.285  0.00  0.00     0.034 H 
ATOM     29  H   LIG d   1       7.042  -5.088  -5.280  0.00  0.00     0.056 H 
ATOM     30  H   LIG d   1       5.784  -5.285  -4.045  0.00  0.00     0.056 H 
ENDROOT
BRANCH   1  31
ATOM     31  C   LIG d   1       5.207  -0.959  -5.513  0.00  0.00    -0.013 A 
ATOM     32  C   LIG d   1       4.834  -0.331  -4.314  0.00  0.00    -0.013 A 
ATOM     33  C   LIG d   1       3.543  -0.485  -3.779  0.00  0.00    -0.054 A 
ATOM     34  C   LIG d   1       5.782   0.461  -3.619  0.00  0.00    -0.018 A 
ATOM     35  C   LIG d   1       3.220   0.133  -2.611  0.00  0.00    -0.061 A 
ATOM     36  H   LIG d   1       2.812  -1.089  -4.294  0.00  0.00     0.062 H 
ATOM     37  C   LIG d   1       4.151   0.917  -1.931  0.00  0.00    -0.061 A 
ATOM     38  H   LIG d   1       2.226   0.015  -2.204  0.00  0.00     0.062 H 
ATOM     39  C   LIG d   1       5.411   1.085  -2.416  0.00  0.00    -0.054 A 
ATOM     40  H   LIG d   1       3.868   1.397  -1.006  0.00  0.00     0.062 H 
ATOM     41  H   LIG d   1       6.122   1.696  -1.879  0.00  0.00     0.062 H 
ATOM     42  C   LIG d   1       7.075   0.612  -4.151  0.00  0.00    -0.054 A 
ATOM     43  C   LIG d   1       7.399  -0.008  -5.319  0.00  0.00    -0.061 A 
ATOM     44  H   LIG d   1       7.807   1.215  -3.635  0.00  0.00     0.062 H 
ATOM     45  C   LIG d   1       6.468  -0.791  -5.998  0.00  0.00    -0.056 A 
ATOM     46  H   LIG d   1       8.393   0.109  -5.725  0.00  0.00     0.062 H 
ATOM     47  H   LIG d   1       6.751  -1.272  -6.922  0.00  0.00     0.062 H 
ENDBRANCH   1  31
BRANCH  20  48
ATOM     48  C   LIG d   1       5.549  -7.377  -5.794  0.00  0.00     0.043 C 
ATOM     49  H   LIG d   1       5.301  -7.690  -4.780  0.00  0.00     0.051 H 
ATOM     50  H   LIG d   1       4.948  -7.943  -6.505  0.00  0.00     0.051 H 
BRANCH  48  51
ATOM     51  C   LIG d   1       7.011  -7.631  -6.056  0.00  0.00     0.005 A 
ATOM     52  C   LIG d   1       7.829  -8.082  -5.034  0.00  0.00     0.128 A 
ATOM     53  C   LIG d   1       9.172  -8.319  -5.278  0.00  0.00    -0.026 A 
ATOM     54  F   LIG d   1       7.317  -8.295  -3.803  0.00  0.00    -0.205 F 
ATOM     55  C   LIG d   1       9.696  -8.095  -6.536  0.00  0.00    -0.059 A 
ATOM     56  H   LIG d   1       9.810  -8.674  -4.482  0.00  0.00     0.065 H 
ATOM     57  C   LIG d   1       8.878  -7.640  -7.555  0.00  0.00    -0.061 A 
ATOM     58  H   LIG d   1      10.744  -8.276  -6.726  0.00  0.00     0.062 H 
ATOM     59  C   LIG d   1       7.537  -7.408  -7.315  0.00  0.00    -0.054 A 
ATOM     60  H   LIG d   1       9.288  -7.466  -8.539  0.00  0.00     0.062 H 
ATOM     61  H   LIG d   1       6.900  -7.052  -8.110  0.00  0.00     0.062 H 
ENDBRANCH  48  51
ENDBRANCH  20  48
TORSDOF 3
ENDMDL
MODEL 9
REMARK VINA RESULT:      -7.9      2.883      7.143
REMARK  3 active torsions:
REMARK  status: ('A' for Active; 'I' for Inactive)
REMARK    1  A    between atoms: C_10  and  C_11 
REMARK    2  A    between atoms: N_30  and  C_33 
REMARK    3  A    between atoms: C_33  and  C_34 
ROOT
ATOM      1  C   LIG d   1       4.824  -1.577  -7.310  0.00  0.00     0.093 C 
ATOM      2  H   LIG d   1       5.007  -2.594  -6.961  0.00  0.00     0.062 H 
ATOM      3  C   LIG d   1       4.095  -1.615  -8.635  0.00  0.00     0.046 A 
ATOM      4  C   LIG d   1       4.674  -1.299  -9.813  0.00  0.00    -0.015 A 
ATOM      5  C   LIG d   1       3.663  -1.462 -10.839  0.00  0.00     0.003 A 
ATOM      6  C   LIG d   1       3.683  -1.283 -12.225  0.00  0.00    -0.052 A 
ATOM      7  C   LIG d   1       2.514  -1.534 -12.900  0.00  0.00    -0.061 A 
ATOM      8  C   LIG d   1       1.362  -1.945 -12.249  0.00  0.00    -0.060 A 
ATOM      9  C   LIG d   1       1.314  -2.129 -10.878  0.00  0.00    -0.038 A 
ATOM     10  C   LIG d   1       2.488  -1.883 -10.167  0.00  0.00     0.047 A 
ATOM     11  N   LIG d   1       2.786  -1.964  -8.838  0.00  0.00    -0.356 N 
ATOM     12  H   LIG d   1       2.165  -2.230  -8.141  0.00  0.00     0.166 HD
ATOM     13  C   LIG d   1       6.107  -0.863  -9.975  0.00  0.00     0.002 C 
ATOM     14  C   LIG d   1       6.890  -1.250  -8.713  0.00  0.00     0.107 A 
ATOM     15  H   LIG d   1       7.031  -2.331  -8.703  0.00  0.00     0.060 H 
ATOM     16  N   LIG d   1       6.109  -0.882  -7.533  0.00  0.00    -0.276 N 
ATOM     17  C   LIG d   1       6.504   0.043  -6.655  0.00  0.00     0.234 A 
ATOM     18  O   LIG d   1       5.748   0.322  -5.748  0.00  0.00    -0.274 OA
ATOM     19  C   LIG d   1       7.814   0.758  -6.714  0.00  0.00     0.092 A 
ATOM     20  N   LIG d   1       8.631   0.310  -7.831  0.00  0.00    -0.287 N 
ATOM     21  C   LIG d   1       8.230  -0.588  -8.729  0.00  0.00     0.237 A 
ATOM     22  O   LIG d   1       9.002  -0.891  -9.612  0.00  0.00    -0.274 OA
ATOM     23  H   LIG d   1       4.576  -0.964 -12.742  0.00  0.00     0.062 H 
ATOM     24  H   LIG d   1       2.491  -1.407 -13.972  0.00  0.00     0.062 H 
ATOM     25  H   LIG d   1       0.471  -2.127 -12.830  0.00  0.00     0.062 H 
ATOM     26  H   LIG d   1       0.410  -2.450 -10.382  0.00  0.00     0.064 H 
ATOM     27  H   LIG d   1       6.147   0.217 -10.113  0.00  0.00     0.034 H 
ATOM     28  H   LIG d   1       6.546  -1.358 -10.842  0.00  0.00     0.034 H 
ATOM     29  H   LIG d   1       7.630   1.827  -6.816  0.00  0.00     0.056 H 
ATOM     30  H   LIG d   1       8.358   0.579  -5.787  0.00  0.00     0.056 H 
ENDROOT
BRANCH   1  31
ATOM     31  C   LIG d   1       4.002  -0.826  -6.295  0.00  0.00    -0.013 A 
ATOM     32  C   LIG d   1       3.935  -1.279  -4.967  0.00  0.00    -0.013 A 
ATOM     33  C   LIG d   1       4.633  -2.425  -4.550  0.00  0.00    -0.054 A 
ATOM     34  C   LIG d   1       3.162  -0.556  -4.024  0.00  0.00    -0.018 A 
ATOM     35  C   LIG d   1       4.550  -2.830  -3.253  0.00  0.00    -0.061 A 
ATOM     36  H   LIG d   1       5.230  -2.983  -5.255  0.00  0.00     0.062 H 
ATOM     37  C   LIG d   1       3.785  -2.123  -2.327  0.00  0.00    -0.061 A 
ATOM     38  H   LIG d   1       5.085  -3.714  -2.937  0.00  0.00     0.062 H 
ATOM     39  C   LIG d   1       3.100  -1.006  -2.694  0.00  0.00    -0.054 A 
ATOM     40  H   LIG d   1       3.735  -2.466  -1.305  0.00  0.00     0.062 H 
ATOM     41  H   LIG d   1       2.510  -0.468  -1.966  0.00  0.00     0.062 H 
ATOM     42  C   LIG d   1       2.468   0.593  -4.439  0.00  0.00    -0.054 A 
ATOM     43  C   LIG d   1       2.552   0.999  -5.736  0.00  0.00    -0.061 A 
ATOM     44  H   LIG d   1       1.872   1.152  -3.733  0.00  0.00     0.062 H 
ATOM     45  C   LIG d   1       3.317   0.292  -6.660  0.00  0.00    -0.056 A 
ATOM     46  H   LIG d   1       2.018   1.883  -6.052  0.00  0.00     0.062 H 
ATOM     47  H   LIG d   1       3.368   0.635  -7.683  0.00  0.00     0.062 H 
ENDBRANCH   1  31
BRANCH  20  48
ATOM     48  C   LIG d   1       9.973   0.880  -7.976  0.00  0.00     0.043 C 
ATOM     49  H   LIG d   1      10.471   0.422  -8.831  0.00  0.00     0.051 H 
ATOM     50  H   LIG d   1       9.895   1.955  -8.135  0.00  0.00     0.051 H 
BRANCH  48  51
ATOM     51  C   LIG d   1      10.770   0.611  -6.726  0.00  0.00     0.005 A 
ATOM     52  C   LIG d   1      11.096   1.654  -5.875  0.00  0.00     0.128 A 
ATOM     53  C   LIG d   1      11.825   1.405  -4.725  0.00  0.00    -0.026 A 
ATOM     54  F   LIG d   1      10.699   2.912  -6.165  0.00  0.00    -0.205 F 
ATOM     55  C   LIG d   1      12.235   0.119  -4.432  0.00  0.00    -0.059 A 
ATOM     56  H   LIG d   1      12.077   2.217  -4.058  0.00  0.00     0.065 H 
ATOM     57  C   LIG d   1      11.914  -0.921  -5.285  0.00  0.00    -0.061 A 
ATOM     58  H   LIG d   1      12.808  -0.075  -3.536  0.00  0.00     0.062 H 
ATOM     59  C   LIG d   1      11.182  -0.675  -6.432  0.00  0.00    -0.054 A 
ATOM     60  H   LIG d   1      12.235  -1.926  -5.055  0.00  0.00     0.062 H 
ATOM     61  H   LIG d   1      10.932  -1.487  -7.097  0.00  0.00     0.062 H 
ENDBRANCH  48  51
ENDBRANCH  20  48
TORSDOF 3
ENDMDL
MODEL 10
REMARK VINA RESULT:      -7.9      3.826      7.292
REMARK  3 active torsions:
REMARK  status: ('A' for Active; 'I' for Inactive)
REMARK    1  A    between atoms: C_10  and  C_11 
REMARK    2  A    between atoms: N_30  and  C_33 
REMARK    3  A    between atoms: C_33  and  C_34 
ROOT
ATOM      1  C   LIG d   1       9.930   5.071  -4.753  0.00  0.00     0.093 C 
ATOM      2  H   LIG d   1       9.113   5.774  -4.591  0.00  0.00     0.062 H 
ATOM      3  C   LIG d   1      10.564   5.326  -6.103  0.00  0.00     0.046 A 
ATOM      4  C   LIG d   1      10.413   4.503  -7.164  0.00  0.00    -0.015 A 
ATOM      5  C   LIG d   1      11.159   5.087  -8.261  0.00  0.00     0.003 A 
ATOM      6  C   LIG d   1      11.364   4.689  -9.585  0.00  0.00    -0.052 A 
ATOM      7  C   LIG d   1      12.149   5.502 -10.363  0.00  0.00    -0.061 A 
ATOM      8  C   LIG d   1      12.717   6.666  -9.872  0.00  0.00    -0.060 A 
ATOM      9  C   LIG d   1      12.531   7.084  -8.565  0.00  0.00    -0.038 A 
ATOM     10  C   LIG d   1      11.737   6.277  -7.751  0.00  0.00     0.047 A 
ATOM     11  N   LIG d   1      11.356   6.388  -6.446  0.00  0.00    -0.356 N 
ATOM     12  H   LIG d   1      11.608   7.112  -5.850  0.00  0.00     0.166 HD
ATOM     13  C   LIG d   1       9.608   3.229  -7.155  0.00  0.00     0.002 C 
ATOM     14  C   LIG d   1       8.666   3.246  -5.943  0.00  0.00     0.107 A 
ATOM     15  H   LIG d   1       7.865   3.962  -6.129  0.00  0.00     0.060 H 
ATOM     16  N   LIG d   1       9.410   3.688  -4.763  0.00  0.00    -0.276 N 
ATOM     17  C   LIG d   1       9.632   2.905  -3.705  0.00  0.00     0.234 A 
ATOM     18  O   LIG d   1      10.320   3.347  -2.809  0.00  0.00    -0.274 OA
ATOM     19  C   LIG d   1       9.093   1.521  -3.550  0.00  0.00     0.092 A 
ATOM     20  N   LIG d   1       8.266   1.127  -4.680  0.00  0.00    -0.287 N 
ATOM     21  C   LIG d   1       8.067   1.890  -5.753  0.00  0.00     0.237 A 
ATOM     22  O   LIG d   1       7.349   1.459  -6.630  0.00  0.00    -0.274 OA
ATOM     23  H   LIG d   1      10.924   3.783  -9.978  0.00  0.00     0.062 H 
ATOM     24  H   LIG d   1      12.328   5.227 -11.392  0.00  0.00     0.062 H 
ATOM     25  H   LIG d   1      13.326   7.268 -10.529  0.00  0.00     0.062 H 
ATOM     26  H   LIG d   1      12.979   7.994  -8.194  0.00  0.00     0.064 H 
ATOM     27  H   LIG d   1      10.279   2.375  -7.084  0.00  0.00     0.034 H 
ATOM     28  H   LIG d   1       9.022   3.159  -8.071  0.00  0.00     0.034 H 
ATOM     29  H   LIG d   1       9.925   0.824  -3.460  0.00  0.00     0.056 H 
ATOM     30  H   LIG d   1       8.492   1.474  -2.642  0.00  0.00     0.056 H 
ENDROOT
BRANCH   1  31
ATOM     31  C   LIG d   1      10.962   5.224  -3.666  0.00  0.00    -0.013 A 
ATOM     32  C   LIG d   1      10.708   6.056  -2.564  0.00  0.00    -0.013 A 
ATOM     33  C   LIG d   1       9.493   6.754  -2.440  0.00  0.00    -0.054 A 
ATOM     34  C   LIG d   1      11.688   6.184  -1.547  0.00  0.00    -0.018 A 
ATOM     35  C   LIG d   1       9.280   7.546  -1.354  0.00  0.00    -0.061 A 
ATOM     36  H   LIG d   1       8.736   6.663  -3.203  0.00  0.00     0.062 H 
ATOM     37  C   LIG d   1      10.246   7.676  -0.358  0.00  0.00    -0.061 A 
ATOM     38  H   LIG d   1       8.347   8.084  -1.263  0.00  0.00     0.062 H 
ATOM     39  C   LIG d   1      11.431   7.012  -0.442  0.00  0.00    -0.054 A 
ATOM     40  H   LIG d   1      10.052   8.312   0.493  0.00  0.00     0.062 H 
ATOM     41  H   LIG d   1      12.171   7.122   0.338  0.00  0.00     0.062 H 
ATOM     42  C   LIG d   1      12.900   5.482  -1.668  0.00  0.00    -0.054 A 
ATOM     43  C   LIG d   1      13.113   4.688  -2.754  0.00  0.00    -0.061 A 
ATOM     44  H   LIG d   1      13.657   5.572  -0.905  0.00  0.00     0.062 H 
ATOM     45  C   LIG d   1      12.147   4.560  -3.749  0.00  0.00    -0.056 A 
ATOM     46  H   LIG d   1      14.045   4.151  -2.844  0.00  0.00     0.062 H 
ATOM     47  H   LIG d   1      12.341   3.923  -4.600  0.00  0.00     0.062 H 
ENDBRANCH   1  31
BRANCH  20  48
ATOM     48  C   LIG d   1       7.616  -0.185  -4.635  0.00  0.00     0.043 C 
ATOM     49  H   LIG d   1       7.227  -0.432  -5.623  0.00  0.00     0.051 H 
ATOM     50  H   LIG d   1       8.341  -0.939  -4.332  0.00  0.00     0.051 H 
BRANCH  48  51
ATOM     51  C   LIG d   1       6.482  -0.148  -3.643  0.00  0.00     0.005 A 
ATOM     52  C   LIG d   1       5.916  -1.330  -3.194  0.00  0.00     0.128 A 
ATOM     53  C   LIG d   1       4.877  -1.294  -2.280  0.00  0.00    -0.026 A 
ATOM     54  F   LIG d   1       6.381  -2.515  -3.645  0.00  0.00    -0.205 F 
ATOM     55  C   LIG d   1       4.399  -0.081  -1.824  0.00  0.00    -0.059 A 
ATOM     56  H   LIG d   1       4.438  -2.216  -1.926  0.00  0.00     0.065 H 
ATOM     57  C   LIG d   1       4.962   1.098  -2.277  0.00  0.00    -0.061 A 
ATOM     58  H   LIG d   1       3.586  -0.053  -1.113  0.00  0.00     0.062 H 
ATOM     59  C   LIG d   1       6.002   1.064  -3.186  0.00  0.00    -0.054 A 
ATOM     60  H   LIG d   1       4.587   2.046  -1.919  0.00  0.00     0.062 H 
ATOM     61  H   LIG d   1       6.440   1.986  -3.539  0.00  0.00     0.062 H 
ENDBRANCH  48  51
ENDBRANCH  20  48
TORSDOF 3
ENDMDL
