MODEL 1
REMARK VINA RESULT:      -6.4      0.000      0.000
REMARK  3 active torsions:
REMARK  status: ('A' for Active; 'I' for Inactive)
REMARK    1  A    between atoms: C_1  and  C_2 
REMARK    2  A    between atoms: N_11  and  C_13 
REMARK    3  A    between atoms: C_16  and  C_19 
ROOT
ATOM      1  C   LIG d   1       5.183  -2.174  -4.987  0.00  0.00     0.067 A 
ATOM      2  C   LIG d   1       4.627  -1.196  -4.051  0.00  0.00     0.010 A 
ATOM      3  C   LIG d   1       4.848  -1.284  -2.675  0.00  0.00    -0.052 A 
ATOM      4  C   LIG d   1       4.306  -0.346  -1.841  0.00  0.00    -0.061 A 
ATOM      5  C   LIG d   1       3.537   0.696  -2.343  0.00  0.00    -0.061 A 
ATOM      6  C   LIG d   1       3.301   0.808  -3.696  0.00  0.00    -0.049 A 
ATOM      7  C   LIG d   1       3.845  -0.138  -4.566  0.00  0.00     0.050 A 
ATOM      8  C   LIG d   1       3.631  -0.074  -6.017  0.00  0.00     0.280 A 
ATOM      9  O   LIG d   1       2.964   0.821  -6.508  0.00  0.00    -0.265 OA
ATOM     10  N   LIG d   1       4.188  -1.023  -6.797  0.00  0.00    -0.196 N 
ATOM     11  N   LIG d   1       4.960  -2.054  -6.262  0.00  0.00    -0.168 NA
ATOM     12  H   LIG d   1       5.444  -2.089  -2.272  0.00  0.00     0.062 H 
ATOM     13  H   LIG d   1       4.479  -0.416  -0.778  0.00  0.00     0.062 H 
ATOM     14  H   LIG d   1       3.118   1.425  -1.667  0.00  0.00     0.062 H 
ATOM     15  H   LIG d   1       2.702   1.620  -4.081  0.00  0.00     0.062 H 
ENDROOT
BRANCH  10  16
ATOM     16  C   LIG d   1       3.990  -0.969  -8.177  0.00  0.00     0.069 A 
ATOM     17  C   LIG d   1       2.884  -1.598  -8.744  0.00  0.00    -0.035 A 
ATOM     18  C   LIG d   1       2.683  -1.543 -10.104  0.00  0.00    -0.051 A 
ATOM     19  H   LIG d   1       2.182  -2.124  -8.115  0.00  0.00     0.064 H 
ATOM     20  C   LIG d   1       3.596  -0.865 -10.919  0.00  0.00    -0.003 A 
ATOM     21  H   LIG d   1       1.822  -2.025 -10.543  0.00  0.00     0.062 H 
ATOM     22  C   LIG d   1       4.710  -0.240 -10.345  0.00  0.00    -0.051 A 
ATOM     23  C   LIG d   1       4.902  -0.295  -8.984  0.00  0.00    -0.035 A 
ATOM     24  H   LIG d   1       5.417   0.284 -10.970  0.00  0.00     0.062 H 
ATOM     25  H   LIG d   1       5.760   0.187  -8.540  0.00  0.00     0.064 H 
BRANCH  20  26
ATOM     26  C   LIG d   1       3.387  -0.808 -12.375  0.00  0.00     0.072 C 
ATOM     27  O   LIG d   1       4.219  -0.270 -13.093  0.00  0.00    -0.545 OA
ATOM     28  O   LIG d   1       2.381  -1.300 -12.868  0.00  0.00    -0.545 OA
ENDBRANCH  20  26
ENDBRANCH  10  16
BRANCH   1  29
ATOM     29  C   LIG d   1       6.023  -3.315  -4.473  0.00  0.00    -0.020 C 
ATOM     30  H   LIG d   1       6.166  -3.204  -3.397  0.00  0.00     0.029 H 
ATOM     31  H   LIG d   1       5.515  -4.259  -4.675  0.00  0.00     0.029 H 
ATOM     32  H   LIG d   1       6.991  -3.309  -4.972  0.00  0.00     0.029 H 
ENDBRANCH   1  29
TORSDOF 3
ENDMDL
MODEL 2
REMARK VINA RESULT:      -6.1      5.479      7.324
REMARK  3 active torsions:
REMARK  status: ('A' for Active; 'I' for Inactive)
REMARK    1  A    between atoms: C_1  and  C_2 
REMARK    2  A    between atoms: N_11  and  C_13 
REMARK    3  A    between atoms: C_16  and  C_19 
ROOT
ATOM      1  C   LIG d   1       5.372   0.788  -2.772  0.00  0.00     0.067 A 
ATOM      2  C   LIG d   1       5.313  -0.595  -3.246  0.00  0.00     0.010 A 
ATOM      3  C   LIG d   1       4.271  -1.454  -2.888  0.00  0.00    -0.052 A 
ATOM      4  C   LIG d   1       4.261  -2.738  -3.356  0.00  0.00    -0.061 A 
ATOM      5  C   LIG d   1       5.275  -3.204  -4.184  0.00  0.00    -0.061 A 
ATOM      6  C   LIG d   1       6.316  -2.380  -4.553  0.00  0.00    -0.049 A 
ATOM      7  C   LIG d   1       6.346  -1.066  -4.088  0.00  0.00     0.050 A 
ATOM      8  C   LIG d   1       7.427  -0.139  -4.446  0.00  0.00     0.280 A 
ATOM      9  O   LIG d   1       8.339  -0.498  -5.170  0.00  0.00    -0.265 OA
ATOM     10  N   LIG d   1       7.391   1.119  -3.959  0.00  0.00    -0.196 N 
ATOM     11  N   LIG d   1       6.356   1.557  -3.133  0.00  0.00    -0.168 NA
ATOM     12  H   LIG d   1       3.478  -1.104  -2.245  0.00  0.00     0.062 H 
ATOM     13  H   LIG d   1       3.455  -3.400  -3.078  0.00  0.00     0.062 H 
ATOM     14  H   LIG d   1       5.247  -4.222  -4.541  0.00  0.00     0.062 H 
ATOM     15  H   LIG d   1       7.101  -2.748  -5.198  0.00  0.00     0.062 H 
ENDROOT
BRANCH  10  16
ATOM     16  C   LIG d   1       8.414   2.006  -4.294  0.00  0.00     0.069 A 
ATOM     17  C   LIG d   1       8.452   2.574  -5.564  0.00  0.00    -0.035 A 
ATOM     18  C   LIG d   1       9.457   3.453  -5.897  0.00  0.00    -0.051 A 
ATOM     19  H   LIG d   1       7.689   2.328  -6.287  0.00  0.00     0.064 H 
ATOM     20  C   LIG d   1      10.449   3.766  -4.961  0.00  0.00    -0.003 A 
ATOM     21  H   LIG d   1       9.483   3.897  -6.880  0.00  0.00     0.062 H 
ATOM     22  C   LIG d   1      10.410   3.188  -3.686  0.00  0.00    -0.051 A 
ATOM     23  C   LIG d   1       9.399   2.314  -3.359  0.00  0.00    -0.035 A 
ATOM     24  H   LIG d   1      11.173   3.428  -2.961  0.00  0.00     0.062 H 
ATOM     25  H   LIG d   1       9.368   1.868  -2.377  0.00  0.00     0.064 H 
BRANCH  20  26
ATOM     26  C   LIG d   1      11.528   4.702  -5.314  0.00  0.00     0.072 C 
ATOM     27  O   LIG d   1      11.732   5.691  -4.622  0.00  0.00    -0.545 OA
ATOM     28  O   LIG d   1      12.224   4.492  -6.299  0.00  0.00    -0.545 OA
ENDBRANCH  20  26
ENDBRANCH  10  16
BRANCH   1  29
ATOM     29  C   LIG d   1       4.287   1.322  -1.873  0.00  0.00    -0.020 C 
ATOM     30  H   LIG d   1       4.138   0.638  -1.038  0.00  0.00     0.029 H 
ATOM     31  H   LIG d   1       4.581   2.301  -1.493  0.00  0.00     0.029 H 
ATOM     32  H   LIG d   1       3.360   1.415  -2.437  0.00  0.00     0.029 H 
ENDBRANCH   1  29
TORSDOF 3
ENDMDL
MODEL 3
REMARK VINA RESULT:      -6.1      5.491      6.923
REMARK  3 active torsions:
REMARK  status: ('A' for Active; 'I' for Inactive)
REMARK    1  A    between atoms: C_1  and  C_2 
REMARK    2  A    between atoms: N_11  and  C_13 
REMARK    3  A    between atoms: C_16  and  C_19 
ROOT
ATOM      1  C   LIG d   1       7.212  -1.607  -4.352  0.00  0.00     0.067 A 
ATOM      2  C   LIG d   1       5.939  -1.449  -3.649  0.00  0.00     0.010 A 
ATOM      3  C   LIG d   1       5.099  -2.534  -3.393  0.00  0.00    -0.052 A 
ATOM      4  C   LIG d   1       3.918  -2.335  -2.733  0.00  0.00    -0.061 A 
ATOM      5  C   LIG d   1       3.541  -1.067  -2.312  0.00  0.00    -0.061 A 
ATOM      6  C   LIG d   1       4.349   0.023  -2.551  0.00  0.00    -0.049 A 
ATOM      7  C   LIG d   1       5.559  -0.156  -3.223  0.00  0.00     0.050 A 
ATOM      8  C   LIG d   1       6.463   0.964  -3.507  0.00  0.00     0.280 A 
ATOM      9  O   LIG d   1       6.179   2.097  -3.159  0.00  0.00    -0.265 OA
ATOM     10  N   LIG d   1       7.618   0.715  -4.161  0.00  0.00    -0.196 N 
ATOM     11  N   LIG d   1       7.970  -0.572  -4.566  0.00  0.00    -0.168 NA
ATOM     12  H   LIG d   1       5.380  -3.526  -3.714  0.00  0.00     0.062 H 
ATOM     13  H   LIG d   1       3.270  -3.176  -2.535  0.00  0.00     0.062 H 
ATOM     14  H   LIG d   1       2.604  -0.932  -1.793  0.00  0.00     0.062 H 
ATOM     15  H   LIG d   1       4.050   1.008  -2.222  0.00  0.00     0.062 H 
ENDROOT
BRANCH  10  16
ATOM     16  C   LIG d   1       8.483   1.774  -4.436  0.00  0.00     0.069 A 
ATOM     17  C   LIG d   1       8.513   2.333  -5.711  0.00  0.00    -0.035 A 
ATOM     18  C   LIG d   1       9.363   3.381  -5.984  0.00  0.00    -0.051 A 
ATOM     19  H   LIG d   1       7.866   1.947  -6.484  0.00  0.00     0.064 H 
ATOM     20  C   LIG d   1      10.205   3.876  -4.983  0.00  0.00    -0.003 A 
ATOM     21  H   LIG d   1       9.382   3.818  -6.971  0.00  0.00     0.062 H 
ATOM     22  C   LIG d   1      10.176   3.308  -3.704  0.00  0.00    -0.051 A 
ATOM     23  C   LIG d   1       9.320   2.264  -3.437  0.00  0.00    -0.035 A 
ATOM     24  H   LIG d   1      10.824   3.688  -2.929  0.00  0.00     0.062 H 
ATOM     25  H   LIG d   1       9.297   1.824  -2.451  0.00  0.00     0.064 H 
BRANCH  20  26
ATOM     26  C   LIG d   1      11.118   4.994  -5.273  0.00  0.00     0.072 C 
ATOM     27  O   LIG d   1      11.588   5.126  -6.395  0.00  0.00    -0.545 OA
ATOM     28  O   LIG d   1      11.407   5.793  -4.392  0.00  0.00    -0.545 OA
ENDBRANCH  20  26
ENDBRANCH  10  16
BRANCH   1  29
ATOM     29  C   LIG d   1       7.650  -2.971  -4.820  0.00  0.00    -0.020 C 
ATOM     30  H   LIG d   1       6.771  -3.591  -5.002  0.00  0.00     0.029 H 
ATOM     31  H   LIG d   1       8.221  -2.872  -5.744  0.00  0.00     0.029 H 
ATOM     32  H   LIG d   1       8.271  -3.436  -4.056  0.00  0.00     0.029 H 
ENDBRANCH   1  29
TORSDOF 3
ENDMDL
MODEL 4
REMARK VINA RESULT:      -6.0      2.107      7.072
REMARK  3 active torsions:
REMARK  status: ('A' for Active; 'I' for Inactive)
REMARK    1  A    between atoms: C_1  and  C_2 
REMARK    2  A    between atoms: N_11  and  C_13 
REMARK    3  A    between atoms: C_16  and  C_19 
ROOT
ATOM      1  C   LIG d   1       3.210  -2.491  -9.366  0.00  0.00     0.067 A 
ATOM      2  C   LIG d   1       3.514  -1.563 -10.455  0.00  0.00     0.010 A 
ATOM      3  C   LIG d   1       3.436  -1.948 -11.795  0.00  0.00    -0.052 A 
ATOM      4  C   LIG d   1       3.731  -1.044 -12.777  0.00  0.00    -0.061 A 
ATOM      5  C   LIG d   1       4.109   0.255 -12.462  0.00  0.00    -0.061 A 
ATOM      6  C   LIG d   1       4.196   0.663 -11.149  0.00  0.00    -0.049 A 
ATOM      7  C   LIG d   1       3.899  -0.242 -10.130  0.00  0.00     0.050 A 
ATOM      8  C   LIG d   1       3.972   0.131  -8.712  0.00  0.00     0.280 A 
ATOM      9  O   LIG d   1       4.299   1.258  -8.383  0.00  0.00    -0.265 OA
ATOM     10  N   LIG d   1       3.671  -0.797  -7.780  0.00  0.00    -0.196 N 
ATOM     11  N   LIG d   1       3.289  -2.092  -8.130  0.00  0.00    -0.168 NA
ATOM     12  H   LIG d   1       3.143  -2.954 -12.054  0.00  0.00     0.062 H 
ATOM     13  H   LIG d   1       3.669  -1.344 -13.813  0.00  0.00     0.062 H 
ATOM     14  H   LIG d   1       4.339   0.951 -13.254  0.00  0.00     0.062 H 
ATOM     15  H   LIG d   1       4.491   1.674 -10.910  0.00  0.00     0.062 H 
ENDROOT
BRANCH  10  16
ATOM     16  C   LIG d   1       3.738  -0.450  -6.431  0.00  0.00     0.069 A 
ATOM     17  C   LIG d   1       4.876  -0.760  -5.691  0.00  0.00    -0.035 A 
ATOM     18  C   LIG d   1       4.947  -0.415  -4.360  0.00  0.00    -0.051 A 
ATOM     19  H   LIG d   1       5.704  -1.267  -6.163  0.00  0.00     0.064 H 
ATOM     20  C   LIG d   1       3.871   0.236  -3.749  0.00  0.00    -0.003 A 
ATOM     21  H   LIG d   1       5.832  -0.651  -3.788  0.00  0.00     0.062 H 
ATOM     22  C   LIG d   1       2.727   0.541  -4.495  0.00  0.00    -0.051 A 
ATOM     23  C   LIG d   1       2.664   0.198  -5.826  0.00  0.00    -0.035 A 
ATOM     24  H   LIG d   1       1.894   1.044  -4.027  0.00  0.00     0.062 H 
ATOM     25  H   LIG d   1       1.782   0.432  -6.403  0.00  0.00     0.064 H 
BRANCH  20  26
ATOM     26  C   LIG d   1       3.942   0.603  -2.325  0.00  0.00     0.072 C 
ATOM     27  O   LIG d   1       3.397   1.623  -1.927  0.00  0.00    -0.545 OA
ATOM     28  O   LIG d   1       4.546  -0.114  -1.538  0.00  0.00    -0.545 OA
ENDBRANCH  20  26
ENDBRANCH  10  16
BRANCH   1  29
ATOM     29  C   LIG d   1       2.796  -3.906  -9.676  0.00  0.00    -0.020 C 
ATOM     30  H   LIG d   1       1.851  -3.897 -10.220  0.00  0.00     0.029 H 
ATOM     31  H   LIG d   1       3.563  -4.383 -10.287  0.00  0.00     0.029 H 
ATOM     32  H   LIG d   1       2.675  -4.461  -8.746  0.00  0.00     0.029 H 
ENDBRANCH   1  29
TORSDOF 3
ENDMDL
MODEL 5
REMARK VINA RESULT:      -5.9      5.665      7.822
REMARK  3 active torsions:
REMARK  status: ('A' for Active; 'I' for Inactive)
REMARK    1  A    between atoms: C_1  and  C_2 
REMARK    2  A    between atoms: N_11  and  C_13 
REMARK    3  A    between atoms: C_16  and  C_19 
ROOT
ATOM      1  C   LIG d   1       9.883   3.358  -3.470  0.00  0.00     0.067 A 
ATOM      2  C   LIG d   1      10.099   3.840  -4.835  0.00  0.00     0.010 A 
ATOM      3  C   LIG d   1      11.036   4.833  -5.126  0.00  0.00    -0.052 A 
ATOM      4  C   LIG d   1      11.201   5.251  -6.417  0.00  0.00    -0.061 A 
ATOM      5  C   LIG d   1      10.447   4.701  -7.447  0.00  0.00    -0.061 A 
ATOM      6  C   LIG d   1       9.514   3.721  -7.189  0.00  0.00    -0.049 A 
ATOM      7  C   LIG d   1       9.329   3.278  -5.879  0.00  0.00     0.050 A 
ATOM      8  C   LIG d   1       8.353   2.237  -5.540  0.00  0.00     0.280 A 
ATOM      9  O   LIG d   1       7.667   1.723  -6.406  0.00  0.00    -0.265 OA
ATOM     10  N   LIG d   1       8.228   1.859  -4.251  0.00  0.00    -0.196 N 
ATOM     11  N   LIG d   1       9.004   2.427  -3.241  0.00  0.00    -0.168 NA
ATOM     12  H   LIG d   1      11.629   5.268  -4.335  0.00  0.00     0.062 H 
ATOM     13  H   LIG d   1      11.927   6.018  -6.640  0.00  0.00     0.062 H 
ATOM     14  H   LIG d   1      10.593   5.047  -8.459  0.00  0.00     0.062 H 
ATOM     15  H   LIG d   1       8.931   3.297  -7.994  0.00  0.00     0.062 H 
ENDROOT
BRANCH  10  16
ATOM     16  C   LIG d   1       7.302   0.870  -3.920  0.00  0.00     0.069 A 
ATOM     17  C   LIG d   1       6.104   1.220  -3.302  0.00  0.00    -0.035 A 
ATOM     18  C   LIG d   1       5.186   0.247  -2.979  0.00  0.00    -0.051 A 
ATOM     19  H   LIG d   1       5.894   2.256  -3.081  0.00  0.00     0.064 H 
ATOM     20  C   LIG d   1       5.462  -1.095  -3.261  0.00  0.00    -0.003 A 
ATOM     21  H   LIG d   1       4.255   0.520  -2.504  0.00  0.00     0.062 H 
ATOM     22  C   LIG d   1       6.669  -1.443  -3.877  0.00  0.00    -0.051 A 
ATOM     23  C   LIG d   1       7.581  -0.464  -4.202  0.00  0.00    -0.035 A 
ATOM     24  H   LIG d   1       6.886  -2.478  -4.096  0.00  0.00     0.062 H 
ATOM     25  H   LIG d   1       8.512  -0.732  -4.677  0.00  0.00     0.064 H 
BRANCH  20  26
ATOM     26  C   LIG d   1       4.483  -2.139  -2.912  0.00  0.00     0.072 C 
ATOM     27  O   LIG d   1       3.869  -2.074  -1.856  0.00  0.00    -0.545 OA
ATOM     28  O   LIG d   1       4.283  -3.071  -3.679  0.00  0.00    -0.545 OA
ENDBRANCH  20  26
ENDBRANCH  10  16
BRANCH   1  29
ATOM     29  C   LIG d   1      10.686   3.934  -2.332  0.00  0.00    -0.020 C 
ATOM     30  H   LIG d   1      11.184   4.845  -2.665  0.00  0.00     0.029 H 
ATOM     31  H   LIG d   1      10.021   4.167  -1.500  0.00  0.00     0.029 H 
ATOM     32  H   LIG d   1      11.432   3.208  -2.010  0.00  0.00     0.029 H 
ENDBRANCH   1  29
TORSDOF 3
ENDMDL
MODEL 6
REMARK VINA RESULT:      -5.9      1.199      2.648
REMARK  3 active torsions:
REMARK  status: ('A' for Active; 'I' for Inactive)
REMARK    1  A    between atoms: C_1  and  C_2 
REMARK    2  A    between atoms: N_11  and  C_13 
REMARK    3  A    between atoms: C_16  and  C_19 
ROOT
ATOM      1  C   LIG d   1       2.945   1.027  -4.959  0.00  0.00     0.067 A 
ATOM      2  C   LIG d   1       3.548   0.036  -4.068  0.00  0.00     0.010 A 
ATOM      3  C   LIG d   1       3.556   0.199  -2.681  0.00  0.00    -0.052 A 
ATOM      4  C   LIG d   1       4.132  -0.755  -1.891  0.00  0.00    -0.061 A 
ATOM      5  C   LIG d   1       4.713  -1.888  -2.447  0.00  0.00    -0.061 A 
ATOM      6  C   LIG d   1       4.721  -2.076  -3.812  0.00  0.00    -0.049 A 
ATOM      7  C   LIG d   1       4.138  -1.115  -4.639  0.00  0.00     0.050 A 
ATOM      8  C   LIG d   1       4.114  -1.257  -6.099  0.00  0.00     0.280 A 
ATOM      9  O   LIG d   1       4.609  -2.232  -6.637  0.00  0.00    -0.265 OA
ATOM     10  N   LIG d   1       3.532  -0.288  -6.836  0.00  0.00    -0.196 N 
ATOM     11  N   LIG d   1       2.953   0.835  -6.246  0.00  0.00    -0.168 NA
ATOM     12  H   LIG d   1       3.108   1.075  -2.236  0.00  0.00     0.062 H 
ATOM     13  H   LIG d   1       4.137  -0.627  -0.819  0.00  0.00     0.062 H 
ATOM     14  H   LIG d   1       5.163  -2.628  -1.804  0.00  0.00     0.062 H 
ATOM     15  H   LIG d   1       5.174  -2.959  -4.239  0.00  0.00     0.062 H 
ENDROOT
BRANCH  10  16
ATOM     16  C   LIG d   1       3.505  -0.415  -8.224  0.00  0.00     0.069 A 
ATOM     17  C   LIG d   1       4.622  -0.060  -8.976  0.00  0.00    -0.035 A 
ATOM     18  C   LIG d   1       4.600  -0.188 -10.346  0.00  0.00    -0.051 A 
ATOM     19  H   LIG d   1       5.507   0.312  -8.482  0.00  0.00     0.064 H 
ATOM     20  C   LIG d   1       3.451  -0.665 -10.984  0.00  0.00    -0.003 A 
ATOM     21  H   LIG d   1       5.468   0.082 -10.928  0.00  0.00     0.062 H 
ATOM     22  C   LIG d   1       2.328  -1.016 -10.226  0.00  0.00    -0.051 A 
ATOM     23  C   LIG d   1       2.358  -0.890  -8.856  0.00  0.00    -0.035 A 
ATOM     24  H   LIG d   1       1.438  -1.385 -10.715  0.00  0.00     0.062 H 
ATOM     25  H   LIG d   1       1.493  -1.159  -8.270  0.00  0.00     0.064 H 
BRANCH  20  26
ATOM     26  C   LIG d   1       3.422  -0.800 -12.450  0.00  0.00     0.072 C 
ATOM     27  O   LIG d   1       2.523  -1.431 -12.990  0.00  0.00    -0.545 OA
ATOM     28  O   LIG d   1       4.297  -0.281 -13.130  0.00  0.00    -0.545 OA
ENDBRANCH  20  26
ENDBRANCH  10  16
BRANCH   1  29
ATOM     29  C   LIG d   1       2.307   2.266  -4.386  0.00  0.00    -0.020 C 
ATOM     30  H   LIG d   1       2.444   3.098  -5.078  0.00  0.00     0.029 H 
ATOM     31  H   LIG d   1       1.241   2.090  -4.236  0.00  0.00     0.029 H 
ATOM     32  H   LIG d   1       2.773   2.506  -3.431  0.00  0.00     0.029 H 
ENDBRANCH   1  29
TORSDOF 3
ENDMDL
MODEL 7
REMARK VINA RESULT:      -5.6      3.914      6.857
REMARK  3 active torsions:
REMARK  status: ('A' for Active; 'I' for Inactive)
REMARK    1  A    between atoms: C_1  and  C_2 
REMARK    2  A    between atoms: N_11  and  C_13 
REMARK    3  A    between atoms: C_16  and  C_19 
ROOT
ATOM      1  C   LIG d   1       7.562  -5.626  -5.196  0.00  0.00     0.067 A 
ATOM      2  C   LIG d   1       6.821  -6.818  -5.608  0.00  0.00     0.010 A 
ATOM      3  C   LIG d   1       7.458  -8.044  -5.821  0.00  0.00    -0.052 A 
ATOM      4  C   LIG d   1       6.722  -9.130  -6.206  0.00  0.00    -0.061 A 
ATOM      5  C   LIG d   1       5.349  -9.033  -6.390  0.00  0.00    -0.061 A 
ATOM      6  C   LIG d   1       4.694  -7.838  -6.188  0.00  0.00    -0.049 A 
ATOM      7  C   LIG d   1       5.424  -6.716  -5.795  0.00  0.00     0.050 A 
ATOM      8  C   LIG d   1       4.786  -5.415  -5.563  0.00  0.00     0.280 A 
ATOM      9  O   LIG d   1       3.584  -5.277  -5.710  0.00  0.00    -0.265 OA
ATOM     10  N   LIG d   1       5.555  -4.373  -5.184  0.00  0.00    -0.196 N 
ATOM     11  N   LIG d   1       6.932  -4.504  -5.003  0.00  0.00    -0.168 NA
ATOM     12  H   LIG d   1       8.524  -8.132  -5.682  0.00  0.00     0.062 H 
ATOM     13  H   LIG d   1       7.216 -10.076  -6.369  0.00  0.00     0.062 H 
ATOM     14  H   LIG d   1       4.788  -9.904  -6.695  0.00  0.00     0.062 H 
ATOM     15  H   LIG d   1       3.626  -7.769  -6.333  0.00  0.00     0.062 H 
ENDROOT
BRANCH  10  16
ATOM     16  C   LIG d   1       4.957  -3.133  -4.962  0.00  0.00     0.069 A 
ATOM     17  C   LIG d   1       4.855  -2.215  -6.004  0.00  0.00    -0.035 A 
ATOM     18  C   LIG d   1       4.260  -0.993  -5.790  0.00  0.00    -0.051 A 
ATOM     19  H   LIG d   1       5.238  -2.466  -6.982  0.00  0.00     0.064 H 
ATOM     20  C   LIG d   1       3.770  -0.667  -4.522  0.00  0.00    -0.003 A 
ATOM     21  H   LIG d   1       4.176  -0.284  -6.600  0.00  0.00     0.062 H 
ATOM     22  C   LIG d   1       3.879  -1.590  -3.475  0.00  0.00    -0.051 A 
ATOM     23  C   LIG d   1       4.470  -2.813  -3.697  0.00  0.00    -0.035 A 
ATOM     24  H   LIG d   1       3.501  -1.343  -2.494  0.00  0.00     0.062 H 
ATOM     25  H   LIG d   1       4.556  -3.525  -2.891  0.00  0.00     0.064 H 
BRANCH  20  26
ATOM     26  C   LIG d   1       3.137   0.642  -4.288  0.00  0.00     0.072 C 
ATOM     27  O   LIG d   1       2.195   0.999  -4.982  0.00  0.00    -0.545 OA
ATOM     28  O   LIG d   1       3.552   1.372  -3.398  0.00  0.00    -0.545 OA
ENDBRANCH  20  26
ENDBRANCH  10  16
BRANCH   1  29
ATOM     29  C   LIG d   1       9.052  -5.699  -4.989  0.00  0.00    -0.020 C 
ATOM     30  H   LIG d   1       9.484  -4.704  -5.108  0.00  0.00     0.029 H 
ATOM     31  H   LIG d   1       9.261  -6.067  -3.984  0.00  0.00     0.029 H 
ATOM     32  H   LIG d   1       9.489  -6.375  -5.722  0.00  0.00     0.029 H 
ENDBRANCH   1  29
TORSDOF 3
ENDMDL
MODEL 8
REMARK VINA RESULT:      -5.5      8.704     11.641
REMARK  3 active torsions:
REMARK  status: ('A' for Active; 'I' for Inactive)
REMARK    1  A    between atoms: C_1  and  C_2 
REMARK    2  A    between atoms: N_11  and  C_13 
REMARK    3  A    between atoms: C_16  and  C_19 
ROOT
ATOM      1  C   LIG d   1      10.477   5.398  -6.162  0.00  0.00     0.067 A 
ATOM      2  C   LIG d   1       9.746   4.168  -6.468  0.00  0.00     0.010 A 
ATOM      3  C   LIG d   1       9.513   3.757  -7.782  0.00  0.00    -0.052 A 
ATOM      4  C   LIG d   1       8.824   2.600  -8.017  0.00  0.00    -0.061 A 
ATOM      5  C   LIG d   1       8.350   1.826  -6.966  0.00  0.00    -0.061 A 
ATOM      6  C   LIG d   1       8.565   2.206  -5.659  0.00  0.00    -0.049 A 
ATOM      7  C   LIG d   1       9.266   3.383  -5.395  0.00  0.00     0.050 A 
ATOM      8  C   LIG d   1       9.527   3.842  -4.027  0.00  0.00     0.280 A 
ATOM      9  O   LIG d   1       9.134   3.199  -3.069  0.00  0.00    -0.265 OA
ATOM     10  N   LIG d   1      10.213   4.991  -3.847  0.00  0.00    -0.196 N 
ATOM     11  N   LIG d   1      10.679   5.743  -4.924  0.00  0.00    -0.168 NA
ATOM     12  H   LIG d   1       9.876   4.350  -8.608  0.00  0.00     0.062 H 
ATOM     13  H   LIG d   1       8.645   2.285  -9.034  0.00  0.00     0.062 H 
ATOM     14  H   LIG d   1       7.807   0.916  -7.175  0.00  0.00     0.062 H 
ATOM     15  H   LIG d   1       8.194   1.599  -4.846  0.00  0.00     0.062 H 
ENDROOT
BRANCH  10  16
ATOM     16  C   LIG d   1      10.465   5.434  -2.549  0.00  0.00     0.069 A 
ATOM     17  C   LIG d   1      11.435   4.802  -1.776  0.00  0.00    -0.035 A 
ATOM     18  C   LIG d   1      11.690   5.241  -0.496  0.00  0.00    -0.051 A 
ATOM     19  H   LIG d   1      11.991   3.971  -2.183  0.00  0.00     0.064 H 
ATOM     20  C   LIG d   1      10.965   6.314   0.031  0.00  0.00    -0.003 A 
ATOM     21  H   LIG d   1      12.446   4.754   0.101  0.00  0.00     0.062 H 
ATOM     22  C   LIG d   1       9.987   6.943  -0.747  0.00  0.00    -0.051 A 
ATOM     23  C   LIG d   1       9.741   6.503  -2.027  0.00  0.00    -0.035 A 
ATOM     24  H   LIG d   1       9.425   7.772  -0.343  0.00  0.00     0.062 H 
ATOM     25  H   LIG d   1       8.986   6.987  -2.629  0.00  0.00     0.064 H 
BRANCH  20  26
ATOM     26  C   LIG d   1      11.232   6.783   1.402  0.00  0.00     0.072 C 
ATOM     27  O   LIG d   1      11.072   6.026   2.350  0.00  0.00    -0.545 OA
ATOM     28  O   LIG d   1      11.616   7.929   1.593  0.00  0.00    -0.545 OA
ENDBRANCH  20  26
ENDBRANCH  10  16
BRANCH   1  29
ATOM     29  C   LIG d   1      11.004   6.260  -7.280  0.00  0.00    -0.020 C 
ATOM     30  H   LIG d   1      11.587   7.081  -6.862  0.00  0.00     0.029 H 
ATOM     31  H   LIG d   1      11.639   5.659  -7.933  0.00  0.00     0.029 H 
ATOM     32  H   LIG d   1      10.169   6.661  -7.854  0.00  0.00     0.029 H 
ENDBRANCH   1  29
TORSDOF 3
ENDMDL
MODEL 9
REMARK VINA RESULT:      -5.5      3.962      5.273
REMARK  3 active torsions:
REMARK  status: ('A' for Active; 'I' for Inactive)
REMARK    1  A    between atoms: C_1  and  C_2 
REMARK    2  A    between atoms: N_11  and  C_13 
REMARK    3  A    between atoms: C_16  and  C_19 
ROOT
ATOM      1  C   LIG d   1       3.853  -0.525  -5.652  0.00  0.00     0.067 A 
ATOM      2  C   LIG d   1       4.032  -0.026  -4.288  0.00  0.00     0.010 A 
ATOM      3  C   LIG d   1       3.294   1.052  -3.795  0.00  0.00    -0.052 A 
ATOM      4  C   LIG d   1       3.498   1.482  -2.514  0.00  0.00    -0.061 A 
ATOM      5  C   LIG d   1       4.431   0.862  -1.693  0.00  0.00    -0.061 A 
ATOM      6  C   LIG d   1       5.174  -0.203  -2.152  0.00  0.00    -0.049 A 
ATOM      7  C   LIG d   1       4.983  -0.660  -3.456  0.00  0.00     0.050 A 
ATOM      8  C   LIG d   1       5.742  -1.790  -4.004  0.00  0.00     0.280 A 
ATOM      9  O   LIG d   1       6.572  -2.369  -3.325  0.00  0.00    -0.265 OA
ATOM     10  N   LIG d   1       5.503  -2.177  -5.275  0.00  0.00    -0.196 N 
ATOM     11  N   LIG d   1       4.555  -1.536  -6.072  0.00  0.00    -0.168 NA
ATOM     12  H   LIG d   1       2.566   1.543  -4.423  0.00  0.00     0.062 H 
ATOM     13  H   LIG d   1       2.926   2.316  -2.135  0.00  0.00     0.062 H 
ATOM     14  H   LIG d   1       4.577   1.219  -0.685  0.00  0.00     0.062 H 
ATOM     15  H   LIG d   1       5.898  -0.682  -1.509  0.00  0.00     0.062 H 
ENDROOT
BRANCH  10  16
ATOM     16  C   LIG d   1       6.221  -3.250  -5.803  0.00  0.00     0.069 A 
ATOM     17  C   LIG d   1       5.768  -4.552  -5.607  0.00  0.00    -0.035 A 
ATOM     18  C   LIG d   1       6.471  -5.613  -6.131  0.00  0.00    -0.051 A 
ATOM     19  H   LIG d   1       4.862  -4.728  -5.047  0.00  0.00     0.064 H 
ATOM     20  C   LIG d   1       7.648  -5.383  -6.851  0.00  0.00    -0.003 A 
ATOM     21  H   LIG d   1       6.116  -6.621  -5.983  0.00  0.00     0.062 H 
ATOM     22  C   LIG d   1       8.103  -4.073  -7.042  0.00  0.00    -0.051 A 
ATOM     23  C   LIG d   1       7.392  -3.017  -6.519  0.00  0.00    -0.035 A 
ATOM     24  H   LIG d   1       9.010  -3.891  -7.598  0.00  0.00     0.062 H 
ATOM     25  H   LIG d   1       7.742  -2.006  -6.665  0.00  0.00     0.064 H 
BRANCH  20  26
ATOM     26  C   LIG d   1       8.405  -6.515  -7.410  0.00  0.00     0.072 C 
ATOM     27  O   LIG d   1       9.182  -6.334  -8.337  0.00  0.00    -0.545 OA
ATOM     28  O   LIG d   1       8.258  -7.638  -6.946  0.00  0.00    -0.545 OA
ENDBRANCH  20  26
ENDBRANCH  10  16
BRANCH   1  29
ATOM     29  C   LIG d   1       2.848   0.127  -6.567  0.00  0.00    -0.020 C 
ATOM     30  H   LIG d   1       3.210   0.082  -7.594  0.00  0.00     0.029 H 
ATOM     31  H   LIG d   1       1.896  -0.400  -6.494  0.00  0.00     0.029 H 
ATOM     32  H   LIG d   1       2.711   1.167  -6.274  0.00  0.00     0.029 H 
ENDBRANCH   1  29
TORSDOF 3
ENDMDL
MODEL 10
REMARK VINA RESULT:      -5.4     10.748     13.374
REMARK  3 active torsions:
REMARK  status: ('A' for Active; 'I' for Inactive)
REMARK    1  A    between atoms: C_1  and  C_2 
REMARK    2  A    between atoms: N_11  and  C_13 
REMARK    3  A    between atoms: C_16  and  C_19 
ROOT
ATOM      1  C   LIG d   1       9.752   7.053  -4.891  0.00  0.00     0.067 A 
ATOM      2  C   LIG d   1       9.714   5.630  -4.553  0.00  0.00     0.010 A 
ATOM      3  C   LIG d   1       9.511   4.647  -5.524  0.00  0.00    -0.052 A 
ATOM      4  C   LIG d   1       9.483   3.330  -5.157  0.00  0.00    -0.061 A 
ATOM      5  C   LIG d   1       9.653   2.954  -3.831  0.00  0.00    -0.061 A 
ATOM      6  C   LIG d   1       9.854   3.902  -2.852  0.00  0.00    -0.049 A 
ATOM      7  C   LIG d   1       9.887   5.252  -3.202  0.00  0.00     0.050 A 
ATOM      8  C   LIG d   1      10.097   6.309  -2.206  0.00  0.00     0.280 A 
ATOM      9  O   LIG d   1      10.252   6.033  -1.029  0.00  0.00    -0.265 OA
ATOM     10  N   LIG d   1      10.117   7.594  -2.618  0.00  0.00    -0.196 N 
ATOM     11  N   LIG d   1       9.949   7.938  -3.959  0.00  0.00    -0.168 NA
ATOM     12  H   LIG d   1       9.378   4.926  -6.558  0.00  0.00     0.062 H 
ATOM     13  H   LIG d   1       9.327   2.572  -5.910  0.00  0.00     0.062 H 
ATOM     14  H   LIG d   1       9.626   1.909  -3.565  0.00  0.00     0.062 H 
ATOM     15  H   LIG d   1       9.985   3.604  -1.822  0.00  0.00     0.062 H 
ENDROOT
BRANCH  10  16
ATOM     16  C   LIG d   1      10.317   8.605  -1.678  0.00  0.00     0.069 A 
ATOM     17  C   LIG d   1       9.224   9.178  -1.033  0.00  0.00    -0.035 A 
ATOM     18  C   LIG d   1       9.418  10.172  -0.101  0.00  0.00    -0.051 A 
ATOM     19  H   LIG d   1       8.225   8.839  -1.261  0.00  0.00     0.064 H 
ATOM     20  C   LIG d   1      10.712  10.615   0.189  0.00  0.00    -0.003 A 
ATOM     21  H   LIG d   1       8.570  10.613   0.403  0.00  0.00     0.062 H 
ATOM     22  C   LIG d   1      11.808  10.040  -0.465  0.00  0.00    -0.051 A 
ATOM     23  C   LIG d   1      11.607   9.043  -1.392  0.00  0.00    -0.035 A 
ATOM     24  H   LIG d   1      12.809  10.379  -0.244  0.00  0.00     0.062 H 
ATOM     25  H   LIG d   1      12.451   8.599  -1.898  0.00  0.00     0.064 H 
BRANCH  20  26
ATOM     26  C   LIG d   1      10.923  11.682   1.182  0.00  0.00     0.072 C 
ATOM     27  O   LIG d   1      11.755  11.538   2.068  0.00  0.00    -0.545 OA
ATOM     28  O   LIG d   1      10.267  12.713   1.122  0.00  0.00    -0.545 OA
ENDBRANCH  20  26
ENDBRANCH  10  16
BRANCH   1  29
ATOM     29  C   LIG d   1       9.571   7.493  -6.321  0.00  0.00    -0.020 C 
ATOM     30  H   LIG d   1      10.160   6.848  -6.975  0.00  0.00     0.029 H 
ATOM     31  H   LIG d   1       8.518   7.421  -6.593  0.00  0.00     0.029 H 
ATOM     32  H   LIG d   1       9.905   8.524  -6.430  0.00  0.00     0.029 H 
ENDBRANCH   1  29
TORSDOF 3
ENDMDL
