MODEL 1
REMARK VINA RESULT:      -5.1      0.000      0.000
REMARK  14 active torsions:
REMARK  status: ('A' for Active; 'I' for Inactive)
REMARK    1  A    between atoms: C_1  and  C_2 
REMARK    2  A    between atoms: C_2  and  O_3 
REMARK    3  A    between atoms: O_3  and  C_4 
REMARK    4  A    between atoms: C_4  and  C_6 
REMARK    5  A    between atoms: C_6  and  C_8 
REMARK    6  A    between atoms: C_6  and  O_9 
REMARK    7  A    between atoms: O_9  and  C_10 
REMARK    8  A    between atoms: C_18  and  C_27 
REMARK    9  A    between atoms: C_19  and  C_20 
REMARK   10  A    between atoms: C_20  and  O_22 
REMARK   11  A    between atoms: O_22  and  C_23 
REMARK   12  A    between atoms: C_23  and  C_24 
REMARK   13  A    between atoms: C_24  and  O_25 
REMARK   14  A    between atoms: O_25  and  C_26 
ROOT
ATOM      1  C   LIG d   1       3.843  -0.553  -7.964  0.00  0.00     0.136 A 
ATOM      2  C   LIG d   1       3.912  -1.929  -8.098  0.00  0.00    -0.007 A 
ATOM      3  C   LIG d   1       3.081  -2.573  -9.008  0.00  0.00     0.038 A 
ATOM      4  C   LIG d   1       2.176  -1.837  -9.786  0.00  0.00     0.137 A 
ATOM      5  C   LIG d   1       2.119  -0.456  -9.640  0.00  0.00    -0.001 A 
ATOM      6  C   LIG d   1       2.942   0.177  -8.733  0.00  0.00     0.063 A 
ATOM      7 BR   LIG d   1       2.850   2.056  -8.536  0.00  0.00    -0.046 Br
ATOM      8  O   LIG d   1       1.506  -2.709 -10.570  0.00  0.00    -0.459 OA
ATOM      9  C   LIG d   1       1.912  -3.965 -10.357  0.00  0.00     0.117 A 
ATOM     10  C   LIG d   1       2.886  -3.982  -9.406  0.00  0.00     0.107 A 
ATOM     11  H   LIG d   1       4.609  -2.498  -7.501  0.00  0.00     0.066 H 
ATOM     12  H   LIG d   1       1.424   0.121 -10.234  0.00  0.00     0.067 H 
ENDROOT
BRANCH   1  13
ATOM     13  O   LIG d   1       4.653   0.084  -7.078  0.00  0.00    -0.477 OA
BRANCH  13  14
ATOM     14  C   LIG d   1       4.856  -0.549  -5.813  0.00  0.00     0.193 C 
ATOM     15  H   LIG d   1       4.800  -1.631  -5.935  0.00  0.00     0.085 H 
BRANCH  14  16
ATOM     16  C   LIG d   1       3.789  -0.097  -4.849  0.00  0.00     0.348 C 
ATOM     17  O   LIG d   1       3.172   0.918  -5.063  0.00  0.00    -0.247 OA
BRANCH  16  18
ATOM     18  O   LIG d   1       3.526  -0.825  -3.751  0.00  0.00    -0.462 OA
BRANCH  18  19
ATOM     19  C   LIG d   1       3.213  -0.094  -2.536  0.00  0.00     0.090 C 
ATOM     20  H   LIG d   1       2.630  -0.729  -1.869  0.00  0.00     0.069 H 
ATOM     21  H   LIG d   1       2.637   0.797  -2.786  0.00  0.00     0.069 H 
BRANCH  19  22
ATOM     22  C   LIG d   1       4.512   0.318  -1.840  0.00  0.00    -0.031 C 
ATOM     23  H   LIG d   1       4.278   0.885  -0.939  0.00  0.00     0.026 H 
ATOM     24  H   LIG d   1       5.079  -0.574  -1.571  0.00  0.00     0.026 H 
ATOM     25  H   LIG d   1       5.106   0.936  -2.514  0.00  0.00     0.026 H 
ENDBRANCH  19  22
ENDBRANCH  18  19
ENDBRANCH  16  18
ENDBRANCH  14  16
BRANCH  14  26
ATOM     26  C   LIG d   1       6.233  -0.167  -5.267  0.00  0.00    -0.017 C 
ATOM     27  H   LIG d   1       6.324   0.919  -5.238  0.00  0.00     0.027 H 
ATOM     28  H   LIG d   1       6.349  -0.570  -4.262  0.00  0.00     0.027 H 
ATOM     29  H   LIG d   1       7.007  -0.579  -5.915  0.00  0.00     0.027 H 
ENDBRANCH  14  26
ENDBRANCH  13  14
ENDBRANCH   1  13
BRANCH  10  30
ATOM     30  C   LIG d   1       3.596  -5.157  -8.884  0.00  0.00     0.343 C 
ATOM     31  O   LIG d   1       4.512  -5.645  -9.518  0.00  0.00    -0.245 OA
BRANCH  30  32
ATOM     32  O   LIG d   1       3.234  -5.694  -7.702  0.00  0.00    -0.459 OA
BRANCH  32  33
ATOM     33  C   LIG d   1       4.038  -5.344  -6.545  0.00  0.00     0.116 C 
ATOM     34  H   LIG d   1       4.743  -4.559  -6.816  0.00  0.00     0.072 H 
ATOM     35  H   LIG d   1       3.390  -4.989  -5.745  0.00  0.00     0.072 H 
BRANCH  33  36
ATOM     36  C   LIG d   1       4.808  -6.577  -6.068  0.00  0.00     0.082 C 
ATOM     37  H   LIG d   1       5.762  -6.637  -6.593  0.00  0.00     0.059 H 
ATOM     38  H   LIG d   1       4.988  -6.500  -4.996  0.00  0.00     0.059 H 
BRANCH  36  39
ATOM     39  O   LIG d   1       4.042  -7.753  -6.338  0.00  0.00    -0.380 OA
BRANCH  39  40
ATOM     40  C   LIG d   1       4.794  -8.816  -6.926  0.00  0.00     0.037 C 
ATOM     41  H   LIG d   1       5.539  -9.170  -6.213  0.00  0.00     0.052 H 
ATOM     42  H   LIG d   1       4.123  -9.633  -7.188  0.00  0.00     0.052 H 
ATOM     43  H   LIG d   1       5.294  -8.454  -7.825  0.00  0.00     0.052 H 
ENDBRANCH  39  40
ENDBRANCH  36  39
ENDBRANCH  33  36
ENDBRANCH  32  33
ENDBRANCH  30  32
ENDBRANCH  10  30
BRANCH   9  44
ATOM     44  C   LIG d   1       1.372  -5.180 -11.066  0.00  0.00    -0.005 C 
ATOM     45  H   LIG d   1       2.201  -5.780 -11.442  0.00  0.00     0.031 H 
ATOM     46  H   LIG d   1       0.781  -5.775 -10.369  0.00  0.00     0.031 H 
ATOM     47  H   LIG d   1       0.743  -4.866 -11.898  0.00  0.00     0.031 H 
ENDBRANCH   9  44
TORSDOF 14
ENDMDL
MODEL 2
REMARK VINA RESULT:      -5.0      3.631      6.825
REMARK  14 active torsions:
REMARK  status: ('A' for Active; 'I' for Inactive)
REMARK    1  A    between atoms: C_1  and  C_2 
REMARK    2  A    between atoms: C_2  and  O_3 
REMARK    3  A    between atoms: O_3  and  C_4 
REMARK    4  A    between atoms: C_4  and  C_6 
REMARK    5  A    between atoms: C_6  and  C_8 
REMARK    6  A    between atoms: C_6  and  O_9 
REMARK    7  A    between atoms: O_9  and  C_10 
REMARK    8  A    between atoms: C_18  and  C_27 
REMARK    9  A    between atoms: C_19  and  C_20 
REMARK   10  A    between atoms: C_20  and  O_22 
REMARK   11  A    between atoms: O_22  and  C_23 
REMARK   12  A    between atoms: C_23  and  C_24 
REMARK   13  A    between atoms: C_24  and  O_25 
REMARK   14  A    between atoms: O_25  and  C_26 
ROOT
ATOM      1  C   LIG d   1       4.316  -1.007  -7.711  0.00  0.00     0.136 A 
ATOM      2  C   LIG d   1       5.105  -0.966  -6.575  0.00  0.00    -0.007 A 
ATOM      3  C   LIG d   1       4.612  -0.374  -5.417  0.00  0.00     0.038 A 
ATOM      4  C   LIG d   1       3.323   0.180  -5.398  0.00  0.00     0.137 A 
ATOM      5  C   LIG d   1       2.544   0.131  -6.547  0.00  0.00    -0.001 A 
ATOM      6  C   LIG d   1       3.040  -0.453  -7.693  0.00  0.00     0.063 A 
ATOM      7 BR   LIG d   1       1.974  -0.508  -9.255  0.00  0.00    -0.046 Br
ATOM      8  O   LIG d   1       3.111   0.680  -4.162  0.00  0.00    -0.459 OA
ATOM      9  C   LIG d   1       4.173   0.490  -3.371  0.00  0.00     0.117 A 
ATOM     10  C   LIG d   1       5.154  -0.155  -4.061  0.00  0.00     0.107 A 
ATOM     11  H   LIG d   1       6.097  -1.392  -6.587  0.00  0.00     0.066 H 
ATOM     12  H   LIG d   1       1.550   0.556  -6.544  0.00  0.00     0.067 H 
ENDROOT
BRANCH   1  13
ATOM     13  O   LIG d   1       4.791  -1.585  -8.846  0.00  0.00    -0.477 OA
BRANCH  13  14
ATOM     14  C   LIG d   1       5.962  -1.008  -9.427  0.00  0.00     0.193 C 
ATOM     15  H   LIG d   1       6.581  -0.575  -8.641  0.00  0.00     0.085 H 
BRANCH  14  16
ATOM     16  C   LIG d   1       5.561   0.068 -10.402  0.00  0.00     0.348 C 
ATOM     17  O   LIG d   1       4.899  -0.212 -11.373  0.00  0.00    -0.247 OA
BRANCH  16  18
ATOM     18  O   LIG d   1       5.939   1.340 -10.191  0.00  0.00    -0.462 OA
BRANCH  18  19
ATOM     19  C   LIG d   1       5.322   2.034  -9.075  0.00  0.00     0.090 C 
ATOM     20  H   LIG d   1       5.977   2.838  -8.739  0.00  0.00     0.069 H 
ATOM     21  H   LIG d   1       5.158   1.333  -8.256  0.00  0.00     0.069 H 
BRANCH  19  22
ATOM     22  C   LIG d   1       3.980   2.621  -9.519  0.00  0.00    -0.031 C 
ATOM     23  H   LIG d   1       3.304   1.813  -9.797  0.00  0.00     0.026 H 
ATOM     24  H   LIG d   1       3.545   3.194  -8.699  0.00  0.00     0.026 H 
ATOM     25  H   LIG d   1       4.136   3.276 -10.376  0.00  0.00     0.026 H 
ENDBRANCH  19  22
ENDBRANCH  18  19
ENDBRANCH  16  18
ENDBRANCH  14  16
BRANCH  14  26
ATOM     26  C   LIG d   1       6.754  -2.092 -10.160  0.00  0.00    -0.017 C 
ATOM     27  H   LIG d   1       7.734  -1.702 -10.437  0.00  0.00     0.027 H 
ATOM     28  H   LIG d   1       6.877  -2.956  -9.509  0.00  0.00     0.027 H 
ATOM     29  H   LIG d   1       6.215  -2.389 -11.061  0.00  0.00     0.027 H 
ENDBRANCH  14  26
ENDBRANCH  13  14
ENDBRANCH   1  13
BRANCH  10  30
ATOM     30  C   LIG d   1       6.476  -0.553  -3.560  0.00  0.00     0.343 C 
ATOM     31  O   LIG d   1       6.676  -1.701  -3.214  0.00  0.00    -0.245 OA
BRANCH  30  32
ATOM     32  O   LIG d   1       7.470   0.355  -3.485  0.00  0.00    -0.459 OA
BRANCH  32  33
ATOM     33  C   LIG d   1       8.354   0.460  -4.631  0.00  0.00     0.116 C 
ATOM     34  H   LIG d   1       9.384   0.305  -4.311  0.00  0.00     0.072 H 
ATOM     35  H   LIG d   1       8.085  -0.295  -5.369  0.00  0.00     0.072 H 
BRANCH  33  36
ATOM     36  C   LIG d   1       8.219   1.852  -5.253  0.00  0.00     0.082 C 
ATOM     37  H   LIG d   1       7.567   2.466  -4.633  0.00  0.00     0.059 H 
ATOM     38  H   LIG d   1       9.203   2.317  -5.318  0.00  0.00     0.059 H 
BRANCH  36  39
ATOM     39  O   LIG d   1       7.660   1.736  -6.564  0.00  0.00    -0.380 OA
BRANCH  39  40
ATOM     40  C   LIG d   1       8.425   0.919  -7.453  0.00  0.00     0.037 C 
ATOM     41  H   LIG d   1       8.580  -0.061  -7.002  0.00  0.00     0.052 H 
ATOM     42  H   LIG d   1       7.889   0.807  -8.394  0.00  0.00     0.052 H 
ATOM     43  H   LIG d   1       9.391   1.391  -7.639  0.00  0.00     0.052 H 
ENDBRANCH  39  40
ENDBRANCH  36  39
ENDBRANCH  33  36
ENDBRANCH  32  33
ENDBRANCH  30  32
ENDBRANCH  10  30
BRANCH   9  44
ATOM     44  C   LIG d   1       4.269   0.924  -1.932  0.00  0.00    -0.005 C 
ATOM     45  H   LIG d   1       5.088   0.395  -1.445  0.00  0.00     0.031 H 
ATOM     46  H   LIG d   1       4.454   1.998  -1.887  0.00  0.00     0.031 H 
ATOM     47  H   LIG d   1       3.334   0.696  -1.420  0.00  0.00     0.031 H 
ENDBRANCH   9  44
TORSDOF 14
ENDMDL
MODEL 3
REMARK VINA RESULT:      -5.0      2.921      6.354
REMARK  14 active torsions:
REMARK  status: ('A' for Active; 'I' for Inactive)
REMARK    1  A    between atoms: C_1  and  C_2 
REMARK    2  A    between atoms: C_2  and  O_3 
REMARK    3  A    between atoms: O_3  and  C_4 
REMARK    4  A    between atoms: C_4  and  C_6 
REMARK    5  A    between atoms: C_6  and  C_8 
REMARK    6  A    between atoms: C_6  and  O_9 
REMARK    7  A    between atoms: O_9  and  C_10 
REMARK    8  A    between atoms: C_18  and  C_27 
REMARK    9  A    between atoms: C_19  and  C_20 
REMARK   10  A    between atoms: C_20  and  O_22 
REMARK   11  A    between atoms: O_22  and  C_23 
REMARK   12  A    between atoms: C_23  and  C_24 
REMARK   13  A    between atoms: C_24  and  O_25 
REMARK   14  A    between atoms: O_25  and  C_26 
ROOT
ATOM      1  C   LIG d   1       4.592  -2.333  -5.100  0.00  0.00     0.136 A 
ATOM      2  C   LIG d   1       4.629  -1.976  -6.436  0.00  0.00    -0.007 A 
ATOM      3  C   LIG d   1       4.031  -0.789  -6.847  0.00  0.00     0.038 A 
ATOM      4  C   LIG d   1       3.394   0.043  -5.915  0.00  0.00     0.137 A 
ATOM      5  C   LIG d   1       3.365  -0.330  -4.577  0.00  0.00    -0.001 A 
ATOM      6  C   LIG d   1       3.955  -1.509  -4.176  0.00  0.00     0.063 A 
ATOM      7 BR   LIG d   1       3.903  -2.011  -2.353  0.00  0.00    -0.046 Br
ATOM      8  O   LIG d   1       2.910   1.111  -6.585  0.00  0.00    -0.459 OA
ATOM      9  C   LIG d   1       3.187   1.034  -7.891  0.00  0.00     0.117 A 
ATOM     10  C   LIG d   1       3.880  -0.109  -8.149  0.00  0.00     0.107 A 
ATOM     11  H   LIG d   1       5.119  -2.615  -7.155  0.00  0.00     0.066 H 
ATOM     12  H   LIG d   1       2.876   0.304  -3.851  0.00  0.00     0.067 H 
ENDROOT
BRANCH   1  13
ATOM     13  O   LIG d   1       5.173  -3.491  -4.690  0.00  0.00    -0.477 OA
BRANCH  13  14
ATOM     14  C   LIG d   1       5.544  -4.425  -5.705  0.00  0.00     0.193 C 
ATOM     15  H   LIG d   1       5.520  -3.934  -6.678  0.00  0.00     0.085 H 
BRANCH  14  16
ATOM     16  C   LIG d   1       4.577  -5.581  -5.702  0.00  0.00     0.348 C 
ATOM     17  O   LIG d   1       3.443  -5.420  -6.082  0.00  0.00    -0.247 OA
BRANCH  16  18
ATOM     18  O   LIG d   1       4.978  -6.790  -5.275  0.00  0.00    -0.462 OA
BRANCH  18  19
ATOM     19  C   LIG d   1       4.816  -7.900  -6.197  0.00  0.00     0.090 C 
ATOM     20  H   LIG d   1       4.844  -7.530  -7.222  0.00  0.00     0.069 H 
ATOM     21  H   LIG d   1       3.859  -8.388  -6.013  0.00  0.00     0.069 H 
BRANCH  19  22
ATOM     22  C   LIG d   1       5.950  -8.907  -5.987  0.00  0.00    -0.031 C 
ATOM     23  H   LIG d   1       6.706  -8.768  -6.759  0.00  0.00     0.026 H 
ATOM     24  H   LIG d   1       6.398  -8.749  -5.005  0.00  0.00     0.026 H 
ATOM     25  H   LIG d   1       5.552  -9.920  -6.046  0.00  0.00     0.026 H 
ENDBRANCH  19  22
ENDBRANCH  18  19
ENDBRANCH  16  18
ENDBRANCH  14  16
BRANCH  14  26
ATOM     26  C   LIG d   1       6.958  -4.942  -5.431  0.00  0.00    -0.017 C 
ATOM     27  H   LIG d   1       7.679  -4.333  -5.977  0.00  0.00     0.027 H 
ATOM     28  H   LIG d   1       7.166  -4.883  -4.363  0.00  0.00     0.027 H 
ATOM     29  H   LIG d   1       7.036  -5.978  -5.760  0.00  0.00     0.027 H 
ENDBRANCH  14  26
ENDBRANCH  13  14
ENDBRANCH   1  13
BRANCH  10  30
ATOM     30  C   LIG d   1       4.375  -0.571  -9.453  0.00  0.00     0.343 C 
ATOM     31  O   LIG d   1       3.916  -1.578  -9.956  0.00  0.00    -0.245 OA
BRANCH  30  32
ATOM     32  O   LIG d   1       5.339   0.122 -10.092  0.00  0.00    -0.459 OA
BRANCH  32  33
ATOM     33  C   LIG d   1       6.603   0.286  -9.396  0.00  0.00     0.116 C 
ATOM     34  H   LIG d   1       6.636  -0.384  -8.538  0.00  0.00     0.072 H 
ATOM     35  H   LIG d   1       7.424   0.051 -10.073  0.00  0.00     0.072 H 
BRANCH  33  36
ATOM     36  C   LIG d   1       6.737   1.733  -8.917  0.00  0.00     0.082 C 
ATOM     37  H   LIG d   1       7.479   2.251  -9.526  0.00  0.00     0.059 H 
ATOM     38  H   LIG d   1       5.775   2.237  -9.010  0.00  0.00     0.059 H 
BRANCH  36  39
ATOM     39  O   LIG d   1       7.150   1.746  -7.549  0.00  0.00    -0.380 OA
BRANCH  39  40
ATOM     40  C   LIG d   1       7.450   0.454  -7.019  0.00  0.00     0.037 C 
ATOM     41  H   LIG d   1       8.154   0.555  -6.194  0.00  0.00     0.052 H 
ATOM     42  H   LIG d   1       6.534  -0.014  -6.662  0.00  0.00     0.052 H 
ATOM     43  H   LIG d   1       7.893  -0.166  -7.800  0.00  0.00     0.052 H 
ENDBRANCH  39  40
ENDBRANCH  36  39
ENDBRANCH  33  36
ENDBRANCH  32  33
ENDBRANCH  30  32
ENDBRANCH  10  30
BRANCH   9  44
ATOM     44  C   LIG d   1       2.792   2.059  -8.921  0.00  0.00    -0.005 C 
ATOM     45  H   LIG d   1       2.199   1.582  -9.701  0.00  0.00     0.031 H 
ATOM     46  H   LIG d   1       2.204   2.845  -8.447  0.00  0.00     0.031 H 
ATOM     47  H   LIG d   1       3.689   2.494  -9.363  0.00  0.00     0.031 H 
ENDBRANCH   9  44
TORSDOF 14
ENDMDL
MODEL 4
REMARK VINA RESULT:      -5.0      8.130     11.414
REMARK  14 active torsions:
REMARK  status: ('A' for Active; 'I' for Inactive)
REMARK    1  A    between atoms: C_1  and  C_2 
REMARK    2  A    between atoms: C_2  and  O_3 
REMARK    3  A    between atoms: O_3  and  C_4 
REMARK    4  A    between atoms: C_4  and  C_6 
REMARK    5  A    between atoms: C_6  and  C_8 
REMARK    6  A    between atoms: C_6  and  O_9 
REMARK    7  A    between atoms: O_9  and  C_10 
REMARK    8  A    between atoms: C_18  and  C_27 
REMARK    9  A    between atoms: C_19  and  C_20 
REMARK   10  A    between atoms: C_20  and  O_22 
REMARK   11  A    between atoms: O_22  and  C_23 
REMARK   12  A    between atoms: C_23  and  C_24 
REMARK   13  A    between atoms: C_24  and  O_25 
REMARK   14  A    between atoms: O_25  and  C_26 
ROOT
ATOM      1  C   LIG d   1       9.884   7.159  -1.881  0.00  0.00     0.136 A 
ATOM      2  C   LIG d   1       9.728   5.822  -2.199  0.00  0.00    -0.007 A 
ATOM      3  C   LIG d   1       9.719   5.430  -3.534  0.00  0.00     0.038 A 
ATOM      4  C   LIG d   1       9.867   6.381  -4.554  0.00  0.00     0.137 A 
ATOM      5  C   LIG d   1      10.023   7.721  -4.217  0.00  0.00    -0.001 A 
ATOM      6  C   LIG d   1      10.026   8.104  -2.893  0.00  0.00     0.063 A 
ATOM      7 BR   LIG d   1      10.230   9.931  -2.447  0.00  0.00    -0.046 Br
ATOM      8  O   LIG d   1       9.821   5.727  -5.733  0.00  0.00    -0.459 OA
ATOM      9  C   LIG d   1       9.653   4.412  -5.555  0.00  0.00     0.117 A 
ATOM     10  C   LIG d   1       9.579   4.132  -4.225  0.00  0.00     0.107 A 
ATOM     11  H   LIG d   1       9.614   5.087  -1.416  0.00  0.00     0.066 H 
ATOM     12  H   LIG d   1      10.137   8.462  -4.995  0.00  0.00     0.067 H 
ENDROOT
BRANCH   1  13
ATOM     13  O   LIG d   1       9.893   7.551  -0.579  0.00  0.00    -0.477 OA
BRANCH  13  14
ATOM     14  C   LIG d   1      11.161   7.590   0.077  0.00  0.00     0.193 C 
ATOM     15  H   LIG d   1      11.945   7.777  -0.658  0.00  0.00     0.085 H 
BRANCH  14  16
ATOM     16  C   LIG d   1      11.416   6.270   0.757  0.00  0.00     0.348 C 
ATOM     17  O   LIG d   1      10.703   5.909   1.662  0.00  0.00    -0.247 OA
BRANCH  16  18
ATOM     18  O   LIG d   1      12.437   5.495   0.357  0.00  0.00    -0.462 OA
BRANCH  18  19
ATOM     19  C   LIG d   1      13.372   6.074  -0.592  0.00  0.00     0.090 C 
ATOM     20  H   LIG d   1      14.372   6.081  -0.159  0.00  0.00     0.069 H 
ATOM     21  H   LIG d   1      13.069   7.096  -0.822  0.00  0.00     0.069 H 
BRANCH  19  22
ATOM     22  C   LIG d   1      13.377   5.242  -1.876  0.00  0.00    -0.031 C 
ATOM     23  H   LIG d   1      12.533   4.552  -1.865  0.00  0.00     0.026 H 
ATOM     24  H   LIG d   1      13.295   5.904  -2.738  0.00  0.00     0.026 H 
ATOM     25  H   LIG d   1      14.307   4.677  -1.939  0.00  0.00     0.026 H 
ENDBRANCH  19  22
ENDBRANCH  18  19
ENDBRANCH  16  18
ENDBRANCH  14  16
BRANCH  14  26
ATOM     26  C   LIG d   1      11.162   8.710   1.119  0.00  0.00    -0.017 C 
ATOM     27  H   LIG d   1      10.187   8.753   1.607  0.00  0.00     0.027 H 
ATOM     28  H   LIG d   1      11.933   8.514   1.863  0.00  0.00     0.027 H 
ATOM     29  H   LIG d   1      11.364   9.662   0.629  0.00  0.00     0.027 H 
ENDBRANCH  14  26
ENDBRANCH  13  14
ENDBRANCH   1  13
BRANCH  10  30
ATOM     30  C   LIG d   1       9.399   2.812  -3.605  0.00  0.00     0.343 C 
ATOM     31  O   LIG d   1      10.369   2.145  -3.302  0.00  0.00    -0.245 OA
BRANCH  30  32
ATOM     32  O   LIG d   1       8.157   2.341  -3.371  0.00  0.00    -0.459 OA
BRANCH  32  33
ATOM     33  C   LIG d   1       7.741   1.176  -4.129  0.00  0.00     0.116 C 
ATOM     34  H   LIG d   1       7.412   1.485  -5.121  0.00  0.00     0.072 H 
ATOM     35  H   LIG d   1       8.579   0.486  -4.224  0.00  0.00     0.072 H 
BRANCH  33  36
ATOM     36  C   LIG d   1       6.588   0.480  -3.403  0.00  0.00     0.082 C 
ATOM     37  H   LIG d   1       5.941  -0.009  -4.132  0.00  0.00     0.059 H 
ATOM     38  H   LIG d   1       6.988  -0.265  -2.716  0.00  0.00     0.059 H 
BRANCH  36  39
ATOM     39  O   LIG d   1       5.833   1.447  -2.670  0.00  0.00    -0.380 OA
BRANCH  39  40
ATOM     40  C   LIG d   1       4.722   0.900  -1.957  0.00  0.00     0.037 C 
ATOM     41  H   LIG d   1       4.601  -0.149  -2.225  0.00  0.00     0.052 H 
ATOM     42  H   LIG d   1       4.901   0.984  -0.886  0.00  0.00     0.052 H 
ATOM     43  H   LIG d   1       3.817   1.449  -2.219  0.00  0.00     0.052 H 
ENDBRANCH  39  40
ENDBRANCH  36  39
ENDBRANCH  33  36
ENDBRANCH  32  33
ENDBRANCH  30  32
ENDBRANCH  10  30
BRANCH   9  44
ATOM     44  C   LIG d   1       9.561   3.393  -6.661  0.00  0.00    -0.005 C 
ATOM     45  H   LIG d   1      10.557   3.016  -6.892  0.00  0.00     0.031 H 
ATOM     46  H   LIG d   1       8.925   2.567  -6.343  0.00  0.00     0.031 H 
ATOM     47  H   LIG d   1       9.134   3.859  -7.549  0.00  0.00     0.031 H 
ENDBRANCH   9  44
TORSDOF 14
ENDMDL
MODEL 5
REMARK VINA RESULT:      -5.0      1.716      6.375
REMARK  14 active torsions:
REMARK  status: ('A' for Active; 'I' for Inactive)
REMARK    1  A    between atoms: C_1  and  C_2 
REMARK    2  A    between atoms: C_2  and  O_3 
REMARK    3  A    between atoms: O_3  and  C_4 
REMARK    4  A    between atoms: C_4  and  C_6 
REMARK    5  A    between atoms: C_6  and  C_8 
REMARK    6  A    between atoms: C_6  and  O_9 
REMARK    7  A    between atoms: O_9  and  C_10 
REMARK    8  A    between atoms: C_18  and  C_27 
REMARK    9  A    between atoms: C_19  and  C_20 
REMARK   10  A    between atoms: C_20  and  O_22 
REMARK   11  A    between atoms: O_22  and  C_23 
REMARK   12  A    between atoms: C_23  and  C_24 
REMARK   13  A    between atoms: C_24  and  O_25 
REMARK   14  A    between atoms: O_25  and  C_26 
ROOT
ATOM      1  C   LIG d   1       3.818  -1.628  -8.046  0.00  0.00     0.136 A 
ATOM      2  C   LIG d   1       4.159  -1.863  -6.726  0.00  0.00    -0.007 A 
ATOM      3  C   LIG d   1       3.841  -0.919  -5.756  0.00  0.00     0.038 A 
ATOM      4  C   LIG d   1       3.178   0.265  -6.109  0.00  0.00     0.137 A 
ATOM      5  C   LIG d   1       2.842   0.486  -7.440  0.00  0.00    -0.001 A 
ATOM      6  C   LIG d   1       3.165  -0.451  -8.398  0.00  0.00     0.063 A 
ATOM      7 BR   LIG d   1       2.710  -0.136 -10.207  0.00  0.00    -0.046 Br
ATOM      8  O   LIG d   1       3.000   0.987  -4.982  0.00  0.00    -0.459 OA
ATOM      9  C   LIG d   1       3.501   0.355  -3.915  0.00  0.00     0.117 A 
ATOM     10  C   LIG d   1       4.043  -0.835  -4.295  0.00  0.00     0.107 A 
ATOM     11  H   LIG d   1       4.669  -2.774  -6.451  0.00  0.00     0.066 H 
ATOM     12  H   LIG d   1       2.332   1.396  -7.723  0.00  0.00     0.067 H 
ENDROOT
BRANCH   1  13
ATOM     13  O   LIG d   1       4.125  -2.546  -9.001  0.00  0.00    -0.477 OA
BRANCH  13  14
ATOM     14  C   LIG d   1       3.482  -3.818  -8.909  0.00  0.00     0.193 C 
ATOM     15  H   LIG d   1       2.960  -3.893  -7.954  0.00  0.00     0.085 H 
BRANCH  14  16
ATOM     16  C   LIG d   1       4.515  -4.911  -9.004  0.00  0.00     0.348 C 
ATOM     17  O   LIG d   1       4.748  -5.431 -10.069  0.00  0.00    -0.247 OA
BRANCH  16  18
ATOM     18  O   LIG d   1       5.175  -5.308  -7.904  0.00  0.00    -0.462 OA
BRANCH  18  19
ATOM     19  C   LIG d   1       4.415  -6.041  -6.907  0.00  0.00     0.090 C 
ATOM     20  H   LIG d   1       4.737  -7.083  -6.898  0.00  0.00     0.069 H 
ATOM     21  H   LIG d   1       3.354  -5.991  -7.151  0.00  0.00     0.069 H 
BRANCH  19  22
ATOM     22  C   LIG d   1       4.652  -5.422  -5.528  0.00  0.00    -0.031 C 
ATOM     23  H   LIG d   1       4.207  -4.428  -5.495  0.00  0.00     0.026 H 
ATOM     24  H   LIG d   1       4.194  -6.051  -4.764  0.00  0.00     0.026 H 
ATOM     25  H   LIG d   1       5.724  -5.348  -5.342  0.00  0.00     0.026 H 
ENDBRANCH  19  22
ENDBRANCH  18  19
ENDBRANCH  16  18
ENDBRANCH  14  16
BRANCH  14  26
ATOM     26  C   LIG d   1       2.477  -3.965 -10.052  0.00  0.00    -0.017 C 
ATOM     27  H   LIG d   1       1.737  -3.166  -9.990  0.00  0.00     0.027 H 
ATOM     28  H   LIG d   1       2.999  -3.904 -11.006  0.00  0.00     0.027 H 
ATOM     29  H   LIG d   1       1.975  -4.930  -9.974  0.00  0.00     0.027 H 
ENDBRANCH  14  26
ENDBRANCH  13  14
ENDBRANCH   1  13
BRANCH  10  30
ATOM     30  C   LIG d   1       4.693  -1.830  -3.432  0.00  0.00     0.343 C 
ATOM     31  O   LIG d   1       4.114  -2.860  -3.147  0.00  0.00    -0.245 OA
BRANCH  30  32
ATOM     32  O   LIG d   1       5.933  -1.601  -2.955  0.00  0.00    -0.459 OA
BRANCH  32  33
ATOM     33  C   LIG d   1       6.933  -1.154  -3.907  0.00  0.00     0.116 C 
ATOM     34  H   LIG d   1       7.847  -1.732  -3.773  0.00  0.00     0.072 H 
ATOM     35  H   LIG d   1       6.559  -1.297  -4.921  0.00  0.00     0.072 H 
BRANCH  33  36
ATOM     36  C   LIG d   1       7.230   0.329  -3.677  0.00  0.00     0.082 C 
ATOM     37  H   LIG d   1       6.615   0.701  -2.858  0.00  0.00     0.059 H 
ATOM     38  H   LIG d   1       8.283   0.454  -3.427  0.00  0.00     0.059 H 
BRANCH  36  39
ATOM     39  O   LIG d   1       6.934   1.064  -4.867  0.00  0.00    -0.380 OA
BRANCH  39  40
ATOM     40  C   LIG d   1       7.261   0.375  -6.074  0.00  0.00     0.037 C 
ATOM     41  H   LIG d   1       8.344   0.305  -6.170  0.00  0.00     0.052 H 
ATOM     42  H   LIG d   1       6.833  -0.627  -6.048  0.00  0.00     0.052 H 
ATOM     43  H   LIG d   1       6.855   0.921  -6.926  0.00  0.00     0.052 H 
ENDBRANCH  39  40
ENDBRANCH  36  39
ENDBRANCH  33  36
ENDBRANCH  32  33
ENDBRANCH  30  32
ENDBRANCH  10  30
BRANCH   9  44
ATOM     44  C   LIG d   1       3.469   0.880  -2.504  0.00  0.00    -0.005 C 
ATOM     45  H   LIG d   1       3.317   0.053  -1.811  0.00  0.00     0.031 H 
ATOM     46  H   LIG d   1       4.413   1.375  -2.278  0.00  0.00     0.031 H 
ATOM     47  H   LIG d   1       2.652   1.595  -2.401  0.00  0.00     0.031 H 
ENDBRANCH   9  44
TORSDOF 14
ENDMDL
MODEL 6
REMARK VINA RESULT:      -4.9      3.510      6.256
REMARK  14 active torsions:
REMARK  status: ('A' for Active; 'I' for Inactive)
REMARK    1  A    between atoms: C_1  and  C_2 
REMARK    2  A    between atoms: C_2  and  O_3 
REMARK    3  A    between atoms: O_3  and  C_4 
REMARK    4  A    between atoms: C_4  and  C_6 
REMARK    5  A    between atoms: C_6  and  C_8 
REMARK    6  A    between atoms: C_6  and  O_9 
REMARK    7  A    between atoms: O_9  and  C_10 
REMARK    8  A    between atoms: C_18  and  C_27 
REMARK    9  A    between atoms: C_19  and  C_20 
REMARK   10  A    between atoms: C_20  and  O_22 
REMARK   11  A    between atoms: O_22  and  C_23 
REMARK   12  A    between atoms: C_23  and  C_24 
REMARK   13  A    between atoms: C_24  and  O_25 
REMARK   14  A    between atoms: O_25  and  C_26 
ROOT
ATOM      1  C   LIG d   1       4.312  -0.974  -7.767  0.00  0.00     0.136 A 
ATOM      2  C   LIG d   1       5.101  -0.974  -6.630  0.00  0.00    -0.007 A 
ATOM      3  C   LIG d   1       4.598  -0.448  -5.445  0.00  0.00     0.038 A 
ATOM      4  C   LIG d   1       3.300   0.080  -5.398  0.00  0.00     0.137 A 
ATOM      5  C   LIG d   1       2.520   0.072  -6.549  0.00  0.00    -0.001 A 
ATOM      6  C   LIG d   1       3.025  -0.446  -7.722  0.00  0.00     0.063 A 
ATOM      7 BR   LIG d   1       1.959  -0.444  -9.284  0.00  0.00    -0.046 Br
ATOM      8  O   LIG d   1       3.080   0.514  -4.139  0.00  0.00    -0.459 OA
ATOM      9  C   LIG d   1       4.146   0.307  -3.359  0.00  0.00     0.117 A 
ATOM     10  C   LIG d   1       5.138  -0.286  -4.080  0.00  0.00     0.107 A 
ATOM     11  H   LIG d   1       6.101  -1.380  -6.664  0.00  0.00     0.066 H 
ATOM     12  H   LIG d   1       1.518   0.477  -6.524  0.00  0.00     0.067 H 
ENDROOT
BRANCH   1  13
ATOM     13  O   LIG d   1       4.796  -1.487  -8.929  0.00  0.00    -0.477 OA
BRANCH  13  14
ATOM     14  C   LIG d   1       5.924  -0.829  -9.508  0.00  0.00     0.193 C 
ATOM     15  H   LIG d   1       6.323  -0.101  -8.801  0.00  0.00     0.085 H 
BRANCH  14  16
ATOM     16  C   LIG d   1       5.501  -0.122 -10.770  0.00  0.00     0.348 C 
ATOM     17  O   LIG d   1       5.647  -0.660 -11.842  0.00  0.00    -0.247 OA
BRANCH  16  18
ATOM     18  O   LIG d   1       4.960   1.105 -10.703  0.00  0.00    -0.462 OA
BRANCH  18  19
ATOM     19  C   LIG d   1       5.255   1.891  -9.517  0.00  0.00     0.090 C 
ATOM     20  H   LIG d   1       6.138   2.504  -9.698  0.00  0.00     0.069 H 
ATOM     21  H   LIG d   1       5.443   1.223  -8.677  0.00  0.00     0.069 H 
BRANCH  19  22
ATOM     22  C   LIG d   1       4.063   2.794  -9.195  0.00  0.00    -0.031 C 
ATOM     23  H   LIG d   1       3.248   2.191  -8.794  0.00  0.00     0.026 H 
ATOM     24  H   LIG d   1       4.361   3.539  -8.456  0.00  0.00     0.026 H 
ATOM     25  H   LIG d   1       3.731   3.296 -10.103  0.00  0.00     0.026 H 
ENDBRANCH  19  22
ENDBRANCH  18  19
ENDBRANCH  16  18
ENDBRANCH  14  16
BRANCH  14  26
ATOM     26  C   LIG d   1       7.003  -1.862  -9.839  0.00  0.00    -0.017 C 
ATOM     27  H   LIG d   1       7.344  -1.716 -10.864  0.00  0.00     0.027 H 
ATOM     28  H   LIG d   1       7.842  -1.743  -9.155  0.00  0.00     0.027 H 
ATOM     29  H   LIG d   1       6.589  -2.865  -9.735  0.00  0.00     0.027 H 
ENDBRANCH  14  26
ENDBRANCH  13  14
ENDBRANCH   1  13
BRANCH  10  30
ATOM     30  C   LIG d   1       6.468  -0.682  -3.600  0.00  0.00     0.343 C 
ATOM     31  O   LIG d   1       7.380   0.122  -3.600  0.00  0.00    -0.245 OA
BRANCH  30  32
ATOM     32  O   LIG d   1       6.679  -1.939  -3.158  0.00  0.00    -0.459 OA
BRANCH  32  33
ATOM     33  C   LIG d   1       7.100  -2.921  -4.141  0.00  0.00     0.116 C 
ATOM     34  H   LIG d   1       6.624  -3.877  -3.926  0.00  0.00     0.072 H 
ATOM     35  H   LIG d   1       6.810  -2.586  -5.136  0.00  0.00     0.072 H 
BRANCH  33  36
ATOM     36  C   LIG d   1       8.620  -3.083  -4.081  0.00  0.00     0.082 C 
ATOM     37  H   LIG d   1       9.033  -3.023  -5.088  0.00  0.00     0.059 H 
ATOM     38  H   LIG d   1       9.046  -2.291  -3.465  0.00  0.00     0.059 H 
BRANCH  36  39
ATOM     39  O   LIG d   1       8.941  -4.354  -3.510  0.00  0.00    -0.380 OA
BRANCH  39  40
ATOM     40  C   LIG d   1       9.744  -4.276  -2.331  0.00  0.00     0.037 C 
ATOM     41  H   LIG d   1       9.126  -4.485  -1.457  0.00  0.00     0.052 H 
ATOM     42  H   LIG d   1      10.549  -5.008  -2.391  0.00  0.00     0.052 H 
ATOM     43  H   LIG d   1      10.168  -3.276  -2.245  0.00  0.00     0.052 H 
ENDBRANCH  39  40
ENDBRANCH  36  39
ENDBRANCH  33  36
ENDBRANCH  32  33
ENDBRANCH  30  32
ENDBRANCH  10  30
BRANCH   9  44
ATOM     44  C   LIG d   1       4.236   0.672  -1.900  0.00  0.00    -0.005 C 
ATOM     45  H   LIG d   1       4.585   1.699  -1.803  0.00  0.00     0.031 H 
ATOM     46  H   LIG d   1       3.252   0.578  -1.441  0.00  0.00     0.031 H 
ATOM     47  H   LIG d   1       4.934   0.001  -1.400  0.00  0.00     0.031 H 
ENDBRANCH   9  44
TORSDOF 14
ENDMDL
MODEL 7
REMARK VINA RESULT:      -4.8      8.411     11.547
REMARK  14 active torsions:
REMARK  status: ('A' for Active; 'I' for Inactive)
REMARK    1  A    between atoms: C_1  and  C_2 
REMARK    2  A    between atoms: C_2  and  O_3 
REMARK    3  A    between atoms: O_3  and  C_4 
REMARK    4  A    between atoms: C_4  and  C_6 
REMARK    5  A    between atoms: C_6  and  C_8 
REMARK    6  A    between atoms: C_6  and  O_9 
REMARK    7  A    between atoms: O_9  and  C_10 
REMARK    8  A    between atoms: C_18  and  C_27 
REMARK    9  A    between atoms: C_19  and  C_20 
REMARK   10  A    between atoms: C_20  and  O_22 
REMARK   11  A    between atoms: O_22  and  C_23 
REMARK   12  A    between atoms: C_23  and  C_24 
REMARK   13  A    between atoms: C_24  and  O_25 
REMARK   14  A    between atoms: O_25  and  C_26 
ROOT
ATOM      1  C   LIG d   1      10.002   6.996  -1.510  0.00  0.00     0.136 A 
ATOM      2  C   LIG d   1       9.939   5.684  -1.944  0.00  0.00    -0.007 A 
ATOM      3  C   LIG d   1       9.856   5.414  -3.306  0.00  0.00     0.038 A 
ATOM      4  C   LIG d   1       9.836   6.463  -4.237  0.00  0.00     0.137 A 
ATOM      5  C   LIG d   1       9.900   7.775  -3.785  0.00  0.00    -0.001 A 
ATOM      6  C   LIG d   1       9.977   8.037  -2.434  0.00  0.00     0.063 A 
ATOM      7 BR   LIG d   1      10.056   9.828  -1.829  0.00  0.00    -0.046 Br
ATOM      8  O   LIG d   1       9.752   5.915  -5.468  0.00  0.00    -0.459 OA
ATOM      9  C   LIG d   1       9.716   4.580  -5.406  0.00  0.00     0.117 A 
ATOM     10  C   LIG d   1       9.776   4.176  -4.107  0.00  0.00     0.107 A 
ATOM     11  H   LIG d   1       9.955   4.875  -1.230  0.00  0.00     0.066 H 
ATOM     12  H   LIG d   1       9.885   8.591  -4.494  0.00  0.00     0.067 H 
ENDROOT
BRANCH   1  13
ATOM     13  O   LIG d   1      10.083   7.269  -0.181  0.00  0.00    -0.477 OA
BRANCH  13  14
ATOM     14  C   LIG d   1      11.331   7.001   0.461  0.00  0.00     0.193 C 
ATOM     15  H   LIG d   1      11.907   6.299  -0.143  0.00  0.00     0.085 H 
BRANCH  14  16
ATOM     16  C   LIG d   1      11.078   6.404   1.821  0.00  0.00     0.348 C 
ATOM     17  O   LIG d   1      10.603   5.297   1.916  0.00  0.00    -0.247 OA
BRANCH  16  18
ATOM     18  O   LIG d   1      11.380   7.103   2.928  0.00  0.00    -0.462 OA
BRANCH  18  19
ATOM     19  C   LIG d   1      10.967   6.534   4.199  0.00  0.00     0.090 C 
ATOM     20  H   LIG d   1      11.369   5.526   4.294  0.00  0.00     0.069 H 
ATOM     21  H   LIG d   1       9.878   6.497   4.243  0.00  0.00     0.069 H 
BRANCH  19  22
ATOM     22  C   LIG d   1      11.494   7.404   5.341  0.00  0.00    -0.031 C 
ATOM     23  H   LIG d   1      11.151   7.001   6.294  0.00  0.00     0.026 H 
ATOM     24  H   LIG d   1      12.585   7.410   5.320  0.00  0.00     0.026 H 
ATOM     25  H   LIG d   1      11.124   8.423   5.224  0.00  0.00     0.026 H 
ENDBRANCH  19  22
ENDBRANCH  18  19
ENDBRANCH  16  18
ENDBRANCH  14  16
BRANCH  14  26
ATOM     26  C   LIG d   1      12.115   8.305   0.614  0.00  0.00    -0.017 C 
ATOM     27  H   LIG d   1      12.525   8.367   1.623  0.00  0.00     0.027 H 
ATOM     28  H   LIG d   1      12.928   8.328  -0.111  0.00  0.00     0.027 H 
ATOM     29  H   LIG d   1      11.451   9.152   0.441  0.00  0.00     0.027 H 
ENDBRANCH  14  26
ENDBRANCH  13  14
ENDBRANCH   1  13
BRANCH  10  30
ATOM     30  C   LIG d   1       9.763   2.795  -3.606  0.00  0.00     0.343 C 
ATOM     31  O   LIG d   1      10.800   2.163  -3.539  0.00  0.00    -0.245 OA
BRANCH  30  32
ATOM     32  O   LIG d   1       8.602   2.228  -3.219  0.00  0.00    -0.459 OA
BRANCH  32  33
ATOM     33  C   LIG d   1       7.838   1.532  -4.238  0.00  0.00     0.116 C 
ATOM     34  H   LIG d   1       7.407   2.257  -4.928  0.00  0.00     0.072 H 
ATOM     35  H   LIG d   1       8.493   0.855  -4.785  0.00  0.00     0.072 H 
BRANCH  33  36
ATOM     36  C   LIG d   1       6.716   0.731  -3.575  0.00  0.00     0.082 C 
ATOM     37  H   LIG d   1       7.095  -0.244  -3.270  0.00  0.00     0.059 H 
ATOM     38  H   LIG d   1       6.353   1.270  -2.699  0.00  0.00     0.059 H 
BRANCH  36  39
ATOM     39  O   LIG d   1       5.642   0.555  -4.503  0.00  0.00    -0.380 OA
BRANCH  39  40
ATOM     40  C   LIG d   1       5.622  -0.726  -5.134  0.00  0.00     0.037 C 
ATOM     41  H   LIG d   1       6.435  -0.787  -5.858  0.00  0.00     0.052 H 
ATOM     42  H   LIG d   1       5.748  -1.504  -4.381  0.00  0.00     0.052 H 
ATOM     43  H   LIG d   1       4.669  -0.866  -5.644  0.00  0.00     0.052 H 
ENDBRANCH  39  40
ENDBRANCH  36  39
ENDBRANCH  33  36
ENDBRANCH  32  33
ENDBRANCH  30  32
ENDBRANCH  10  30
BRANCH   9  44
ATOM     44  C   LIG d   1       9.624   3.660  -6.596  0.00  0.00    -0.005 C 
ATOM     45  H   LIG d   1      10.489   3.813  -7.241  0.00  0.00     0.031 H 
ATOM     46  H   LIG d   1       9.604   2.625  -6.255  0.00  0.00     0.031 H 
ATOM     47  H   LIG d   1       8.712   3.876  -7.153  0.00  0.00     0.031 H 
ENDBRANCH   9  44
TORSDOF 14
ENDMDL
MODEL 8
REMARK VINA RESULT:      -4.7      7.669     10.583
REMARK  14 active torsions:
REMARK  status: ('A' for Active; 'I' for Inactive)
REMARK    1  A    between atoms: C_1  and  C_2 
REMARK    2  A    between atoms: C_2  and  O_3 
REMARK    3  A    between atoms: O_3  and  C_4 
REMARK    4  A    between atoms: C_4  and  C_6 
REMARK    5  A    between atoms: C_6  and  C_8 
REMARK    6  A    between atoms: C_6  and  O_9 
REMARK    7  A    between atoms: O_9  and  C_10 
REMARK    8  A    between atoms: C_18  and  C_27 
REMARK    9  A    between atoms: C_19  and  C_20 
REMARK   10  A    between atoms: C_20  and  O_22 
REMARK   11  A    between atoms: O_22  and  C_23 
REMARK   12  A    between atoms: C_23  and  C_24 
REMARK   13  A    between atoms: C_24  and  O_25 
REMARK   14  A    between atoms: O_25  and  C_26 
ROOT
ATOM      1  C   LIG d   1       9.903   7.013  -4.359  0.00  0.00     0.136 A 
ATOM      2  C   LIG d   1       9.516   5.706  -4.117  0.00  0.00    -0.007 A 
ATOM      3  C   LIG d   1       9.493   4.791  -5.164  0.00  0.00     0.038 A 
ATOM      4  C   LIG d   1       9.859   5.186  -6.459  0.00  0.00     0.137 A 
ATOM      5  C   LIG d   1      10.245   6.502  -6.686  0.00  0.00    -0.001 A 
ATOM      6  C   LIG d   1      10.261   7.406  -5.645  0.00  0.00     0.063 A 
ATOM      7 BR   LIG d   1      10.780   9.196  -5.966  0.00  0.00    -0.046 Br
ATOM      8  O   LIG d   1       9.745   4.108  -7.263  0.00  0.00    -0.459 OA
ATOM      9  C   LIG d   1       9.329   3.035  -6.583  0.00  0.00     0.117 A 
ATOM     10  C   LIG d   1       9.147   3.360  -5.273  0.00  0.00     0.107 A 
ATOM     11  H   LIG d   1       9.234   5.399  -3.121  0.00  0.00     0.066 H 
ATOM     12  H   LIG d   1      10.528   6.817  -7.680  0.00  0.00     0.067 H 
ENDROOT
BRANCH   1  13
ATOM     13  O   LIG d   1       9.928   7.913  -3.341  0.00  0.00    -0.477 OA
BRANCH  13  14
ATOM     14  C   LIG d   1      10.403   7.449  -2.076  0.00  0.00     0.193 C 
ATOM     15  H   LIG d   1      10.291   6.366  -2.021  0.00  0.00     0.085 H 
BRANCH  14  16
ATOM     16  C   LIG d   1       9.604   8.094  -0.973  0.00  0.00     0.348 C 
ATOM     17  O   LIG d   1       8.429   7.843  -0.852  0.00  0.00    -0.247 OA
BRANCH  16  18
ATOM     18  O   LIG d   1      10.199   8.947  -0.123  0.00  0.00    -0.462 OA
BRANCH  18  19
ATOM     19  C   LIG d   1       9.661  10.294  -0.057  0.00  0.00     0.090 C 
ATOM     20  H   LIG d   1       9.943  10.752   0.890  0.00  0.00     0.069 H 
ATOM     21  H   LIG d   1       8.574  10.255  -0.133  0.00  0.00     0.069 H 
BRANCH  19  22
ATOM     22  C   LIG d   1      10.222  11.124  -1.213  0.00  0.00    -0.031 C 
ATOM     23  H   LIG d   1       9.439  11.298  -1.950  0.00  0.00     0.026 H 
ATOM     24  H   LIG d   1      10.582  12.081  -0.832  0.00  0.00     0.026 H 
ATOM     25  H   LIG d   1      11.047  10.586  -1.680  0.00  0.00     0.026 H 
ENDBRANCH  19  22
ENDBRANCH  18  19
ENDBRANCH  16  18
ENDBRANCH  14  16
BRANCH  14  26
ATOM     26  C   LIG d   1      11.879   7.818  -1.920  0.00  0.00    -0.017 C 
ATOM     27  H   LIG d   1      12.003   8.892  -2.063  0.00  0.00     0.027 H 
ATOM     28  H   LIG d   1      12.219   7.542  -0.922  0.00  0.00     0.027 H 
ATOM     29  H   LIG d   1      12.468   7.283  -2.665  0.00  0.00     0.027 H 
ENDBRANCH  14  26
ENDBRANCH  13  14
ENDBRANCH   1  13
BRANCH  10  30
ATOM     30  C   LIG d   1       8.698   2.471  -4.193  0.00  0.00     0.343 C 
ATOM     31  O   LIG d   1       9.455   2.190  -3.283  0.00  0.00    -0.245 OA
BRANCH  30  32
ATOM     32  O   LIG d   1       7.448   1.968  -4.209  0.00  0.00    -0.459 OA
BRANCH  32  33
ATOM     33  C   LIG d   1       7.318   0.524  -4.123  0.00  0.00     0.116 C 
ATOM     34  H   LIG d   1       7.245   0.105  -5.126  0.00  0.00     0.072 H 
ATOM     35  H   LIG d   1       8.190   0.110  -3.618  0.00  0.00     0.072 H 
BRANCH  33  36
ATOM     36  C   LIG d   1       6.057   0.172  -3.331  0.00  0.00     0.082 C 
ATOM     37  H   LIG d   1       5.244  -0.052  -4.022  0.00  0.00     0.059 H 
ATOM     38  H   LIG d   1       6.252  -0.698  -2.705  0.00  0.00     0.059 H 
BRANCH  36  39
ATOM     39  O   LIG d   1       5.688   1.279  -2.505  0.00  0.00    -0.380 OA
BRANCH  39  40
ATOM     40  C   LIG d   1       4.513   1.055  -1.723  0.00  0.00     0.037 C 
ATOM     41  H   LIG d   1       4.713   1.320  -0.685  0.00  0.00     0.052 H 
ATOM     42  H   LIG d   1       3.700   1.670  -2.106  0.00  0.00     0.052 H 
ATOM     43  H   LIG d   1       4.232   0.004  -1.782  0.00  0.00     0.052 H 
ENDBRANCH  39  40
ENDBRANCH  36  39
ENDBRANCH  33  36
ENDBRANCH  32  33
ENDBRANCH  30  32
ENDBRANCH  10  30
BRANCH   9  44
ATOM     44  C   LIG d   1       9.099   1.669  -7.176  0.00  0.00    -0.005 C 
ATOM     45  H   LIG d   1       8.570   1.044  -6.457  0.00  0.00     0.031 H 
ATOM     46  H   LIG d   1       8.503   1.763  -8.084  0.00  0.00     0.031 H 
ATOM     47  H   LIG d   1      10.059   1.212  -7.419  0.00  0.00     0.031 H 
ENDBRANCH   9  44
TORSDOF 14
ENDMDL
MODEL 9
REMARK VINA RESULT:      -4.6      2.736      5.989
REMARK  14 active torsions:
REMARK  status: ('A' for Active; 'I' for Inactive)
REMARK    1  A    between atoms: C_1  and  C_2 
REMARK    2  A    between atoms: C_2  and  O_3 
REMARK    3  A    between atoms: O_3  and  C_4 
REMARK    4  A    between atoms: C_4  and  C_6 
REMARK    5  A    between atoms: C_6  and  C_8 
REMARK    6  A    between atoms: C_6  and  O_9 
REMARK    7  A    between atoms: O_9  and  C_10 
REMARK    8  A    between atoms: C_18  and  C_27 
REMARK    9  A    between atoms: C_19  and  C_20 
REMARK   10  A    between atoms: C_20  and  O_22 
REMARK   11  A    between atoms: O_22  and  C_23 
REMARK   12  A    between atoms: C_23  and  C_24 
REMARK   13  A    between atoms: C_24  and  O_25 
REMARK   14  A    between atoms: O_25  and  C_26 
ROOT
ATOM      1  C   LIG d   1       4.811  -2.007  -5.011  0.00  0.00     0.136 A 
ATOM      2  C   LIG d   1       4.886  -1.634  -6.341  0.00  0.00    -0.007 A 
ATOM      3  C   LIG d   1       4.169  -0.528  -6.786  0.00  0.00     0.038 A 
ATOM      4  C   LIG d   1       3.375   0.207  -5.895  0.00  0.00     0.137 A 
ATOM      5  C   LIG d   1       3.311  -0.180  -4.561  0.00  0.00    -0.001 A 
ATOM      6  C   LIG d   1       4.019  -1.280  -4.127  0.00  0.00     0.063 A 
ATOM      7 BR   LIG d   1       3.917  -1.804  -2.312  0.00  0.00    -0.046 Br
ATOM      8  O   LIG d   1       2.802   1.212  -6.591  0.00  0.00    -0.459 OA
ATOM      9  C   LIG d   1       3.168   1.184  -7.877  0.00  0.00     0.117 A 
ATOM     10  C   LIG d   1       4.015   0.140  -8.093  0.00  0.00     0.107 A 
ATOM     11  H   LIG d   1       5.498  -2.198  -7.029  0.00  0.00     0.066 H 
ATOM     12  H   LIG d   1       2.701   0.379  -3.866  0.00  0.00     0.067 H 
ENDROOT
BRANCH   1  13
ATOM     13  O   LIG d   1       5.509  -3.086  -4.568  0.00  0.00    -0.477 OA
BRANCH  13  14
ATOM     14  C   LIG d   1       6.896  -3.146  -4.904  0.00  0.00     0.193 C 
ATOM     15  H   LIG d   1       7.094  -2.479  -5.744  0.00  0.00     0.085 H 
BRANCH  14  16
ATOM     16  C   LIG d   1       7.260  -4.557  -5.286  0.00  0.00     0.348 C 
ATOM     17  O   LIG d   1       8.039  -5.184  -4.609  0.00  0.00    -0.247 OA
BRANCH  16  18
ATOM     18  O   LIG d   1       6.718  -5.118  -6.380  0.00  0.00    -0.462 OA
BRANCH  18  19
ATOM     19  C   LIG d   1       6.093  -6.418  -6.213  0.00  0.00     0.090 C 
ATOM     20  H   LIG d   1       6.670  -7.011  -5.504  0.00  0.00     0.069 H 
ATOM     21  H   LIG d   1       6.060  -6.931  -7.174  0.00  0.00     0.069 H 
BRANCH  19  22
ATOM     22  C   LIG d   1       4.669  -6.234  -5.683  0.00  0.00    -0.031 C 
ATOM     23  H   LIG d   1       4.387  -5.183  -5.757  0.00  0.00     0.026 H 
ATOM     24  H   LIG d   1       3.980  -6.838  -6.275  0.00  0.00     0.026 H 
ATOM     25  H   LIG d   1       4.625  -6.550  -4.641  0.00  0.00     0.026 H 
ENDBRANCH  19  22
ENDBRANCH  18  19
ENDBRANCH  16  18
ENDBRANCH  14  16
BRANCH  14  26
ATOM     26  C   LIG d   1       7.732  -2.710  -3.700  0.00  0.00    -0.017 C 
ATOM     27  H   LIG d   1       8.379  -1.882  -3.987  0.00  0.00     0.027 H 
ATOM     28  H   LIG d   1       7.071  -2.394  -2.894  0.00  0.00     0.027 H 
ATOM     29  H   LIG d   1       8.343  -3.547  -3.361  0.00  0.00     0.027 H 
ENDBRANCH  14  26
ENDBRANCH  13  14
ENDBRANCH   1  13
BRANCH  10  30
ATOM     30  C   LIG d   1       4.645  -0.241  -9.364  0.00  0.00     0.343 C 
ATOM     31  O   LIG d   1       5.848  -0.126  -9.506  0.00  0.00    -0.245 OA
BRANCH  30  32
ATOM     32  O   LIG d   1       3.891  -0.720 -10.374  0.00  0.00    -0.459 OA
BRANCH  32  33
ATOM     33  C   LIG d   1       3.071  -1.883 -10.090  0.00  0.00     0.116 C 
ATOM     34  H   LIG d   1       3.287  -2.667 -10.815  0.00  0.00     0.072 H 
ATOM     35  H   LIG d   1       3.291  -2.247  -9.086  0.00  0.00     0.072 H 
BRANCH  33  36
ATOM     36  C   LIG d   1       1.593  -1.500 -10.180  0.00  0.00     0.082 C 
ATOM     37  H   LIG d   1       0.977  -2.390 -10.055  0.00  0.00     0.059 H 
ATOM     38  H   LIG d   1       1.356  -0.781  -9.396  0.00  0.00     0.059 H 
BRANCH  36  39
ATOM     39  O   LIG d   1       1.329  -0.915 -11.458  0.00  0.00    -0.380 OA
BRANCH  39  40
ATOM     40  C   LIG d   1       0.864  -1.844 -12.438  0.00  0.00     0.037 C 
ATOM     41  H   LIG d   1       0.001  -1.424 -12.955  0.00  0.00     0.052 H 
ATOM     42  H   LIG d   1       1.658  -2.042 -13.157  0.00  0.00     0.052 H 
ATOM     43  H   LIG d   1       0.576  -2.775 -11.949  0.00  0.00     0.052 H 
ENDBRANCH  39  40
ENDBRANCH  36  39
ENDBRANCH  33  36
ENDBRANCH  32  33
ENDBRANCH  30  32
ENDBRANCH  10  30
BRANCH   9  44
ATOM     44  C   LIG d   1       2.712   2.162  -8.928  0.00  0.00    -0.005 C 
ATOM     45  H   LIG d   1       3.542   2.394  -9.594  0.00  0.00     0.031 H 
ATOM     46  H   LIG d   1       1.896   1.724  -9.503  0.00  0.00     0.031 H 
ATOM     47  H   LIG d   1       2.365   3.077  -8.447  0.00  0.00     0.031 H 
ENDBRANCH   9  44
TORSDOF 14
ENDMDL
