MODEL 1
REMARK VINA RESULT:      -6.6      0.000      0.000
REMARK  9 active torsions:
REMARK  status: ('A' for Active; 'I' for Inactive)
REMARK    1  A    between atoms: C_1  and  C_2 
REMARK    2  A    between atoms: C_2  and  C_3 
REMARK    3  A    between atoms: C_2  and  C_11 
REMARK    4  A    between atoms: C_2  and  O_27 
REMARK    5  A    between atoms: C_3  and  C_4 
REMARK    6  A    between atoms: C_4  and  C_5 
REMARK    7  A    between atoms: C_12  and  C_13 
REMARK    8  A    between atoms: C_13  and  N_14 
REMARK    9  A    between atoms: C_19  and  C_21 
ROOT
ATOM      1  C   LIG d   1       6.814  -1.210  -7.170  0.00  0.00     0.061 C 
ATOM      2  H   LIG d   1       6.985  -1.742  -8.106  0.00  0.00     0.056 H 
ATOM      3  H   LIG d   1       7.574  -0.440  -7.045  0.00  0.00     0.056 H 
ENDROOT
BRANCH   1   4
ATOM      4  C   LIG d   1       5.482  -0.585  -7.198  0.00  0.00    -0.084 C 
ATOM      5  C   LIG d   1       4.419  -0.087  -7.221  0.00  0.00    -0.067 C 
BRANCH   5   6
ATOM      6  C   LIG d   1       3.086   0.538  -7.249  0.00  0.00     0.124 C 
BRANCH   6   7
ATOM      7  C   LIG d   1       3.065   1.646  -8.304  0.00  0.00    -0.025 C 
ATOM      8  H   LIG d   1       3.312   1.224  -9.278  0.00  0.00     0.027 H 
ATOM      9  H   LIG d   1       2.071   2.092  -8.342  0.00  0.00     0.027 H 
ATOM     10  H   LIG d   1       3.797   2.410  -8.043  0.00  0.00     0.027 H 
ENDBRANCH   6   7
BRANCH   6  11
ATOM     11  C   LIG d   1       2.773   1.135  -5.875  0.00  0.00    -0.009 C 
ATOM     12  H   LIG d   1       3.697   1.481  -5.410  0.00  0.00     0.031 H 
ATOM     13  H   LIG d   1       2.089   1.975  -5.991  0.00  0.00     0.031 H 
BRANCH  11  14
ATOM     14  C   LIG d   1       2.127   0.068  -4.991  0.00  0.00    -0.024 C 
ATOM     15  H   LIG d   1       1.141   0.409  -4.672  0.00  0.00     0.031 H 
ATOM     16  H   LIG d   1       2.025  -0.860  -5.555  0.00  0.00     0.031 H 
BRANCH  14  17
ATOM     17  C   LIG d   1       2.991  -0.172  -3.780  0.00  0.00    -0.047 A 
ATOM     18  C   LIG d   1       3.374  -1.458  -3.448  0.00  0.00    -0.059 A 
ATOM     19  C   LIG d   1       4.170  -1.678  -2.339  0.00  0.00    -0.061 A 
ATOM     20  H   LIG d   1       3.055  -2.291  -4.057  0.00  0.00     0.062 H 
ATOM     21  C   LIG d   1       4.576  -0.612  -1.558  0.00  0.00    -0.062 A 
ATOM     22  H   LIG d   1       4.474  -2.682  -2.083  0.00  0.00     0.062 H 
ATOM     23  C   LIG d   1       4.188   0.673  -1.886  0.00  0.00    -0.061 A 
ATOM     24  H   LIG d   1       5.196  -0.784  -0.690  0.00  0.00     0.062 H 
ATOM     25  C   LIG d   1       3.396   0.893  -2.998  0.00  0.00    -0.059 A 
ATOM     26  H   LIG d   1       4.505   1.505  -1.276  0.00  0.00     0.062 H 
ATOM     27  H   LIG d   1       3.093   1.898  -3.255  0.00  0.00     0.062 H 
ENDBRANCH  14  17
ENDBRANCH  11  14
ENDBRANCH   6  11
BRANCH   6  28
ATOM     28  O   LIG d   1       2.104  -0.449  -7.574  0.00  0.00    -0.377 OA
ATOM     29  H   LIG d   1       2.437  -1.357  -7.555  0.00  0.00     0.211 HD
ENDBRANCH   6  28
ENDBRANCH   5   6
ENDBRANCH   1   4
BRANCH   1  30
ATOM     30  N   LIG d   1       6.888  -2.156  -6.048  0.00  0.00    -0.284 N 
ATOM     31  C   LIG d   1       8.101  -1.935  -5.253  0.00  0.00     0.038 C 
ATOM     32  C   LIG d   1       8.073  -2.837  -4.016  0.00  0.00    -0.033 C 
ATOM     33  H   LIG d   1       8.979  -2.172  -5.854  0.00  0.00     0.051 H 
ATOM     34  C   LIG d   1       7.991  -4.300  -4.458  0.00  0.00    -0.050 C 
ATOM     35  H   LIG d   1       7.203  -2.590  -3.407  0.00  0.00     0.028 H 
ATOM     36  H   LIG d   1       8.982  -2.683  -3.433  0.00  0.00     0.028 H 
ATOM     37  C   LIG d   1       6.743  -4.493  -5.326  0.00  0.00    -0.040 C 
ATOM     38  H   LIG d   1       7.927  -4.942  -3.581  0.00  0.00     0.027 H 
ATOM     39  H   LIG d   1       8.879  -4.557  -5.035  0.00  0.00     0.027 H 
ATOM     40  C   LIG d   1       6.810  -3.543  -6.524  0.00  0.00     0.000 C 
ATOM     41  H   LIG d   1       5.853  -4.273  -4.738  0.00  0.00     0.028 H 
ATOM     42  H   LIG d   1       6.702  -5.523  -5.680  0.00  0.00     0.028 H 
ATOM     43  H   LIG d   1       5.917  -3.668  -7.137  0.00  0.00     0.043 H 
ATOM     44  H   LIG d   1       7.694  -3.773  -7.121  0.00  0.00     0.043 H 
BRANCH  31  45
ATOM     45  C   LIG d   1       8.164  -0.493  -4.821  0.00  0.00    -0.012 A 
ATOM     46  C   LIG d   1       9.223   0.307  -5.208  0.00  0.00     0.032 A 
ATOM     47  N   LIG d   1       9.281   1.572  -4.838  0.00  0.00    -0.263 NA
ATOM     48  H   LIG d   1      10.008  -0.106  -5.822  0.00  0.00     0.083 H 
ATOM     49  C   LIG d   1       8.349   2.119  -4.083  0.00  0.00     0.028 A 
ATOM     50  C   LIG d   1       7.264   1.378  -3.653  0.00  0.00    -0.043 A 
ATOM     51  H   LIG d   1       8.435   3.157  -3.797  0.00  0.00     0.083 H 
ATOM     52  C   LIG d   1       7.164   0.047  -4.026  0.00  0.00    -0.054 A 
ATOM     53  H   LIG d   1       6.504   1.832  -3.035  0.00  0.00     0.063 H 
ATOM     54  H   LIG d   1       6.328  -0.555  -3.705  0.00  0.00     0.062 H 
ENDBRANCH  31  45
ENDBRANCH   1  30
TORSDOF 9
ENDMDL
MODEL 2
REMARK VINA RESULT:      -6.3      1.193      3.486
REMARK  9 active torsions:
REMARK  status: ('A' for Active; 'I' for Inactive)
REMARK    1  A    between atoms: C_1  and  C_2 
REMARK    2  A    between atoms: C_2  and  C_3 
REMARK    3  A    between atoms: C_2  and  C_11 
REMARK    4  A    between atoms: C_2  and  O_27 
REMARK    5  A    between atoms: C_3  and  C_4 
REMARK    6  A    between atoms: C_4  and  C_5 
REMARK    7  A    between atoms: C_12  and  C_13 
REMARK    8  A    between atoms: C_13  and  N_14 
REMARK    9  A    between atoms: C_19  and  C_21 
ROOT
ATOM      1  C   LIG d   1       6.647  -1.198  -7.441  0.00  0.00     0.061 C 
ATOM      2  H   LIG d   1       6.621  -2.283  -7.545  0.00  0.00     0.056 H 
ATOM      3  H   LIG d   1       7.213  -0.767  -8.266  0.00  0.00     0.056 H 
ENDROOT
BRANCH   1   4
ATOM      4  C   LIG d   1       5.273  -0.671  -7.460  0.00  0.00    -0.084 C 
ATOM      5  C   LIG d   1       4.177  -0.249  -7.475  0.00  0.00    -0.067 C 
BRANCH   5   6
ATOM      6  C   LIG d   1       2.803   0.278  -7.495  0.00  0.00     0.124 C 
BRANCH   6   7
ATOM      7  C   LIG d   1       2.833   1.769  -7.838  0.00  0.00    -0.025 C 
ATOM      8  H   LIG d   1       3.033   1.892  -8.903  0.00  0.00     0.027 H 
ATOM      9  H   LIG d   1       1.871   2.218  -7.594  0.00  0.00     0.027 H 
ATOM     10  H   LIG d   1       3.619   2.258  -7.262  0.00  0.00     0.027 H 
ENDBRANCH   6   7
BRANCH   6  11
ATOM     11  C   LIG d   1       2.163   0.084  -6.118  0.00  0.00    -0.009 C 
ATOM     12  H   LIG d   1       1.078   0.136  -6.211  0.00  0.00     0.031 H 
ATOM     13  H   LIG d   1       2.446  -0.890  -5.720  0.00  0.00     0.031 H 
BRANCH  11  14
ATOM     14  C   LIG d   1       2.646   1.184  -5.172  0.00  0.00    -0.024 C 
ATOM     15  H   LIG d   1       3.406   1.785  -5.671  0.00  0.00     0.031 H 
ATOM     16  H   LIG d   1       1.805   1.820  -4.893  0.00  0.00     0.031 H 
BRANCH  14  17
ATOM     17  C   LIG d   1       3.234   0.558  -3.933  0.00  0.00    -0.047 A 
ATOM     18  C   LIG d   1       3.867   1.349  -2.993  0.00  0.00    -0.059 A 
ATOM     19  C   LIG d   1       4.403   0.775  -1.855  0.00  0.00    -0.061 A 
ATOM     20  H   LIG d   1       3.939   2.415  -3.145  0.00  0.00     0.062 H 
ATOM     21  C   LIG d   1       4.313  -0.591  -1.662  0.00  0.00    -0.062 A 
ATOM     22  H   LIG d   1       4.893   1.393  -1.118  0.00  0.00     0.062 H 
ATOM     23  C   LIG d   1       3.685  -1.383  -2.605  0.00  0.00    -0.061 A 
ATOM     24  H   LIG d   1       4.734  -1.040  -0.774  0.00  0.00     0.062 H 
ATOM     25  C   LIG d   1       3.145  -0.808  -3.741  0.00  0.00    -0.059 A 
ATOM     26  H   LIG d   1       3.615  -2.449  -2.454  0.00  0.00     0.062 H 
ATOM     27  H   LIG d   1       2.654  -1.427  -4.478  0.00  0.00     0.062 H 
ENDBRANCH  14  17
ENDBRANCH  11  14
ENDBRANCH   6  11
BRANCH   6  28
ATOM     28  O   LIG d   1       2.038  -0.422  -8.479  0.00  0.00    -0.377 OA
ATOM     29  H   LIG d   1       1.288   0.081  -8.824  0.00  0.00     0.211 HD
ENDBRANCH   6  28
ENDBRANCH   5   6
ENDBRANCH   1   4
BRANCH   1  30
ATOM     30  N   LIG d   1       7.290  -0.844  -6.168  0.00  0.00    -0.284 N 
ATOM     31  C   LIG d   1       6.562  -1.423  -5.033  0.00  0.00     0.038 C 
ATOM     32  C   LIG d   1       7.337  -1.157  -3.739  0.00  0.00    -0.033 C 
ATOM     33  H   LIG d   1       5.574  -0.968  -4.963  0.00  0.00     0.051 H 
ATOM     34  C   LIG d   1       7.500   0.354  -3.548  0.00  0.00    -0.050 C 
ATOM     35  H   LIG d   1       8.320  -1.625  -3.802  0.00  0.00     0.028 H 
ATOM     36  H   LIG d   1       6.788  -1.574  -2.894  0.00  0.00     0.028 H 
ATOM     37  C   LIG d   1       8.218   0.939  -4.768  0.00  0.00    -0.040 C 
ATOM     38  H   LIG d   1       8.088   0.545  -2.652  0.00  0.00     0.027 H 
ATOM     39  H   LIG d   1       6.518   0.816  -3.447  0.00  0.00     0.027 H 
ATOM     40  C   LIG d   1       7.418   0.612  -6.030  0.00  0.00     0.000 C 
ATOM     41  H   LIG d   1       9.214   0.505  -4.847  0.00  0.00     0.028 H 
ATOM     42  H   LIG d   1       8.299   2.021  -4.657  0.00  0.00     0.028 H 
ATOM     43  H   LIG d   1       7.933   1.016  -6.902  0.00  0.00     0.043 H 
ATOM     44  H   LIG d   1       6.426   1.059  -5.957  0.00  0.00     0.043 H 
BRANCH  31  45
ATOM     45  C   LIG d   1       6.416  -2.909  -5.234  0.00  0.00    -0.012 A 
ATOM     46  C   LIG d   1       7.532  -3.703  -5.415  0.00  0.00     0.032 A 
ATOM     47  N   LIG d   1       7.413  -5.005  -5.586  0.00  0.00    -0.263 NA
ATOM     48  H   LIG d   1       8.513  -3.253  -5.412  0.00  0.00     0.083 H 
ATOM     49  C   LIG d   1       6.235  -5.598  -5.603  0.00  0.00     0.028 A 
ATOM     50  C   LIG d   1       5.073  -4.867  -5.435  0.00  0.00    -0.043 A 
ATOM     51  H   LIG d   1       6.177  -6.666  -5.751  0.00  0.00     0.083 H 
ATOM     52  C   LIG d   1       5.160  -3.497  -5.246  0.00  0.00    -0.054 A 
ATOM     53  H   LIG d   1       4.112  -5.358  -5.450  0.00  0.00     0.063 H 
ATOM     54  H   LIG d   1       4.270  -2.900  -5.112  0.00  0.00     0.062 H 
ENDBRANCH  31  45
ENDBRANCH   1  30
TORSDOF 9
ENDMDL
MODEL 3
REMARK VINA RESULT:      -6.1      2.332      4.602
REMARK  9 active torsions:
REMARK  status: ('A' for Active; 'I' for Inactive)
REMARK    1  A    between atoms: C_1  and  C_2 
REMARK    2  A    between atoms: C_2  and  C_3 
REMARK    3  A    between atoms: C_2  and  C_11 
REMARK    4  A    between atoms: C_2  and  O_27 
REMARK    5  A    between atoms: C_3  and  C_4 
REMARK    6  A    between atoms: C_4  and  C_5 
REMARK    7  A    between atoms: C_12  and  C_13 
REMARK    8  A    between atoms: C_13  and  N_14 
REMARK    9  A    between atoms: C_19  and  C_21 
ROOT
ATOM      1  C   LIG d   1       5.394  -1.259  -6.057  0.00  0.00     0.061 C 
ATOM      2  H   LIG d   1       6.068  -0.504  -6.464  0.00  0.00     0.056 H 
ATOM      3  H   LIG d   1       4.678  -0.784  -5.387  0.00  0.00     0.056 H 
ENDROOT
BRANCH   1   4
ATOM      4  C   LIG d   1       4.674  -1.917  -7.158  0.00  0.00    -0.084 C 
ATOM      5  C   LIG d   1       4.099  -2.442  -8.038  0.00  0.00    -0.067 C 
BRANCH   5   6
ATOM      6  C   LIG d   1       3.378  -3.101  -9.139  0.00  0.00     0.124 C 
BRANCH   6   7
ATOM      7  C   LIG d   1       4.323  -3.284 -10.329  0.00  0.00    -0.025 C 
ATOM      8  H   LIG d   1       3.923  -2.756 -11.195  0.00  0.00     0.027 H 
ATOM      9  H   LIG d   1       5.305  -2.882 -10.079  0.00  0.00     0.027 H 
ATOM     10  H   LIG d   1       4.412  -4.345 -10.561  0.00  0.00     0.027 H 
ENDBRANCH   6   7
BRANCH   6  11
ATOM     11  C   LIG d   1       2.189  -2.235  -9.560  0.00  0.00    -0.009 C 
ATOM     12  H   LIG d   1       1.378  -2.875  -9.906  0.00  0.00     0.031 H 
ATOM     13  H   LIG d   1       1.848  -1.646  -8.708  0.00  0.00     0.031 H 
BRANCH  11  14
ATOM     14  C   LIG d   1       2.616  -1.297 -10.690  0.00  0.00    -0.024 C 
ATOM     15  H   LIG d   1       3.482  -1.716 -11.203  0.00  0.00     0.031 H 
ATOM     16  H   LIG d   1       1.795  -1.184 -11.399  0.00  0.00     0.031 H 
BRANCH  14  17
ATOM     17  C   LIG d   1       2.974   0.050 -10.117  0.00  0.00    -0.047 A 
ATOM     18  C   LIG d   1       3.922   0.838 -10.743  0.00  0.00    -0.059 A 
ATOM     19  C   LIG d   1       4.248   2.075 -10.219  0.00  0.00    -0.061 A 
ATOM     20  H   LIG d   1       4.405   0.488 -11.643  0.00  0.00     0.062 H 
ATOM     21  C   LIG d   1       3.631   2.521  -9.065  0.00  0.00    -0.062 A 
ATOM     22  H   LIG d   1       4.984   2.692 -10.711  0.00  0.00     0.062 H 
ATOM     23  C   LIG d   1       2.687   1.731  -8.436  0.00  0.00    -0.061 A 
ATOM     24  H   LIG d   1       3.887   3.486  -8.655  0.00  0.00     0.062 H 
ATOM     25  C   LIG d   1       2.358   0.495  -8.963  0.00  0.00    -0.059 A 
ATOM     26  H   LIG d   1       2.206   2.079  -7.535  0.00  0.00     0.062 H 
ATOM     27  H   LIG d   1       1.620  -0.122  -8.471  0.00  0.00     0.062 H 
ENDBRANCH  14  17
ENDBRANCH  11  14
ENDBRANCH   6  11
BRANCH   6  28
ATOM     28  O   LIG d   1       2.907  -4.378  -8.704  0.00  0.00    -0.377 OA
ATOM     29  H   LIG d   1       3.070  -5.093  -9.334  0.00  0.00     0.211 HD
ENDBRANCH   6  28
ENDBRANCH   5   6
ENDBRANCH   1   4
BRANCH   1  30
ATOM     30  N   LIG d   1       6.172  -2.259  -5.312  0.00  0.00    -0.284 N 
ATOM     31  C   LIG d   1       6.987  -1.623  -4.270  0.00  0.00     0.038 C 
ATOM     32  C   LIG d   1       7.668  -2.701  -3.425  0.00  0.00    -0.033 C 
ATOM     33  H   LIG d   1       7.746  -0.993  -4.736  0.00  0.00     0.051 H 
ATOM     34  C   LIG d   1       8.548  -3.571  -4.327  0.00  0.00    -0.050 C 
ATOM     35  H   LIG d   1       6.910  -3.322  -2.948  0.00  0.00     0.028 H 
ATOM     36  H   LIG d   1       8.286  -2.228  -2.661  0.00  0.00     0.028 H 
ATOM     37  C   LIG d   1       7.683  -4.183  -5.433  0.00  0.00    -0.040 C 
ATOM     38  H   LIG d   1       9.001  -4.366  -3.736  0.00  0.00     0.027 H 
ATOM     39  H   LIG d   1       9.331  -2.957  -4.774  0.00  0.00     0.027 H 
ATOM     40  C   LIG d   1       7.002  -3.062  -6.220  0.00  0.00     0.000 C 
ATOM     41  H   LIG d   1       6.925  -4.827  -4.987  0.00  0.00     0.028 H 
ATOM     42  H   LIG d   1       8.312  -4.769  -6.104  0.00  0.00     0.028 H 
ATOM     43  H   LIG d   1       6.374  -3.495  -6.999  0.00  0.00     0.043 H 
ATOM     44  H   LIG d   1       7.760  -2.426  -6.677  0.00  0.00     0.043 H 
BRANCH  31  45
ATOM     45  C   LIG d   1       6.105  -0.776  -3.389  0.00  0.00    -0.012 A 
ATOM     46  C   LIG d   1       6.307   0.588  -3.303  0.00  0.00     0.032 A 
ATOM     47  N   LIG d   1       5.536   1.337  -2.538  0.00  0.00    -0.263 NA
ATOM     48  H   LIG d   1       7.102   1.047  -3.871  0.00  0.00     0.083 H 
ATOM     49  C   LIG d   1       4.558   0.820  -1.821  0.00  0.00     0.028 A 
ATOM     50  C   LIG d   1       4.301  -0.539  -1.852  0.00  0.00    -0.043 A 
ATOM     51  H   LIG d   1       3.951   1.464  -1.202  0.00  0.00     0.083 H 
ATOM     52  C   LIG d   1       5.086  -1.356  -2.649  0.00  0.00    -0.054 A 
ATOM     53  H   LIG d   1       3.498  -0.956  -1.263  0.00  0.00     0.063 H 
ATOM     54  H   LIG d   1       4.908  -2.420  -2.694  0.00  0.00     0.062 H 
ENDBRANCH  31  45
ENDBRANCH   1  30
TORSDOF 9
ENDMDL
MODEL 4
REMARK VINA RESULT:      -6.0      2.563      5.390
REMARK  9 active torsions:
REMARK  status: ('A' for Active; 'I' for Inactive)
REMARK    1  A    between atoms: C_1  and  C_2 
REMARK    2  A    between atoms: C_2  and  C_3 
REMARK    3  A    between atoms: C_2  and  C_11 
REMARK    4  A    between atoms: C_2  and  O_27 
REMARK    5  A    between atoms: C_3  and  C_4 
REMARK    6  A    between atoms: C_4  and  C_5 
REMARK    7  A    between atoms: C_12  and  C_13 
REMARK    8  A    between atoms: C_13  and  N_14 
REMARK    9  A    between atoms: C_19  and  C_21 
ROOT
ATOM      1  C   LIG d   1       6.479   0.372  -8.464  0.00  0.00     0.061 C 
ATOM      2  H   LIG d   1       6.957   0.934  -9.267  0.00  0.00     0.056 H 
ATOM      3  H   LIG d   1       6.554  -0.694  -8.672  0.00  0.00     0.056 H 
ENDROOT
BRANCH   1   4
ATOM      4  C   LIG d   1       7.151   0.672  -7.189  0.00  0.00    -0.084 C 
ATOM      5  C   LIG d   1       7.687   0.912  -6.172  0.00  0.00    -0.067 C 
BRANCH   5   6
ATOM      6  C   LIG d   1       8.359   1.212  -4.897  0.00  0.00     0.124 C 
BRANCH   6   7
ATOM      7  C   LIG d   1       9.812   0.736  -4.962  0.00  0.00    -0.025 C 
ATOM      8  H   LIG d   1       9.988   0.002  -4.176  0.00  0.00     0.027 H 
ATOM      9  H   LIG d   1      10.003   0.283  -5.934  0.00  0.00     0.027 H 
ATOM     10  H   LIG d   1      10.478   1.587  -4.820  0.00  0.00     0.027 H 
ENDBRANCH   6   7
BRANCH   6  11
ATOM     11  C   LIG d   1       7.636   0.491  -3.757  0.00  0.00    -0.009 C 
ATOM     12  H   LIG d   1       7.346  -0.507  -4.085  0.00  0.00     0.031 H 
ATOM     13  H   LIG d   1       8.301   0.412  -2.898  0.00  0.00     0.031 H 
BRANCH  11  14
ATOM     14  C   LIG d   1       6.387   1.282  -3.365  0.00  0.00    -0.024 C 
ATOM     15  H   LIG d   1       6.591   1.859  -2.464  0.00  0.00     0.031 H 
ATOM     16  H   LIG d   1       6.115   1.958  -4.176  0.00  0.00     0.031 H 
BRANCH  14  17
ATOM     17  C   LIG d   1       5.250   0.328  -3.104  0.00  0.00    -0.047 A 
ATOM     18  C   LIG d   1       5.508  -0.938  -2.611  0.00  0.00    -0.059 A 
ATOM     19  C   LIG d   1       4.465  -1.811  -2.368  0.00  0.00    -0.061 A 
ATOM     20  H   LIG d   1       6.525  -1.243  -2.413  0.00  0.00     0.062 H 
ATOM     21  C   LIG d   1       3.163  -1.422  -2.625  0.00  0.00    -0.062 A 
ATOM     22  H   LIG d   1       4.666  -2.798  -1.978  0.00  0.00     0.062 H 
ATOM     23  C   LIG d   1       2.905  -0.159  -3.123  0.00  0.00    -0.061 A 
ATOM     24  H   LIG d   1       2.349  -2.106  -2.438  0.00  0.00     0.062 H 
ATOM     25  C   LIG d   1       3.949   0.716  -3.363  0.00  0.00    -0.059 A 
ATOM     26  H   LIG d   1       1.889   0.144  -3.325  0.00  0.00     0.062 H 
ATOM     27  H   LIG d   1       3.747   1.703  -3.751  0.00  0.00     0.062 H 
ENDBRANCH  14  17
ENDBRANCH  11  14
ENDBRANCH   6  11
BRANCH   6  28
ATOM     28  O   LIG d   1       8.329   2.622  -4.664  0.00  0.00    -0.377 OA
ATOM     29  H   LIG d   1       8.785   3.143  -5.339  0.00  0.00     0.211 HD
ENDBRANCH   6  28
ENDBRANCH   5   6
ENDBRANCH   1   4
BRANCH   1  30
ATOM     30  N   LIG d   1       5.064   0.756  -8.374  0.00  0.00    -0.284 N 
ATOM     31  C   LIG d   1       4.191  -0.362  -8.754  0.00  0.00     0.038 C 
ATOM     32  C   LIG d   1       2.730   0.025  -8.511  0.00  0.00    -0.033 C 
ATOM     33  H   LIG d   1       4.334  -0.592  -9.810  0.00  0.00     0.051 H 
ATOM     34  C   LIG d   1       2.390   1.267  -9.339  0.00  0.00    -0.050 C 
ATOM     35  H   LIG d   1       2.583   0.241  -7.453  0.00  0.00     0.028 H 
ATOM     36  H   LIG d   1       2.082  -0.801  -8.808  0.00  0.00     0.028 H 
ATOM     37  C   LIG d   1       3.346   2.401  -8.958  0.00  0.00    -0.040 C 
ATOM     38  H   LIG d   1       1.364   1.570  -9.136  0.00  0.00     0.027 H 
ATOM     39  H   LIG d   1       2.500   1.039 -10.399  0.00  0.00     0.027 H 
ATOM     40  C   LIG d   1       4.788   1.946  -9.188  0.00  0.00     0.000 C 
ATOM     41  H   LIG d   1       3.208   2.655  -7.907  0.00  0.00     0.028 H 
ATOM     42  H   LIG d   1       3.136   3.276  -9.575  0.00  0.00     0.028 H 
ATOM     43  H   LIG d   1       5.471   2.747  -8.905  0.00  0.00     0.043 H 
ATOM     44  H   LIG d   1       4.929   1.706 -10.242  0.00  0.00     0.043 H 
BRANCH  31  45
ATOM     45  C   LIG d   1       4.535  -1.573  -7.927  0.00  0.00    -0.012 A 
ATOM     46  C   LIG d   1       4.919  -2.751  -8.538  0.00  0.00     0.032 A 
ATOM     47  N   LIG d   1       5.226  -3.814  -7.820  0.00  0.00    -0.263 NA
ATOM     48  H   LIG d   1       4.971  -2.802  -9.615  0.00  0.00     0.083 H 
ATOM     49  C   LIG d   1       5.170  -3.802  -6.503  0.00  0.00     0.028 A 
ATOM     50  C   LIG d   1       4.789  -2.660  -5.822  0.00  0.00    -0.043 A 
ATOM     51  H   LIG d   1       5.425  -4.693  -5.949  0.00  0.00     0.083 H 
ATOM     52  C   LIG d   1       4.464  -1.522  -6.543  0.00  0.00    -0.054 A 
ATOM     53  H   LIG d   1       4.746  -2.656  -4.744  0.00  0.00     0.063 H 
ATOM     54  H   LIG d   1       4.164  -0.616  -6.038  0.00  0.00     0.062 H 
ENDBRANCH  31  45
ENDBRANCH   1  30
TORSDOF 9
ENDMDL
MODEL 5
REMARK VINA RESULT:      -5.9      1.990      4.814
REMARK  9 active torsions:
REMARK  status: ('A' for Active; 'I' for Inactive)
REMARK    1  A    between atoms: C_1  and  C_2 
REMARK    2  A    between atoms: C_2  and  C_3 
REMARK    3  A    between atoms: C_2  and  C_11 
REMARK    4  A    between atoms: C_2  and  O_27 
REMARK    5  A    between atoms: C_3  and  C_4 
REMARK    6  A    between atoms: C_4  and  C_5 
REMARK    7  A    between atoms: C_12  and  C_13 
REMARK    8  A    between atoms: C_13  and  N_14 
REMARK    9  A    between atoms: C_19  and  C_21 
ROOT
ATOM      1  C   LIG d   1       6.224  -2.368  -4.101  0.00  0.00     0.061 C 
ATOM      2  H   LIG d   1       6.330  -3.082  -3.283  0.00  0.00     0.056 H 
ATOM      3  H   LIG d   1       7.211  -2.047  -4.434  0.00  0.00     0.056 H 
ENDROOT
BRANCH   1   4
ATOM      4  C   LIG d   1       5.513  -3.007  -5.220  0.00  0.00    -0.084 C 
ATOM      5  C   LIG d   1       4.945  -3.516  -6.112  0.00  0.00    -0.067 C 
BRANCH   5   6
ATOM      6  C   LIG d   1       4.233  -4.155  -7.231  0.00  0.00     0.124 C 
BRANCH   6   7
ATOM      7  C   LIG d   1       5.206  -5.036  -8.018  0.00  0.00    -0.025 C 
ATOM      8  H   LIG d   1       4.946  -5.009  -9.076  0.00  0.00     0.027 H 
ATOM      9  H   LIG d   1       6.222  -4.666  -7.883  0.00  0.00     0.027 H 
ATOM     10  H   LIG d   1       5.142  -6.062  -7.655  0.00  0.00     0.027 H 
ENDBRANCH   6   7
BRANCH   6  11
ATOM     11  C   LIG d   1       3.660  -3.077  -8.154  0.00  0.00    -0.009 C 
ATOM     12  H   LIG d   1       3.260  -3.544  -9.054  0.00  0.00     0.031 H 
ATOM     13  H   LIG d   1       2.863  -2.543  -7.637  0.00  0.00     0.031 H 
BRANCH  11  14
ATOM     14  C   LIG d   1       4.767  -2.094  -8.538  0.00  0.00    -0.024 C 
ATOM     15  H   LIG d   1       5.564  -2.136  -7.796  0.00  0.00     0.031 H 
ATOM     16  H   LIG d   1       5.167  -2.361  -9.517  0.00  0.00     0.031 H 
BRANCH  14  17
ATOM     17  C   LIG d   1       4.203  -0.698  -8.591  0.00  0.00    -0.047 A 
ATOM     18  C   LIG d   1       3.308  -0.277  -7.625  0.00  0.00    -0.059 A 
ATOM     19  C   LIG d   1       2.793   1.005  -7.671  0.00  0.00    -0.061 A 
ATOM     20  H   LIG d   1       3.013  -0.949  -6.833  0.00  0.00     0.062 H 
ATOM     21  C   LIG d   1       3.168   1.864  -8.687  0.00  0.00    -0.062 A 
ATOM     22  H   LIG d   1       2.098   1.336  -6.914  0.00  0.00     0.062 H 
ATOM     23  C   LIG d   1       4.059   1.442  -9.656  0.00  0.00    -0.061 A 
ATOM     24  H   LIG d   1       2.764   2.865  -8.724  0.00  0.00     0.062 H 
ATOM     25  C   LIG d   1       4.577   0.161  -9.607  0.00  0.00    -0.059 A 
ATOM     26  H   LIG d   1       4.351   2.113 -10.449  0.00  0.00     0.062 H 
ATOM     27  H   LIG d   1       5.273  -0.169 -10.364  0.00  0.00     0.062 H 
ENDBRANCH  14  17
ENDBRANCH  11  14
ENDBRANCH   6  11
BRANCH   6  28
ATOM     28  O   LIG d   1       3.168  -4.960  -6.721  0.00  0.00    -0.377 OA
ATOM     29  H   LIG d   1       2.899  -4.731  -5.820  0.00  0.00     0.211 HD
ENDBRANCH   6  28
ENDBRANCH   5   6
ENDBRANCH   1   4
BRANCH   1  30
ATOM     30  N   LIG d   1       5.461  -1.202  -3.637  0.00  0.00    -0.284 N 
ATOM     31  C   LIG d   1       6.345  -0.054  -3.403  0.00  0.00     0.038 C 
ATOM     32  C   LIG d   1       5.503   1.179  -3.062  0.00  0.00    -0.033 C 
ATOM     33  H   LIG d   1       7.017  -0.275  -2.573  0.00  0.00     0.051 H 
ATOM     34  C   LIG d   1       4.668   0.891  -1.811  0.00  0.00    -0.050 C 
ATOM     35  H   LIG d   1       4.841   1.409  -3.897  0.00  0.00     0.028 H 
ATOM     36  H   LIG d   1       6.162   2.028  -2.873  0.00  0.00     0.028 H 
ATOM     37  C   LIG d   1       3.792  -0.339  -2.065  0.00  0.00    -0.040 C 
ATOM     38  H   LIG d   1       4.036   1.750  -1.590  0.00  0.00     0.027 H 
ATOM     39  H   LIG d   1       5.330   0.699  -0.967  0.00  0.00     0.027 H 
ATOM     40  C   LIG d   1       4.683  -1.527  -2.434  0.00  0.00     0.000 C 
ATOM     41  H   LIG d   1       3.103  -0.133  -2.884  0.00  0.00     0.028 H 
ATOM     42  H   LIG d   1       3.226  -0.575  -1.163  0.00  0.00     0.028 H 
ATOM     43  H   LIG d   1       4.061  -2.401  -2.629  0.00  0.00     0.043 H 
ATOM     44  H   LIG d   1       5.362  -1.742  -1.609  0.00  0.00     0.043 H 
BRANCH  31  45
ATOM     45  C   LIG d   1       7.154   0.219  -4.644  0.00  0.00    -0.012 A 
ATOM     46  C   LIG d   1       8.524   0.389  -4.562  0.00  0.00     0.032 A 
ATOM     47  N   LIG d   1       9.240   0.622  -5.645  0.00  0.00    -0.263 NA
ATOM     48  H   LIG d   1       9.013   0.325  -3.602  0.00  0.00     0.083 H 
ATOM     49  C   LIG d   1       8.685   0.715  -6.837  0.00  0.00     0.028 A 
ATOM     50  C   LIG d   1       7.320   0.562  -6.996  0.00  0.00    -0.043 A 
ATOM     51  H   LIG d   1       9.303   0.912  -7.700  0.00  0.00     0.083 H 
ATOM     52  C   LIG d   1       6.535   0.310  -5.882  0.00  0.00    -0.054 A 
ATOM     53  H   LIG d   1       6.872   0.639  -7.975  0.00  0.00     0.063 H 
ATOM     54  H   LIG d   1       5.467   0.186  -5.975  0.00  0.00     0.062 H 
ENDBRANCH  31  45
ENDBRANCH   1  30
TORSDOF 9
ENDMDL
MODEL 6
REMARK VINA RESULT:      -5.9      3.091      5.462
REMARK  9 active torsions:
REMARK  status: ('A' for Active; 'I' for Inactive)
REMARK    1  A    between atoms: C_1  and  C_2 
REMARK    2  A    between atoms: C_2  and  C_3 
REMARK    3  A    between atoms: C_2  and  C_11 
REMARK    4  A    between atoms: C_2  and  O_27 
REMARK    5  A    between atoms: C_3  and  C_4 
REMARK    6  A    between atoms: C_4  and  C_5 
REMARK    7  A    between atoms: C_12  and  C_13 
REMARK    8  A    between atoms: C_13  and  N_14 
REMARK    9  A    between atoms: C_19  and  C_21 
ROOT
ATOM      1  C   LIG d   1       5.529  -1.722  -8.937  0.00  0.00     0.061 C 
ATOM      2  H   LIG d   1       5.358  -0.664  -8.734  0.00  0.00     0.056 H 
ATOM      3  H   LIG d   1       6.448  -1.838  -9.511  0.00  0.00     0.056 H 
ENDROOT
BRANCH   1   4
ATOM      4  C   LIG d   1       5.649  -2.452  -7.665  0.00  0.00    -0.084 C 
ATOM      5  C   LIG d   1       5.746  -3.035  -6.650  0.00  0.00    -0.067 C 
BRANCH   5   6
ATOM      6  C   LIG d   1       5.866  -3.766  -5.378  0.00  0.00     0.124 C 
BRANCH   6   7
ATOM      7  C   LIG d   1       4.670  -4.706  -5.214  0.00  0.00    -0.025 C 
ATOM      8  H   LIG d   1       4.510  -5.254  -6.143  0.00  0.00     0.027 H 
ATOM      9  H   LIG d   1       4.869  -5.410  -4.407  0.00  0.00     0.027 H 
ATOM     10  H   LIG d   1       3.780  -4.123  -4.978  0.00  0.00     0.027 H 
ENDBRANCH   6   7
BRANCH   6  11
ATOM     11  C   LIG d   1       5.894  -2.768  -4.217  0.00  0.00    -0.009 C 
ATOM     12  H   LIG d   1       6.621  -3.095  -3.474  0.00  0.00     0.031 H 
ATOM     13  H   LIG d   1       6.175  -1.783  -4.592  0.00  0.00     0.031 H 
BRANCH  11  14
ATOM     14  C   LIG d   1       4.507  -2.694  -3.576  0.00  0.00    -0.024 C 
ATOM     15  H   LIG d   1       3.761  -3.063  -4.280  0.00  0.00     0.031 H 
ATOM     16  H   LIG d   1       4.490  -3.306  -2.675  0.00  0.00     0.031 H 
BRANCH  14  17
ATOM     17  C   LIG d   1       4.196  -1.263  -3.218  0.00  0.00    -0.047 A 
ATOM     18  C   LIG d   1       4.677  -0.725  -2.039  0.00  0.00    -0.059 A 
ATOM     19  C   LIG d   1       4.394   0.588  -1.713  0.00  0.00    -0.061 A 
ATOM     20  H   LIG d   1       5.277  -1.330  -1.375  0.00  0.00     0.062 H 
ATOM     21  C   LIG d   1       3.623   1.361  -2.562  0.00  0.00    -0.062 A 
ATOM     22  H   LIG d   1       4.774   1.010  -0.794  0.00  0.00     0.062 H 
ATOM     23  C   LIG d   1       3.138   0.821  -3.737  0.00  0.00    -0.061 A 
ATOM     24  H   LIG d   1       3.401   2.385  -2.305  0.00  0.00     0.062 H 
ATOM     25  C   LIG d   1       3.424  -0.491  -4.066  0.00  0.00    -0.059 A 
ATOM     26  H   LIG d   1       2.536   1.424  -4.400  0.00  0.00     0.062 H 
ATOM     27  H   LIG d   1       3.045  -0.913  -4.985  0.00  0.00     0.062 H 
ENDBRANCH  14  17
ENDBRANCH  11  14
ENDBRANCH   6  11
BRANCH   6  28
ATOM     28  O   LIG d   1       7.075  -4.528  -5.379  0.00  0.00    -0.377 OA
ATOM     29  H   LIG d   1       7.111  -5.210  -4.694  0.00  0.00     0.211 HD
ENDBRANCH   6  28
ENDBRANCH   5   6
ENDBRANCH   1   4
BRANCH   1  30
ATOM     30  N   LIG d   1       4.399  -2.261  -9.707  0.00  0.00    -0.284 N 
ATOM     31  C   LIG d   1       3.134  -1.653  -9.279  0.00  0.00     0.038 C 
ATOM     32  C   LIG d   1       2.003  -2.128 -10.195  0.00  0.00    -0.033 C 
ATOM     33  H   LIG d   1       2.917  -1.949  -8.252  0.00  0.00     0.051 H 
ATOM     34  C   LIG d   1       1.905  -3.655 -10.129  0.00  0.00    -0.050 C 
ATOM     35  H   LIG d   1       2.212  -1.820 -11.219  0.00  0.00     0.028 H 
ATOM     36  H   LIG d   1       1.061  -1.688  -9.867  0.00  0.00     0.028 H 
ATOM     37  C   LIG d   1       3.252  -4.262 -10.533  0.00  0.00    -0.040 C 
ATOM     38  H   LIG d   1       1.130  -4.000 -10.812  0.00  0.00     0.027 H 
ATOM     39  H   LIG d   1       1.658  -3.960  -9.112  0.00  0.00     0.027 H 
ATOM     40  C   LIG d   1       4.346  -3.725  -9.607  0.00  0.00     0.000 C 
ATOM     41  H   LIG d   1       3.481  -3.987 -11.563  0.00  0.00     0.028 H 
ATOM     42  H   LIG d   1       3.202  -5.347 -10.447  0.00  0.00     0.028 H 
ATOM     43  H   LIG d   1       5.308  -4.145  -9.901  0.00  0.00     0.043 H 
ATOM     44  H   LIG d   1       4.124  -4.011  -8.579  0.00  0.00     0.043 H 
BRANCH  31  45
ATOM     45  C   LIG d   1       3.245  -0.153  -9.355  0.00  0.00    -0.012 A 
ATOM     46  C   LIG d   1       3.708   0.456 -10.506  0.00  0.00     0.032 A 
ATOM     47  N   LIG d   1       3.803   1.770 -10.583  0.00  0.00    -0.263 NA
ATOM     48  H   LIG d   1       3.991  -0.150 -11.353  0.00  0.00     0.083 H 
ATOM     49  C   LIG d   1       3.476   2.549  -9.571  0.00  0.00     0.028 A 
ATOM     50  C   LIG d   1       3.010   2.011  -8.386  0.00  0.00    -0.043 A 
ATOM     51  H   LIG d   1       3.572   3.620  -9.669  0.00  0.00     0.083 H 
ATOM     52  C   LIG d   1       2.891   0.635  -8.270  0.00  0.00    -0.054 A 
ATOM     53  H   LIG d   1       2.743   2.654  -7.561  0.00  0.00     0.063 H 
ATOM     54  H   LIG d   1       2.530   0.186  -7.357  0.00  0.00     0.062 H 
ENDBRANCH  31  45
ENDBRANCH   1  30
TORSDOF 9
ENDMDL
MODEL 7
REMARK VINA RESULT:      -5.9      3.072      5.439
REMARK  9 active torsions:
REMARK  status: ('A' for Active; 'I' for Inactive)
REMARK    1  A    between atoms: C_1  and  C_2 
REMARK    2  A    between atoms: C_2  and  C_3 
REMARK    3  A    between atoms: C_2  and  C_11 
REMARK    4  A    between atoms: C_2  and  O_27 
REMARK    5  A    between atoms: C_3  and  C_4 
REMARK    6  A    between atoms: C_4  and  C_5 
REMARK    7  A    between atoms: C_12  and  C_13 
REMARK    8  A    between atoms: C_13  and  N_14 
REMARK    9  A    between atoms: C_19  and  C_21 
ROOT
ATOM      1  C   LIG d   1       3.170  -0.754  -8.095  0.00  0.00     0.061 C 
ATOM      2  H   LIG d   1       2.140  -0.781  -7.739  0.00  0.00     0.056 H 
ATOM      3  H   LIG d   1       3.563   0.257  -7.994  0.00  0.00     0.056 H 
ENDROOT
BRANCH   1   4
ATOM      4  C   LIG d   1       3.989  -1.681  -7.297  0.00  0.00    -0.084 C 
ATOM      5  C   LIG d   1       4.643  -2.420  -6.660  0.00  0.00    -0.067 C 
BRANCH   5   6
ATOM      6  C   LIG d   1       5.461  -3.347  -5.862  0.00  0.00     0.124 C 
BRANCH   6   7
ATOM      7  C   LIG d   1       4.713  -4.671  -5.693  0.00  0.00    -0.025 C 
ATOM      8  H   LIG d   1       4.061  -4.610  -4.821  0.00  0.00     0.027 H 
ATOM      9  H   LIG d   1       4.115  -4.868  -6.582  0.00  0.00     0.027 H 
ATOM     10  H   LIG d   1       5.432  -5.478  -5.552  0.00  0.00     0.027 H 
ENDBRANCH   6   7
BRANCH   6  11
ATOM     11  C   LIG d   1       5.732  -2.734  -4.487  0.00  0.00    -0.009 C 
ATOM     12  H   LIG d   1       6.468  -3.339  -3.957  0.00  0.00     0.031 H 
ATOM     13  H   LIG d   1       6.116  -1.721  -4.610  0.00  0.00     0.031 H 
BRANCH  11  14
ATOM     14  C   LIG d   1       4.433  -2.693  -3.682  0.00  0.00    -0.024 C 
ATOM     15  H   LIG d   1       3.605  -3.021  -4.311  0.00  0.00     0.031 H 
ATOM     16  H   LIG d   1       4.518  -3.354  -2.819  0.00  0.00     0.031 H 
BRANCH  14  17
ATOM     17  C   LIG d   1       4.177  -1.284  -3.212  0.00  0.00    -0.047 A 
ATOM     18  C   LIG d   1       4.778  -0.821  -2.056  0.00  0.00    -0.059 A 
ATOM     19  C   LIG d   1       4.547   0.473  -1.627  0.00  0.00    -0.061 A 
ATOM     20  H   LIG d   1       5.431  -1.469  -1.490  0.00  0.00     0.062 H 
ATOM     21  C   LIG d   1       3.709   1.301  -2.350  0.00  0.00    -0.062 A 
ATOM     22  H   LIG d   1       5.020   0.836  -0.727  0.00  0.00     0.062 H 
ATOM     23  C   LIG d   1       3.104   0.836  -3.502  0.00  0.00    -0.061 A 
ATOM     24  H   LIG d   1       3.526   2.311  -2.013  0.00  0.00     0.062 H 
ATOM     25  C   LIG d   1       3.338  -0.456  -3.934  0.00  0.00    -0.059 A 
ATOM     26  H   LIG d   1       2.449   1.483  -4.066  0.00  0.00     0.062 H 
ATOM     27  H   LIG d   1       2.866  -0.819  -4.834  0.00  0.00     0.062 H 
ENDBRANCH  14  17
ENDBRANCH  11  14
ENDBRANCH   6  11
BRANCH   6  28
ATOM     28  O   LIG d   1       6.702  -3.583  -6.532  0.00  0.00    -0.377 OA
ATOM     29  H   LIG d   1       7.087  -2.794  -6.936  0.00  0.00     0.211 HD
ENDBRANCH   6  28
ENDBRANCH   5   6
ENDBRANCH   1   4
BRANCH   1  30
ATOM     30  N   LIG d   1       3.211  -1.156  -9.507  0.00  0.00    -0.284 N 
ATOM     31  C   LIG d   1       3.466   0.000 -10.376  0.00  0.00     0.038 C 
ATOM     32  C   LIG d   1       3.645  -0.475 -11.820  0.00  0.00    -0.033 C 
ATOM     33  H   LIG d   1       2.622   0.688 -10.323  0.00  0.00     0.051 H 
ATOM     34  C   LIG d   1       2.379  -1.208 -12.273  0.00  0.00    -0.050 C 
ATOM     35  H   LIG d   1       4.497  -1.152 -11.876  0.00  0.00     0.028 H 
ATOM     36  H   LIG d   1       3.819   0.385 -12.467  0.00  0.00     0.028 H 
ATOM     37  C   LIG d   1       2.109  -2.378 -11.322  0.00  0.00    -0.040 C 
ATOM     38  H   LIG d   1       2.519  -1.585 -13.285  0.00  0.00     0.027 H 
ATOM     39  H   LIG d   1       1.534  -0.520 -12.253  0.00  0.00     0.027 H 
ATOM     40  C   LIG d   1       1.974  -1.848  -9.893  0.00  0.00     0.000 C 
ATOM     41  H   LIG d   1       2.937  -3.085 -11.371  0.00  0.00     0.028 H 
ATOM     42  H   LIG d   1       1.185  -2.878 -11.614  0.00  0.00     0.028 H 
ATOM     43  H   LIG d   1       1.796  -2.680  -9.212  0.00  0.00     0.043 H 
ATOM     44  H   LIG d   1       1.137  -1.151  -9.842  0.00  0.00     0.043 H 
BRANCH  31  45
ATOM     45  C   LIG d   1       4.717   0.705  -9.920  0.00  0.00    -0.012 A 
ATOM     46  C   LIG d   1       4.657   2.008  -9.464  0.00  0.00     0.032 A 
ATOM     47  N   LIG d   1       5.747   2.631  -9.058  0.00  0.00    -0.263 NA
ATOM     48  H   LIG d   1       3.708   2.521  -9.434  0.00  0.00     0.083 H 
ATOM     49  C   LIG d   1       6.929   2.047  -9.082  0.00  0.00     0.028 A 
ATOM     50  C   LIG d   1       7.067   0.747  -9.532  0.00  0.00    -0.043 A 
ATOM     51  H   LIG d   1       7.800   2.590  -8.747  0.00  0.00     0.083 H 
ATOM     52  C   LIG d   1       5.943   0.058  -9.960  0.00  0.00    -0.054 A 
ATOM     53  H   LIG d   1       8.037   0.274  -9.548  0.00  0.00     0.063 H 
ATOM     54  H   LIG d   1       6.019  -0.958 -10.316  0.00  0.00     0.062 H 
ENDBRANCH  31  45
ENDBRANCH   1  30
TORSDOF 9
ENDMDL
MODEL 8
REMARK VINA RESULT:      -5.8      3.332      6.520
REMARK  9 active torsions:
REMARK  status: ('A' for Active; 'I' for Inactive)
REMARK    1  A    between atoms: C_1  and  C_2 
REMARK    2  A    between atoms: C_2  and  C_3 
REMARK    3  A    between atoms: C_2  and  C_11 
REMARK    4  A    between atoms: C_2  and  O_27 
REMARK    5  A    between atoms: C_3  and  C_4 
REMARK    6  A    between atoms: C_4  and  C_5 
REMARK    7  A    between atoms: C_12  and  C_13 
REMARK    8  A    between atoms: C_13  and  N_14 
REMARK    9  A    between atoms: C_19  and  C_21 
ROOT
ATOM      1  C   LIG d   1       4.168  -2.173  -8.861  0.00  0.00     0.061 C 
ATOM      2  H   LIG d   1       5.067  -1.868  -9.397  0.00  0.00     0.056 H 
ATOM      3  H   LIG d   1       3.569  -2.825  -9.497  0.00  0.00     0.056 H 
ENDROOT
BRANCH   1   4
ATOM      4  C   LIG d   1       4.549  -2.897  -7.638  0.00  0.00    -0.084 C 
ATOM      5  C   LIG d   1       4.855  -3.474  -6.661  0.00  0.00    -0.067 C 
BRANCH   5   6
ATOM      6  C   LIG d   1       5.236  -4.197  -5.438  0.00  0.00     0.124 C 
BRANCH   6   7
ATOM      7  C   LIG d   1       4.612  -5.594  -5.455  0.00  0.00    -0.025 C 
ATOM      8  H   LIG d   1       3.931  -5.676  -6.302  0.00  0.00     0.027 H 
ATOM      9  H   LIG d   1       5.399  -6.343  -5.548  0.00  0.00     0.027 H 
ATOM     10  H   LIG d   1       4.062  -5.757  -4.529  0.00  0.00     0.027 H 
ENDBRANCH   6   7
BRANCH   6  11
ATOM     11  C   LIG d   1       4.734  -3.429  -4.213  0.00  0.00    -0.009 C 
ATOM     12  H   LIG d   1       3.772  -2.969  -4.442  0.00  0.00     0.031 H 
ATOM     13  H   LIG d   1       4.617  -4.117  -3.376  0.00  0.00     0.031 H 
BRANCH  11  14
ATOM     14  C   LIG d   1       5.744  -2.342  -3.843  0.00  0.00    -0.024 C 
ATOM     15  H   LIG d   1       6.420  -2.720  -3.076  0.00  0.00     0.031 H 
ATOM     16  H   LIG d   1       6.318  -2.062  -4.727  0.00  0.00     0.031 H 
BRANCH  14  17
ATOM     17  C   LIG d   1       5.012  -1.134  -3.317  0.00  0.00    -0.047 A 
ATOM     18  C   LIG d   1       5.722  -0.027  -2.892  0.00  0.00    -0.059 A 
ATOM     19  C   LIG d   1       5.050   1.082  -2.413  0.00  0.00    -0.061 A 
ATOM     20  H   LIG d   1       6.800  -0.026  -2.939  0.00  0.00     0.062 H 
ATOM     21  C   LIG d   1       3.669   1.081  -2.351  0.00  0.00    -0.062 A 
ATOM     22  H   LIG d   1       5.604   1.950  -2.086  0.00  0.00     0.062 H 
ATOM     23  C   LIG d   1       2.960  -0.029  -2.770  0.00  0.00    -0.061 A 
ATOM     24  H   LIG d   1       3.145   1.946  -1.974  0.00  0.00     0.062 H 
ATOM     25  C   LIG d   1       3.631  -1.137  -3.253  0.00  0.00    -0.059 A 
ATOM     26  H   LIG d   1       1.881  -0.031  -2.721  0.00  0.00     0.062 H 
ATOM     27  H   LIG d   1       3.077  -2.004  -3.581  0.00  0.00     0.062 H 
ENDBRANCH  14  17
ENDBRANCH  11  14
ENDBRANCH   6  11
BRANCH   6  28
ATOM     28  O   LIG d   1       6.660  -4.312  -5.377  0.00  0.00    -0.377 OA
ATOM     29  H   LIG d   1       7.127  -3.766  -6.025  0.00  0.00     0.211 HD
ENDBRANCH   6  28
ENDBRANCH   5   6
ENDBRANCH   1   4
BRANCH   1  30
ATOM     30  N   LIG d   1       3.383  -0.984  -8.503  0.00  0.00    -0.284 N 
ATOM     31  C   LIG d   1       3.405   0.006  -9.586  0.00  0.00     0.038 C 
ATOM     32  C   LIG d   1       2.464   1.163  -9.240  0.00  0.00    -0.033 C 
ATOM     33  H   LIG d   1       4.419   0.388  -9.709  0.00  0.00     0.051 H 
ATOM     34  C   LIG d   1       2.915   1.807  -7.925  0.00  0.00    -0.050 C 
ATOM     35  H   LIG d   1       1.448   0.784  -9.130  0.00  0.00     0.028 H 
ATOM     36  H   LIG d   1       2.493   1.906 -10.038  0.00  0.00     0.028 H 
ATOM     37  C   LIG d   1       2.930   0.742  -6.824  0.00  0.00    -0.040 C 
ATOM     38  H   LIG d   1       2.223   2.602  -7.654  0.00  0.00     0.027 H 
ATOM     39  H   LIG d   1       3.916   2.219  -8.047  0.00  0.00     0.027 H 
ATOM     40  C   LIG d   1       3.857  -0.402  -7.241  0.00  0.00     0.000 C 
ATOM     41  H   LIG d   1       1.921   0.357  -6.677  0.00  0.00     0.028 H 
ATOM     42  H   LIG d   1       3.291   1.184  -5.896  0.00  0.00     0.028 H 
ATOM     43  H   LIG d   1       3.859  -1.168  -6.465  0.00  0.00     0.043 H 
ATOM     44  H   LIG d   1       4.869  -0.019  -7.375  0.00  0.00     0.043 H 
BRANCH  31  45
ATOM     45  C   LIG d   1       2.954  -0.641 -10.869  0.00  0.00    -0.012 A 
ATOM     46  C   LIG d   1       3.819  -0.745 -11.942  0.00  0.00     0.032 A 
ATOM     47  N   LIG d   1       3.433  -1.316 -13.067  0.00  0.00    -0.263 NA
ATOM     48  H   LIG d   1       4.823  -0.359 -11.857  0.00  0.00     0.083 H 
ATOM     49  C   LIG d   1       2.215  -1.795 -13.219  0.00  0.00     0.028 A 
ATOM     50  C   LIG d   1       1.292  -1.721 -12.191  0.00  0.00    -0.043 A 
ATOM     51  H   LIG d   1       1.933  -2.251 -14.156  0.00  0.00     0.083 H 
ATOM     52  C   LIG d   1       1.663  -1.134 -10.992  0.00  0.00    -0.054 A 
ATOM     53  H   LIG d   1       0.296  -2.116 -12.322  0.00  0.00     0.063 H 
ATOM     54  H   LIG d   1       0.965  -1.063 -10.172  0.00  0.00     0.062 H 
ENDBRANCH  31  45
ENDBRANCH   1  30
TORSDOF 9
ENDMDL
MODEL 9
REMARK VINA RESULT:      -5.7      2.861      5.744
REMARK  9 active torsions:
REMARK  status: ('A' for Active; 'I' for Inactive)
REMARK    1  A    between atoms: C_1  and  C_2 
REMARK    2  A    between atoms: C_2  and  C_3 
REMARK    3  A    between atoms: C_2  and  C_11 
REMARK    4  A    between atoms: C_2  and  O_27 
REMARK    5  A    between atoms: C_3  and  C_4 
REMARK    6  A    between atoms: C_4  and  C_5 
REMARK    7  A    between atoms: C_12  and  C_13 
REMARK    8  A    between atoms: C_13  and  N_14 
REMARK    9  A    between atoms: C_19  and  C_21 
ROOT
ATOM      1  C   LIG d   1       4.305  -0.884  -5.937  0.00  0.00     0.061 C 
ATOM      2  H   LIG d   1       3.273  -1.231  -5.994  0.00  0.00     0.056 H 
ATOM      3  H   LIG d   1       4.977  -1.741  -5.932  0.00  0.00     0.056 H 
ENDROOT
BRANCH   1   4
ATOM      4  C   LIG d   1       4.601  -0.035  -7.102  0.00  0.00    -0.084 C 
ATOM      5  C   LIG d   1       4.836   0.644  -8.031  0.00  0.00    -0.067 C 
BRANCH   5   6
ATOM      6  C   LIG d   1       5.133   1.493  -9.196  0.00  0.00     0.124 C 
BRANCH   6   7
ATOM      7  C   LIG d   1       4.081   2.599  -9.302  0.00  0.00    -0.025 C 
ATOM      8  H   LIG d   1       4.417   3.353 -10.013  0.00  0.00     0.027 H 
ATOM      9  H   LIG d   1       3.137   2.172  -9.642  0.00  0.00     0.027 H 
ATOM     10  H   LIG d   1       3.939   3.060  -8.324  0.00  0.00     0.027 H 
ENDBRANCH   6   7
BRANCH   6  11
ATOM     11  C   LIG d   1       5.108   0.642 -10.467  0.00  0.00    -0.009 C 
ATOM     12  H   LIG d   1       5.991   0.861 -11.069  0.00  0.00     0.031 H 
ATOM     13  H   LIG d   1       5.107  -0.415 -10.197  0.00  0.00     0.031 H 
BRANCH  11  14
ATOM     14  C   LIG d   1       3.849   0.965 -11.273  0.00  0.00    -0.024 C 
ATOM     15  H   LIG d   1       3.330   1.806 -10.814  0.00  0.00     0.031 H 
ATOM     16  H   LIG d   1       4.127   1.224 -12.295  0.00  0.00     0.031 H 
BRANCH  14  17
ATOM     17  C   LIG d   1       2.941  -0.238 -11.289  0.00  0.00    -0.047 A 
ATOM     18  C   LIG d   1       2.891  -1.051 -12.406  0.00  0.00    -0.059 A 
ATOM     19  C   LIG d   1       2.061  -2.157 -12.420  0.00  0.00    -0.061 A 
ATOM     20  H   LIG d   1       3.504  -0.826 -13.266  0.00  0.00     0.062 H 
ATOM     21  C   LIG d   1       1.275  -2.444 -11.319  0.00  0.00    -0.062 A 
ATOM     22  H   LIG d   1       2.026  -2.795 -13.290  0.00  0.00     0.062 H 
ATOM     23  C   LIG d   1       1.321  -1.628 -10.205  0.00  0.00    -0.061 A 
ATOM     24  H   LIG d   1       0.625  -3.306 -11.331  0.00  0.00     0.062 H 
ATOM     25  C   LIG d   1       2.154  -0.525 -10.190  0.00  0.00    -0.059 A 
ATOM     26  H   LIG d   1       0.707  -1.852  -9.346  0.00  0.00     0.062 H 
ATOM     27  H   LIG d   1       2.190   0.113  -9.319  0.00  0.00     0.062 H 
ENDBRANCH  14  17
ENDBRANCH  11  14
ENDBRANCH   6  11
BRANCH   6  28
ATOM     28  O   LIG d   1       6.427   2.080  -9.040  0.00  0.00    -0.377 OA
ATOM     29  H   LIG d   1       7.024   1.571  -8.476  0.00  0.00     0.211 HD
ENDBRANCH   6  28
ENDBRANCH   5   6
ENDBRANCH   1   4
BRANCH   1  30
ATOM     30  N   LIG d   1       4.492  -0.108  -4.704  0.00  0.00    -0.284 N 
ATOM     31  C   LIG d   1       5.096  -0.932  -3.650  0.00  0.00     0.038 C 
ATOM     32  C   LIG d   1       5.409  -0.058  -2.433  0.00  0.00    -0.033 C 
ATOM     33  H   LIG d   1       4.399  -1.720  -3.361  0.00  0.00     0.051 H 
ATOM     34  C   LIG d   1       4.115   0.586  -1.926  0.00  0.00    -0.050 C 
ATOM     35  H   LIG d   1       6.116   0.721  -2.718  0.00  0.00     0.028 H 
ATOM     36  H   LIG d   1       5.843  -0.674  -1.645  0.00  0.00     0.028 H 
ATOM     37  C   LIG d   1       3.482   1.400  -3.058  0.00  0.00    -0.040 C 
ATOM     38  H   LIG d   1       4.341   1.243  -1.086  0.00  0.00     0.027 H 
ATOM     39  H   LIG d   1       3.423  -0.192  -1.604  0.00  0.00     0.027 H 
ATOM     40  C   LIG d   1       3.225   0.483  -4.256  0.00  0.00     0.000 C 
ATOM     41  H   LIG d   1       4.159   2.202  -3.353  0.00  0.00     0.028 H 
ATOM     42  H   LIG d   1       2.539   1.826  -2.716  0.00  0.00     0.028 H 
ATOM     43  H   LIG d   1       2.786   1.063  -5.069  0.00  0.00     0.043 H 
ATOM     44  H   LIG d   1       2.537  -0.311  -3.965  0.00  0.00     0.043 H 
BRANCH  31  45
ATOM     45  C   LIG d   1       6.368  -1.553  -4.163  0.00  0.00    -0.012 A 
ATOM     46  C   LIG d   1       7.443  -0.756  -4.512  0.00  0.00     0.032 A 
ATOM     47  N   LIG d   1       8.563  -1.293  -4.957  0.00  0.00    -0.263 NA
ATOM     48  H   LIG d   1       7.366   0.316  -4.415  0.00  0.00     0.083 H 
ATOM     49  C   LIG d   1       8.700  -2.596  -5.098  0.00  0.00     0.028 A 
ATOM     50  C   LIG d   1       7.666  -3.455  -4.775  0.00  0.00    -0.043 A 
ATOM     51  H   LIG d   1       9.631  -2.998  -5.471  0.00  0.00     0.083 H 
ATOM     52  C   LIG d   1       6.476  -2.929  -4.298  0.00  0.00    -0.054 A 
ATOM     53  H   LIG d   1       7.784  -4.521  -4.892  0.00  0.00     0.063 H 
ATOM     54  H   LIG d   1       5.651  -3.575  -4.037  0.00  0.00     0.062 H 
ENDBRANCH  31  45
ENDBRANCH   1  30
TORSDOF 9
ENDMDL
MODEL 10
REMARK VINA RESULT:      -5.7      2.824      5.374
REMARK  9 active torsions:
REMARK  status: ('A' for Active; 'I' for Inactive)
REMARK    1  A    between atoms: C_1  and  C_2 
REMARK    2  A    between atoms: C_2  and  C_3 
REMARK    3  A    between atoms: C_2  and  C_11 
REMARK    4  A    between atoms: C_2  and  O_27 
REMARK    5  A    between atoms: C_3  and  C_4 
REMARK    6  A    between atoms: C_4  and  C_5 
REMARK    7  A    between atoms: C_12  and  C_13 
REMARK    8  A    between atoms: C_13  and  N_14 
REMARK    9  A    between atoms: C_19  and  C_21 
ROOT
ATOM      1  C   LIG d   1       4.349  -3.255  -7.196  0.00  0.00     0.061 C 
ATOM      2  H   LIG d   1       3.776  -2.993  -6.306  0.00  0.00     0.056 H 
ATOM      3  H   LIG d   1       4.711  -4.279  -7.106  0.00  0.00     0.056 H 
ENDROOT
BRANCH   1   4
ATOM      4  C   LIG d   1       3.487  -3.141  -8.384  0.00  0.00    -0.084 C 
ATOM      5  C   LIG d   1       2.799  -3.051  -9.331  0.00  0.00    -0.067 C 
BRANCH   5   6
ATOM      6  C   LIG d   1       1.938  -2.937 -10.519  0.00  0.00     0.124 C 
BRANCH   6   7
ATOM      7  C   LIG d   1       2.488  -3.828 -11.635  0.00  0.00    -0.025 C 
ATOM      8  H   LIG d   1       1.941  -3.632 -12.558  0.00  0.00     0.027 H 
ATOM      9  H   LIG d   1       3.545  -3.611 -11.786  0.00  0.00     0.027 H 
ATOM     10  H   LIG d   1       2.366  -4.874 -11.357  0.00  0.00     0.027 H 
ENDBRANCH   6   7
BRANCH   6  11
ATOM     11  C   LIG d   1       1.912  -1.482 -10.993  0.00  0.00    -0.009 C 
ATOM     12  H   LIG d   1       2.892  -1.210 -11.385  0.00  0.00     0.031 H 
ATOM     13  H   LIG d   1       1.164  -1.368 -11.777  0.00  0.00     0.031 H 
BRANCH  11  14
ATOM     14  C   LIG d   1       1.562  -0.569  -9.817  0.00  0.00    -0.024 C 
ATOM     15  H   LIG d   1       0.591  -0.106  -9.993  0.00  0.00     0.031 H 
ATOM     16  H   LIG d   1       1.523  -1.156  -8.899  0.00  0.00     0.031 H 
BRANCH  14  17
ATOM     17  C   LIG d   1       2.613   0.503  -9.683  0.00  0.00    -0.047 A 
ATOM     18  C   LIG d   1       3.774   0.430 -10.430  0.00  0.00    -0.059 A 
ATOM     19  C   LIG d   1       4.737   1.415 -10.310  0.00  0.00    -0.061 A 
ATOM     20  H   LIG d   1       3.928  -0.395 -11.109  0.00  0.00     0.062 H 
ATOM     21  C   LIG d   1       4.541   2.470  -9.437  0.00  0.00    -0.062 A 
ATOM     22  H   LIG d   1       5.641   1.361 -10.896  0.00  0.00     0.062 H 
ATOM     23  C   LIG d   1       3.382   2.540  -8.687  0.00  0.00    -0.061 A 
ATOM     24  H   LIG d   1       5.294   3.238  -9.342  0.00  0.00     0.062 H 
ATOM     25  C   LIG d   1       2.418   1.557  -8.810  0.00  0.00    -0.059 A 
ATOM     26  H   LIG d   1       3.230   3.363  -8.005  0.00  0.00     0.062 H 
ATOM     27  H   LIG d   1       1.512   1.612  -8.224  0.00  0.00     0.062 H 
ENDBRANCH  14  17
ENDBRANCH  11  14
ENDBRANCH   6  11
BRANCH   6  28
ATOM     28  O   LIG d   1       0.611  -3.353 -10.187  0.00  0.00    -0.377 OA
ATOM     29  H   LIG d   1       0.130  -2.726  -9.630  0.00  0.00     0.211 HD
ENDBRANCH   6  28
ENDBRANCH   5   6
ENDBRANCH   1   4
BRANCH   1  30
ATOM     30  N   LIG d   1       5.491  -2.341  -7.330  0.00  0.00    -0.284 N 
ATOM     31  C   LIG d   1       5.063  -0.943  -7.211  0.00  0.00     0.038 C 
ATOM     32  C   LIG d   1       6.292  -0.029  -7.211  0.00  0.00    -0.033 C 
ATOM     33  H   LIG d   1       4.422  -0.686  -8.055  0.00  0.00     0.051 H 
ATOM     34  C   LIG d   1       7.076  -0.235  -8.510  0.00  0.00    -0.050 C 
ATOM     35  H   LIG d   1       6.926  -0.276  -6.359  0.00  0.00     0.028 H 
ATOM     36  H   LIG d   1       5.971   1.010  -7.138  0.00  0.00     0.028 H 
ATOM     37  C   LIG d   1       7.468  -1.710  -8.632  0.00  0.00    -0.040 C 
ATOM     38  H   LIG d   1       7.974   0.381  -8.494  0.00  0.00     0.027 H 
ATOM     39  H   LIG d   1       6.454   0.048  -9.359  0.00  0.00     0.027 H 
ATOM     40  C   LIG d   1       6.206  -2.574  -8.591  0.00  0.00     0.000 C 
ATOM     41  H   LIG d   1       8.121  -1.983  -7.803  0.00  0.00     0.028 H 
ATOM     42  H   LIG d   1       7.990  -1.871  -9.575  0.00  0.00     0.028 H 
ATOM     43  H   LIG d   1       6.483  -3.626  -8.664  0.00  0.00     0.043 H 
ATOM     44  H   LIG d   1       5.559  -2.311  -9.429  0.00  0.00     0.043 H 
BRANCH  31  45
ATOM     45  C   LIG d   1       4.299  -0.757  -5.927  0.00  0.00    -0.012 A 
ATOM     46  C   LIG d   1       4.795  -1.262  -4.739  0.00  0.00     0.032 A 
ATOM     47  N   LIG d   1       4.134  -1.099  -3.609  0.00  0.00    -0.263 NA
ATOM     48  H   LIG d   1       5.735  -1.792  -4.736  0.00  0.00     0.083 H 
ATOM     49  C   LIG d   1       2.979  -0.465  -3.566  0.00  0.00     0.028 A 
ATOM     50  C   LIG d   1       2.418   0.062  -4.715  0.00  0.00    -0.043 A 
ATOM     51  H   LIG d   1       2.465  -0.356  -2.623  0.00  0.00     0.083 H 
ATOM     52  C   LIG d   1       3.086  -0.085  -5.920  0.00  0.00    -0.054 A 
ATOM     53  H   LIG d   1       1.472   0.580  -4.673  0.00  0.00     0.063 H 
ATOM     54  H   LIG d   1       2.672   0.316  -6.833  0.00  0.00     0.062 H 
ENDBRANCH  31  45
ENDBRANCH   1  30
TORSDOF 9
ENDMDL
