MODEL 1
REMARK VINA RESULT:      -6.5      0.000      0.000
REMARK  8 active torsions:
REMARK  status: ('A' for Active; 'I' for Inactive)
REMARK    1  A    between atoms: C_9  and  C_11 
REMARK    2  A    between atoms: C_11  and  C_13 
REMARK    3  A    between atoms: C_11  and  O_30 
REMARK    4  A    between atoms: C_13  and  C_14 
REMARK    5  A    between atoms: C_14  and  C_16 
REMARK    6  A    between atoms: C_16  and  C_17 
REMARK    7  A    between atoms: C_17  and  C_19 
REMARK    8  A    between atoms: C_17  and  O_29 
ROOT
ATOM      1  C   LIG d   1       4.486  -0.524  -2.775  0.00  0.00     0.139 C 
ATOM      2  O   LIG d   1       4.241   0.221  -1.856  0.00  0.00    -0.297 OA
ENDROOT
BRANCH   1   3
ATOM      3  C   LIG d   1       3.377  -0.993  -3.682  0.00  0.00     0.037 C 
ATOM      4  H   LIG d   1       2.648  -1.401  -3.134  0.00  0.00     0.037 H 
ATOM      5  H   LIG d   1       3.767  -1.735  -4.379  0.00  0.00     0.037 H 
BRANCH   3   6
ATOM      6  C   LIG d   1       2.820   0.199  -4.464  0.00  0.00     0.104 C 
ATOM      7  H   LIG d   1       1.733   0.203  -4.395  0.00  0.00     0.066 H 
BRANCH   6   8
ATOM      8  C   LIG d   1       3.231   0.087  -5.910  0.00  0.00     0.071 A 
ATOM      9  C   LIG d   1       3.768  -1.112  -6.372  0.00  0.00    -0.037 A 
ATOM     10  C   LIG d   1       4.147  -1.230  -7.680  0.00  0.00    -0.051 A 
ATOM     11  H   LIG d   1       3.885  -1.947  -5.698  0.00  0.00     0.064 H 
ATOM     12  C   LIG d   1       3.981  -0.115  -8.522  0.00  0.00     0.000 A 
ATOM     13  H   LIG d   1       4.565  -2.153  -8.055  0.00  0.00     0.062 H 
ATOM     14  C   LIG d   1       3.425   1.073  -7.988  0.00  0.00     0.071 A 
ATOM     15  C   LIG d   1       4.342  -0.164  -9.879  0.00  0.00    -0.053 A 
ATOM     16  C   LIG d   1       3.253   2.186  -8.830  0.00  0.00    -0.036 A 
ATOM     17  N   LIG d   1       3.074   1.123  -6.699  0.00  0.00    -0.249 NA
ATOM     18  C   LIG d   1       3.618   2.105 -10.138  0.00  0.00    -0.060 A 
ATOM     19  H   LIG d   1       2.833   3.101  -8.440  0.00  0.00     0.064 H 
ATOM     20  C   LIG d   1       4.162   0.934 -10.662  0.00  0.00    -0.061 A 
ATOM     21  H   LIG d   1       3.485   2.963 -10.781  0.00  0.00     0.062 H 
ATOM     22  H   LIG d   1       4.444   0.897 -11.704  0.00  0.00     0.062 H 
ATOM     23  H   LIG d   1       4.764  -1.066 -10.296  0.00  0.00     0.062 H 
ENDBRANCH   6   8
BRANCH   6  24
ATOM     24  O   LIG d   1       3.337   1.412  -3.915  0.00  0.00    -0.385 OA
ATOM     25  H   LIG d   1       2.678   1.947  -3.451  0.00  0.00     0.210 HD
ENDBRANCH   6  24
ENDBRANCH   3   6
ENDBRANCH   1   3
BRANCH   1  26
ATOM     26  C   LIG d   1       5.901  -0.983  -3.015  0.00  0.00     0.037 C 
ATOM     27  H   LIG d   1       6.300  -1.297  -2.153  0.00  0.00     0.037 H 
ATOM     28  H   LIG d   1       5.900  -1.802  -3.734  0.00  0.00     0.037 H 
BRANCH  26  29
ATOM     29  C   LIG d   1       6.729   0.179  -3.567  0.00  0.00     0.104 C 
ATOM     30  H   LIG d   1       7.648   0.276  -2.990  0.00  0.00     0.066 H 
BRANCH  29  31
ATOM     31  C   LIG d   1       7.067  -0.087  -5.010  0.00  0.00     0.071 A 
ATOM     32  N   LIG d   1       7.018   0.901  -5.871  0.00  0.00    -0.249 NA
ATOM     33  C   LIG d   1       7.314   0.716  -7.161  0.00  0.00     0.071 A 
ATOM     34  C   LIG d   1       7.679  -0.573  -7.622  0.00  0.00     0.000 A 
ATOM     35  C   LIG d   1       7.265   1.781  -8.077  0.00  0.00    -0.036 A 
ATOM     36  C   LIG d   1       7.729  -1.638  -6.702  0.00  0.00    -0.051 A 
ATOM     37  C   LIG d   1       7.984  -0.764  -8.979  0.00  0.00    -0.053 A 
ATOM     38  C   LIG d   1       7.419  -1.378  -5.398  0.00  0.00    -0.037 A 
ATOM     39  H   LIG d   1       8.003  -2.633  -7.019  0.00  0.00     0.062 H 
ATOM     40  H   LIG d   1       7.446  -2.173  -4.667  0.00  0.00     0.064 H 
ATOM     41  C   LIG d   1       7.925   0.291  -9.836  0.00  0.00    -0.061 A 
ATOM     42  H   LIG d   1       8.265  -1.743  -9.340  0.00  0.00     0.062 H 
ATOM     43  C   LIG d   1       7.566   1.560  -9.385  0.00  0.00    -0.060 A 
ATOM     44  H   LIG d   1       8.160   0.143 -10.881  0.00  0.00     0.062 H 
ATOM     45  H   LIG d   1       7.527   2.381 -10.086  0.00  0.00     0.062 H 
ATOM     46  H   LIG d   1       6.989   2.770  -7.744  0.00  0.00     0.064 H 
ENDBRANCH  29  31
BRANCH  29  47
ATOM     47  O   LIG d   1       5.975   1.389  -3.469  0.00  0.00    -0.385 OA
ATOM     48  H   LIG d   1       5.062   1.261  -3.179  0.00  0.00     0.210 HD
ENDBRANCH  29  47
ENDBRANCH  26  29
ENDBRANCH   1  26
TORSDOF 8
ENDMDL
MODEL 2
REMARK VINA RESULT:      -6.2      3.467      5.609
REMARK  8 active torsions:
REMARK  status: ('A' for Active; 'I' for Inactive)
REMARK    1  A    between atoms: C_9  and  C_11 
REMARK    2  A    between atoms: C_11  and  C_13 
REMARK    3  A    between atoms: C_11  and  O_30 
REMARK    4  A    between atoms: C_13  and  C_14 
REMARK    5  A    between atoms: C_14  and  C_16 
REMARK    6  A    between atoms: C_16  and  C_17 
REMARK    7  A    between atoms: C_17  and  C_19 
REMARK    8  A    between atoms: C_17  and  O_29 
ROOT
ATOM      1  C   LIG d   1       4.917  -4.739  -8.859  0.00  0.00     0.139 C 
ATOM      2  O   LIG d   1       4.665  -5.907  -8.682  0.00  0.00    -0.297 OA
ENDROOT
BRANCH   1   3
ATOM      3  C   LIG d   1       4.682  -4.113 -10.209  0.00  0.00     0.037 C 
ATOM      4  H   LIG d   1       4.903  -4.774 -10.926  0.00  0.00     0.037 H 
ATOM      5  H   LIG d   1       5.318  -3.234 -10.317  0.00  0.00     0.037 H 
BRANCH   3   6
ATOM      6  C   LIG d   1       3.214  -3.701 -10.332  0.00  0.00     0.104 C 
ATOM      7  H   LIG d   1       2.871  -3.876 -11.351  0.00  0.00     0.066 H 
BRANCH   6   8
ATOM      8  C   LIG d   1       3.074  -2.238 -10.000  0.00  0.00     0.071 A 
ATOM      9  C   LIG d   1       1.810  -1.725  -9.717  0.00  0.00    -0.037 A 
ATOM     10  C   LIG d   1       1.663  -0.400  -9.415  0.00  0.00    -0.051 A 
ATOM     11  H   LIG d   1       0.946  -2.374  -9.737  0.00  0.00     0.064 H 
ATOM     12  C   LIG d   1       2.814   0.410  -9.406  0.00  0.00     0.000 A 
ATOM     13  H   LIG d   1       0.691   0.014  -9.193  0.00  0.00     0.062 H 
ATOM     14  C   LIG d   1       4.069  -0.177  -9.698  0.00  0.00     0.071 A 
ATOM     15  C   LIG d   1       2.742   1.778  -9.098  0.00  0.00    -0.053 A 
ATOM     16  C   LIG d   1       5.221   0.629  -9.684  0.00  0.00    -0.036 A 
ATOM     17  N   LIG d   1       4.144  -1.480  -9.986  0.00  0.00    -0.249 NA
ATOM     18  C   LIG d   1       5.114   1.953  -9.387  0.00  0.00    -0.060 A 
ATOM     19  H   LIG d   1       6.187   0.200  -9.908  0.00  0.00     0.064 H 
ATOM     20  C   LIG d   1       3.879   2.527  -9.095  0.00  0.00    -0.061 A 
ATOM     21  H   LIG d   1       6.001   2.568  -9.377  0.00  0.00     0.062 H 
ATOM     22  H   LIG d   1       3.822   3.580  -8.863  0.00  0.00     0.062 H 
ATOM     23  H   LIG d   1       1.790   2.234  -8.871  0.00  0.00     0.062 H 
ENDBRANCH   6   8
BRANCH   6  24
ATOM     24  O   LIG d   1       2.426  -4.472  -9.424  0.00  0.00    -0.385 OA
ATOM     25  H   LIG d   1       1.578  -4.066  -9.195  0.00  0.00     0.210 HD
ENDBRANCH   6  24
ENDBRANCH   3   6
ENDBRANCH   1   3
BRANCH   1  26
ATOM     26  C   LIG d   1       5.466  -3.908  -7.728  0.00  0.00     0.037 C 
ATOM     27  H   LIG d   1       6.413  -4.175  -7.548  0.00  0.00     0.037 H 
ATOM     28  H   LIG d   1       5.432  -2.854  -8.001  0.00  0.00     0.037 H 
BRANCH  26  29
ATOM     29  C   LIG d   1       4.624  -4.136  -6.471  0.00  0.00     0.104 C 
ATOM     30  H   LIG d   1       5.109  -4.880  -5.839  0.00  0.00     0.066 H 
BRANCH  29  31
ATOM     31  C   LIG d   1       4.493  -2.842  -5.713  0.00  0.00     0.071 A 
ATOM     32  N   LIG d   1       4.519  -2.863  -4.402  0.00  0.00    -0.249 NA
ATOM     33  C   LIG d   1       4.411  -1.740  -3.686  0.00  0.00     0.071 A 
ATOM     34  C   LIG d   1       4.254  -0.496  -4.345  0.00  0.00     0.000 A 
ATOM     35  C   LIG d   1       4.445  -1.770  -2.281  0.00  0.00    -0.036 A 
ATOM     36  C   LIG d   1       4.221  -0.468  -5.752  0.00  0.00    -0.051 A 
ATOM     37  C   LIG d   1       4.135   0.681  -3.588  0.00  0.00    -0.053 A 
ATOM     38  C   LIG d   1       4.342  -1.652  -6.423  0.00  0.00    -0.037 A 
ATOM     39  H   LIG d   1       4.102   0.462  -6.287  0.00  0.00     0.062 H 
ATOM     40  H   LIG d   1       4.319  -1.666  -7.503  0.00  0.00     0.064 H 
ATOM     41  C   LIG d   1       4.172   0.612  -2.229  0.00  0.00    -0.061 A 
ATOM     42  H   LIG d   1       4.016   1.634  -4.081  0.00  0.00     0.062 H 
ATOM     43  C   LIG d   1       4.326  -0.610  -1.578  0.00  0.00    -0.060 A 
ATOM     44  H   LIG d   1       4.081   1.518  -1.647  0.00  0.00     0.062 H 
ATOM     45  H   LIG d   1       4.352  -0.637  -0.498  0.00  0.00     0.062 H 
ATOM     46  H   LIG d   1       4.564  -2.708  -1.760  0.00  0.00     0.064 H 
ENDBRANCH  29  31
BRANCH  29  47
ATOM     47  O   LIG d   1       3.327  -4.603  -6.846  0.00  0.00    -0.385 OA
ATOM     48  H   LIG d   1       2.904  -5.166  -6.183  0.00  0.00     0.210 HD
ENDBRANCH  29  47
ENDBRANCH  26  29
ENDBRANCH   1  26
TORSDOF 8
ENDMDL
MODEL 3
REMARK VINA RESULT:      -6.1      3.433      6.168
REMARK  8 active torsions:
REMARK  status: ('A' for Active; 'I' for Inactive)
REMARK    1  A    between atoms: C_9  and  C_11 
REMARK    2  A    between atoms: C_11  and  C_13 
REMARK    3  A    between atoms: C_11  and  O_30 
REMARK    4  A    between atoms: C_13  and  C_14 
REMARK    5  A    between atoms: C_14  and  C_16 
REMARK    6  A    between atoms: C_16  and  C_17 
REMARK    7  A    between atoms: C_17  and  C_19 
REMARK    8  A    between atoms: C_17  and  O_29 
ROOT
ATOM      1  C   LIG d   1       4.136  -4.861  -8.682  0.00  0.00     0.139 C 
ATOM      2  O   LIG d   1       5.119  -5.530  -8.898  0.00  0.00    -0.297 OA
ENDROOT
BRANCH   1   3
ATOM      3  C   LIG d   1       3.903  -4.285  -7.309  0.00  0.00     0.037 C 
ATOM      4  H   LIG d   1       3.740  -5.027  -6.660  0.00  0.00     0.037 H 
ATOM      5  H   LIG d   1       3.034  -3.627  -7.334  0.00  0.00     0.037 H 
BRANCH   3   6
ATOM      6  C   LIG d   1       5.134  -3.488  -6.874  0.00  0.00     0.104 C 
ATOM      7  H   LIG d   1       5.809  -4.138  -6.317  0.00  0.00     0.066 H 
BRANCH   6   8
ATOM      8  C   LIG d   1       4.706  -2.339  -5.998  0.00  0.00     0.071 A 
ATOM      9  C   LIG d   1       4.094  -1.233  -6.582  0.00  0.00    -0.037 A 
ATOM     10  C   LIG d   1       3.701  -0.181  -5.803  0.00  0.00    -0.051 A 
ATOM     11  H   LIG d   1       3.931  -1.206  -7.650  0.00  0.00     0.064 H 
ATOM     12  C   LIG d   1       3.938  -0.256  -4.418  0.00  0.00     0.000 A 
ATOM     13  H   LIG d   1       3.224   0.684  -6.240  0.00  0.00     0.062 H 
ATOM     14  C   LIG d   1       4.561  -1.412  -3.890  0.00  0.00     0.071 A 
ATOM     15  C   LIG d   1       3.555   0.784  -3.555  0.00  0.00    -0.053 A 
ATOM     16  C   LIG d   1       4.794  -1.491  -2.505  0.00  0.00    -0.036 A 
ATOM     17  N   LIG d   1       4.921  -2.407  -4.707  0.00  0.00    -0.249 NA
ATOM     18  C   LIG d   1       4.415  -0.463  -1.697  0.00  0.00    -0.060 A 
ATOM     19  H   LIG d   1       5.271  -2.364  -2.084  0.00  0.00     0.064 H 
ATOM     20  C   LIG d   1       3.798   0.672  -2.220  0.00  0.00    -0.061 A 
ATOM     21  H   LIG d   1       4.596  -0.528  -0.635  0.00  0.00     0.062 H 
ATOM     22  H   LIG d   1       3.508   1.473  -1.557  0.00  0.00     0.062 H 
ATOM     23  H   LIG d   1       3.077   1.668  -3.948  0.00  0.00     0.062 H 
ENDBRANCH   6   8
BRANCH   6  24
ATOM     24  O   LIG d   1       5.806  -2.982  -8.029  0.00  0.00    -0.385 OA
ATOM     25  H   LIG d   1       6.220  -2.117  -7.896  0.00  0.00     0.210 HD
ENDBRANCH   6  24
ENDBRANCH   3   6
ENDBRANCH   1   3
BRANCH   1  26
ATOM     26  C   LIG d   1       3.145  -4.601  -9.787  0.00  0.00     0.037 C 
ATOM     27  H   LIG d   1       2.950  -5.456 -10.267  0.00  0.00     0.037 H 
ATOM     28  H   LIG d   1       2.223  -4.204  -9.363  0.00  0.00     0.037 H 
BRANCH  26  29
ATOM     29  C   LIG d   1       3.732  -3.586 -10.771  0.00  0.00     0.104 C 
ATOM     30  H   LIG d   1       3.304  -3.751 -11.760  0.00  0.00     0.066 H 
BRANCH  29  31
ATOM     31  C   LIG d   1       3.404  -2.191 -10.308  0.00  0.00     0.071 A 
ATOM     32  N   LIG d   1       4.363  -1.301 -10.232  0.00  0.00    -0.249 NA
ATOM     33  C   LIG d   1       4.121  -0.049  -9.831  0.00  0.00     0.071 A 
ATOM     34  C   LIG d   1       2.806   0.333  -9.468  0.00  0.00     0.000 A 
ATOM     35  C   LIG d   1       5.154   0.901  -9.757  0.00  0.00    -0.036 A 
ATOM     36  C   LIG d   1       1.773  -0.621  -9.544  0.00  0.00    -0.051 A 
ATOM     37  C   LIG d   1       2.558   1.647  -9.042  0.00  0.00    -0.053 A 
ATOM     38  C   LIG d   1       2.089  -1.880  -9.966  0.00  0.00    -0.037 A 
ATOM     39  H   LIG d   1       0.760  -0.364  -9.274  0.00  0.00     0.062 H 
ATOM     40  H   LIG d   1       1.320  -2.636 -10.034  0.00  0.00     0.064 H 
ATOM     41  C   LIG d   1       3.584   2.540  -8.983  0.00  0.00    -0.061 A 
ATOM     42  H   LIG d   1       1.559   1.949  -8.764  0.00  0.00     0.062 H 
ATOM     43  C   LIG d   1       4.878   2.167  -9.339  0.00  0.00    -0.060 A 
ATOM     44  H   LIG d   1       3.392   3.552  -8.655  0.00  0.00     0.062 H 
ATOM     45  H   LIG d   1       5.675   2.895  -9.283  0.00  0.00     0.062 H 
ATOM     46  H   LIG d   1       6.163   0.629 -10.029  0.00  0.00     0.064 H 
ENDBRANCH  29  31
BRANCH  29  47
ATOM     47  O   LIG d   1       5.150  -3.748 -10.833  0.00  0.00    -0.385 OA
ATOM     48  H   LIG d   1       5.457  -4.627 -10.575  0.00  0.00     0.210 HD
ENDBRANCH  29  47
ENDBRANCH  26  29
ENDBRANCH   1  26
TORSDOF 8
ENDMDL
MODEL 4
REMARK VINA RESULT:      -6.0      2.258      5.950
REMARK  8 active torsions:
REMARK  status: ('A' for Active; 'I' for Inactive)
REMARK    1  A    between atoms: C_9  and  C_11 
REMARK    2  A    between atoms: C_11  and  C_13 
REMARK    3  A    between atoms: C_11  and  O_30 
REMARK    4  A    between atoms: C_13  and  C_14 
REMARK    5  A    between atoms: C_14  and  C_16 
REMARK    6  A    between atoms: C_16  and  C_17 
REMARK    7  A    between atoms: C_17  and  C_19 
REMARK    8  A    between atoms: C_17  and  O_29 
ROOT
ATOM      1  C   LIG d   1       3.711  -0.237 -10.004  0.00  0.00     0.139 C 
ATOM      2  O   LIG d   1       3.086   0.670 -10.501  0.00  0.00    -0.297 OA
ENDROOT
BRANCH   1   3
ATOM      3  C   LIG d   1       4.955  -0.754 -10.679  0.00  0.00     0.037 C 
ATOM      4  H   LIG d   1       4.859  -0.660 -11.671  0.00  0.00     0.037 H 
ATOM      5  H   LIG d   1       5.096  -1.805 -10.426  0.00  0.00     0.037 H 
BRANCH   3   6
ATOM      6  C   LIG d   1       6.165   0.053 -10.206  0.00  0.00     0.104 C 
ATOM      7  H   LIG d   1       6.954  -0.000 -10.955  0.00  0.00     0.066 H 
BRANCH   6   8
ATOM      8  C   LIG d   1       6.670  -0.516  -8.905  0.00  0.00     0.071 A 
ATOM      9  C   LIG d   1       7.067  -1.850  -8.856  0.00  0.00    -0.037 A 
ATOM     10  C   LIG d   1       7.527  -2.382  -7.685  0.00  0.00    -0.051 A 
ATOM     11  H   LIG d   1       7.011  -2.463  -9.744  0.00  0.00     0.064 H 
ATOM     12  C   LIG d   1       7.577  -1.549  -6.551  0.00  0.00     0.000 A 
ATOM     13  H   LIG d   1       7.839  -3.415  -7.629  0.00  0.00     0.062 H 
ATOM     14  C   LIG d   1       7.162  -0.201  -6.672  0.00  0.00     0.071 A 
ATOM     15  C   LIG d   1       8.044  -2.025  -5.315  0.00  0.00    -0.053 A 
ATOM     16  C   LIG d   1       7.218   0.635  -5.542  0.00  0.00    -0.036 A 
ATOM     17  N   LIG d   1       6.723   0.258  -7.848  0.00  0.00    -0.249 NA
ATOM     18  C   LIG d   1       7.671   0.140  -4.358  0.00  0.00    -0.060 A 
ATOM     19  H   LIG d   1       6.902   1.665  -5.613  0.00  0.00     0.064 H 
ATOM     20  C   LIG d   1       8.082  -1.186  -4.244  0.00  0.00    -0.061 A 
ATOM     21  H   LIG d   1       7.711   0.785  -3.493  0.00  0.00     0.062 H 
ATOM     22  H   LIG d   1       8.437  -1.554  -3.292  0.00  0.00     0.062 H 
ATOM     23  H   LIG d   1       8.365  -3.051  -5.215  0.00  0.00     0.062 H 
ENDBRANCH   6   8
BRANCH   6  24
ATOM     24  O   LIG d   1       5.783   1.416 -10.012  0.00  0.00    -0.385 OA
ATOM     25  H   LIG d   1       5.958   1.752  -9.122  0.00  0.00     0.210 HD
ENDBRANCH   6  24
ENDBRANCH   3   6
ENDBRANCH   1   3
BRANCH   1  26
ATOM     26  C   LIG d   1       3.246  -0.850  -8.708  0.00  0.00     0.037 C 
ATOM     27  H   LIG d   1       2.373  -1.314  -8.853  0.00  0.00     0.037 H 
ATOM     28  H   LIG d   1       3.986  -1.570  -8.361  0.00  0.00     0.037 H 
BRANCH  26  29
ATOM     29  C   LIG d   1       3.072   0.249  -7.657  0.00  0.00     0.104 C 
ATOM     30  H   LIG d   1       2.024   0.541  -7.609  0.00  0.00     0.066 H 
BRANCH  29  31
ATOM     31  C   LIG d   1       3.512  -0.269  -6.313  0.00  0.00     0.071 A 
ATOM     32  N   LIG d   1       3.493   0.538  -5.280  0.00  0.00    -0.249 NA
ATOM     33  C   LIG d   1       3.869   0.124  -4.066  0.00  0.00     0.071 A 
ATOM     34  C   LIG d   1       4.310  -1.209  -3.882  0.00  0.00     0.000 A 
ATOM     35  C   LIG d   1       3.840   0.993  -2.962  0.00  0.00    -0.036 A 
ATOM     36  C   LIG d   1       4.338  -2.079  -4.989  0.00  0.00    -0.051 A 
ATOM     37  C   LIG d   1       4.710  -1.638  -2.606  0.00  0.00    -0.053 A 
ATOM     38  C   LIG d   1       3.935  -1.592  -6.200  0.00  0.00    -0.037 A 
ATOM     39  H   LIG d   1       4.668  -3.101  -4.885  0.00  0.00     0.062 H 
ATOM     40  H   LIG d   1       3.945  -2.232  -7.070  0.00  0.00     0.064 H 
ATOM     41  C   LIG d   1       4.669  -0.767  -1.561  0.00  0.00    -0.061 A 
ATOM     42  H   LIG d   1       5.047  -2.653  -2.455  0.00  0.00     0.062 H 
ATOM     43  C   LIG d   1       4.235   0.544  -1.739  0.00  0.00    -0.060 A 
ATOM     44  H   LIG d   1       4.977  -1.098  -0.579  0.00  0.00     0.062 H 
ATOM     45  H   LIG d   1       4.212   1.216  -0.893  0.00  0.00     0.062 H 
ATOM     46  H   LIG d   1       3.507   2.013  -3.082  0.00  0.00     0.064 H 
ENDBRANCH  29  31
BRANCH  29  47
ATOM     47  O   LIG d   1       3.867   1.381  -8.016  0.00  0.00    -0.385 OA
ATOM     48  H   LIG d   1       4.742   1.154  -8.359  0.00  0.00     0.210 HD
ENDBRANCH  29  47
ENDBRANCH  26  29
ENDBRANCH   1  26
TORSDOF 8
ENDMDL
MODEL 5
REMARK VINA RESULT:      -6.0      2.824      5.622
REMARK  8 active torsions:
REMARK  status: ('A' for Active; 'I' for Inactive)
REMARK    1  A    between atoms: C_9  and  C_11 
REMARK    2  A    between atoms: C_11  and  C_13 
REMARK    3  A    between atoms: C_11  and  O_30 
REMARK    4  A    between atoms: C_13  and  C_14 
REMARK    5  A    between atoms: C_14  and  C_16 
REMARK    6  A    between atoms: C_16  and  C_17 
REMARK    7  A    between atoms: C_17  and  C_19 
REMARK    8  A    between atoms: C_17  and  O_29 
ROOT
ATOM      1  C   LIG d   1       6.919  -3.990  -5.958  0.00  0.00     0.139 C 
ATOM      2  O   LIG d   1       6.482  -5.070  -5.639  0.00  0.00    -0.297 OA
ENDROOT
BRANCH   1   3
ATOM      3  C   LIG d   1       8.212  -3.493  -5.364  0.00  0.00     0.037 C 
ATOM      4  H   LIG d   1       8.470  -2.632  -5.802  0.00  0.00     0.037 H 
ATOM      5  H   LIG d   1       8.995  -4.233  -5.527  0.00  0.00     0.037 H 
BRANCH   3   6
ATOM      6  C   LIG d   1       8.028  -3.265  -3.863  0.00  0.00     0.104 C 
ATOM      7  H   LIG d   1       7.497  -4.113  -3.428  0.00  0.00     0.066 H 
BRANCH   6   8
ATOM      8  C   LIG d   1       7.230  -2.007  -3.639  0.00  0.00     0.071 A 
ATOM      9  C   LIG d   1       7.810  -0.775  -3.935  0.00  0.00    -0.037 A 
ATOM     10  C   LIG d   1       7.101   0.377  -3.737  0.00  0.00    -0.051 A 
ATOM     11  H   LIG d   1       8.818  -0.730  -4.319  0.00  0.00     0.064 H 
ATOM     12  C   LIG d   1       5.792   0.273  -3.230  0.00  0.00     0.000 A 
ATOM     13  H   LIG d   1       7.535   1.340  -3.961  0.00  0.00     0.062 H 
ATOM     14  C   LIG d   1       5.263  -1.012  -2.955  0.00  0.00     0.071 A 
ATOM     15  C   LIG d   1       5.002   1.412  -3.007  0.00  0.00    -0.053 A 
ATOM     16  C   LIG d   1       3.953  -1.118  -2.454  0.00  0.00    -0.036 A 
ATOM     17  N   LIG d   1       6.009  -2.100  -3.171  0.00  0.00    -0.249 NA
ATOM     18  C   LIG d   1       3.217   0.007  -2.245  0.00  0.00    -0.060 A 
ATOM     19  H   LIG d   1       3.534  -2.089  -2.235  0.00  0.00     0.064 H 
ATOM     20  C   LIG d   1       3.740   1.269  -2.520  0.00  0.00    -0.061 A 
ATOM     21  H   LIG d   1       2.212  -0.080  -1.859  0.00  0.00     0.062 H 
ATOM     22  H   LIG d   1       3.134   2.146  -2.344  0.00  0.00     0.062 H 
ATOM     23  H   LIG d   1       5.396   2.395  -3.216  0.00  0.00     0.062 H 
ENDBRANCH   6   8
BRANCH   6  24
ATOM     24  O   LIG d   1       9.307  -3.134  -3.240  0.00  0.00    -0.385 OA
ATOM     25  H   LIG d   1       9.433  -2.298  -2.771  0.00  0.00     0.210 HD
ENDBRANCH   6  24
ENDBRANCH   3   6
ENDBRANCH   1   3
BRANCH   1  26
ATOM     26  C   LIG d   1       6.171  -3.140  -6.953  0.00  0.00     0.037 C 
ATOM     27  H   LIG d   1       6.673  -2.291  -7.109  0.00  0.00     0.037 H 
ATOM     28  H   LIG d   1       6.072  -3.682  -7.893  0.00  0.00     0.037 H 
BRANCH  26  29
ATOM     29  C   LIG d   1       4.780  -2.817  -6.403  0.00  0.00     0.104 C 
ATOM     30  H   LIG d   1       4.828  -2.741  -5.317  0.00  0.00     0.066 H 
BRANCH  29  31
ATOM     31  C   LIG d   1       4.305  -1.508  -6.977  0.00  0.00     0.071 A 
ATOM     32  N   LIG d   1       4.583  -1.219  -8.225  0.00  0.00    -0.249 NA
ATOM     33  C   LIG d   1       4.179  -0.072  -8.781  0.00  0.00     0.071 A 
ATOM     34  C   LIG d   1       3.444   0.863  -8.012  0.00  0.00     0.000 A 
ATOM     35  C   LIG d   1       4.477   0.228 -10.121  0.00  0.00    -0.036 A 
ATOM     36  C   LIG d   1       3.146   0.559  -6.670  0.00  0.00    -0.051 A 
ATOM     37  C   LIG d   1       3.027   2.068  -8.598  0.00  0.00    -0.053 A 
ATOM     38  C   LIG d   1       3.585  -0.632  -6.166  0.00  0.00    -0.037 A 
ATOM     39  H   LIG d   1       2.588   1.249  -6.055  0.00  0.00     0.062 H 
ATOM     40  H   LIG d   1       3.375  -0.896  -5.140  0.00  0.00     0.064 H 
ATOM     41  C   LIG d   1       3.334   2.325  -9.899  0.00  0.00    -0.061 A 
ATOM     42  H   LIG d   1       2.464   2.787  -8.021  0.00  0.00     0.062 H 
ATOM     43  C   LIG d   1       4.057   1.406 -10.658  0.00  0.00    -0.060 A 
ATOM     44  H   LIG d   1       3.013   3.253 -10.350  0.00  0.00     0.062 H 
ATOM     45  H   LIG d   1       4.289   1.634 -11.689  0.00  0.00     0.062 H 
ATOM     46  H   LIG d   1       5.037  -0.472 -10.724  0.00  0.00     0.064 H 
ENDBRANCH  29  31
BRANCH  29  47
ATOM     47  O   LIG d   1       3.870  -3.856  -6.768  0.00  0.00    -0.385 OA
ATOM     48  H   LIG d   1       3.167  -3.571  -7.367  0.00  0.00     0.210 HD
ENDBRANCH  29  47
ENDBRANCH  26  29
ENDBRANCH   1  26
TORSDOF 8
ENDMDL
MODEL 6
REMARK VINA RESULT:      -5.9      5.053      7.666
REMARK  8 active torsions:
REMARK  status: ('A' for Active; 'I' for Inactive)
REMARK    1  A    between atoms: C_9  and  C_11 
REMARK    2  A    between atoms: C_11  and  C_13 
REMARK    3  A    between atoms: C_11  and  O_30 
REMARK    4  A    between atoms: C_13  and  C_14 
REMARK    5  A    between atoms: C_14  and  C_16 
REMARK    6  A    between atoms: C_16  and  C_17 
REMARK    7  A    between atoms: C_17  and  C_19 
REMARK    8  A    between atoms: C_17  and  O_29 
ROOT
ATOM      1  C   LIG d   1      10.102   1.845  -6.104  0.00  0.00     0.139 C 
ATOM      2  O   LIG d   1      11.240   1.682  -6.474  0.00  0.00    -0.297 OA
ENDROOT
BRANCH   1   3
ATOM      3  C   LIG d   1       9.049   0.817  -6.431  0.00  0.00     0.037 C 
ATOM      4  H   LIG d   1       9.088   0.598  -7.406  0.00  0.00     0.037 H 
ATOM      5  H   LIG d   1       8.064   1.216  -6.187  0.00  0.00     0.037 H 
BRANCH   3   6
ATOM      6  C   LIG d   1       9.303  -0.450  -5.613  0.00  0.00     0.104 C 
ATOM      7  H   LIG d   1       9.477  -1.290  -6.287  0.00  0.00     0.066 H 
BRANCH   6   8
ATOM      8  C   LIG d   1       8.102  -0.741  -4.750  0.00  0.00     0.071 A 
ATOM      9  C   LIG d   1       7.705  -2.063  -4.565  0.00  0.00    -0.037 A 
ATOM     10  C   LIG d   1       6.617  -2.345  -3.787  0.00  0.00    -0.051 A 
ATOM     11  H   LIG d   1       8.255  -2.865  -5.036  0.00  0.00     0.064 H 
ATOM     12  C   LIG d   1       5.927  -1.271  -3.196  0.00  0.00     0.000 A 
ATOM     13  H   LIG d   1       6.295  -3.365  -3.632  0.00  0.00     0.062 H 
ATOM     14  C   LIG d   1       6.388   0.049  -3.423  0.00  0.00     0.071 A 
ATOM     15  C   LIG d   1       4.805  -1.484  -2.379  0.00  0.00    -0.053 A 
ATOM     16  C   LIG d   1       5.702   1.124  -2.829  0.00  0.00    -0.036 A 
ATOM     17  N   LIG d   1       7.459   0.257  -4.195  0.00  0.00    -0.249 NA
ATOM     18  C   LIG d   1       4.615   0.881  -2.046  0.00  0.00    -0.060 A 
ATOM     19  H   LIG d   1       6.037   2.137  -2.992  0.00  0.00     0.064 H 
ATOM     20  C   LIG d   1       4.167  -0.418  -1.822  0.00  0.00    -0.061 A 
ATOM     21  H   LIG d   1       4.092   1.710  -1.593  0.00  0.00     0.062 H 
ATOM     22  H   LIG d   1       3.301  -0.583  -1.198  0.00  0.00     0.062 H 
ATOM     23  H   LIG d   1       4.448  -2.487  -2.198  0.00  0.00     0.062 H 
ENDBRANCH   6   8
BRANCH   6  24
ATOM     24  O   LIG d   1      10.450  -0.260  -4.783  0.00  0.00    -0.385 OA
ATOM     25  H   LIG d   1      11.293  -0.403  -5.236  0.00  0.00     0.210 HD
ENDBRANCH   6  24
ENDBRANCH   3   6
ENDBRANCH   1   3
BRANCH   1  26
ATOM     26  C   LIG d   1       9.735   3.075  -5.316  0.00  0.00     0.037 C 
ATOM     27  H   LIG d   1      10.070   3.888  -5.791  0.00  0.00     0.037 H 
ATOM     28  H   LIG d   1       8.652   3.133  -5.215  0.00  0.00     0.037 H 
BRANCH  26  29
ATOM     29  C   LIG d   1      10.372   2.999  -3.926  0.00  0.00     0.104 C 
ATOM     30  H   LIG d   1      11.429   2.751  -4.024  0.00  0.00     0.066 H 
BRANCH  29  31
ATOM     31  C   LIG d   1      10.231   4.330  -3.235  0.00  0.00     0.071 A 
ATOM     32  N   LIG d   1      10.704   4.474  -2.022  0.00  0.00    -0.249 NA
ATOM     33  C   LIG d   1      10.607   5.637  -1.370  0.00  0.00     0.071 A 
ATOM     34  C   LIG d   1       9.971   6.741  -1.989  0.00  0.00     0.000 A 
ATOM     35  C   LIG d   1      11.122   5.785  -0.070  0.00  0.00    -0.036 A 
ATOM     36  C   LIG d   1       9.456   6.590  -3.291  0.00  0.00    -0.051 A 
ATOM     37  C   LIG d   1       9.866   7.959  -1.299  0.00  0.00    -0.053 A 
ATOM     38  C   LIG d   1       9.594   5.376  -3.902  0.00  0.00    -0.037 A 
ATOM     39  H   LIG d   1       8.966   7.410  -3.793  0.00  0.00     0.062 H 
ATOM     40  H   LIG d   1       9.210   5.226  -4.900  0.00  0.00     0.064 H 
ATOM     41  C   LIG d   1      10.376   8.065  -0.041  0.00  0.00    -0.061 A 
ATOM     42  H   LIG d   1       9.384   8.807  -1.763  0.00  0.00     0.062 H 
ATOM     43  C   LIG d   1      11.002   6.980   0.570  0.00  0.00    -0.060 A 
ATOM     44  H   LIG d   1      10.295   9.002   0.490  0.00  0.00     0.062 H 
ATOM     45  H   LIG d   1      11.399   7.090   1.569  0.00  0.00     0.062 H 
ATOM     46  H   LIG d   1      11.610   4.955   0.418  0.00  0.00     0.064 H 
ENDBRANCH  29  31
BRANCH  29  47
ATOM     47  O   LIG d   1       9.715   1.990  -3.156  0.00  0.00    -0.385 OA
ATOM     48  H   LIG d   1      10.309   1.477  -2.592  0.00  0.00     0.210 HD
ENDBRANCH  29  47
ENDBRANCH  26  29
ENDBRANCH   1  26
TORSDOF 8
ENDMDL
MODEL 7
REMARK VINA RESULT:      -5.9      2.953      4.060
REMARK  8 active torsions:
REMARK  status: ('A' for Active; 'I' for Inactive)
REMARK    1  A    between atoms: C_9  and  C_11 
REMARK    2  A    between atoms: C_11  and  C_13 
REMARK    3  A    between atoms: C_11  and  O_30 
REMARK    4  A    between atoms: C_13  and  C_14 
REMARK    5  A    between atoms: C_14  and  C_16 
REMARK    6  A    between atoms: C_16  and  C_17 
REMARK    7  A    between atoms: C_17  and  C_19 
REMARK    8  A    between atoms: C_17  and  O_29 
ROOT
ATOM      1  C   LIG d   1       5.365  -4.205  -5.283  0.00  0.00     0.139 C 
ATOM      2  O   LIG d   1       4.648  -4.633  -4.411  0.00  0.00    -0.297 OA
ENDROOT
BRANCH   1   3
ATOM      3  C   LIG d   1       5.581  -5.004  -6.542  0.00  0.00     0.037 C 
ATOM      4  H   LIG d   1       5.886  -5.926  -6.304  0.00  0.00     0.037 H 
ATOM      5  H   LIG d   1       6.338  -4.518  -7.157  0.00  0.00     0.037 H 
BRANCH   3   6
ATOM      6  C   LIG d   1       4.268  -5.089  -7.322  0.00  0.00     0.104 C 
ATOM      7  H   LIG d   1       4.176  -6.076  -7.776  0.00  0.00     0.066 H 
BRANCH   6   8
ATOM      8  C   LIG d   1       4.256  -4.039  -8.403  0.00  0.00     0.071 A 
ATOM      9  C   LIG d   1       5.430  -3.773  -9.103  0.00  0.00    -0.037 A 
ATOM     10  C   LIG d   1       5.438  -2.823 -10.086  0.00  0.00    -0.051 A 
ATOM     11  H   LIG d   1       6.334  -4.317  -8.871  0.00  0.00     0.064 H 
ATOM     12  C   LIG d   1       4.240  -2.134 -10.353  0.00  0.00     0.000 A 
ATOM     13  H   LIG d   1       6.339  -2.605 -10.639  0.00  0.00     0.062 H 
ATOM     14  C   LIG d   1       3.081  -2.457  -9.605  0.00  0.00     0.071 A 
ATOM     15  C   LIG d   1       4.170  -1.149 -11.351  0.00  0.00    -0.053 A 
ATOM     16  C   LIG d   1       1.882  -1.774  -9.875  0.00  0.00    -0.036 A 
ATOM     17  N   LIG d   1       3.141  -3.398  -8.658  0.00  0.00    -0.249 NA
ATOM     18  C   LIG d   1       1.851  -0.822 -10.846  0.00  0.00    -0.060 A 
ATOM     19  H   LIG d   1       0.988  -2.004  -9.313  0.00  0.00     0.064 H 
ATOM     20  C   LIG d   1       2.992  -0.509 -11.582  0.00  0.00    -0.061 A 
ATOM     21  H   LIG d   1       0.928  -0.300 -11.049  0.00  0.00     0.062 H 
ATOM     22  H   LIG d   1       2.940   0.252 -12.348  0.00  0.00     0.062 H 
ATOM     23  H   LIG d   1       5.047  -0.899 -11.928  0.00  0.00     0.062 H 
ENDBRANCH   6   8
BRANCH   6  24
ATOM     24  O   LIG d   1       3.170  -4.870  -6.434  0.00  0.00    -0.385 OA
ATOM     25  H   LIG d   1       2.346  -5.291  -6.715  0.00  0.00     0.210 HD
ENDBRANCH   6  24
ENDBRANCH   3   6
ENDBRANCH   1   3
BRANCH   1  26
ATOM     26  C   LIG d   1       6.045  -2.871  -5.112  0.00  0.00     0.037 C 
ATOM     27  H   LIG d   1       6.616  -2.891  -4.292  0.00  0.00     0.037 H 
ATOM     28  H   LIG d   1       6.666  -2.665  -5.983  0.00  0.00     0.037 H 
BRANCH  26  29
ATOM     29  C   LIG d   1       4.987  -1.774  -4.970  0.00  0.00     0.104 C 
ATOM     30  H   LIG d   1       5.175  -1.204  -4.060  0.00  0.00     0.066 H 
BRANCH  29  31
ATOM     31  C   LIG d   1       5.054  -0.854  -6.161  0.00  0.00     0.071 A 
ATOM     32  N   LIG d   1       3.983  -0.188  -6.515  0.00  0.00    -0.249 NA
ATOM     33  C   LIG d   1       3.994   0.643  -7.562  0.00  0.00     0.071 A 
ATOM     34  C   LIG d   1       5.181   0.808  -8.317  0.00  0.00     0.000 A 
ATOM     35  C   LIG d   1       2.842   1.359  -7.933  0.00  0.00    -0.036 A 
ATOM     36  C   LIG d   1       6.334   0.091  -7.944  0.00  0.00    -0.051 A 
ATOM     37  C   LIG d   1       5.187   1.678  -9.419  0.00  0.00    -0.053 A 
ATOM     38  C   LIG d   1       6.254  -0.738  -6.861  0.00  0.00    -0.037 A 
ATOM     39  H   LIG d   1       7.254   0.193  -8.498  0.00  0.00     0.062 H 
ATOM     40  H   LIG d   1       7.119  -1.303  -6.548  0.00  0.00     0.064 H 
ATOM     41  C   LIG d   1       4.052   2.354  -9.749  0.00  0.00    -0.061 A 
ATOM     42  H   LIG d   1       6.086   1.812 -10.002  0.00  0.00     0.062 H 
ATOM     43  C   LIG d   1       2.883   2.193  -9.006  0.00  0.00    -0.060 A 
ATOM     44  H   LIG d   1       4.057   3.023 -10.597  0.00  0.00     0.062 H 
ATOM     45  H   LIG d   1       1.996   2.741  -9.289  0.00  0.00     0.062 H 
ATOM     46  H   LIG d   1       1.928   1.246  -7.368  0.00  0.00     0.064 H 
ENDBRANCH  29  31
BRANCH  29  47
ATOM     47  O   LIG d   1       3.690  -2.369  -4.900  0.00  0.00    -0.385 OA
ATOM     48  H   LIG d   1       3.662  -3.288  -5.198  0.00  0.00     0.210 HD
ENDBRANCH  29  47
ENDBRANCH  26  29
ENDBRANCH   1  26
TORSDOF 8
ENDMDL
MODEL 8
REMARK VINA RESULT:      -5.8      5.947      8.286
REMARK  8 active torsions:
REMARK  status: ('A' for Active; 'I' for Inactive)
REMARK    1  A    between atoms: C_9  and  C_11 
REMARK    2  A    between atoms: C_11  and  C_13 
REMARK    3  A    between atoms: C_11  and  O_30 
REMARK    4  A    between atoms: C_13  and  C_14 
REMARK    5  A    between atoms: C_14  and  C_16 
REMARK    6  A    between atoms: C_16  and  C_17 
REMARK    7  A    between atoms: C_17  and  C_19 
REMARK    8  A    between atoms: C_17  and  O_29 
ROOT
ATOM      1  C   LIG d   1       9.776   3.254  -4.755  0.00  0.00     0.139 C 
ATOM      2  O   LIG d   1      10.844   3.091  -5.295  0.00  0.00    -0.297 OA
ENDROOT
BRANCH   1   3
ATOM      3  C   LIG d   1       8.554   2.536  -5.267  0.00  0.00     0.037 C 
ATOM      4  H   LIG d   1       8.490   2.653  -6.258  0.00  0.00     0.037 H 
ATOM      5  H   LIG d   1       7.664   2.950  -4.794  0.00  0.00     0.037 H 
BRANCH   3   6
ATOM      6  C   LIG d   1       8.663   1.046  -4.936  0.00  0.00     0.104 C 
ATOM      7  H   LIG d   1       8.770   0.475  -5.858  0.00  0.00     0.066 H 
BRANCH   6   8
ATOM      8  C   LIG d   1       7.419   0.601  -4.211  0.00  0.00     0.071 A 
ATOM      9  C   LIG d   1       6.745   1.510  -3.400  0.00  0.00    -0.037 A 
ATOM     10  C   LIG d   1       5.615   1.122  -2.734  0.00  0.00    -0.051 A 
ATOM     11  H   LIG d   1       7.113   2.520  -3.296  0.00  0.00     0.064 H 
ATOM     12  C   LIG d   1       5.173  -0.205  -2.893  0.00  0.00     0.000 A 
ATOM     13  H   LIG d   1       5.080   1.814  -2.101  0.00  0.00     0.062 H 
ATOM     14  C   LIG d   1       5.905  -1.076  -3.736  0.00  0.00     0.071 A 
ATOM     15  C   LIG d   1       4.018  -0.672  -2.245  0.00  0.00    -0.053 A 
ATOM     16  C   LIG d   1       5.462  -2.400  -3.901  0.00  0.00    -0.036 A 
ATOM     17  N   LIG d   1       7.002  -0.634  -4.360  0.00  0.00    -0.249 NA
ATOM     18  C   LIG d   1       4.341  -2.822  -3.254  0.00  0.00    -0.060 A 
ATOM     19  H   LIG d   1       6.008  -3.080  -4.537  0.00  0.00     0.064 H 
ATOM     20  C   LIG d   1       3.621  -1.961  -2.428  0.00  0.00    -0.061 A 
ATOM     21  H   LIG d   1       4.005  -3.839  -3.383  0.00  0.00     0.062 H 
ATOM     22  H   LIG d   1       2.735  -2.322  -1.926  0.00  0.00     0.062 H 
ATOM     23  H   LIG d   1       3.453  -0.015  -1.602  0.00  0.00     0.062 H 
ENDBRANCH   6   8
BRANCH   6  24
ATOM     24  O   LIG d   1       9.803   0.825  -4.104  0.00  0.00    -0.385 OA
ATOM     25  H   LIG d   1       9.693   0.104  -3.468  0.00  0.00     0.210 HD
ENDBRANCH   6  24
ENDBRANCH   3   6
ENDBRANCH   1   3
BRANCH   1  26
ATOM     26  C   LIG d   1       9.666   4.176  -3.568  0.00  0.00     0.037 C 
ATOM     27  H   LIG d   1       9.572   5.119  -3.886  0.00  0.00     0.037 H 
ATOM     28  H   LIG d   1       8.792   3.904  -2.976  0.00  0.00     0.037 H 
BRANCH  26  29
ATOM     29  C   LIG d   1      10.924   4.052  -2.706  0.00  0.00     0.104 C 
ATOM     30  H   LIG d   1      11.805   4.046  -3.348  0.00  0.00     0.066 H 
BRANCH  29  31
ATOM     31  C   LIG d   1      11.001   5.219  -1.758  0.00  0.00     0.071 A 
ATOM     32  N   LIG d   1      10.344   6.317  -2.041  0.00  0.00    -0.249 NA
ATOM     33  C   LIG d   1      10.378   7.378  -1.229  0.00  0.00     0.071 A 
ATOM     34  C   LIG d   1      11.145   7.330  -0.039  0.00  0.00     0.000 A 
ATOM     35  C   LIG d   1       9.666   8.551  -1.537  0.00  0.00    -0.036 A 
ATOM     36  C   LIG d   1      11.857   6.155   0.268  0.00  0.00    -0.051 A 
ATOM     37  C   LIG d   1      11.182   8.449   0.808  0.00  0.00    -0.053 A 
ATOM     38  C   LIG d   1      11.775   5.106  -0.604  0.00  0.00    -0.037 A 
ATOM     39  H   LIG d   1      12.452   6.084   1.166  0.00  0.00     0.062 H 
ATOM     40  H   LIG d   1      12.309   4.190  -0.399  0.00  0.00     0.064 H 
ATOM     41  C   LIG d   1      10.480   9.567   0.477  0.00  0.00    -0.061 A 
ATOM     42  H   LIG d   1      11.763   8.422   1.718  0.00  0.00     0.062 H 
ATOM     43  C   LIG d   1       9.725   9.616  -0.693  0.00  0.00    -0.060 A 
ATOM     44  H   LIG d   1      10.509  10.428   1.130  0.00  0.00     0.062 H 
ATOM     45  H   LIG d   1       9.177  10.516  -0.933  0.00  0.00     0.062 H 
ATOM     46  H   LIG d   1       9.075   8.606  -2.439  0.00  0.00     0.064 H 
ENDBRANCH  29  31
BRANCH  29  47
ATOM     47  O   LIG d   1      10.871   2.834  -1.960  0.00  0.00    -0.385 OA
ATOM     48  H   LIG d   1      11.670   2.652  -1.446  0.00  0.00     0.210 HD
ENDBRANCH  29  47
ENDBRANCH  26  29
ENDBRANCH   1  26
TORSDOF 8
ENDMDL
MODEL 9
REMARK VINA RESULT:      -5.8      0.678      3.750
REMARK  8 active torsions:
REMARK  status: ('A' for Active; 'I' for Inactive)
REMARK    1  A    between atoms: C_9  and  C_11 
REMARK    2  A    between atoms: C_11  and  C_13 
REMARK    3  A    between atoms: C_11  and  O_30 
REMARK    4  A    between atoms: C_13  and  C_14 
REMARK    5  A    between atoms: C_14  and  C_16 
REMARK    6  A    between atoms: C_16  and  C_17 
REMARK    7  A    between atoms: C_17  and  C_19 
REMARK    8  A    between atoms: C_17  and  O_29 
ROOT
ATOM      1  C   LIG d   1       4.791  -0.748  -2.798  0.00  0.00     0.139 C 
ATOM      2  O   LIG d   1       4.308  -0.373  -1.756  0.00  0.00    -0.297 OA
ENDROOT
BRANCH   1   3
ATOM      3  C   LIG d   1       6.275  -0.627  -3.029  0.00  0.00     0.037 C 
ATOM      4  H   LIG d   1       6.601  -1.428  -3.530  0.00  0.00     0.037 H 
ATOM      5  H   LIG d   1       6.788  -0.565  -2.069  0.00  0.00     0.037 H 
BRANCH   3   6
ATOM      6  C   LIG d   1       6.562   0.635  -3.844  0.00  0.00     0.104 C 
ATOM      7  H   LIG d   1       5.652   1.227  -3.932  0.00  0.00     0.066 H 
BRANCH   6   8
ATOM      8  C   LIG d   1       7.042   0.247  -5.219  0.00  0.00     0.071 A 
ATOM      9  C   LIG d   1       7.504  -1.049  -5.435  0.00  0.00    -0.037 A 
ATOM     10  C   LIG d   1       7.944  -1.419  -6.675  0.00  0.00    -0.051 A 
ATOM     11  H   LIG d   1       7.516  -1.762  -4.623  0.00  0.00     0.064 H 
ATOM     12  C   LIG d   1       7.917  -0.457  -7.703  0.00  0.00     0.000 A 
ATOM     13  H   LIG d   1       8.306  -2.419  -6.860  0.00  0.00     0.062 H 
ATOM     14  C   LIG d   1       7.430   0.841  -7.415  0.00  0.00     0.071 A 
ATOM     15  C   LIG d   1       8.347  -0.766  -9.004  0.00  0.00    -0.053 A 
ATOM     16  C   LIG d   1       7.397   1.801  -8.442  0.00  0.00    -0.036 A 
ATOM     17  N   LIG d   1       7.014   1.138  -6.181  0.00  0.00    -0.249 NA
ATOM     18  C   LIG d   1       7.826   1.470  -9.690  0.00  0.00    -0.060 A 
ATOM     19  H   LIG d   1       7.032   2.798  -8.241  0.00  0.00     0.064 H 
ATOM     20  C   LIG d   1       8.301   0.190  -9.971  0.00  0.00    -0.061 A 
ATOM     21  H   LIG d   1       7.799   2.210 -10.475  0.00  0.00     0.062 H 
ATOM     22  H   LIG d   1       8.636  -0.046 -10.970  0.00  0.00     0.062 H 
ATOM     23  H   LIG d   1       8.717  -1.754  -9.233  0.00  0.00     0.062 H 
ENDBRANCH   6   8
BRANCH   6  24
ATOM     24  O   LIG d   1       7.571   1.407  -3.190  0.00  0.00    -0.385 OA
ATOM     25  H   LIG d   1       8.466   1.248  -3.521  0.00  0.00     0.210 HD
ENDBRANCH   6  24
ENDBRANCH   3   6
ENDBRANCH   1   3
BRANCH   1  26
ATOM     26  C   LIG d   1       3.908  -1.339  -3.867  0.00  0.00     0.037 C 
ATOM     27  H   LIG d   1       4.473  -1.814  -4.541  0.00  0.00     0.037 H 
ATOM     28  H   LIG d   1       3.212  -2.045  -3.415  0.00  0.00     0.037 H 
BRANCH  26  29
ATOM     29  C   LIG d   1       3.124  -0.220  -4.556  0.00  0.00     0.104 C 
ATOM     30  H   LIG d   1       3.371   0.735  -4.094  0.00  0.00     0.066 H 
BRANCH  29  31
ATOM     31  C   LIG d   1       3.486  -0.180  -6.018  0.00  0.00     0.071 A 
ATOM     32  N   LIG d   1       3.254   0.913  -6.704  0.00  0.00    -0.249 NA
ATOM     33  C   LIG d   1       3.563   0.999  -8.001  0.00  0.00     0.071 A 
ATOM     34  C   LIG d   1       4.142  -0.111  -8.663  0.00  0.00     0.000 A 
ATOM     35  C   LIG d   1       3.316   2.176  -8.729  0.00  0.00    -0.036 A 
ATOM     36  C   LIG d   1       4.389  -1.289  -7.932  0.00  0.00    -0.051 A 
ATOM     37  C   LIG d   1       4.460  -0.019 -10.027  0.00  0.00    -0.053 A 
ATOM     38  C   LIG d   1       4.054  -1.307  -6.608  0.00  0.00    -0.037 A 
ATOM     39  H   LIG d   1       4.829  -2.154  -8.404  0.00  0.00     0.062 H 
ATOM     40  H   LIG d   1       4.229  -2.195  -6.018  0.00  0.00     0.064 H 
ATOM     41  C   LIG d   1       4.206   1.138 -10.699  0.00  0.00    -0.061 A 
ATOM     42  H   LIG d   1       4.903  -0.859 -10.540  0.00  0.00     0.062 H 
ATOM     43  C   LIG d   1       3.636   2.231 -10.051  0.00  0.00    -0.060 A 
ATOM     44  H   LIG d   1       4.450   1.208 -11.749  0.00  0.00     0.062 H 
ATOM     45  H   LIG d   1       3.444   3.138 -10.607  0.00  0.00     0.062 H 
ATOM     46  H   LIG d   1       2.875   3.033  -8.242  0.00  0.00     0.064 H 
ENDBRANCH  29  31
BRANCH  29  47
ATOM     47  O   LIG d   1       1.723  -0.467  -4.419  0.00  0.00    -0.385 OA
ATOM     48  H   LIG d   1       1.439  -1.326  -4.759  0.00  0.00     0.210 HD
ENDBRANCH  29  47
ENDBRANCH  26  29
ENDBRANCH   1  26
TORSDOF 8
ENDMDL
MODEL 10
REMARK VINA RESULT:      -5.8      2.754      4.648
REMARK  8 active torsions:
REMARK  status: ('A' for Active; 'I' for Inactive)
REMARK    1  A    between atoms: C_9  and  C_11 
REMARK    2  A    between atoms: C_11  and  C_13 
REMARK    3  A    between atoms: C_11  and  O_30 
REMARK    4  A    between atoms: C_13  and  C_14 
REMARK    5  A    between atoms: C_14  and  C_16 
REMARK    6  A    between atoms: C_16  and  C_17 
REMARK    7  A    between atoms: C_17  and  C_19 
REMARK    8  A    between atoms: C_17  and  O_29 
ROOT
ATOM      1  C   LIG d   1       6.227  -4.872  -6.232  0.00  0.00     0.139 C 
ATOM      2  O   LIG d   1       5.727  -5.965  -6.123  0.00  0.00    -0.297 OA
ENDROOT
BRANCH   1   3
ATOM      3  C   LIG d   1       5.789  -3.949  -7.340  0.00  0.00     0.037 C 
ATOM      4  H   LIG d   1       5.851  -4.427  -8.216  0.00  0.00     0.037 H 
ATOM      5  H   LIG d   1       6.435  -3.071  -7.358  0.00  0.00     0.037 H 
BRANCH   3   6
ATOM      6  C   LIG d   1       4.343  -3.514  -7.098  0.00  0.00     0.104 C 
ATOM      7  H   LIG d   1       3.670  -4.146  -7.678  0.00  0.00     0.066 H 
BRANCH   6   8
ATOM      8  C   LIG d   1       4.172  -2.078  -7.522  0.00  0.00     0.071 A 
ATOM      9  C   LIG d   1       4.007  -1.097  -6.547  0.00  0.00    -0.037 A 
ATOM     10  C   LIG d   1       3.850   0.210  -6.914  0.00  0.00    -0.051 A 
ATOM     11  H   LIG d   1       4.003  -1.369  -5.502  0.00  0.00     0.064 H 
ATOM     12  C   LIG d   1       3.856   0.519  -8.287  0.00  0.00     0.000 A 
ATOM     13  H   LIG d   1       3.720   0.983  -6.171  0.00  0.00     0.062 H 
ATOM     14  C   LIG d   1       4.033  -0.526  -9.226  0.00  0.00     0.071 A 
ATOM     15  C   LIG d   1       3.706   1.841  -8.739  0.00  0.00    -0.053 A 
ATOM     16  C   LIG d   1       4.045  -0.218 -10.598  0.00  0.00    -0.036 A 
ATOM     17  N   LIG d   1       4.182  -1.784  -8.801  0.00  0.00    -0.249 NA
ATOM     18  C   LIG d   1       3.892   1.073 -11.001  0.00  0.00    -0.060 A 
ATOM     19  H   LIG d   1       4.176  -1.002 -11.329  0.00  0.00     0.064 H 
ATOM     20  C   LIG d   1       3.722   2.100 -10.075  0.00  0.00    -0.061 A 
ATOM     21  H   LIG d   1       3.902   1.304 -12.055  0.00  0.00     0.062 H 
ATOM     22  H   LIG d   1       3.602   3.115 -10.422  0.00  0.00     0.062 H 
ATOM     23  H   LIG d   1       3.574   2.645  -8.031  0.00  0.00     0.062 H 
ENDBRANCH   6   8
BRANCH   6  24
ATOM     24  O   LIG d   1       4.033  -3.639  -5.709  0.00  0.00    -0.385 OA
ATOM     25  H   LIG d   1       4.533  -3.038  -5.138  0.00  0.00     0.210 HD
ENDBRANCH   6  24
ENDBRANCH   3   6
ENDBRANCH   1   3
BRANCH   1  26
ATOM     26  C   LIG d   1       7.291  -4.430  -5.260  0.00  0.00     0.037 C 
ATOM     27  H   LIG d   1       6.884  -4.306  -4.355  0.00  0.00     0.037 H 
ATOM     28  H   LIG d   1       8.072  -5.188  -5.206  0.00  0.00     0.037 H 
BRANCH  26  29
ATOM     29  C   LIG d   1       7.897  -3.107  -5.733  0.00  0.00     0.104 C 
ATOM     30  H   LIG d   1       7.696  -2.975  -6.796  0.00  0.00     0.066 H 
BRANCH  29  31
ATOM     31  C   LIG d   1       7.283  -1.969  -4.961  0.00  0.00     0.071 A 
ATOM     32  N   LIG d   1       6.347  -2.226  -4.080  0.00  0.00    -0.249 NA
ATOM     33  C   LIG d   1       5.775  -1.250  -3.367  0.00  0.00     0.071 A 
ATOM     34  C   LIG d   1       6.174   0.094  -3.567  0.00  0.00     0.000 A 
ATOM     35  C   LIG d   1       4.776  -1.533  -2.420  0.00  0.00    -0.036 A 
ATOM     36  C   LIG d   1       7.176   0.376  -4.515  0.00  0.00    -0.051 A 
ATOM     37  C   LIG d   1       5.567   1.117  -2.820  0.00  0.00    -0.053 A 
ATOM     38  C   LIG d   1       7.721  -0.669  -5.205  0.00  0.00    -0.037 A 
ATOM     39  H   LIG d   1       7.503   1.389  -4.693  0.00  0.00     0.062 H 
ATOM     40  H   LIG d   1       8.491  -0.488  -5.941  0.00  0.00     0.064 H 
ATOM     41  C   LIG d   1       4.602   0.804  -1.912  0.00  0.00    -0.061 A 
ATOM     42  H   LIG d   1       5.864   2.145  -2.964  0.00  0.00     0.062 H 
ATOM     43  C   LIG d   1       4.208  -0.518  -1.714  0.00  0.00    -0.060 A 
ATOM     44  H   LIG d   1       4.135   1.591  -1.338  0.00  0.00     0.062 H 
ATOM     45  H   LIG d   1       3.440  -0.740  -0.988  0.00  0.00     0.062 H 
ATOM     46  H   LIG d   1       4.459  -2.552  -2.254  0.00  0.00     0.064 H 
ENDBRANCH  29  31
BRANCH  29  47
ATOM     47  O   LIG d   1       9.309  -3.125  -5.513  0.00  0.00    -0.385 OA
ATOM     48  H   LIG d   1       9.563  -3.331  -4.603  0.00  0.00     0.210 HD
ENDBRANCH  29  47
ENDBRANCH  26  29
ENDBRANCH   1  26
TORSDOF 8
ENDMDL
