MODEL 1
REMARK VINA RESULT:      -4.7      0.000      0.000
REMARK  8 active torsions:
REMARK  status: ('A' for Active; 'I' for Inactive)
REMARK    1  A    between atoms: C_1  and  C_2 
REMARK       I    between atoms: C_2  and  N_4 
REMARK    2  A    between atoms: N_4  and  C_5 
REMARK    3  A    between atoms: C_5  and  C_6 
REMARK    4  A    between atoms: C_6  and  C_7 
REMARK    5  A    between atoms: C_7  and  C_8 
REMARK    6  A    between atoms: C_8  and  C_9 
REMARK    7  A    between atoms: C_9  and  N_10 
REMARK       I    between atoms: N_10  and  C_11 
REMARK    8  A    between atoms: C_11  and  C_13 
ROOT
ATOM      1  C   LIG d   1       4.459   0.568  -1.757  0.00  0.00    -0.050 C 
ATOM      2  H   LIG d   1       4.995   0.397  -0.823  0.00  0.00     0.027 H 
ATOM      3  H   LIG d   1       3.574   1.174  -1.562  0.00  0.00     0.027 H 
ENDROOT
BRANCH   1   4
ATOM      4  C   LIG d   1       5.372   1.300  -2.742  0.00  0.00    -0.037 C 
ATOM      5  H   LIG d   1       5.874   2.121  -2.232  0.00  0.00     0.028 H 
ATOM      6  H   LIG d   1       4.775   1.695  -3.564  0.00  0.00     0.028 H 
BRANCH   4   7
ATOM      7  C   LIG d   1       6.415   0.325  -3.291  0.00  0.00     0.012 C 
ATOM      8  H   LIG d   1       6.035  -0.694  -3.216  0.00  0.00     0.046 H 
ATOM      9  H   LIG d   1       7.335   0.413  -2.713  0.00  0.00     0.046 H 
BRANCH   7  10
ATOM     10  N   LIG d   1       6.690   0.643  -4.695  0.00  0.00    -0.316 N 
ATOM     11  C   LIG d   1       6.396  -0.252  -5.659  0.00  0.00     0.210 C 
ATOM     12  O   LIG d   1       5.900  -1.319  -5.364  0.00  0.00    -0.276 OA
ATOM     13  H   LIG d   1       7.086   1.496  -4.930  0.00  0.00     0.149 HD
BRANCH  11  14
ATOM     14  C   LIG d   1       6.684   0.071  -7.102  0.00  0.00     0.012 C 
ATOM     15  H   LIG d   1       7.637   0.595  -7.173  0.00  0.00     0.032 H 
ATOM     16  H   LIG d   1       6.732  -0.852  -7.678  0.00  0.00     0.032 H 
ATOM     17  H   LIG d   1       5.890   0.706  -7.496  0.00  0.00     0.032 H 
ENDBRANCH  11  14
ENDBRANCH   7  10
ENDBRANCH   4   7
ENDBRANCH   1   4
BRANCH   1  18
ATOM     18  C   LIG d   1       4.036  -0.775  -2.355  0.00  0.00    -0.037 C 
ATOM     19  H   LIG d   1       4.784  -1.104  -3.077  0.00  0.00     0.028 H 
ATOM     20  H   LIG d   1       3.947  -1.516  -1.561  0.00  0.00     0.028 H 
BRANCH  18  21
ATOM     21  C   LIG d   1       2.685  -0.617  -3.058  0.00  0.00     0.012 C 
ATOM     22  H   LIG d   1       2.000  -1.387  -2.705  0.00  0.00     0.046 H 
ATOM     23  H   LIG d   1       2.272   0.367  -2.835  0.00  0.00     0.046 H 
BRANCH  21  24
ATOM     24  N   LIG d   1       2.869  -0.752  -4.505  0.00  0.00    -0.316 N 
ATOM     25  C   LIG d   1       2.766   0.330  -5.302  0.00  0.00     0.210 C 
ATOM     26  O   LIG d   1       2.520   1.416  -4.821  0.00  0.00    -0.276 OA
ATOM     27  H   LIG d   1       3.066  -1.620  -4.890  0.00  0.00     0.149 HD
BRANCH  25  28
ATOM     28  C   LIG d   1       2.956   0.191  -6.791  0.00  0.00     0.012 C 
ATOM     29  H   LIG d   1       2.002  -0.061  -7.256  0.00  0.00     0.032 H 
ATOM     30  H   LIG d   1       3.322   1.132  -7.200  0.00  0.00     0.032 H 
ATOM     31  H   LIG d   1       3.678  -0.599  -6.992  0.00  0.00     0.032 H 
ENDBRANCH  25  28
ENDBRANCH  21  24
ENDBRANCH  18  21
ENDBRANCH   1  18
TORSDOF 8
ENDMDL
MODEL 2
REMARK VINA RESULT:      -4.4      2.184      2.391
REMARK  8 active torsions:
REMARK  status: ('A' for Active; 'I' for Inactive)
REMARK    1  A    between atoms: C_1  and  C_2 
REMARK       I    between atoms: C_2  and  N_4 
REMARK    2  A    between atoms: N_4  and  C_5 
REMARK    3  A    between atoms: C_5  and  C_6 
REMARK    4  A    between atoms: C_6  and  C_7 
REMARK    5  A    between atoms: C_7  and  C_8 
REMARK    6  A    between atoms: C_8  and  C_9 
REMARK    7  A    between atoms: C_9  and  N_10 
REMARK       I    between atoms: N_10  and  C_11 
REMARK    8  A    between atoms: C_11  and  C_13 
ROOT
ATOM      1  C   LIG d   1       4.101  -1.284  -2.138  0.00  0.00    -0.050 C 
ATOM      2  H   LIG d   1       4.186  -2.338  -1.873  0.00  0.00     0.027 H 
ATOM      3  H   LIG d   1       4.006  -0.688  -1.229  0.00  0.00     0.027 H 
ENDROOT
BRANCH   1   4
ATOM      4  C   LIG d   1       5.350  -0.848  -2.906  0.00  0.00    -0.037 C 
ATOM      5  H   LIG d   1       6.019  -0.309  -2.236  0.00  0.00     0.028 H 
ATOM      6  H   LIG d   1       5.060  -0.195  -3.730  0.00  0.00     0.028 H 
BRANCH   4   7
ATOM      7  C   LIG d   1       6.065  -2.082  -3.459  0.00  0.00     0.012 C 
ATOM      8  H   LIG d   1       5.735  -2.967  -2.916  0.00  0.00     0.046 H 
ATOM      9  H   LIG d   1       7.142  -1.963  -3.338  0.00  0.00     0.046 H 
BRANCH   7  10
ATOM     10  N   LIG d   1       5.748  -2.234  -4.881  0.00  0.00    -0.316 N 
ATOM     11  C   LIG d   1       4.912  -3.211  -5.285  0.00  0.00     0.210 C 
ATOM     12  O   LIG d   1       4.419  -3.962  -4.469  0.00  0.00    -0.276 OA
ATOM     13  H   LIG d   1       6.142  -1.633  -5.533  0.00  0.00     0.149 HD
BRANCH  11  14
ATOM     14  C   LIG d   1       4.590  -3.372  -6.748  0.00  0.00     0.012 C 
ATOM     15  H   LIG d   1       4.637  -4.427  -7.016  0.00  0.00     0.032 H 
ATOM     16  H   LIG d   1       3.589  -2.991  -6.944  0.00  0.00     0.032 H 
ATOM     17  H   LIG d   1       5.314  -2.814  -7.342  0.00  0.00     0.032 H 
ENDBRANCH  11  14
ENDBRANCH   7  10
ENDBRANCH   4   7
ENDBRANCH   1   4
BRANCH   1  18
ATOM     18  C   LIG d   1       2.865  -1.077  -3.015  0.00  0.00    -0.037 C 
ATOM     19  H   LIG d   1       2.752  -1.925  -3.691  0.00  0.00     0.028 H 
ATOM     20  H   LIG d   1       1.980  -0.995  -2.384  0.00  0.00     0.028 H 
BRANCH  18  21
ATOM     21  C   LIG d   1       3.029   0.207  -3.832  0.00  0.00     0.012 C 
ATOM     22  H   LIG d   1       2.509   1.024  -3.332  0.00  0.00     0.046 H 
ATOM     23  H   LIG d   1       4.088   0.449  -3.920  0.00  0.00     0.046 H 
BRANCH  21  24
ATOM     24  N   LIG d   1       2.460   0.011  -5.168  0.00  0.00    -0.316 N 
ATOM     25  C   LIG d   1       3.260   0.050  -6.253  0.00  0.00     0.210 C 
ATOM     26  O   LIG d   1       4.449   0.248  -6.123  0.00  0.00    -0.276 OA
ATOM     27  H   LIG d   1       1.509  -0.147  -5.272  0.00  0.00     0.149 HD
BRANCH  25  28
ATOM     28  C   LIG d   1       2.675  -0.152  -7.627  0.00  0.00     0.012 C 
ATOM     29  H   LIG d   1       3.018  -1.104  -8.032  0.00  0.00     0.032 H 
ATOM     30  H   LIG d   1       1.587  -0.156  -7.562  0.00  0.00     0.032 H 
ATOM     31  H   LIG d   1       2.997   0.658  -8.281  0.00  0.00     0.032 H 
ENDBRANCH  25  28
ENDBRANCH  21  24
ENDBRANCH  18  21
ENDBRANCH   1  18
TORSDOF 8
ENDMDL
MODEL 3
REMARK VINA RESULT:      -4.3      2.194      3.612
REMARK  8 active torsions:
REMARK  status: ('A' for Active; 'I' for Inactive)
REMARK    1  A    between atoms: C_1  and  C_2 
REMARK       I    between atoms: C_2  and  N_4 
REMARK    2  A    between atoms: N_4  and  C_5 
REMARK    3  A    between atoms: C_5  and  C_6 
REMARK    4  A    between atoms: C_6  and  C_7 
REMARK    5  A    between atoms: C_7  and  C_8 
REMARK    6  A    between atoms: C_8  and  C_9 
REMARK    7  A    between atoms: C_9  and  N_10 
REMARK       I    between atoms: N_10  and  C_11 
REMARK    8  A    between atoms: C_11  and  C_13 
ROOT
ATOM      1  C   LIG d   1       4.158  -1.275  -2.154  0.00  0.00    -0.050 C 
ATOM      2  H   LIG d   1       4.075  -0.668  -1.253  0.00  0.00     0.027 H 
ATOM      3  H   LIG d   1       4.247  -2.326  -1.878  0.00  0.00     0.027 H 
ENDROOT
BRANCH   1   4
ATOM      4  C   LIG d   1       2.911  -1.078  -3.018  0.00  0.00    -0.037 C 
ATOM      5  H   LIG d   1       2.032  -1.008  -2.378  0.00  0.00     0.028 H 
ATOM      6  H   LIG d   1       2.801  -1.927  -3.694  0.00  0.00     0.028 H 
BRANCH   4   7
ATOM      7  C   LIG d   1       3.054   0.209  -3.833  0.00  0.00     0.012 C 
ATOM      8  H   LIG d   1       4.110   0.463  -3.929  0.00  0.00     0.046 H 
ATOM      9  H   LIG d   1       2.529   1.019  -3.328  0.00  0.00     0.046 H 
BRANCH   7  10
ATOM     10  N   LIG d   1       2.477   0.010  -5.165  0.00  0.00    -0.316 N 
ATOM     11  C   LIG d   1       3.268   0.044  -6.255  0.00  0.00     0.210 C 
ATOM     12  O   LIG d   1       4.460   0.235  -6.133  0.00  0.00    -0.276 OA
ATOM     13  H   LIG d   1       1.524  -0.144  -5.263  0.00  0.00     0.149 HD
BRANCH  11  14
ATOM     14  C   LIG d   1       2.674  -0.153  -7.626  0.00  0.00     0.012 C 
ATOM     15  H   LIG d   1       3.454  -0.468  -8.318  0.00  0.00     0.032 H 
ATOM     16  H   LIG d   1       1.899  -0.918  -7.579  0.00  0.00     0.032 H 
ATOM     17  H   LIG d   1       2.238   0.784  -7.971  0.00  0.00     0.032 H 
ENDBRANCH  11  14
ENDBRANCH   7  10
ENDBRANCH   4   7
ENDBRANCH   1   4
BRANCH   1  18
ATOM     18  C   LIG d   1       5.398  -0.849  -2.943  0.00  0.00    -0.037 C 
ATOM     19  H   LIG d   1       5.099  -0.204  -3.770  0.00  0.00     0.028 H 
ATOM     20  H   LIG d   1       6.078  -0.307  -2.287  0.00  0.00     0.028 H 
BRANCH  18  21
ATOM     21  C   LIG d   1       6.102  -2.090  -3.496  0.00  0.00     0.012 C 
ATOM     22  H   LIG d   1       7.181  -1.973  -3.391  0.00  0.00     0.046 H 
ATOM     23  H   LIG d   1       5.777  -2.970  -2.941  0.00  0.00     0.046 H 
BRANCH  21  24
ATOM     24  N   LIG d   1       5.765  -2.253  -4.912  0.00  0.00    -0.316 N 
ATOM     25  C   LIG d   1       4.913  -3.225  -5.294  0.00  0.00     0.210 C 
ATOM     26  O   LIG d   1       4.426  -3.965  -4.466  0.00  0.00    -0.276 OA
ATOM     27  H   LIG d   1       6.154  -1.662  -5.575  0.00  0.00     0.149 HD
BRANCH  25  28
ATOM     28  C   LIG d   1       4.566  -3.393  -6.751  0.00  0.00     0.012 C 
ATOM     29  H   LIG d   1       4.890  -4.377  -7.091  0.00  0.00     0.032 H 
ATOM     30  H   LIG d   1       3.487  -3.302  -6.880  0.00  0.00     0.032 H 
ATOM     31  H   LIG d   1       5.068  -2.623  -7.335  0.00  0.00     0.032 H 
ENDBRANCH  25  28
ENDBRANCH  21  24
ENDBRANCH  18  21
ENDBRANCH   1  18
TORSDOF 8
ENDMDL
MODEL 4
REMARK VINA RESULT:      -4.3      1.712      2.153
REMARK  8 active torsions:
REMARK  status: ('A' for Active; 'I' for Inactive)
REMARK    1  A    between atoms: C_1  and  C_2 
REMARK       I    between atoms: C_2  and  N_4 
REMARK    2  A    between atoms: N_4  and  C_5 
REMARK    3  A    between atoms: C_5  and  C_6 
REMARK    4  A    between atoms: C_6  and  C_7 
REMARK    5  A    between atoms: C_7  and  C_8 
REMARK    6  A    between atoms: C_8  and  C_9 
REMARK    7  A    between atoms: C_9  and  N_10 
REMARK       I    between atoms: N_10  and  C_11 
REMARK    8  A    between atoms: C_11  and  C_13 
ROOT
ATOM      1  C   LIG d   1       3.543  -1.781  -3.120  0.00  0.00    -0.050 C 
ATOM      2  H   LIG d   1       3.794  -1.982  -4.161  0.00  0.00     0.027 H 
ATOM      3  H   LIG d   1       2.983  -2.624  -2.712  0.00  0.00     0.027 H 
ENDROOT
BRANCH   1   4
ATOM      4  C   LIG d   1       4.828  -1.585  -2.313  0.00  0.00    -0.037 C 
ATOM      5  H   LIG d   1       4.926  -2.388  -1.583  0.00  0.00     0.028 H 
ATOM      6  H   LIG d   1       4.788  -0.627  -1.794  0.00  0.00     0.028 H 
BRANCH   4   7
ATOM      7  C   LIG d   1       6.031  -1.604  -3.258  0.00  0.00     0.012 C 
ATOM      8  H   LIG d   1       5.682  -1.647  -4.290  0.00  0.00     0.046 H 
ATOM      9  H   LIG d   1       6.646  -2.478  -3.046  0.00  0.00     0.046 H 
BRANCH   7  10
ATOM     10  N   LIG d   1       6.826  -0.388  -3.062  0.00  0.00    -0.316 N 
ATOM     11  C   LIG d   1       6.885   0.543  -4.034  0.00  0.00     0.210 C 
ATOM     12  O   LIG d   1       6.275   0.377  -5.070  0.00  0.00    -0.276 OA
ATOM     13  H   LIG d   1       7.312  -0.256  -2.233  0.00  0.00     0.149 HD
BRANCH  11  14
ATOM     14  C   LIG d   1       7.707   1.789  -3.835  0.00  0.00     0.012 C 
ATOM     15  H   LIG d   1       7.845   2.290  -4.793  0.00  0.00     0.032 H 
ATOM     16  H   LIG d   1       7.192   2.458  -3.146  0.00  0.00     0.032 H 
ATOM     17  H   LIG d   1       8.679   1.520  -3.422  0.00  0.00     0.032 H 
ENDBRANCH  11  14
ENDBRANCH   7  10
ENDBRANCH   4   7
ENDBRANCH   1   4
BRANCH   1  18
ATOM     18  C   LIG d   1       2.690  -0.514  -3.036  0.00  0.00    -0.037 C 
ATOM     19  H   LIG d   1       1.634  -0.786  -3.031  0.00  0.00     0.028 H 
ATOM     20  H   LIG d   1       2.930   0.026  -2.120  0.00  0.00     0.028 H 
BRANCH  18  21
ATOM     21  C   LIG d   1       2.981   0.378  -4.245  0.00  0.00     0.012 C 
ATOM     22  H   LIG d   1       2.116   1.011  -4.445  0.00  0.00     0.046 H 
ATOM     23  H   LIG d   1       3.848   1.003  -4.035  0.00  0.00     0.046 H 
BRANCH  21  24
ATOM     24  N   LIG d   1       3.253  -0.460  -5.415  0.00  0.00    -0.316 N 
ATOM     25  C   LIG d   1       3.131   0.054  -6.655  0.00  0.00     0.210 C 
ATOM     26  O   LIG d   1       2.794   1.209  -6.802  0.00  0.00    -0.276 OA
ATOM     27  H   LIG d   1       3.523  -1.384  -5.298  0.00  0.00     0.149 HD
BRANCH  25  28
ATOM     28  C   LIG d   1       3.411  -0.808  -7.859  0.00  0.00     0.012 C 
ATOM     29  H   LIG d   1       3.216  -1.852  -7.612  0.00  0.00     0.032 H 
ATOM     30  H   LIG d   1       2.765  -0.503  -8.683  0.00  0.00     0.032 H 
ATOM     31  H   LIG d   1       4.454  -0.693  -8.154  0.00  0.00     0.032 H 
ENDBRANCH  25  28
ENDBRANCH  21  24
ENDBRANCH  18  21
ENDBRANCH   1  18
TORSDOF 8
ENDMDL
MODEL 5
REMARK VINA RESULT:      -4.3      2.229      3.802
REMARK  8 active torsions:
REMARK  status: ('A' for Active; 'I' for Inactive)
REMARK    1  A    between atoms: C_1  and  C_2 
REMARK       I    between atoms: C_2  and  N_4 
REMARK    2  A    between atoms: N_4  and  C_5 
REMARK    3  A    between atoms: C_5  and  C_6 
REMARK    4  A    between atoms: C_6  and  C_7 
REMARK    5  A    between atoms: C_7  and  C_8 
REMARK    6  A    between atoms: C_8  and  C_9 
REMARK    7  A    between atoms: C_9  and  N_10 
REMARK       I    between atoms: N_10  and  C_11 
REMARK    8  A    between atoms: C_11  and  C_13 
ROOT
ATOM      1  C   LIG d   1       2.650  -0.669  -3.183  0.00  0.00    -0.050 C 
ATOM      2  H   LIG d   1       2.835  -0.070  -2.292  0.00  0.00     0.027 H 
ATOM      3  H   LIG d   1       1.736  -1.249  -3.047  0.00  0.00     0.027 H 
ENDROOT
BRANCH   1   4
ATOM      4  C   LIG d   1       2.493   0.253  -4.394  0.00  0.00    -0.037 C 
ATOM      5  H   LIG d   1       2.747   1.274  -4.109  0.00  0.00     0.028 H 
ATOM      6  H   LIG d   1       1.461   0.220  -4.744  0.00  0.00     0.028 H 
BRANCH   4   7
ATOM      7  C   LIG d   1       3.427  -0.212  -5.512  0.00  0.00     0.012 C 
ATOM      8  H   LIG d   1       3.789  -1.216  -5.290  0.00  0.00     0.046 H 
ATOM      9  H   LIG d   1       4.274   0.471  -5.586  0.00  0.00     0.046 H 
BRANCH   7  10
ATOM     10  N   LIG d   1       2.699  -0.225  -6.783  0.00  0.00    -0.316 N 
ATOM     11  C   LIG d   1       3.175   0.461  -7.841  0.00  0.00     0.210 C 
ATOM     12  O   LIG d   1       4.210   1.085  -7.742  0.00  0.00    -0.276 OA
ATOM     13  H   LIG d   1       1.871  -0.725  -6.863  0.00  0.00     0.149 HD
BRANCH  11  14
ATOM     14  C   LIG d   1       2.422   0.453  -9.146  0.00  0.00     0.012 C 
ATOM     15  H   LIG d   1       2.257  -0.576  -9.464  0.00  0.00     0.032 H 
ATOM     16  H   LIG d   1       1.462   0.951  -9.015  0.00  0.00     0.032 H 
ATOM     17  H   LIG d   1       3.004   0.979  -9.903  0.00  0.00     0.032 H 
ENDBRANCH  11  14
ENDBRANCH   7  10
ENDBRANCH   4   7
ENDBRANCH   1   4
BRANCH   1  18
ATOM     18  C   LIG d   1       3.827  -1.618  -3.414  0.00  0.00    -0.037 C 
ATOM     19  H   LIG d   1       3.499  -2.647  -3.264  0.00  0.00     0.028 H 
ATOM     20  H   LIG d   1       4.195  -1.500  -4.433  0.00  0.00     0.028 H 
BRANCH  18  21
ATOM     21  C   LIG d   1       4.948  -1.291  -2.425  0.00  0.00     0.012 C 
ATOM     22  H   LIG d   1       4.565  -0.629  -1.648  0.00  0.00     0.046 H 
ATOM     23  H   LIG d   1       5.311  -2.213  -1.970  0.00  0.00     0.046 H 
BRANCH  21  24
ATOM     24  N   LIG d   1       6.046  -0.630  -3.133  0.00  0.00    -0.316 N 
ATOM     25  C   LIG d   1       6.206   0.705  -3.033  0.00  0.00     0.210 C 
ATOM     26  O   LIG d   1       5.440   1.358  -2.357  0.00  0.00    -0.276 OA
ATOM     27  H   LIG d   1       6.659  -1.152  -3.675  0.00  0.00     0.149 HD
BRANCH  25  28
ATOM     28  C   LIG d   1       7.336   1.386  -3.762  0.00  0.00     0.012 C 
ATOM     29  H   LIG d   1       8.230   0.764  -3.707  0.00  0.00     0.032 H 
ATOM     30  H   LIG d   1       7.058   1.532  -4.806  0.00  0.00     0.032 H 
ATOM     31  H   LIG d   1       7.536   2.352  -3.300  0.00  0.00     0.032 H 
ENDBRANCH  25  28
ENDBRANCH  21  24
ENDBRANCH  18  21
ENDBRANCH   1  18
TORSDOF 8
ENDMDL
MODEL 6
REMARK VINA RESULT:      -4.2      2.277      2.922
REMARK  8 active torsions:
REMARK  status: ('A' for Active; 'I' for Inactive)
REMARK    1  A    between atoms: C_1  and  C_2 
REMARK       I    between atoms: C_2  and  N_4 
REMARK    2  A    between atoms: N_4  and  C_5 
REMARK    3  A    between atoms: C_5  and  C_6 
REMARK    4  A    between atoms: C_6  and  C_7 
REMARK    5  A    between atoms: C_7  and  C_8 
REMARK    6  A    between atoms: C_8  and  C_9 
REMARK    7  A    between atoms: C_9  and  N_10 
REMARK       I    between atoms: N_10  and  C_11 
REMARK    8  A    between atoms: C_11  and  C_13 
ROOT
ATOM      1  C   LIG d   1       2.614  -0.459  -3.438  0.00  0.00    -0.050 C 
ATOM      2  H   LIG d   1       3.202  -1.351  -3.651  0.00  0.00     0.027 H 
ATOM      3  H   LIG d   1       1.666  -0.749  -2.981  0.00  0.00     0.027 H 
ENDROOT
BRANCH   1   4
ATOM      4  C   LIG d   1       3.387   0.445  -2.476  0.00  0.00    -0.037 C 
ATOM      5  H   LIG d   1       2.712   0.825  -1.711  0.00  0.00     0.028 H 
ATOM      6  H   LIG d   1       3.815   1.282  -3.029  0.00  0.00     0.028 H 
BRANCH   4   7
ATOM      7  C   LIG d   1       4.510  -0.356  -1.814  0.00  0.00     0.012 C 
ATOM      8  H   LIG d   1       4.165  -0.738  -0.853  0.00  0.00     0.046 H 
ATOM      9  H   LIG d   1       5.375   0.288  -1.660  0.00  0.00     0.046 H 
BRANCH   7  10
ATOM     10  N   LIG d   1       4.885  -1.478  -2.680  0.00  0.00    -0.316 N 
ATOM     11  C   LIG d   1       6.089  -1.491  -3.283  0.00  0.00     0.210 C 
ATOM     12  O   LIG d   1       6.865  -0.575  -3.106  0.00  0.00    -0.276 OA
ATOM     13  H   LIG d   1       4.264  -2.210  -2.821  0.00  0.00     0.149 HD
BRANCH  11  14
ATOM     14  C   LIG d   1       6.472  -2.641  -4.178  0.00  0.00     0.012 C 
ATOM     15  H   LIG d   1       7.523  -2.886  -4.026  0.00  0.00     0.032 H 
ATOM     16  H   LIG d   1       5.858  -3.508  -3.939  0.00  0.00     0.032 H 
ATOM     17  H   LIG d   1       6.312  -2.359  -5.219  0.00  0.00     0.032 H 
ENDBRANCH  11  14
ENDBRANCH   7  10
ENDBRANCH   4   7
ENDBRANCH   1   4
BRANCH   1  18
ATOM     18  C   LIG d   1       2.342   0.296  -4.740  0.00  0.00    -0.037 C 
ATOM     19  H   LIG d   1       1.350   0.036  -5.111  0.00  0.00     0.028 H 
ATOM     20  H   LIG d   1       2.390   1.370  -4.555  0.00  0.00     0.028 H 
BRANCH  18  21
ATOM     21  C   LIG d   1       3.393  -0.090  -5.783  0.00  0.00     0.012 C 
ATOM     22  H   LIG d   1       4.113   0.721  -5.890  0.00  0.00     0.046 H 
ATOM     23  H   LIG d   1       3.909  -0.994  -5.461  0.00  0.00     0.046 H 
BRANCH  21  24
ATOM     24  N   LIG d   1       2.737  -0.334  -7.070  0.00  0.00    -0.316 N 
ATOM     25  C   LIG d   1       2.931   0.517  -8.097  0.00  0.00     0.210 C 
ATOM     26  O   LIG d   1       3.649   1.484  -7.956  0.00  0.00    -0.276 OA
ATOM     27  H   LIG d   1       2.163  -1.108  -7.183  0.00  0.00     0.149 HD
BRANCH  25  28
ATOM     28  C   LIG d   1       2.257   0.266  -9.421  0.00  0.00     0.012 C 
ATOM     29  H   LIG d   1       2.974   0.416 -10.229  0.00  0.00     0.032 H 
ATOM     30  H   LIG d   1       1.886  -0.759  -9.451  0.00  0.00     0.032 H 
ATOM     31  H   LIG d   1       1.424   0.958  -9.541  0.00  0.00     0.032 H 
ENDBRANCH  25  28
ENDBRANCH  21  24
ENDBRANCH  18  21
ENDBRANCH   1  18
TORSDOF 8
ENDMDL
MODEL 7
REMARK VINA RESULT:      -4.1      2.094      3.436
REMARK  8 active torsions:
REMARK  status: ('A' for Active; 'I' for Inactive)
REMARK    1  A    between atoms: C_1  and  C_2 
REMARK       I    between atoms: C_2  and  N_4 
REMARK    2  A    between atoms: N_4  and  C_5 
REMARK    3  A    between atoms: C_5  and  C_6 
REMARK    4  A    between atoms: C_6  and  C_7 
REMARK    5  A    between atoms: C_7  and  C_8 
REMARK    6  A    between atoms: C_8  and  C_9 
REMARK    7  A    between atoms: C_9  and  N_10 
REMARK       I    between atoms: N_10  and  C_11 
REMARK    8  A    between atoms: C_11  and  C_13 
ROOT
ATOM      1  C   LIG d   1       3.104  -0.513  -3.136  0.00  0.00    -0.050 C 
ATOM      2  H   LIG d   1       3.506  -0.499  -4.149  0.00  0.00     0.027 H 
ATOM      3  H   LIG d   1       2.017  -0.591  -3.179  0.00  0.00     0.027 H 
ENDROOT
BRANCH   1   4
ATOM      4  C   LIG d   1       3.672  -1.713  -2.377  0.00  0.00    -0.037 C 
ATOM      5  H   LIG d   1       2.867  -2.228  -1.855  0.00  0.00     0.028 H 
ATOM      6  H   LIG d   1       4.411  -1.368  -1.654  0.00  0.00     0.028 H 
BRANCH   4   7
ATOM      7  C   LIG d   1       4.335  -2.674  -3.366  0.00  0.00     0.012 C 
ATOM      8  H   LIG d   1       4.004  -3.692  -3.160  0.00  0.00     0.046 H 
ATOM      9  H   LIG d   1       5.418  -2.616  -3.260  0.00  0.00     0.046 H 
BRANCH   7  10
ATOM     10  N   LIG d   1       3.958  -2.305  -4.733  0.00  0.00    -0.316 N 
ATOM     11  C   LIG d   1       4.839  -2.459  -5.741  0.00  0.00     0.210 C 
ATOM     12  O   LIG d   1       5.943  -2.908  -5.516  0.00  0.00    -0.276 OA
ATOM     13  H   LIG d   1       3.074  -1.946  -4.912  0.00  0.00     0.149 HD
BRANCH  11  14
ATOM     14  C   LIG d   1       4.453  -2.074  -7.145  0.00  0.00     0.012 C 
ATOM     15  H   LIG d   1       3.462  -1.622  -7.139  0.00  0.00     0.032 H 
ATOM     16  H   LIG d   1       5.176  -1.359  -7.537  0.00  0.00     0.032 H 
ATOM     17  H   LIG d   1       4.444  -2.963  -7.776  0.00  0.00     0.032 H 
ENDBRANCH  11  14
ENDBRANCH   7  10
ENDBRANCH   4   7
ENDBRANCH   1   4
BRANCH   1  18
ATOM     18  C   LIG d   1       3.494   0.778  -2.414  0.00  0.00    -0.037 C 
ATOM     19  H   LIG d   1       3.149   1.637  -2.991  0.00  0.00     0.028 H 
ATOM     20  H   LIG d   1       3.034   0.796  -1.426  0.00  0.00     0.028 H 
BRANCH  18  21
ATOM     21  C   LIG d   1       5.016   0.842  -2.269  0.00  0.00     0.012 C 
ATOM     22  H   LIG d   1       5.285   1.673  -1.617  0.00  0.00     0.046 H 
ATOM     23  H   LIG d   1       5.379  -0.091  -1.836  0.00  0.00     0.046 H 
BRANCH  21  24
ATOM     24  N   LIG d   1       5.625   1.039  -3.587  0.00  0.00    -0.316 N 
ATOM     25  C   LIG d   1       6.650   0.257  -3.979  0.00  0.00     0.210 C 
ATOM     26  O   LIG d   1       7.070  -0.609  -3.241  0.00  0.00    -0.276 OA
ATOM     27  H   LIG d   1       5.289   1.731  -4.177  0.00  0.00     0.149 HD
BRANCH  25  28
ATOM     28  C   LIG d   1       7.276   0.459  -5.335  0.00  0.00     0.012 C 
ATOM     29  H   LIG d   1       8.348   0.272  -5.272  0.00  0.00     0.032 H 
ATOM     30  H   LIG d   1       6.828  -0.233  -6.049  0.00  0.00     0.032 H 
ATOM     31  H   LIG d   1       7.105   1.483  -5.665  0.00  0.00     0.032 H 
ENDBRANCH  25  28
ENDBRANCH  21  24
ENDBRANCH  18  21
ENDBRANCH   1  18
TORSDOF 8
ENDMDL
MODEL 8
REMARK VINA RESULT:      -4.0      2.637      2.980
REMARK  8 active torsions:
REMARK  status: ('A' for Active; 'I' for Inactive)
REMARK    1  A    between atoms: C_1  and  C_2 
REMARK       I    between atoms: C_2  and  N_4 
REMARK    2  A    between atoms: N_4  and  C_5 
REMARK    3  A    between atoms: C_5  and  C_6 
REMARK    4  A    between atoms: C_6  and  C_7 
REMARK    5  A    between atoms: C_7  and  C_8 
REMARK    6  A    between atoms: C_8  and  C_9 
REMARK    7  A    between atoms: C_9  and  N_10 
REMARK       I    between atoms: N_10  and  C_11 
REMARK    8  A    between atoms: C_11  and  C_13 
ROOT
ATOM      1  C   LIG d   1       4.791  -2.242  -3.431  0.00  0.00    -0.050 C 
ATOM      2  H   LIG d   1       4.466  -2.042  -4.451  0.00  0.00     0.027 H 
ATOM      3  H   LIG d   1       5.054  -3.296  -3.334  0.00  0.00     0.027 H 
ENDROOT
BRANCH   1   4
ATOM      4  C   LIG d   1       6.011  -1.379  -3.104  0.00  0.00    -0.037 C 
ATOM      5  H   LIG d   1       6.371  -1.623  -2.105  0.00  0.00     0.028 H 
ATOM      6  H   LIG d   1       5.731  -0.327  -3.142  0.00  0.00     0.028 H 
BRANCH   4   7
ATOM      7  C   LIG d   1       7.116  -1.652  -4.126  0.00  0.00     0.012 C 
ATOM      8  H   LIG d   1       7.427  -0.713  -4.585  0.00  0.00     0.046 H 
ATOM      9  H   LIG d   1       6.742  -2.327  -4.896  0.00  0.00     0.046 H 
BRANCH   7  10
ATOM     10  N   LIG d   1       8.262  -2.269  -3.452  0.00  0.00    -0.316 N 
ATOM     11  C   LIG d   1       8.531  -3.576  -3.638  0.00  0.00     0.210 C 
ATOM     12  O   LIG d   1       7.826  -4.242  -4.367  0.00  0.00    -0.276 OA
ATOM     13  H   LIG d   1       8.826  -1.736  -2.870  0.00  0.00     0.149 HD
BRANCH  11  14
ATOM     14  C   LIG d   1       9.705  -4.212  -2.941  0.00  0.00     0.012 C 
ATOM     15  H   LIG d   1       9.561  -4.156  -1.862  0.00  0.00     0.032 H 
ATOM     16  H   LIG d   1       9.787  -5.255  -3.244  0.00  0.00     0.032 H 
ATOM     17  H   LIG d   1      10.619  -3.682  -3.213  0.00  0.00     0.032 H 
ENDBRANCH  11  14
ENDBRANCH   7  10
ENDBRANCH   4   7
ENDBRANCH   1   4
BRANCH   1  18
ATOM     18  C   LIG d   1       3.656  -1.909  -2.460  0.00  0.00    -0.037 C 
ATOM     19  H   LIG d   1       3.032  -2.791  -2.313  0.00  0.00     0.028 H 
ATOM     20  H   LIG d   1       4.076  -1.598  -1.503  0.00  0.00     0.028 H 
BRANCH  18  21
ATOM     21  C   LIG d   1       2.807  -0.775  -3.037  0.00  0.00     0.012 C 
ATOM     22  H   LIG d   1       1.778  -0.880  -2.693  0.00  0.00     0.046 H 
ATOM     23  H   LIG d   1       3.205   0.183  -2.703  0.00  0.00     0.046 H 
BRANCH  21  24
ATOM     24  N   LIG d   1       2.841  -0.835  -4.500  0.00  0.00    -0.316 N 
ATOM     25  C   LIG d   1       2.839   0.304  -5.222  0.00  0.00     0.210 C 
ATOM     26  O   LIG d   1       2.808   1.378  -4.660  0.00  0.00    -0.276 OA
ATOM     27  H   LIG d   1       2.866  -1.694  -4.950  0.00  0.00     0.149 HD
BRANCH  25  28
ATOM     28  C   LIG d   1       2.874   0.242  -6.727  0.00  0.00     0.012 C 
ATOM     29  H   LIG d   1       1.876   0.022  -7.105  0.00  0.00     0.032 H 
ATOM     30  H   LIG d   1       3.208   1.202  -7.122  0.00  0.00     0.032 H 
ATOM     31  H   LIG d   1       3.564  -0.541  -7.042  0.00  0.00     0.032 H 
ENDBRANCH  25  28
ENDBRANCH  21  24
ENDBRANCH  18  21
ENDBRANCH   1  18
TORSDOF 8
ENDMDL
MODEL 9
REMARK VINA RESULT:      -3.9      2.055      2.645
REMARK  8 active torsions:
REMARK  status: ('A' for Active; 'I' for Inactive)
REMARK    1  A    between atoms: C_1  and  C_2 
REMARK       I    between atoms: C_2  and  N_4 
REMARK    2  A    between atoms: N_4  and  C_5 
REMARK    3  A    between atoms: C_5  and  C_6 
REMARK    4  A    between atoms: C_6  and  C_7 
REMARK    5  A    between atoms: C_7  and  C_8 
REMARK    6  A    between atoms: C_8  and  C_9 
REMARK    7  A    between atoms: C_9  and  N_10 
REMARK       I    between atoms: N_10  and  C_11 
REMARK    8  A    between atoms: C_11  and  C_13 
ROOT
ATOM      1  C   LIG d   1       4.449   1.128  -3.079  0.00  0.00    -0.050 C 
ATOM      2  H   LIG d   1       4.819   2.152  -3.042  0.00  0.00     0.027 H 
ATOM      3  H   LIG d   1       4.964   0.584  -3.872  0.00  0.00     0.027 H 
ENDROOT
BRANCH   1   4
ATOM      4  C   LIG d   1       4.711   0.443  -1.736  0.00  0.00    -0.037 C 
ATOM      5  H   LIG d   1       4.070   0.882  -0.972  0.00  0.00     0.028 H 
ATOM      6  H   LIG d   1       5.755   0.580  -1.457  0.00  0.00     0.028 H 
BRANCH   4   7
ATOM      7  C   LIG d   1       4.407  -1.051  -1.859  0.00  0.00     0.012 C 
ATOM      8  H   LIG d   1       3.428  -1.186  -2.321  0.00  0.00     0.046 H 
ATOM      9  H   LIG d   1       4.406  -1.505  -0.868  0.00  0.00     0.046 H 
BRANCH   7  10
ATOM     10  N   LIG d   1       5.431  -1.692  -2.689  0.00  0.00    -0.316 N 
ATOM     11  C   LIG d   1       5.068  -2.473  -3.725  0.00  0.00     0.210 C 
ATOM     12  O   LIG d   1       3.893  -2.642  -3.974  0.00  0.00    -0.276 OA
ATOM     13  H   LIG d   1       6.370  -1.556  -2.489  0.00  0.00     0.149 HD
BRANCH  11  14
ATOM     14  C   LIG d   1       6.121  -3.137  -4.574  0.00  0.00     0.012 C 
ATOM     15  H   LIG d   1       6.614  -3.918  -3.996  0.00  0.00     0.032 H 
ATOM     16  H   LIG d   1       5.654  -3.576  -5.454  0.00  0.00     0.032 H 
ATOM     17  H   LIG d   1       6.857  -2.395  -4.885  0.00  0.00     0.032 H 
ENDBRANCH  11  14
ENDBRANCH   7  10
ENDBRANCH   4   7
ENDBRANCH   1   4
BRANCH   1  18
ATOM     18  C   LIG d   1       2.946   1.138  -3.361  0.00  0.00    -0.037 C 
ATOM     19  H   LIG d   1       2.434   0.508  -2.633  0.00  0.00     0.028 H 
ATOM     20  H   LIG d   1       2.568   2.158  -3.288  0.00  0.00     0.028 H 
BRANCH  18  21
ATOM     21  C   LIG d   1       2.688   0.599  -4.770  0.00  0.00     0.012 C 
ATOM     22  H   LIG d   1       2.033  -0.271  -4.712  0.00  0.00     0.046 H 
ATOM     23  H   LIG d   1       2.211   1.372  -5.373  0.00  0.00     0.046 H 
BRANCH  21  24
ATOM     24  N   LIG d   1       3.959   0.213  -5.386  0.00  0.00    -0.316 N 
ATOM     25  C   LIG d   1       3.983  -0.239  -6.655  0.00  0.00     0.210 C 
ATOM     26  O   LIG d   1       2.953  -0.327  -7.288  0.00  0.00    -0.276 OA
ATOM     27  H   LIG d   1       4.784   0.282  -4.880  0.00  0.00     0.149 HD
BRANCH  25  28
ATOM     28  C   LIG d   1       5.292  -0.637  -7.289  0.00  0.00     0.012 C 
ATOM     29  H   LIG d   1       5.247  -1.684  -7.588  0.00  0.00     0.032 H 
ATOM     30  H   LIG d   1       5.474  -0.017  -8.167  0.00  0.00     0.032 H 
ATOM     31  H   LIG d   1       6.100  -0.498  -6.571  0.00  0.00     0.032 H 
ENDBRANCH  25  28
ENDBRANCH  21  24
ENDBRANCH  18  21
ENDBRANCH   1  18
TORSDOF 8
ENDMDL
MODEL 10
REMARK VINA RESULT:      -3.9      2.325      3.946
REMARK  8 active torsions:
REMARK  status: ('A' for Active; 'I' for Inactive)
REMARK    1  A    between atoms: C_1  and  C_2 
REMARK       I    between atoms: C_2  and  N_4 
REMARK    2  A    between atoms: N_4  and  C_5 
REMARK    3  A    between atoms: C_5  and  C_6 
REMARK    4  A    between atoms: C_6  and  C_7 
REMARK    5  A    between atoms: C_7  and  C_8 
REMARK    6  A    between atoms: C_8  and  C_9 
REMARK    7  A    between atoms: C_9  and  N_10 
REMARK       I    between atoms: N_10  and  C_11 
REMARK    8  A    between atoms: C_11  and  C_13 
ROOT
ATOM      1  C   LIG d   1       5.397  -2.830  -3.883  0.00  0.00    -0.050 C 
ATOM      2  H   LIG d   1       4.734  -2.056  -3.498  0.00  0.00     0.027 H 
ATOM      3  H   LIG d   1       5.519  -3.612  -3.132  0.00  0.00     0.027 H 
ENDROOT
BRANCH   1   4
ATOM      4  C   LIG d   1       4.794  -3.434  -5.153  0.00  0.00    -0.037 C 
ATOM      5  H   LIG d   1       3.708  -3.451  -5.068  0.00  0.00     0.028 H 
ATOM      6  H   LIG d   1       5.164  -4.451  -5.282  0.00  0.00     0.028 H 
BRANCH   4   7
ATOM      7  C   LIG d   1       5.198  -2.586  -6.361  0.00  0.00     0.012 C 
ATOM      8  H   LIG d   1       5.548  -3.238  -7.162  0.00  0.00     0.046 H 
ATOM      9  H   LIG d   1       5.997  -1.902  -6.075  0.00  0.00     0.046 H 
BRANCH   7  10
ATOM     10  N   LIG d   1       4.041  -1.818  -6.828  0.00  0.00    -0.316 N 
ATOM     11  C   LIG d   1       3.984  -0.489  -6.615  0.00  0.00     0.210 C 
ATOM     12  O   LIG d   1       4.893   0.073  -6.042  0.00  0.00    -0.276 OA
ATOM     13  H   LIG d   1       3.314  -2.267  -7.287  0.00  0.00     0.149 HD
BRANCH  11  14
ATOM     14  C   LIG d   1       2.791   0.300  -7.089  0.00  0.00     0.012 C 
ATOM     15  H   LIG d   1       3.122   1.091  -7.761  0.00  0.00     0.032 H 
ATOM     16  H   LIG d   1       2.104  -0.361  -7.616  0.00  0.00     0.032 H 
ATOM     17  H   LIG d   1       2.284   0.742  -6.231  0.00  0.00     0.032 H 
ENDBRANCH  11  14
ENDBRANCH   7  10
ENDBRANCH   4   7
ENDBRANCH   1   4
BRANCH   1  18
ATOM     18  C   LIG d   1       6.762  -2.219  -4.208  0.00  0.00    -0.037 C 
ATOM     19  H   LIG d   1       7.550  -2.908  -3.906  0.00  0.00     0.028 H 
ATOM     20  H   LIG d   1       6.832  -2.033  -5.279  0.00  0.00     0.028 H 
BRANCH  18  21
ATOM     21  C   LIG d   1       6.922  -0.899  -3.449  0.00  0.00     0.012 C 
ATOM     22  H   LIG d   1       7.668  -1.020  -2.664  0.00  0.00     0.046 H 
ATOM     23  H   LIG d   1       7.246  -0.121  -4.140  0.00  0.00     0.046 H 
BRANCH  21  24
ATOM     24  N   LIG d   1       5.640  -0.520  -2.851  0.00  0.00    -0.316 N 
ATOM     25  C   LIG d   1       5.313   0.782  -2.728  0.00  0.00     0.210 C 
ATOM     26  O   LIG d   1       6.080   1.639  -3.112  0.00  0.00    -0.276 OA
ATOM     27  H   LIG d   1       5.027  -1.206  -2.544  0.00  0.00     0.149 HD
BRANCH  25  28
ATOM     28  C   LIG d   1       3.993   1.172  -2.113  0.00  0.00     0.012 C 
ATOM     29  H   LIG d   1       3.914   2.259  -2.083  0.00  0.00     0.032 H 
ATOM     30  H   LIG d   1       3.179   0.764  -2.712  0.00  0.00     0.032 H 
ATOM     31  H   LIG d   1       3.934   0.775  -1.100  0.00  0.00     0.032 H 
ENDBRANCH  25  28
ENDBRANCH  21  24
ENDBRANCH  18  21
ENDBRANCH   1  18
TORSDOF 8
ENDMDL
