MODEL 1
REMARK VINA RESULT:      -6.5      0.000      0.000
REMARK  4 active torsions:
REMARK  status: ('A' for Active; 'I' for Inactive)
REMARK    1  A    between atoms: CB_1  and  CA_2 
REMARK       I    between atoms: CA_2  and  C_4 
REMARK       I    between atoms: CA_2  and  N_6 
REMARK       I    between atoms: N_6  and  C_7 
REMARK    2  A    between atoms: C_7  and  C_9 
REMARK    3  A    between atoms: C_9  and  O_10 
REMARK    4  A    between atoms: O_10  and  C_11 
ROOT
ATOM      1  O   UNK d   0       5.264  -3.409  -6.999  0.00  0.00    -0.483 OA
ENDROOT
BRANCH   1   2
ATOM      2  C   UNK d   0       4.110  -3.752  -7.769  0.00  0.00     0.165 C 
ATOM      3  H   UNK d   0       4.313  -4.654  -8.346  0.00  0.00     0.080 H 
ATOM      4  H   UNK d   0       3.268  -3.930  -7.100  0.00  0.00     0.080 H 
BRANCH   2   5
ATOM      5  C   UNK d   0       3.777  -2.620  -8.706  0.00  0.00     0.251 C 
ATOM      6  N   ALA d   1       3.203  -1.497  -8.229  0.00  0.00    -0.305 N 
ATOM      7  CA  ALA d   1       2.879  -0.397  -9.139  0.00  0.00     0.060 C 
ATOM      8  H   ALA d   1       3.004  -1.419  -7.282  0.00  0.00     0.149 HD
ATOM      9  HA  ALA d   1       3.638  -0.334  -9.919  0.00  0.00     0.056 H 
ATOM     10  C   ALA d   1       2.841   0.898  -8.369  0.00  0.00     0.062 C 
ATOM     11  O   ALA d   1       3.064   0.901  -7.181  0.00  0.00    -0.548 OA
ATOM     12  OXT ALA d   1       2.563   2.048  -9.003  0.00  0.00    -0.548 OA
ATOM     13  O   UNK d   0       4.026  -2.718  -9.889  0.00  0.00    -0.272 OA
BRANCH   7  14
ATOM     14  CB  ALA d   1       1.511  -0.649  -9.778  0.00  0.00    -0.041 C 
ATOM     15  HB1 ALA d   1       0.791  -0.910  -9.003  0.00  0.00     0.025 H 
ATOM     16  HB2 ALA d   1       1.180   0.251 -10.295  0.00  0.00     0.025 H 
ATOM     17  HB3 ALA d   1       1.590  -1.470 -10.492  0.00  0.00     0.025 H 
ENDBRANCH   7  14
ENDBRANCH   2   5
ENDBRANCH   1   2
BRANCH   1  18
ATOM     18  C   UNK d   0       5.050  -2.864  -5.775  0.00  0.00     0.125 A 
ATOM     19  C   UNK d   0       5.256  -1.509  -5.581  0.00  0.00     0.023 A 
ATOM     20  C   UNK d   0       5.037  -0.950  -4.330  0.00  0.00     0.142 A 
ATOM     21  H   UNK d   0       5.587  -0.888  -6.401  0.00  0.00     0.069 H 
ATOM     22  C   UNK d   0       4.606  -1.772  -3.273  0.00  0.00     0.018 A 
ATOM     23  O   UNK d   0       5.233   0.369  -4.119  0.00  0.00    -0.422 OA
ATOM     24  C   UNK d   0       4.402  -3.141  -3.487  0.00  0.00    -0.048 A 
ATOM     25  C   UNK d   0       4.377  -1.173  -1.956  0.00  0.00    -0.044 A 
ATOM     26  C   UNK d   0       4.617  -3.673  -4.725  0.00  0.00    -0.019 A 
ATOM     27  H   UNK d   0       4.071  -3.773  -2.676  0.00  0.00     0.063 H 
ATOM     28  H   UNK d   0       4.456  -4.728  -4.891  0.00  0.00     0.065 H 
ATOM     29  C   UNK d   0       4.592   0.160  -1.811  0.00  0.00     0.024 A 
ATOM     30  H   UNK d   0       4.046  -1.775  -1.123  0.00  0.00     0.063 H 
ATOM     31  C   UNK d   0       5.024   0.925  -2.915  0.00  0.00     0.337 A 
ATOM     32  H   UNK d   0       4.432   0.633  -0.854  0.00  0.00     0.069 H 
ATOM     33  O   UNK d   0       5.213   2.118  -2.772  0.00  0.00    -0.245 OA
ENDBRANCH   1  18
TORSDOF 6
ENDMDL
MODEL 2
REMARK VINA RESULT:      -6.3      2.149      7.263
REMARK  4 active torsions:
REMARK  status: ('A' for Active; 'I' for Inactive)
REMARK    1  A    between atoms: CB_1  and  CA_2 
REMARK       I    between atoms: CA_2  and  C_4 
REMARK       I    between atoms: CA_2  and  N_6 
REMARK       I    between atoms: N_6  and  C_7 
REMARK    2  A    between atoms: C_7  and  C_9 
REMARK    3  A    between atoms: C_9  and  O_10 
REMARK    4  A    between atoms: O_10  and  C_11 
ROOT
ATOM      1  O   UNK d   0       2.857   1.453  -6.562  0.00  0.00    -0.483 OA
ENDROOT
BRANCH   1   2
ATOM      2  C   UNK d   0       2.454   0.413  -5.669  0.00  0.00     0.165 C 
ATOM      3  H   UNK d   0       1.489   0.665  -5.231  0.00  0.00     0.080 H 
ATOM      4  H   UNK d   0       2.371  -0.525  -6.218  0.00  0.00     0.080 H 
BRANCH   2   5
ATOM      5  C   UNK d   0       3.480   0.265  -4.575  0.00  0.00     0.251 C 
ATOM      6  N   ALA d   1       4.206  -0.867  -4.481  0.00  0.00    -0.305 N 
ATOM      7  CA  ALA d   1       5.203  -1.011  -3.418  0.00  0.00     0.060 C 
ATOM      8  H   ALA d   1       4.067  -1.586  -5.117  0.00  0.00     0.149 HD
ATOM      9  HA  ALA d   1       5.668  -0.046  -3.221  0.00  0.00     0.056 H 
ATOM     10  C   ALA d   1       6.257  -1.999  -3.848  0.00  0.00     0.062 C 
ATOM     11  O   ALA d   1       6.183  -2.527  -4.932  0.00  0.00    -0.548 OA
ATOM     12  OXT ALA d   1       7.278  -2.290  -3.028  0.00  0.00    -0.548 OA
ATOM     13  O   UNK d   0       3.653   1.164  -3.779  0.00  0.00    -0.272 OA
BRANCH   7  14
ATOM     14  CB  ALA d   1       4.521  -1.517  -2.144  0.00  0.00    -0.041 C 
ATOM     15  HB1 ALA d   1       5.169  -2.238  -1.647  0.00  0.00     0.025 H 
ATOM     16  HB2 ALA d   1       4.331  -0.677  -1.476  0.00  0.00     0.025 H 
ATOM     17  HB3 ALA d   1       3.576  -1.997  -2.404  0.00  0.00     0.025 H 
ENDBRANCH   7  14
ENDBRANCH   2   5
ENDBRANCH   1   2
BRANCH   1  18
ATOM     18  C   UNK d   0       3.043   1.111  -7.863  0.00  0.00     0.125 A 
ATOM     19  C   UNK d   0       2.748  -0.175  -8.284  0.00  0.00     0.023 A 
ATOM     20  C   UNK d   0       2.936  -0.525  -9.613  0.00  0.00     0.142 A 
ATOM     21  H   UNK d   0       2.372  -0.903  -7.580  0.00  0.00     0.069 H 
ATOM     22  C   UNK d   0       3.426   0.435 -10.517  0.00  0.00     0.018 A 
ATOM     23  O   UNK d   0       2.656  -1.774 -10.044  0.00  0.00    -0.422 OA
ATOM     24  C   UNK d   0       3.719   1.730 -10.075  0.00  0.00    -0.048 A 
ATOM     25  C   UNK d   0       3.622   0.055 -11.918  0.00  0.00    -0.044 A 
ATOM     26  C   UNK d   0       3.522   2.060  -8.765  0.00  0.00    -0.019 A 
ATOM     27  H   UNK d   0       4.095   2.468 -10.768  0.00  0.00     0.063 H 
ATOM     28  H   UNK d   0       3.744   3.060  -8.424  0.00  0.00     0.065 H 
ATOM     29  C   UNK d   0       3.320  -1.217 -12.287  0.00  0.00     0.024 A 
ATOM     30  H   UNK d   0       3.996   0.767 -12.639  0.00  0.00     0.063 H 
ATOM     31  C   UNK d   0       2.832  -2.128 -11.327  0.00  0.00     0.337 A 
ATOM     32  H   UNK d   0       3.452  -1.529 -13.311  0.00  0.00     0.069 H 
ATOM     33  O   UNK d   0       2.565  -3.265 -11.670  0.00  0.00    -0.245 OA
ENDBRANCH   1  18
TORSDOF 6
ENDMDL
MODEL 3
REMARK VINA RESULT:      -6.2      2.640      7.570
REMARK  4 active torsions:
REMARK  status: ('A' for Active; 'I' for Inactive)
REMARK    1  A    between atoms: CB_1  and  CA_2 
REMARK       I    between atoms: CA_2  and  C_4 
REMARK       I    between atoms: CA_2  and  N_6 
REMARK       I    between atoms: N_6  and  C_7 
REMARK    2  A    between atoms: C_7  and  C_9 
REMARK    3  A    between atoms: C_9  and  O_10 
REMARK    4  A    between atoms: O_10  and  C_11 
ROOT
ATOM      1  O   UNK d   0       2.467   0.374  -7.949  0.00  0.00    -0.483 OA
ENDROOT
BRANCH   1   2
ATOM      2  C   UNK d   0       3.582   0.043  -7.119  0.00  0.00     0.165 C 
ATOM      3  H   UNK d   0       3.883  -0.988  -7.309  0.00  0.00     0.080 H 
ATOM      4  H   UNK d   0       4.413   0.711  -7.344  0.00  0.00     0.080 H 
BRANCH   2   5
ATOM      5  C   UNK d   0       3.193   0.194  -5.671  0.00  0.00     0.251 C 
ATOM      6  N   ALA d   1       4.148   0.290  -4.723  0.00  0.00    -0.305 N 
ATOM      7  CA  ALA d   1       3.770   0.437  -3.316  0.00  0.00     0.060 C 
ATOM      8  H   ALA d   1       5.084   0.262  -4.974  0.00  0.00     0.149 HD
ATOM      9  HA  ALA d   1       2.864   1.038  -3.243  0.00  0.00     0.056 H 
ATOM     10  C   ALA d   1       4.886   1.116  -2.564  0.00  0.00     0.062 C 
ATOM     11  O   ALA d   1       5.893   1.444  -3.146  0.00  0.00    -0.548 OA
ATOM     12  OXT ALA d   1       4.760   1.357  -1.250  0.00  0.00    -0.548 OA
ATOM     13  O   UNK d   0       2.022   0.229  -5.357  0.00  0.00    -0.272 OA
BRANCH   7  14
ATOM     14  CB  ALA d   1       3.514  -0.945  -2.710  0.00  0.00    -0.041 C 
ATOM     15  HB1 ALA d   1       3.683  -1.711  -3.467  0.00  0.00     0.025 H 
ATOM     16  HB2 ALA d   1       4.193  -1.105  -1.873  0.00  0.00     0.025 H 
ATOM     17  HB3 ALA d   1       2.483  -1.003  -2.359  0.00  0.00     0.025 H 
ENDBRANCH   7  14
ENDBRANCH   2   5
ENDBRANCH   1   2
BRANCH   1  18
ATOM     18  C   UNK d   0       2.493  -0.080  -9.227  0.00  0.00     0.125 A 
ATOM     19  C   UNK d   0       3.649   0.047  -9.978  0.00  0.00     0.023 A 
ATOM     20  C   UNK d   0       3.678  -0.418 -11.285  0.00  0.00     0.142 A 
ATOM     21  H   UNK d   0       4.527   0.505  -9.547  0.00  0.00     0.069 H 
ATOM     22  C   UNK d   0       2.526  -1.013 -11.831  0.00  0.00     0.018 A 
ATOM     23  O   UNK d   0       4.795  -0.303 -12.035  0.00  0.00    -0.422 OA
ATOM     24  C   UNK d   0       1.365  -1.134 -11.058  0.00  0.00    -0.048 A 
ATOM     25  C   UNK d   0       2.565  -1.501 -13.212  0.00  0.00    -0.044 A 
ATOM     26  C   UNK d   0       1.356  -0.677  -9.772  0.00  0.00    -0.019 A 
ATOM     27  H   UNK d   0       0.480  -1.591 -11.475  0.00  0.00     0.063 H 
ATOM     28  H   UNK d   0       0.462  -0.773  -9.174  0.00  0.00     0.065 H 
ATOM     29  C   UNK d   0       3.721  -1.355 -13.911  0.00  0.00     0.024 A 
ATOM     30  H   UNK d   0       1.699  -1.963 -13.662  0.00  0.00     0.063 H 
ATOM     31  C   UNK d   0       4.838  -0.749 -13.300  0.00  0.00     0.337 A 
ATOM     32  H   UNK d   0       3.784  -1.704 -14.930  0.00  0.00     0.069 H 
ATOM     33  O   UNK d   0       5.867  -0.624 -13.938  0.00  0.00    -0.245 OA
ENDBRANCH   1  18
TORSDOF 6
ENDMDL
MODEL 4
REMARK VINA RESULT:      -6.2      5.857      8.275
REMARK  4 active torsions:
REMARK  status: ('A' for Active; 'I' for Inactive)
REMARK    1  A    between atoms: CB_1  and  CA_2 
REMARK       I    between atoms: CA_2  and  C_4 
REMARK       I    between atoms: CA_2  and  N_6 
REMARK       I    between atoms: N_6  and  C_7 
REMARK    2  A    between atoms: C_7  and  C_9 
REMARK    3  A    between atoms: C_9  and  O_10 
REMARK    4  A    between atoms: O_10  and  C_11 
ROOT
ATOM      1  O   UNK d   0       9.405   3.015  -4.649  0.00  0.00    -0.483 OA
ENDROOT
BRANCH   1   2
ATOM      2  C   UNK d   0       9.051   1.903  -3.825  0.00  0.00     0.165 C 
ATOM      3  H   UNK d   0       9.778   1.103  -3.963  0.00  0.00     0.080 H 
ATOM      4  H   UNK d   0       9.046   2.213  -2.780  0.00  0.00     0.080 H 
BRANCH   2   5
ATOM      5  C   UNK d   0       7.681   1.409  -4.209  0.00  0.00     0.251 C 
ATOM      6  N   ALA d   1       6.819   1.002  -3.255  0.00  0.00    -0.305 N 
ATOM      7  CA  ALA d   1       5.487   0.521  -3.628  0.00  0.00     0.060 C 
ATOM      8  H   ALA d   1       7.082   1.027  -2.322  0.00  0.00     0.149 HD
ATOM      9  HA  ALA d   1       5.125   1.083  -4.488  0.00  0.00     0.056 H 
ATOM     10  C   ALA d   1       4.542   0.709  -2.470  0.00  0.00     0.062 C 
ATOM     11  O   ALA d   1       4.941   1.197  -1.438  0.00  0.00    -0.548 OA
ATOM     12  OXT ALA d   1       3.258   0.338  -2.584  0.00  0.00    -0.548 OA
ATOM     13  O   UNK d   0       7.352   1.377  -5.376  0.00  0.00    -0.272 OA
BRANCH   7  14
ATOM     14  CB  ALA d   1       5.563  -0.965  -3.987  0.00  0.00    -0.041 C 
ATOM     15  HB1 ALA d   1       5.056  -1.551  -3.220  0.00  0.00     0.025 H 
ATOM     16  HB2 ALA d   1       5.081  -1.131  -4.950  0.00  0.00     0.025 H 
ATOM     17  HB3 ALA d   1       6.608  -1.272  -4.045  0.00  0.00     0.025 H 
ENDBRANCH   7  14
ENDBRANCH   2   5
ENDBRANCH   1   2
BRANCH   1  18
ATOM     18  C   UNK d   0       9.536   4.219  -4.037  0.00  0.00     0.125 A 
ATOM     19  C   UNK d   0       9.966   4.278  -2.722  0.00  0.00     0.023 A 
ATOM     20  C   UNK d   0      10.101   5.508  -2.095  0.00  0.00     0.142 A 
ATOM     21  H   UNK d   0      10.196   3.369  -2.186  0.00  0.00     0.069 H 
ATOM     22  C   UNK d   0       9.798   6.683  -2.807  0.00  0.00     0.018 A 
ATOM     23  O   UNK d   0      10.519   5.588  -0.813  0.00  0.00    -0.422 OA
ATOM     24  C   UNK d   0       9.365   6.606  -4.136  0.00  0.00    -0.048 A 
ATOM     25  C   UNK d   0       9.944   7.977  -2.137  0.00  0.00    -0.044 A 
ATOM     26  C   UNK d   0       9.243   5.388  -4.739  0.00  0.00    -0.019 A 
ATOM     27  H   UNK d   0       9.133   7.507  -4.684  0.00  0.00     0.063 H 
ATOM     28  H   UNK d   0       8.913   5.327  -5.766  0.00  0.00     0.065 H 
ATOM     29  C   UNK d   0      10.369   7.987  -0.847  0.00  0.00     0.024 A 
ATOM     30  H   UNK d   0       9.721   8.899  -2.654  0.00  0.00     0.063 H 
ATOM     31  C   UNK d   0      10.655   6.771  -0.193  0.00  0.00     0.337 A 
ATOM     32  H   UNK d   0      10.488   8.924  -0.323  0.00  0.00     0.069 H 
ATOM     33  O   UNK d   0      11.035   6.794   0.963  0.00  0.00    -0.245 OA
ENDBRANCH   1  18
TORSDOF 6
ENDMDL
MODEL 5
REMARK VINA RESULT:      -6.1      4.481      6.780
REMARK  4 active torsions:
REMARK  status: ('A' for Active; 'I' for Inactive)
REMARK    1  A    between atoms: CB_1  and  CA_2 
REMARK       I    between atoms: CA_2  and  C_4 
REMARK       I    between atoms: CA_2  and  N_6 
REMARK       I    between atoms: N_6  and  C_7 
REMARK    2  A    between atoms: C_7  and  C_9 
REMARK    3  A    between atoms: C_9  and  O_10 
REMARK    4  A    between atoms: O_10  and  C_11 
ROOT
ATOM      1  O   UNK d   0       6.245  -5.542  -6.195  0.00  0.00    -0.483 OA
ENDROOT
BRANCH   1   2
ATOM      2  C   UNK d   0       5.051  -6.306  -6.368  0.00  0.00     0.165 C 
ATOM      3  H   UNK d   0       4.264  -5.900  -5.733  0.00  0.00     0.080 H 
ATOM      4  H   UNK d   0       4.737  -6.259  -7.411  0.00  0.00     0.080 H 
BRANCH   2   5
ATOM      5  C   UNK d   0       5.313  -7.741  -5.988  0.00  0.00     0.251 C 
ATOM      6  N   ALA d   1       4.786  -8.244  -4.852  0.00  0.00    -0.305 N 
ATOM      7  CA  ALA d   1       5.041  -9.638  -4.483  0.00  0.00     0.060 C 
ATOM      8  H   ALA d   1       4.240  -7.682  -4.281  0.00  0.00     0.149 HD
ATOM      9  HA  ALA d   1       5.087 -10.251  -5.382  0.00  0.00     0.056 H 
ATOM     10  C   ALA d   1       3.930 -10.133  -3.593  0.00  0.00     0.062 C 
ATOM     11  O   ALA d   1       3.018  -9.396  -3.300  0.00  0.00    -0.548 OA
ATOM     12  OXT ALA d   1       3.952 -11.391  -3.129  0.00  0.00    -0.548 OA
ATOM     13  O   UNK d   0       5.996  -8.443  -6.702  0.00  0.00    -0.272 OA
BRANCH   7  14
ATOM     14  CB  ALA d   1       6.373  -9.732  -3.734  0.00  0.00    -0.041 C 
ATOM     15  HB1 ALA d   1       6.316 -10.527  -2.991  0.00  0.00     0.025 H 
ATOM     16  HB2 ALA d   1       7.172  -9.950  -4.441  0.00  0.00     0.025 H 
ATOM     17  HB3 ALA d   1       6.577  -8.784  -3.235  0.00  0.00     0.025 H 
ENDBRANCH   7  14
ENDBRANCH   2   5
ENDBRANCH   1   2
BRANCH   1  18
ATOM     18  C   UNK d   0       6.171  -4.457  -5.383  0.00  0.00     0.125 A 
ATOM     19  C   UNK d   0       4.934  -3.933  -5.048  0.00  0.00     0.023 A 
ATOM     20  C   UNK d   0       4.857  -2.825  -4.218  0.00  0.00     0.142 A 
ATOM     21  H   UNK d   0       4.032  -4.386  -5.432  0.00  0.00     0.069 H 
ATOM     22  C   UNK d   0       6.041  -2.247  -3.726  0.00  0.00     0.018 A 
ATOM     23  O   UNK d   0       3.661  -2.297  -3.879  0.00  0.00    -0.422 OA
ATOM     24  C   UNK d   0       7.284  -2.789  -4.074  0.00  0.00    -0.048 A 
ATOM     25  C   UNK d   0       5.950  -1.076  -2.850  0.00  0.00    -0.044 A 
ATOM     26  C   UNK d   0       7.342  -3.883  -4.888  0.00  0.00    -0.019 A 
ATOM     27  H   UNK d   0       8.194  -2.347  -3.697  0.00  0.00     0.063 H 
ATOM     28  H   UNK d   0       8.300  -4.305  -5.153  0.00  0.00     0.065 H 
ATOM     29  C   UNK d   0       4.716  -0.596  -2.548  0.00  0.00     0.024 A 
ATOM     30  H   UNK d   0       6.839  -0.608  -2.454  0.00  0.00     0.063 H 
ATOM     31  C   UNK d   0       3.569  -1.225  -3.077  0.00  0.00     0.337 A 
ATOM     32  H   UNK d   0       4.612   0.265  -1.905  0.00  0.00     0.069 H 
ATOM     33  O   UNK d   0       2.469  -0.785  -2.798  0.00  0.00    -0.245 OA
ENDBRANCH   1  18
TORSDOF 6
ENDMDL
MODEL 6
REMARK VINA RESULT:      -6.0      4.649      6.807
REMARK  4 active torsions:
REMARK  status: ('A' for Active; 'I' for Inactive)
REMARK    1  A    between atoms: CB_1  and  CA_2 
REMARK       I    between atoms: CA_2  and  C_4 
REMARK       I    between atoms: CA_2  and  N_6 
REMARK       I    between atoms: N_6  and  C_7 
REMARK    2  A    between atoms: C_7  and  C_9 
REMARK    3  A    between atoms: C_9  and  O_10 
REMARK    4  A    between atoms: O_10  and  C_11 
ROOT
ATOM      1  O   UNK d   0       9.050  -0.044  -5.790  0.00  0.00    -0.483 OA
ENDROOT
BRANCH   1   2
ATOM      2  C   UNK d   0      10.328  -0.643  -5.569  0.00  0.00     0.165 C 
ATOM      3  H   UNK d   0      10.195  -1.624  -5.113  0.00  0.00     0.080 H 
ATOM      4  H   UNK d   0      10.848  -0.751  -6.520  0.00  0.00     0.080 H 
BRANCH   2   5
ATOM      5  C   UNK d   0      11.141   0.231  -4.649  0.00  0.00     0.251 C 
ATOM      6  N   ALA d   1      10.693   1.459  -4.316  0.00  0.00    -0.305 N 
ATOM      7  CA  ALA d   1      11.483   2.309  -3.423  0.00  0.00     0.060 C 
ATOM      8  H   ALA d   1       9.848   1.779  -4.670  0.00  0.00     0.149 HD
ATOM      9  HA  ALA d   1      11.983   1.690  -2.679  0.00  0.00     0.056 H 
ATOM     10  C   ALA d   1      10.574   3.291  -2.730  0.00  0.00     0.062 C 
ATOM     11  O   ALA d   1       9.387   3.281  -2.959  0.00  0.00    -0.548 OA
ATOM     12  OXT ALA d   1      11.082   4.176  -1.858  0.00  0.00    -0.548 OA
ATOM     13  O   UNK d   0      12.197  -0.169  -4.207  0.00  0.00    -0.272 OA
BRANCH   7  14
ATOM     14  CB  ALA d   1      12.530   3.072  -4.238  0.00  0.00    -0.041 C 
ATOM     15  HB1 ALA d   1      13.522   2.870  -3.834  0.00  0.00     0.025 H 
ATOM     16  HB2 ALA d   1      12.488   2.748  -5.277  0.00  0.00     0.025 H 
ATOM     17  HB3 ALA d   1      12.326   4.142  -4.181  0.00  0.00     0.025 H 
ENDBRANCH   7  14
ENDBRANCH   2   5
ENDBRANCH   1   2
BRANCH   1  18
ATOM     18  C   UNK d   0       8.041  -0.419  -4.964  0.00  0.00     0.125 A 
ATOM     19  C   UNK d   0       7.131   0.524  -4.518  0.00  0.00     0.023 A 
ATOM     20  C   UNK d   0       6.099   0.141  -3.674  0.00  0.00     0.142 A 
ATOM     21  H   UNK d   0       7.224   1.555  -4.827  0.00  0.00     0.069 H 
ATOM     22  C   UNK d   0       5.992  -1.205  -3.281  0.00  0.00     0.018 A 
ATOM     23  O   UNK d   0       5.200   1.045  -3.227  0.00  0.00    -0.422 OA
ATOM     24  C   UNK d   0       6.921  -2.146  -3.741  0.00  0.00    -0.048 A 
ATOM     25  C   UNK d   0       4.899  -1.600  -2.389  0.00  0.00    -0.044 A 
ATOM     26  C   UNK d   0       7.926  -1.754  -4.575  0.00  0.00    -0.019 A 
ATOM     27  H   UNK d   0       6.840  -3.180  -3.441  0.00  0.00     0.063 H 
ATOM     28  H   UNK d   0       8.641  -2.480  -4.934  0.00  0.00     0.065 H 
ATOM     29  C   UNK d   0       4.029  -0.641  -1.977  0.00  0.00     0.024 A 
ATOM     30  H   UNK d   0       4.787  -2.625  -2.069  0.00  0.00     0.063 H 
ATOM     31  C   UNK d   0       4.196   0.690  -2.411  0.00  0.00     0.337 A 
ATOM     32  H   UNK d   0       3.212  -0.899  -1.320  0.00  0.00     0.069 H 
ATOM     33  O   UNK d   0       3.410   1.540  -2.034  0.00  0.00    -0.245 OA
ENDBRANCH   1  18
TORSDOF 6
ENDMDL
MODEL 7
REMARK VINA RESULT:      -6.0      5.398      7.526
REMARK  4 active torsions:
REMARK  status: ('A' for Active; 'I' for Inactive)
REMARK    1  A    between atoms: CB_1  and  CA_2 
REMARK       I    between atoms: CA_2  and  C_4 
REMARK       I    between atoms: CA_2  and  N_6 
REMARK       I    between atoms: N_6  and  C_7 
REMARK    2  A    between atoms: C_7  and  C_9 
REMARK    3  A    between atoms: C_9  and  O_10 
REMARK    4  A    between atoms: O_10  and  C_11 
ROOT
ATOM      1  O   UNK d   0       9.099   1.352  -4.277  0.00  0.00    -0.483 OA
ENDROOT
BRANCH   1   2
ATOM      2  C   UNK d   0       7.873   1.145  -4.981  0.00  0.00     0.165 C 
ATOM      3  H   UNK d   0       7.454   2.107  -5.273  0.00  0.00     0.080 H 
ATOM      4  H   UNK d   0       8.064   0.546  -5.872  0.00  0.00     0.080 H 
BRANCH   2   5
ATOM      5  C   UNK d   0       6.897   0.421  -4.089  0.00  0.00     0.251 C 
ATOM      6  N   ALA d   1       5.587   0.735  -4.131  0.00  0.00    -0.305 N 
ATOM      7  CA  ALA d   1       4.638   0.032  -3.264  0.00  0.00     0.060 C 
ATOM      8  H   ALA d   1       5.273   1.426  -4.734  0.00  0.00     0.149 HD
ATOM      9  HA  ALA d   1       4.949  -1.006  -3.151  0.00  0.00     0.056 H 
ATOM     10  C   ALA d   1       3.263   0.081  -3.879  0.00  0.00     0.062 C 
ATOM     11  O   ALA d   1       3.094   0.645  -4.935  0.00  0.00    -0.548 OA
ATOM     12  OXT ALA d   1       2.228  -0.502  -3.256  0.00  0.00    -0.548 OA
ATOM     13  O   UNK d   0       7.290  -0.443  -3.334  0.00  0.00    -0.272 OA
BRANCH   7  14
ATOM     14  CB  ALA d   1       4.606   0.707  -1.890  0.00  0.00    -0.041 C 
ATOM     15  HB1 ALA d   1       5.455   0.366  -1.298  0.00  0.00     0.025 H 
ATOM     16  HB2 ALA d   1       4.660   1.788  -2.016  0.00  0.00     0.025 H 
ATOM     17  HB3 ALA d   1       3.679   0.445  -1.379  0.00  0.00     0.025 H 
ENDBRANCH   7  14
ENDBRANCH   2   5
ENDBRANCH   1   2
BRANCH   1  18
ATOM     18  C   UNK d   0       9.424   2.633  -3.969  0.00  0.00     0.125 A 
ATOM     19  C   UNK d   0      10.180   2.898  -2.840  0.00  0.00     0.023 A 
ATOM     20  C   UNK d   0      10.514   4.207  -2.525  0.00  0.00     0.142 A 
ATOM     21  H   UNK d   0      10.511   2.088  -2.207  0.00  0.00     0.069 H 
ATOM     22  C   UNK d   0      10.076   5.251  -3.361  0.00  0.00     0.018 A 
ATOM     23  O   UNK d   0      11.251   4.488  -1.429  0.00  0.00    -0.422 OA
ATOM     24  C   UNK d   0       9.312   4.966  -4.498  0.00  0.00    -0.048 A 
ATOM     25  C   UNK d   0      10.433   6.631  -3.020  0.00  0.00    -0.044 A 
ATOM     26  C   UNK d   0       8.998   3.672  -4.797  0.00  0.00    -0.019 A 
ATOM     27  H   UNK d   0       8.976   5.766  -5.141  0.00  0.00     0.063 H 
ATOM     28  H   UNK d   0       8.412   3.451  -5.676  0.00  0.00     0.065 H 
ATOM     29  C   UNK d   0      11.177   6.843  -1.903  0.00  0.00     0.024 A 
ATOM     30  H   UNK d   0      10.115   7.456  -3.639  0.00  0.00     0.063 H 
ATOM     31  C   UNK d   0      11.582   5.749  -1.111  0.00  0.00     0.337 A 
ATOM     32  H   UNK d   0      11.458   7.848  -1.624  0.00  0.00     0.069 H 
ATOM     33  O   UNK d   0      12.248   5.954  -0.113  0.00  0.00    -0.245 OA
ENDBRANCH   1  18
TORSDOF 6
ENDMDL
MODEL 8
REMARK VINA RESULT:      -6.0      5.289      8.086
REMARK  4 active torsions:
REMARK  status: ('A' for Active; 'I' for Inactive)
REMARK    1  A    between atoms: CB_1  and  CA_2 
REMARK       I    between atoms: CA_2  and  C_4 
REMARK       I    between atoms: CA_2  and  N_6 
REMARK       I    between atoms: N_6  and  C_7 
REMARK    2  A    between atoms: C_7  and  C_9 
REMARK    3  A    between atoms: C_9  and  O_10 
REMARK    4  A    between atoms: O_10  and  C_11 
ROOT
ATOM      1  O   UNK d   0       9.631   2.557  -5.311  0.00  0.00    -0.483 OA
ENDROOT
BRANCH   1   2
ATOM      2  C   UNK d   0      10.929   2.611  -4.716  0.00  0.00     0.165 C 
ATOM      3  H   UNK d   0      11.342   1.605  -4.653  0.00  0.00     0.080 H 
ATOM      4  H   UNK d   0      11.582   3.235  -5.327  0.00  0.00     0.080 H 
BRANCH   2   5
ATOM      5  C   UNK d   0      10.823   3.199  -3.333  0.00  0.00     0.251 C 
ATOM      6  N   ALA d   1      10.660   4.528  -3.176  0.00  0.00    -0.305 N 
ATOM      7  CA  ALA d   1      10.558   5.099  -1.831  0.00  0.00     0.060 C 
ATOM      8  H   ALA d   1      10.612   5.105  -3.953  0.00  0.00     0.149 HD
ATOM      9  HA  ALA d   1      10.030   4.403  -1.179  0.00  0.00     0.056 H 
ATOM     10  C   ALA d   1       9.800   6.400  -1.894  0.00  0.00     0.062 C 
ATOM     11  O   ALA d   1       9.388   6.808  -2.954  0.00  0.00    -0.548 OA
ATOM     12  OXT ALA d   1       9.582   7.105  -0.773  0.00  0.00    -0.548 OA
ATOM     13  O   UNK d   0      10.883   2.476  -2.360  0.00  0.00    -0.272 OA
BRANCH   7  14
ATOM     14  CB  ALA d   1      11.961   5.353  -1.276  0.00  0.00    -0.041 C 
ATOM     15  HB1 ALA d   1      11.896   5.574  -0.210  0.00  0.00     0.025 H 
ATOM     16  HB2 ALA d   1      12.577   4.467  -1.426  0.00  0.00     0.025 H 
ATOM     17  HB3 ALA d   1      12.409   6.200  -1.796  0.00  0.00     0.025 H 
ENDBRANCH   7  14
ENDBRANCH   2   5
ENDBRANCH   1   2
BRANCH   1  18
ATOM     18  C   UNK d   0       8.765   1.636  -4.818  0.00  0.00     0.125 A 
ATOM     19  C   UNK d   0       7.704   2.045  -4.027  0.00  0.00     0.023 A 
ATOM     20  C   UNK d   0       6.817   1.105  -3.523  0.00  0.00     0.142 A 
ATOM     21  H   UNK d   0       7.566   3.093  -3.806  0.00  0.00     0.069 H 
ATOM     22  C   UNK d   0       7.010  -0.255  -3.821  0.00  0.00     0.018 A 
ATOM     23  O   UNK d   0       5.776   1.483  -2.750  0.00  0.00    -0.422 OA
ATOM     24  C   UNK d   0       8.088  -0.652  -4.622  0.00  0.00    -0.048 A 
ATOM     25  C   UNK d   0       6.069  -1.241  -3.284  0.00  0.00    -0.044 A 
ATOM     26  C   UNK d   0       8.947   0.286  -5.115  0.00  0.00    -0.019 A 
ATOM     27  H   UNK d   0       8.237  -1.697  -4.853  0.00  0.00     0.063 H 
ATOM     28  H   UNK d   0       9.776  -0.019  -5.736  0.00  0.00     0.065 H 
ATOM     29  C   UNK d   0       5.042  -0.794  -2.514  0.00  0.00     0.024 A 
ATOM     30  H   UNK d   0       6.186  -2.293  -3.494  0.00  0.00     0.063 H 
ATOM     31  C   UNK d   0       4.910   0.586  -2.254  0.00  0.00     0.337 A 
ATOM     32  H   UNK d   0       4.331  -1.493  -2.102  0.00  0.00     0.069 H 
ATOM     33  O   UNK d   0       3.986   0.973  -1.563  0.00  0.00    -0.245 OA
ENDBRANCH   1  18
TORSDOF 6
ENDMDL
MODEL 9
REMARK VINA RESULT:      -6.0      2.054      2.827
REMARK  4 active torsions:
REMARK  status: ('A' for Active; 'I' for Inactive)
REMARK    1  A    between atoms: CB_1  and  CA_2 
REMARK       I    between atoms: CA_2  and  C_4 
REMARK       I    between atoms: CA_2  and  N_6 
REMARK       I    between atoms: N_6  and  C_7 
REMARK    2  A    between atoms: C_7  and  C_9 
REMARK    3  A    between atoms: C_9  and  O_10 
REMARK    4  A    between atoms: O_10  and  C_11 
ROOT
ATOM      1  O   UNK d   0       4.751  -1.397  -8.241  0.00  0.00    -0.483 OA
ENDROOT
BRANCH   1   2
ATOM      2  C   UNK d   0       4.912  -0.072  -8.752  0.00  0.00     0.165 C 
ATOM      3  H   UNK d   0       4.598   0.648  -7.997  0.00  0.00     0.080 H 
ATOM      4  H   UNK d   0       5.960   0.095  -9.001  0.00  0.00     0.080 H 
BRANCH   2   5
ATOM      5  C   UNK d   0       4.069   0.095  -9.989  0.00  0.00     0.251 C 
ATOM      6  N   ALA d   1       3.262  -0.907 -10.395  0.00  0.00    -0.305 N 
ATOM      7  CA  ALA d   1       2.443  -0.744 -11.598  0.00  0.00     0.060 C 
ATOM      8  H   ALA d   1       3.226  -1.734  -9.891  0.00  0.00     0.149 HD
ATOM      9  HA  ALA d   1       2.111   0.291 -11.676  0.00  0.00     0.056 H 
ATOM     10  C   ALA d   1       1.242  -1.652 -11.515  0.00  0.00     0.062 C 
ATOM     11  O   ALA d   1       1.088  -2.361 -10.549  0.00  0.00    -0.548 OA
ATOM     12  OXT ALA d   1       0.345  -1.672 -12.512  0.00  0.00    -0.548 OA
ATOM     13  O   UNK d   0       4.115   1.130 -10.620  0.00  0.00    -0.272 OA
BRANCH   7  14
ATOM     14  CB  ALA d   1       3.271  -1.107 -12.833  0.00  0.00    -0.041 C 
ATOM     15  HB1 ALA d   1       3.559  -2.157 -12.782  0.00  0.00     0.025 H 
ATOM     16  HB2 ALA d   1       2.678  -0.936 -13.731  0.00  0.00     0.025 H 
ATOM     17  HB3 ALA d   1       4.167  -0.486 -12.865  0.00  0.00     0.025 H 
ENDBRANCH   7  14
ENDBRANCH   2   5
ENDBRANCH   1   2
BRANCH   1  18
ATOM     18  C   UNK d   0       4.648  -1.530  -6.894  0.00  0.00     0.125 A 
ATOM     19  C   UNK d   0       4.362  -0.423  -6.114  0.00  0.00     0.023 A 
ATOM     20  C   UNK d   0       4.255  -0.558  -4.738  0.00  0.00     0.142 A 
ATOM     21  H   UNK d   0       4.221   0.543  -6.576  0.00  0.00     0.069 H 
ATOM     22  C   UNK d   0       4.440  -1.823  -4.152  0.00  0.00     0.018 A 
ATOM     23  O   UNK d   0       3.977   0.510  -3.959  0.00  0.00    -0.422 OA
ATOM     24  C   UNK d   0       4.729  -2.933  -4.955  0.00  0.00    -0.048 A 
ATOM     25  C   UNK d   0       4.326  -1.956  -2.698  0.00  0.00    -0.044 A 
ATOM     26  C   UNK d   0       4.825  -2.783  -6.308  0.00  0.00    -0.019 A 
ATOM     27  H   UNK d   0       4.871  -3.905  -4.507  0.00  0.00     0.063 H 
ATOM     28  H   UNK d   0       5.044  -3.639  -6.929  0.00  0.00     0.065 H 
ATOM     29  C   UNK d   0       4.044  -0.843  -1.972  0.00  0.00     0.024 A 
ATOM     30  H   UNK d   0       4.462  -2.912  -2.215  0.00  0.00     0.063 H 
ATOM     31  C   UNK d   0       3.870   0.395  -2.626  0.00  0.00     0.337 A 
ATOM     32  H   UNK d   0       3.952  -0.905  -0.898  0.00  0.00     0.069 H 
ATOM     33  O   UNK d   0       3.617   1.385  -1.964  0.00  0.00    -0.245 OA
ENDBRANCH   1  18
TORSDOF 6
ENDMDL
MODEL 10
REMARK VINA RESULT:      -5.9      4.898      7.275
REMARK  4 active torsions:
REMARK  status: ('A' for Active; 'I' for Inactive)
REMARK    1  A    between atoms: CB_1  and  CA_2 
REMARK       I    between atoms: CA_2  and  C_4 
REMARK       I    between atoms: CA_2  and  N_6 
REMARK       I    between atoms: N_6  and  C_7 
REMARK    2  A    between atoms: C_7  and  C_9 
REMARK    3  A    between atoms: C_9  and  O_10 
REMARK    4  A    between atoms: O_10  and  C_11 
ROOT
ATOM      1  O   UNK d   0       9.269  -0.419  -5.723  0.00  0.00    -0.483 OA
ENDROOT
BRANCH   1   2
ATOM      2  C   UNK d   0      10.566  -0.536  -5.136  0.00  0.00     0.165 C 
ATOM      3  H   UNK d   0      11.293  -0.007  -5.752  0.00  0.00     0.080 H 
ATOM      4  H   UNK d   0      10.552  -0.101  -4.136  0.00  0.00     0.080 H 
BRANCH   2   5
ATOM      5  C   UNK d   0      10.947  -1.991  -5.045  0.00  0.00     0.251 C 
ATOM      6  N   ALA d   1      10.811  -2.652  -3.878  0.00  0.00    -0.305 N 
ATOM      7  CA  ALA d   1      11.182  -4.066  -3.790  0.00  0.00     0.060 C 
ATOM      8  H   ALA d   1      10.469  -2.190  -3.097  0.00  0.00     0.149 HD
ATOM      9  HA  ALA d   1      10.946  -4.564  -4.730  0.00  0.00     0.056 H 
ATOM     10  C   ALA d   1      10.412  -4.718  -2.670  0.00  0.00     0.062 C 
ATOM     11  O   ALA d   1       9.633  -4.068  -2.014  0.00  0.00    -0.548 OA
ATOM     12  OXT ALA d   1      10.591  -6.021  -2.403  0.00  0.00    -0.548 OA
ATOM     13  O   UNK d   0      11.376  -2.568  -6.022  0.00  0.00    -0.272 OA
BRANCH   7  14
ATOM     14  CB  ALA d   1      12.682  -4.184  -3.513  0.00  0.00    -0.041 C 
ATOM     15  HB1 ALA d   1      12.999  -3.364  -2.868  0.00  0.00     0.025 H 
ATOM     16  HB2 ALA d   1      12.887  -5.134  -3.019  0.00  0.00     0.025 H 
ATOM     17  HB3 ALA d   1      13.230  -4.137  -4.454  0.00  0.00     0.025 H 
ENDBRANCH   7  14
ENDBRANCH   2   5
ENDBRANCH   1   2
BRANCH   1  18
ATOM     18  C   UNK d   0       8.232  -0.169  -4.883  0.00  0.00     0.125 A 
ATOM     19  C   UNK d   0       7.347  -1.184  -4.564  0.00  0.00     0.023 A 
ATOM     20  C   UNK d   0       6.287  -0.931  -3.705  0.00  0.00     0.142 A 
ATOM     21  H   UNK d   0       7.481  -2.172  -4.980  0.00  0.00     0.069 H 
ATOM     22  C   UNK d   0       6.127   0.361  -3.170  0.00  0.00     0.018 A 
ATOM     23  O   UNK d   0       5.412  -1.907  -3.380  0.00  0.00    -0.422 OA
ATOM     24  C   UNK d   0       7.031   1.376  -3.504  0.00  0.00    -0.048 A 
ATOM     25  C   UNK d   0       5.004   0.619  -2.265  0.00  0.00    -0.044 A 
ATOM     26  C   UNK d   0       8.071   1.107  -4.345  0.00  0.00    -0.019 A 
ATOM     27  H   UNK d   0       6.909   2.367  -3.094  0.00  0.00     0.063 H 
ATOM     28  H   UNK d   0       8.771   1.889  -4.600  0.00  0.00     0.065 H 
ATOM     29  C   UNK d   0       4.161  -0.407  -1.979  0.00  0.00     0.024 A 
ATOM     30  H   UNK d   0       4.852   1.598  -1.836  0.00  0.00     0.063 H 
ATOM     31  C   UNK d   0       4.382  -1.677  -2.551  0.00  0.00     0.337 A 
ATOM     32  H   UNK d   0       3.324  -0.250  -1.315  0.00  0.00     0.069 H 
ATOM     33  O   UNK d   0       3.619  -2.587  -2.286  0.00  0.00    -0.245 OA
ENDBRANCH   1  18
TORSDOF 6
ENDMDL
