MODEL 1
REMARK VINA RESULT:      -7.0      0.000      0.000
REMARK  4 active torsions:
REMARK  status: ('A' for Active; 'I' for Inactive)
REMARK    1  A    between atoms: C_1  and  C_2 
REMARK    2  A    between atoms: C_2  and  C_3 
REMARK    3  A    between atoms: N_15  and  C_18 
REMARK    4  A    between atoms: C_18  and  C_19 
ROOT
ATOM      1  C   LIG d   1      10.310   5.751  -5.138  0.00  0.00    -0.030 A 
ATOM      2  C   LIG d   1      10.406   6.012  -3.809  0.00  0.00     0.027 A 
ATOM      3  C   LIG d   1       9.953   5.060  -2.872  0.00  0.00     0.338 A 
ATOM      4  O   LIG d   1      10.046   5.308  -1.683  0.00  0.00    -0.245 OA
ATOM      5  O   LIG d   1       9.423   3.890  -3.256  0.00  0.00    -0.422 OA
ATOM      6  C   LIG d   1       9.300   3.567  -4.562  0.00  0.00     0.147 A 
ATOM      7  C   LIG d   1       9.726   4.473  -5.550  0.00  0.00     0.021 A 
ATOM      8  C   LIG d   1       9.593   4.144  -6.904  0.00  0.00    -0.047 A 
ATOM      9  C   LIG d   1       9.046   2.947  -7.260  0.00  0.00    -0.019 A 
ATOM     10  C   LIG d   1       8.618   2.044  -6.284  0.00  0.00     0.130 A 
ATOM     11  C   LIG d   1       8.754   2.348  -4.941  0.00  0.00     0.051 A 
ATOM     12  C   LIG d   1       8.303   1.378  -3.879  0.00  0.00     0.034 C 
ATOM     13  N   LIG d   1       7.407   0.376  -4.473  0.00  0.00    -0.262 N 
ATOM     14  C   LIG d   1       8.011  -0.183  -5.693  0.00  0.00     0.144 C 
ATOM     15  O   LIG d   1       8.076   0.861  -6.676  0.00  0.00    -0.476 OA
ATOM     16  H   LIG d   1      10.828   6.947  -3.470  0.00  0.00     0.069 H 
ATOM     17  H   LIG d   1       9.922   4.837  -7.665  0.00  0.00     0.063 H 
ATOM     18  H   LIG d   1       8.943   2.694  -8.304  0.00  0.00     0.065 H 
ATOM     19  H   LIG d   1       9.173   0.880  -3.451  0.00  0.00     0.048 H 
ATOM     20  H   LIG d   1       7.774   1.920  -3.095  0.00  0.00     0.048 H 
ATOM     21  H   LIG d   1       9.010  -0.557  -5.468  0.00  0.00     0.087 H 
ATOM     22  H   LIG d   1       7.389  -0.996  -6.070  0.00  0.00     0.087 H 
ENDROOT
BRANCH  13  23
ATOM     23  C   LIG d   1       7.090  -0.684  -3.508  0.00  0.00     0.027 C 
ATOM     24  H   LIG d   1       7.504  -1.629  -3.857  0.00  0.00     0.048 H 
ATOM     25  H   LIG d   1       7.521  -0.435  -2.539  0.00  0.00     0.048 H 
BRANCH  23  26
ATOM     26  C   LIG d   1       5.594  -0.811  -3.375  0.00  0.00    -0.032 A 
ATOM     27  C   LIG d   1       4.763   0.006  -4.116  0.00  0.00    -0.039 A 
ATOM     28  C   LIG d   1       3.389  -0.115  -3.998  0.00  0.00     0.041 A 
ATOM     29  H   LIG d   1       5.184   0.737  -4.790  0.00  0.00     0.064 H 
ATOM     30  C   LIG d   1       2.849  -1.047  -3.130  0.00  0.00    -0.043 A 
ATOM     31 CL   LIG d   1       2.343   0.907  -4.934  0.00  0.00    -0.084 Cl
ATOM     32  C   LIG d   1       3.682  -1.860  -2.385  0.00  0.00    -0.060 A 
ATOM     33  H   LIG d   1       1.778  -1.139  -3.034  0.00  0.00     0.063 H 
ATOM     34  C   LIG d   1       5.054  -1.743  -2.508  0.00  0.00    -0.057 A 
ATOM     35  H   LIG d   1       3.261  -2.588  -1.706  0.00  0.00     0.062 H 
ATOM     36  H   LIG d   1       5.705  -2.379  -1.926  0.00  0.00     0.062 H 
ENDBRANCH  23  26
ENDBRANCH  13  23
BRANCH   1  37
ATOM     37  C   LIG d   1      10.786   6.751  -6.160  0.00  0.00    -0.030 C 
ATOM     38  H   LIG d   1      10.994   6.240  -7.100  0.00  0.00     0.031 H 
ATOM     39  H   LIG d   1      11.694   7.234  -5.800  0.00  0.00     0.031 H 
BRANCH  37  40
ATOM     40  C   LIG d   1       9.701   7.807  -6.384  0.00  0.00    -0.061 C 
ATOM     41  H   LIG d   1       9.185   7.604  -7.323  0.00  0.00     0.023 H 
ATOM     42  H   LIG d   1       8.987   7.774  -5.561  0.00  0.00     0.023 H 
ATOM     43  H   LIG d   1      10.160   8.795  -6.428  0.00  0.00     0.023 H 
ENDBRANCH  37  40
ENDBRANCH   1  37
TORSDOF 4
ENDMDL
MODEL 2
REMARK VINA RESULT:      -7.0      6.404      8.729
REMARK  4 active torsions:
REMARK  status: ('A' for Active; 'I' for Inactive)
REMARK    1  A    between atoms: C_1  and  C_2 
REMARK    2  A    between atoms: C_2  and  C_3 
REMARK    3  A    between atoms: N_15  and  C_18 
REMARK    4  A    between atoms: C_18  and  C_19 
ROOT
ATOM      1  C   LIG d   1       4.289  -2.103  -3.862  0.00  0.00    -0.030 A 
ATOM      2  C   LIG d   1       5.179  -3.045  -4.269  0.00  0.00     0.027 A 
ATOM      3  C   LIG d   1       5.669  -3.022  -5.591  0.00  0.00     0.338 A 
ATOM      4  O   LIG d   1       6.467  -3.873  -5.942  0.00  0.00    -0.245 OA
ATOM      5  O   LIG d   1       5.278  -2.090  -6.472  0.00  0.00    -0.422 OA
ATOM      6  C   LIG d   1       4.397  -1.123  -6.131  0.00  0.00     0.147 A 
ATOM      7  C   LIG d   1       3.865  -1.090  -4.830  0.00  0.00     0.021 A 
ATOM      8  C   LIG d   1       2.946  -0.095  -4.476  0.00  0.00    -0.047 A 
ATOM      9  C   LIG d   1       2.568   0.836  -5.398  0.00  0.00    -0.019 A 
ATOM     10  C   LIG d   1       3.090   0.807  -6.693  0.00  0.00     0.130 A 
ATOM     11  C   LIG d   1       4.009  -0.163  -7.055  0.00  0.00     0.051 A 
ATOM     12  C   LIG d   1       4.586  -0.200  -8.447  0.00  0.00     0.034 C 
ATOM     13  N   LIG d   1       3.758   0.614  -9.347  0.00  0.00    -0.262 N 
ATOM     14  C   LIG d   1       3.508   1.936  -8.749  0.00  0.00     0.144 C 
ATOM     15  O   LIG d   1       2.689   1.750  -7.585  0.00  0.00    -0.476 OA
ATOM     16  H   LIG d   1       5.512  -3.809  -3.581  0.00  0.00     0.069 H 
ATOM     17  H   LIG d   1       2.537  -0.065  -3.477  0.00  0.00     0.063 H 
ATOM     18  H   LIG d   1       1.858   1.603  -5.125  0.00  0.00     0.065 H 
ATOM     19  H   LIG d   1       5.601   0.197  -8.429  0.00  0.00     0.048 H 
ATOM     20  H   LIG d   1       4.606  -1.230  -8.803  0.00  0.00     0.048 H 
ATOM     21  H   LIG d   1       4.456   2.399  -8.477  0.00  0.00     0.087 H 
ATOM     22  H   LIG d   1       2.981   2.568  -9.464  0.00  0.00     0.087 H 
ENDROOT
BRANCH  13  23
ATOM     23  C   LIG d   1       4.386   0.744 -10.668  0.00  0.00     0.027 C 
ATOM     24  H   LIG d   1       4.316   1.778 -11.004  0.00  0.00     0.048 H 
ATOM     25  H   LIG d   1       5.435   0.454 -10.601  0.00  0.00     0.048 H 
BRANCH  23  26
ATOM     26  C   LIG d   1       3.677  -0.152 -11.651  0.00  0.00    -0.032 A 
ATOM     27  C   LIG d   1       4.274  -0.461 -12.858  0.00  0.00    -0.039 A 
ATOM     28  C   LIG d   1       3.625  -1.288 -13.758  0.00  0.00     0.041 A 
ATOM     29  H   LIG d   1       5.248  -0.060 -13.098  0.00  0.00     0.064 H 
ATOM     30  C   LIG d   1       2.375  -1.796 -13.454  0.00  0.00    -0.043 A 
ATOM     31 CL   LIG d   1       4.376  -1.682 -15.273  0.00  0.00    -0.084 Cl
ATOM     32  C   LIG d   1       1.777  -1.480 -12.248  0.00  0.00    -0.060 A 
ATOM     33  H   LIG d   1       1.866  -2.437 -14.158  0.00  0.00     0.063 H 
ATOM     34  C   LIG d   1       2.428  -0.660 -11.346  0.00  0.00    -0.057 A 
ATOM     35  H   LIG d   1       0.801  -1.877 -12.010  0.00  0.00     0.062 H 
ATOM     36  H   LIG d   1       1.960  -0.414 -10.404  0.00  0.00     0.062 H 
ENDBRANCH  23  26
ENDBRANCH  13  23
BRANCH   1  37
ATOM     37  C   LIG d   1       3.750  -2.104  -2.454  0.00  0.00    -0.030 C 
ATOM     38  H   LIG d   1       3.881  -3.093  -2.016  0.00  0.00     0.031 H 
ATOM     39  H   LIG d   1       2.691  -1.851  -2.471  0.00  0.00     0.031 H 
BRANCH  37  40
ATOM     40  C   LIG d   1       4.508  -1.071  -1.617  0.00  0.00    -0.061 C 
ATOM     41  H   LIG d   1       5.474  -1.480  -1.323  0.00  0.00     0.023 H 
ATOM     42  H   LIG d   1       4.660  -0.167  -2.206  0.00  0.00     0.023 H 
ATOM     43  H   LIG d   1       3.929  -0.831  -0.726  0.00  0.00     0.023 H 
ENDBRANCH  37  40
ENDBRANCH   1  37
TORSDOF 4
ENDMDL
MODEL 3
REMARK VINA RESULT:      -6.9      5.179      7.780
REMARK  4 active torsions:
REMARK  status: ('A' for Active; 'I' for Inactive)
REMARK    1  A    between atoms: C_1  and  C_2 
REMARK    2  A    between atoms: C_2  and  C_3 
REMARK    3  A    between atoms: N_15  and  C_18 
REMARK    4  A    between atoms: C_18  and  C_19 
ROOT
ATOM      1  C   LIG d   1       2.206  -0.795  -9.901  0.00  0.00    -0.030 A 
ATOM      2  C   LIG d   1       2.364   0.481  -9.462  0.00  0.00     0.027 A 
ATOM      3  C   LIG d   1       3.143   0.736  -8.314  0.00  0.00     0.338 A 
ATOM      4  O   LIG d   1       3.277   1.885  -7.932  0.00  0.00    -0.245 OA
ATOM      5  O   LIG d   1       3.738  -0.253  -7.631  0.00  0.00    -0.422 OA
ATOM      6  C   LIG d   1       3.622  -1.543  -8.015  0.00  0.00     0.147 A 
ATOM      7  C   LIG d   1       2.856  -1.870  -9.148  0.00  0.00     0.021 A 
ATOM      8  C   LIG d   1       2.727  -3.206  -9.544  0.00  0.00    -0.047 A 
ATOM      9  C   LIG d   1       3.344  -4.187  -8.824  0.00  0.00    -0.019 A 
ATOM     10  C   LIG d   1       4.104  -3.871  -7.697  0.00  0.00     0.130 A 
ATOM     11  C   LIG d   1       4.251  -2.553  -7.299  0.00  0.00     0.051 A 
ATOM     12  C   LIG d   1       5.075  -2.198  -6.089  0.00  0.00     0.034 C 
ATOM     13  N   LIG d   1       5.294  -3.398  -5.270  0.00  0.00    -0.262 N 
ATOM     14  C   LIG d   1       5.767  -4.508  -6.114  0.00  0.00     0.144 C 
ATOM     15  O   LIG d   1       4.702  -4.875  -7.004  0.00  0.00    -0.476 OA
ATOM     16  H   LIG d   1       1.896   1.298  -9.991  0.00  0.00     0.069 H 
ATOM     17  H   LIG d   1       2.142  -3.460 -10.415  0.00  0.00     0.063 H 
ATOM     18  H   LIG d   1       3.243  -5.218  -9.129  0.00  0.00     0.065 H 
ATOM     19  H   LIG d   1       6.037  -1.798  -6.411  0.00  0.00     0.048 H 
ATOM     20  H   LIG d   1       4.549  -1.447  -5.500  0.00  0.00     0.048 H 
ATOM     21  H   LIG d   1       6.643  -4.190  -6.679  0.00  0.00     0.087 H 
ATOM     22  H   LIG d   1       6.023  -5.362  -5.486  0.00  0.00     0.087 H 
ENDROOT
BRANCH  13  23
ATOM     23  C   LIG d   1       6.238  -3.127  -4.179  0.00  0.00     0.027 C 
ATOM     24  H   LIG d   1       6.171  -3.920  -3.435  0.00  0.00     0.048 H 
ATOM     25  H   LIG d   1       7.252  -3.086  -4.577  0.00  0.00     0.048 H 
BRANCH  23  26
ATOM     26  C   LIG d   1       5.896  -1.807  -3.535  0.00  0.00    -0.032 A 
ATOM     27  C   LIG d   1       6.644  -0.683  -3.826  0.00  0.00    -0.039 A 
ATOM     28  C   LIG d   1       6.327   0.529  -3.240  0.00  0.00     0.041 A 
ATOM     29  H   LIG d   1       7.474  -0.750  -4.514  0.00  0.00     0.064 H 
ATOM     30  C   LIG d   1       5.268   0.613  -2.355  0.00  0.00    -0.043 A 
ATOM     31 CL   LIG d   1       7.262   1.945  -3.610  0.00  0.00    -0.084 Cl
ATOM     32  C   LIG d   1       4.524  -0.514  -2.060  0.00  0.00    -0.060 A 
ATOM     33  H   LIG d   1       5.022   1.558  -1.893  0.00  0.00     0.063 H 
ATOM     34  C   LIG d   1       4.837  -1.724  -2.650  0.00  0.00    -0.057 A 
ATOM     35  H   LIG d   1       3.696  -0.450  -1.368  0.00  0.00     0.062 H 
ATOM     36  H   LIG d   1       4.255  -2.604  -2.420  0.00  0.00     0.062 H 
ENDBRANCH  23  26
ENDBRANCH  13  23
BRANCH   1  37
ATOM     37  C   LIG d   1       1.379  -1.096 -11.124  0.00  0.00    -0.030 C 
ATOM     38  H   LIG d   1       0.655  -0.296 -11.279  0.00  0.00     0.031 H 
ATOM     39  H   LIG d   1       0.852  -2.039 -10.984  0.00  0.00     0.031 H 
BRANCH  37  40
ATOM     40  C   LIG d   1       2.295  -1.199 -12.345  0.00  0.00    -0.061 C 
ATOM     41  H   LIG d   1       2.473  -2.249 -12.577  0.00  0.00     0.023 H 
ATOM     42  H   LIG d   1       1.820  -0.714 -13.198  0.00  0.00     0.023 H 
ATOM     43  H   LIG d   1       3.244  -0.709 -12.130  0.00  0.00     0.023 H 
ENDBRANCH  37  40
ENDBRANCH   1  37
TORSDOF 4
ENDMDL
MODEL 4
REMARK VINA RESULT:      -6.8      1.551      1.907
REMARK  4 active torsions:
REMARK  status: ('A' for Active; 'I' for Inactive)
REMARK    1  A    between atoms: C_1  and  C_2 
REMARK    2  A    between atoms: C_2  and  C_3 
REMARK    3  A    between atoms: N_15  and  C_18 
REMARK    4  A    between atoms: C_18  and  C_19 
ROOT
ATOM      1  C   LIG d   1      10.632   6.879  -4.096  0.00  0.00    -0.030 A 
ATOM      2  C   LIG d   1      10.683   6.882  -2.739  0.00  0.00     0.027 A 
ATOM      3  C   LIG d   1      10.271   5.741  -2.019  0.00  0.00     0.338 A 
ATOM      4  O   LIG d   1      10.322   5.757  -0.802  0.00  0.00    -0.245 OA
ATOM      5  O   LIG d   1       9.823   4.640  -2.639  0.00  0.00    -0.422 OA
ATOM      6  C   LIG d   1       9.749   4.570  -3.987  0.00  0.00     0.147 A 
ATOM      7  C   LIG d   1      10.139   5.674  -4.766  0.00  0.00     0.021 A 
ATOM      8  C   LIG d   1      10.057   5.609  -6.162  0.00  0.00    -0.047 A 
ATOM      9  C   LIG d   1       9.594   4.474  -6.760  0.00  0.00    -0.019 A 
ATOM     10  C   LIG d   1       9.202   3.375  -5.992  0.00  0.00     0.130 A 
ATOM     11  C   LIG d   1       9.289   3.419  -4.611  0.00  0.00     0.051 A 
ATOM     12  C   LIG d   1       8.877   2.237  -3.772  0.00  0.00     0.034 C 
ATOM     13  N   LIG d   1       8.059   1.320  -4.578  0.00  0.00    -0.262 N 
ATOM     14  C   LIG d   1       8.724   1.045  -5.863  0.00  0.00     0.144 C 
ATOM     15  O   LIG d   1       8.744   2.262  -6.623  0.00  0.00    -0.476 OA
ATOM     16  H   LIG d   1      11.039   7.755  -2.212  0.00  0.00     0.069 H 
ATOM     17  H   LIG d   1      10.358   6.453  -6.763  0.00  0.00     0.063 H 
ATOM     18  H   LIG d   1       9.529   4.424  -7.837  0.00  0.00     0.065 H 
ATOM     19  H   LIG d   1       9.767   1.715  -3.420  0.00  0.00     0.048 H 
ATOM     20  H   LIG d   1       8.298   2.584  -2.917  0.00  0.00     0.048 H 
ATOM     21  H   LIG d   1       9.738   0.692  -5.681  0.00  0.00     0.087 H 
ATOM     22  H   LIG d   1       8.162   0.286  -6.410  0.00  0.00     0.087 H 
ENDROOT
BRANCH  13  23
ATOM     23  C   LIG d   1       7.788   0.076  -3.847  0.00  0.00     0.027 C 
ATOM     24  H   LIG d   1       7.887  -0.772  -4.524  0.00  0.00     0.048 H 
ATOM     25  H   LIG d   1       8.501  -0.028  -3.029  0.00  0.00     0.048 H 
BRANCH  23  26
ATOM     26  C   LIG d   1       6.387   0.114  -3.292  0.00  0.00    -0.032 A 
ATOM     27  C   LIG d   1       5.715  -1.064  -3.033  0.00  0.00    -0.039 A 
ATOM     28  C   LIG d   1       4.431  -1.028  -2.518  0.00  0.00     0.041 A 
ATOM     29  H   LIG d   1       6.192  -2.013  -3.228  0.00  0.00     0.064 H 
ATOM     30  C   LIG d   1       3.817   0.187  -2.274  0.00  0.00    -0.043 A 
ATOM     31 CL   LIG d   1       3.587  -2.509  -2.184  0.00  0.00    -0.084 Cl
ATOM     32  C   LIG d   1       4.489   1.365  -2.540  0.00  0.00    -0.060 A 
ATOM     33  H   LIG d   1       2.814   0.216  -1.876  0.00  0.00     0.063 H 
ATOM     34  C   LIG d   1       5.774   1.330  -3.048  0.00  0.00    -0.057 A 
ATOM     35  H   LIG d   1       4.011   2.315  -2.350  0.00  0.00     0.062 H 
ATOM     36  H   LIG d   1       6.299   2.250  -3.256  0.00  0.00     0.062 H 
ENDBRANCH  23  26
ENDBRANCH  13  23
BRANCH   1  37
ATOM     37  C   LIG d   1      11.067   8.085  -4.889  0.00  0.00    -0.030 C 
ATOM     38  H   LIG d   1      11.278   7.788  -5.916  0.00  0.00     0.031 H 
ATOM     39  H   LIG d   1      11.965   8.509  -4.442  0.00  0.00     0.031 H 
BRANCH  37  40
ATOM     40  C   LIG d   1       9.950   9.131  -4.879  0.00  0.00    -0.061 C 
ATOM     41  H   LIG d   1      10.035   9.761  -5.765  0.00  0.00     0.023 H 
ATOM     42  H   LIG d   1       8.982   8.629  -4.881  0.00  0.00     0.023 H 
ATOM     43  H   LIG d   1      10.038   9.747  -3.985  0.00  0.00     0.023 H 
ENDBRANCH  37  40
ENDBRANCH   1  37
TORSDOF 4
ENDMDL
MODEL 5
REMARK VINA RESULT:      -6.6      6.045      8.225
REMARK  4 active torsions:
REMARK  status: ('A' for Active; 'I' for Inactive)
REMARK    1  A    between atoms: C_1  and  C_2 
REMARK    2  A    between atoms: C_2  and  C_3 
REMARK    3  A    between atoms: N_15  and  C_18 
REMARK    4  A    between atoms: C_18  and  C_19 
ROOT
ATOM      1  C   LIG d   1       4.736  -1.006  -2.973  0.00  0.00    -0.030 A 
ATOM      2  C   LIG d   1       5.757  -1.900  -3.049  0.00  0.00     0.027 A 
ATOM      3  C   LIG d   1       6.152  -2.407  -4.305  0.00  0.00     0.338 A 
ATOM      4  O   LIG d   1       7.069  -3.207  -4.358  0.00  0.00    -0.245 OA
ATOM      5  O   LIG d   1       5.545  -2.032  -5.440  0.00  0.00    -0.422 OA
ATOM      6  C   LIG d   1       4.526  -1.146  -5.434  0.00  0.00     0.147 A 
ATOM      7  C   LIG d   1       4.076  -0.604  -4.216  0.00  0.00     0.021 A 
ATOM      8  C   LIG d   1       3.015   0.308  -4.206  0.00  0.00    -0.047 A 
ATOM      9  C   LIG d   1       2.418   0.665  -5.380  0.00  0.00    -0.019 A 
ATOM     10  C   LIG d   1       2.857   0.129  -6.592  0.00  0.00     0.130 A 
ATOM     11  C   LIG d   1       3.913  -0.765  -6.621  0.00  0.00     0.051 A 
ATOM     12  C   LIG d   1       4.402  -1.343  -7.923  0.00  0.00     0.034 C 
ATOM     13  N   LIG d   1       3.386  -1.141  -8.965  0.00  0.00    -0.262 N 
ATOM     14  C   LIG d   1       2.936   0.261  -8.969  0.00  0.00     0.144 C 
ATOM     15  O   LIG d   1       2.237   0.507  -7.741  0.00  0.00    -0.476 OA
ATOM     16  H   LIG d   1       6.264  -2.221  -2.151  0.00  0.00     0.069 H 
ATOM     17  H   LIG d   1       2.669   0.727  -3.273  0.00  0.00     0.063 H 
ATOM     18  H   LIG d   1       1.598   1.368  -5.371  0.00  0.00     0.065 H 
ATOM     19  H   LIG d   1       5.327  -0.846  -8.216  0.00  0.00     0.048 H 
ATOM     20  H   LIG d   1       4.587  -2.410  -7.799  0.00  0.00     0.048 H 
ATOM     21  H   LIG d   1       3.799   0.921  -9.056  0.00  0.00     0.087 H 
ATOM     22  H   LIG d   1       2.261   0.426  -9.809  0.00  0.00     0.087 H 
ENDROOT
BRANCH  13  23
ATOM     23  C   LIG d   1       3.899  -1.534 -10.284  0.00  0.00     0.027 C 
ATOM     24  H   LIG d   1       4.351  -0.670 -10.771  0.00  0.00     0.048 H 
ATOM     25  H   LIG d   1       4.648  -2.317 -10.164  0.00  0.00     0.048 H 
BRANCH  23  26
ATOM     26  C   LIG d   1       2.764  -2.049 -11.132  0.00  0.00    -0.032 A 
ATOM     27  C   LIG d   1       1.872  -2.964 -10.609  0.00  0.00    -0.039 A 
ATOM     28  C   LIG d   1       0.826  -3.432 -11.386  0.00  0.00     0.041 A 
ATOM     29  H   LIG d   1       1.987  -3.312  -9.593  0.00  0.00     0.064 H 
ATOM     30  C   LIG d   1       0.682  -2.991 -12.689  0.00  0.00    -0.043 A 
ATOM     31 CL   LIG d   1      -0.300  -4.578 -10.728  0.00  0.00    -0.084 Cl
ATOM     32  C   LIG d   1       1.579  -2.079 -13.213  0.00  0.00    -0.060 A 
ATOM     33  H   LIG d   1      -0.131  -3.359 -13.297  0.00  0.00     0.063 H 
ATOM     34  C   LIG d   1       2.619  -1.607 -12.435  0.00  0.00    -0.057 A 
ATOM     35  H   LIG d   1       1.467  -1.735 -14.230  0.00  0.00     0.062 H 
ATOM     36  H   LIG d   1       3.320  -0.895 -12.844  0.00  0.00     0.062 H 
ENDBRANCH  23  26
ENDBRANCH  13  23
BRANCH   1  37
ATOM     37  C   LIG d   1       4.293  -0.449  -1.645  0.00  0.00    -0.030 C 
ATOM     38  H   LIG d   1       4.785  -0.994  -0.839  0.00  0.00     0.031 H 
ATOM     39  H   LIG d   1       3.213  -0.556  -1.548  0.00  0.00     0.031 H 
BRANCH  37  40
ATOM     40  C   LIG d   1       4.668   1.032  -1.562  0.00  0.00    -0.061 C 
ATOM     41  H   LIG d   1       4.122   1.499  -0.742  0.00  0.00     0.023 H 
ATOM     42  H   LIG d   1       5.739   1.127  -1.387  0.00  0.00     0.023 H 
ATOM     43  H   LIG d   1       4.407   1.524  -2.499  0.00  0.00     0.023 H 
ENDBRANCH  37  40
ENDBRANCH   1  37
TORSDOF 4
ENDMDL
MODEL 6
REMARK VINA RESULT:      -6.6      5.864      8.730
REMARK  4 active torsions:
REMARK  status: ('A' for Active; 'I' for Inactive)
REMARK    1  A    between atoms: C_1  and  C_2 
REMARK    2  A    between atoms: C_2  and  C_3 
REMARK    3  A    between atoms: N_15  and  C_18 
REMARK    4  A    between atoms: C_18  and  C_19 
ROOT
ATOM      1  C   LIG d   1       3.269  -1.874 -12.221  0.00  0.00    -0.030 A 
ATOM      2  C   LIG d   1       2.756  -3.078 -11.855  0.00  0.00     0.027 A 
ATOM      3  C   LIG d   1       2.313  -3.278 -10.531  0.00  0.00     0.338 A 
ATOM      4  O   LIG d   1       1.854  -4.362 -10.217  0.00  0.00    -0.245 OA
ATOM      5  O   LIG d   1       2.384  -2.306  -9.609  0.00  0.00    -0.422 OA
ATOM      6  C   LIG d   1       2.882  -1.086  -9.908  0.00  0.00     0.147 A 
ATOM      7  C   LIG d   1       3.347  -0.820 -11.208  0.00  0.00     0.021 A 
ATOM      8  C   LIG d   1       3.870   0.440 -11.519  0.00  0.00    -0.047 A 
ATOM      9  C   LIG d   1       3.931   1.404 -10.555  0.00  0.00    -0.019 A 
ATOM     10  C   LIG d   1       3.474   1.146  -9.262  0.00  0.00     0.130 A 
ATOM     11  C   LIG d   1       2.942  -0.091  -8.941  0.00  0.00     0.051 A 
ATOM     12  C   LIG d   1       2.438  -0.380  -7.551  0.00  0.00     0.034 C 
ATOM     13  N   LIG d   1       2.961   0.626  -6.617  0.00  0.00    -0.262 N 
ATOM     14  C   LIG d   1       2.740   1.979  -7.154  0.00  0.00     0.144 C 
ATOM     15  O   LIG d   1       3.552   2.130  -8.328  0.00  0.00    -0.476 OA
ATOM     16  H   LIG d   1       2.687  -3.879 -12.576  0.00  0.00     0.069 H 
ATOM     17  H   LIG d   1       4.226   0.649 -12.517  0.00  0.00     0.063 H 
ATOM     18  H   LIG d   1       4.336   2.376 -10.795  0.00  0.00     0.065 H 
ATOM     19  H   LIG d   1       1.348  -0.348  -7.547  0.00  0.00     0.048 H 
ATOM     20  H   LIG d   1       2.772  -1.371  -7.243  0.00  0.00     0.048 H 
ATOM     21  H   LIG d   1       1.686   2.107  -7.400  0.00  0.00     0.087 H 
ATOM     22  H   LIG d   1       3.037   2.721  -6.411  0.00  0.00     0.087 H 
ENDROOT
BRANCH  13  23
ATOM     23  C   LIG d   1       2.351   0.480  -5.289  0.00  0.00     0.027 C 
ATOM     24  H   LIG d   1       2.141   1.466  -4.875  0.00  0.00     0.048 H 
ATOM     25  H   LIG d   1       1.421  -0.082  -5.376  0.00  0.00     0.048 H 
BRANCH  23  26
ATOM     26  C   LIG d   1       3.300  -0.255  -4.378  0.00  0.00    -0.032 A 
ATOM     27  C   LIG d   1       4.660  -0.206  -4.613  0.00  0.00    -0.039 A 
ATOM     28  C   LIG d   1       5.532  -0.875  -3.773  0.00  0.00     0.041 A 
ATOM     29  H   LIG d   1       5.044   0.359  -5.450  0.00  0.00     0.064 H 
ATOM     30  C   LIG d   1       5.040  -1.604  -2.705  0.00  0.00    -0.043 A 
ATOM     31 CL   LIG d   1       7.243  -0.809  -4.063  0.00  0.00    -0.084 Cl
ATOM     32  C   LIG d   1       3.678  -1.657  -2.475  0.00  0.00    -0.060 A 
ATOM     33  H   LIG d   1       5.719  -2.131  -2.051  0.00  0.00     0.063 H 
ATOM     34  C   LIG d   1       2.808  -0.983  -3.310  0.00  0.00    -0.057 A 
ATOM     35  H   LIG d   1       3.293  -2.226  -1.641  0.00  0.00     0.062 H 
ATOM     36  H   LIG d   1       1.744  -1.024  -3.130  0.00  0.00     0.062 H 
ENDBRANCH  23  26
ENDBRANCH  13  23
BRANCH   1  37
ATOM     37  C   LIG d   1       3.750  -1.634 -13.629  0.00  0.00    -0.030 C 
ATOM     38  H   LIG d   1       4.609  -2.272 -13.834  0.00  0.00     0.031 H 
ATOM     39  H   LIG d   1       4.039  -0.589 -13.740  0.00  0.00     0.031 H 
BRANCH  37  40
ATOM     40  C   LIG d   1       2.626  -1.959 -14.614  0.00  0.00    -0.061 C 
ATOM     41  H   LIG d   1       2.025  -2.780 -14.221  0.00  0.00     0.023 H 
ATOM     42  H   LIG d   1       1.996  -1.080 -14.751  0.00  0.00     0.023 H 
ATOM     43  H   LIG d   1       3.056  -2.251 -15.572  0.00  0.00     0.023 H 
ENDBRANCH  37  40
ENDBRANCH   1  37
TORSDOF 4
ENDMDL
MODEL 7
REMARK VINA RESULT:      -6.1      2.068      2.815
REMARK  4 active torsions:
REMARK  status: ('A' for Active; 'I' for Inactive)
REMARK    1  A    between atoms: C_1  and  C_2 
REMARK    2  A    between atoms: C_2  and  C_3 
REMARK    3  A    between atoms: N_15  and  C_18 
REMARK    4  A    between atoms: C_18  and  C_19 
ROOT
ATOM      1  C   LIG d   1       9.975   4.151  -6.172  0.00  0.00    -0.030 A 
ATOM      2  C   LIG d   1       9.913   3.942  -4.831  0.00  0.00     0.027 A 
ATOM      3  C   LIG d   1       9.121   2.894  -4.320  0.00  0.00     0.338 A 
ATOM      4  O   LIG d   1       9.076   2.718  -3.116  0.00  0.00    -0.245 OA
ATOM      5  O   LIG d   1       8.415   2.086  -5.125  0.00  0.00    -0.422 OA
ATOM      6  C   LIG d   1       8.434   2.237  -6.468  0.00  0.00     0.147 A 
ATOM      7  C   LIG d   1       9.199   3.267  -7.045  0.00  0.00     0.021 A 
ATOM      8  C   LIG d   1       9.215   3.432  -8.434  0.00  0.00    -0.047 A 
ATOM      9  C   LIG d   1       8.483   2.594  -9.224  0.00  0.00    -0.019 A 
ATOM     10  C   LIG d   1       7.719   1.572  -8.657  0.00  0.00     0.130 A 
ATOM     11  C   LIG d   1       7.703   1.387  -7.286  0.00  0.00     0.051 A 
ATOM     12  C   LIG d   1       6.888   0.283  -6.663  0.00  0.00     0.034 C 
ATOM     13  N   LIG d   1       5.902  -0.210  -7.634  0.00  0.00    -0.262 N 
ATOM     14  C   LIG d   1       6.555  -0.490  -8.923  0.00  0.00     0.144 C 
ATOM     15  O   LIG d   1       7.001   0.758  -9.475  0.00  0.00    -0.476 OA
ATOM     16  H   LIG d   1      10.470   4.578  -4.158  0.00  0.00     0.069 H 
ATOM     17  H   LIG d   1       9.804   4.220  -8.881  0.00  0.00     0.063 H 
ATOM     18  H   LIG d   1       8.494   2.722 -10.296  0.00  0.00     0.065 H 
ATOM     19  H   LIG d   1       7.549  -0.533  -6.371  0.00  0.00     0.048 H 
ATOM     20  H   LIG d   1       6.372   0.665  -5.783  0.00  0.00     0.048 H 
ATOM     21  H   LIG d   1       7.399  -1.161  -8.767  0.00  0.00     0.087 H 
ATOM     22  H   LIG d   1       5.838  -0.951  -9.604  0.00  0.00     0.087 H 
ENDROOT
BRANCH  13  23
ATOM     23  C   LIG d   1       5.211  -1.402  -7.124  0.00  0.00     0.027 C 
ATOM     24  H   LIG d   1       4.605  -1.839  -7.917  0.00  0.00     0.048 H 
ATOM     25  H   LIG d   1       5.947  -2.131  -6.786  0.00  0.00     0.048 H 
BRANCH  23  26
ATOM     26  C   LIG d   1       4.321  -1.012  -5.971  0.00  0.00    -0.032 A 
ATOM     27  C   LIG d   1       4.431  -1.670  -4.762  0.00  0.00    -0.039 A 
ATOM     28  C   LIG d   1       3.618  -1.308  -3.702  0.00  0.00     0.041 A 
ATOM     29  H   LIG d   1       5.153  -2.464  -4.641  0.00  0.00     0.064 H 
ATOM     30  C   LIG d   1       2.689  -0.295  -3.858  0.00  0.00    -0.043 A 
ATOM     31 CL   LIG d   1       3.759  -2.129  -2.178  0.00  0.00    -0.084 Cl
ATOM     32  C   LIG d   1       2.576   0.358  -5.071  0.00  0.00    -0.060 A 
ATOM     33  H   LIG d   1       2.051  -0.015  -3.033  0.00  0.00     0.063 H 
ATOM     34  C   LIG d   1       3.393   0.001  -6.127  0.00  0.00    -0.057 A 
ATOM     35  H   LIG d   1       1.851   1.149  -5.193  0.00  0.00     0.062 H 
ATOM     36  H   LIG d   1       3.305   0.511  -7.075  0.00  0.00     0.062 H 
ENDBRANCH  23  26
ENDBRANCH  13  23
BRANCH   1  37
ATOM     37  C   LIG d   1      10.814   5.264  -6.745  0.00  0.00    -0.030 C 
ATOM     38  H   LIG d   1      10.711   5.277  -7.829  0.00  0.00     0.031 H 
ATOM     39  H   LIG d   1      11.858   5.104  -6.481  0.00  0.00     0.031 H 
BRANCH  37  40
ATOM     40  C   LIG d   1      10.343   6.603  -6.172  0.00  0.00    -0.061 C 
ATOM     41  H   LIG d   1      10.254   7.332  -6.979  0.00  0.00     0.023 H 
ATOM     42  H   LIG d   1       9.374   6.472  -5.691  0.00  0.00     0.023 H 
ATOM     43  H   LIG d   1      11.068   6.959  -5.440  0.00  0.00     0.023 H 
ENDBRANCH  37  40
ENDBRANCH   1  37
TORSDOF 4
ENDMDL
MODEL 8
REMARK VINA RESULT:      -5.9      1.442      3.065
REMARK  4 active torsions:
REMARK  status: ('A' for Active; 'I' for Inactive)
REMARK    1  A    between atoms: C_1  and  C_2 
REMARK    2  A    between atoms: C_2  and  C_3 
REMARK    3  A    between atoms: N_15  and  C_18 
REMARK    4  A    between atoms: C_18  and  C_19 
ROOT
ATOM      1  C   LIG d   1       9.991   5.067  -7.534  0.00  0.00    -0.030 A 
ATOM      2  C   LIG d   1       9.840   4.603  -8.802  0.00  0.00     0.027 A 
ATOM      3  C   LIG d   1       9.243   3.344  -9.022  0.00  0.00     0.338 A 
ATOM      4  O   LIG d   1       9.114   2.941 -10.164  0.00  0.00    -0.245 OA
ATOM      5  O   LIG d   1       8.816   2.579  -8.006  0.00  0.00    -0.422 OA
ATOM      6  C   LIG d   1       8.934   2.982  -6.722  0.00  0.00     0.147 A 
ATOM      7  C   LIG d   1       9.525   4.225  -6.430  0.00  0.00     0.021 A 
ATOM      8  C   LIG d   1       9.656   4.641  -5.101  0.00  0.00    -0.047 A 
ATOM      9  C   LIG d   1       9.213   3.837  -4.093  0.00  0.00    -0.019 A 
ATOM     10  C   LIG d   1       8.628   2.601  -4.375  0.00  0.00     0.130 A 
ATOM     11  C   LIG d   1       8.479   2.179  -5.685  0.00  0.00     0.051 A 
ATOM     12  C   LIG d   1       7.843   0.851  -6.002  0.00  0.00     0.034 C 
ATOM     13  N   LIG d   1       7.819   0.013  -4.796  0.00  0.00    -0.262 N 
ATOM     14  C   LIG d   1       7.274   0.775  -3.660  0.00  0.00     0.144 C 
ATOM     15  O   LIG d   1       8.200   1.825  -3.344  0.00  0.00    -0.476 OA
ATOM     16  H   LIG d   1      10.176   5.197  -9.639  0.00  0.00     0.069 H 
ATOM     17  H   LIG d   1      10.106   5.596  -4.874  0.00  0.00     0.063 H 
ATOM     18  H   LIG d   1       9.315   4.158  -3.067  0.00  0.00     0.065 H 
ATOM     19  H   LIG d   1       6.823   1.013  -6.352  0.00  0.00     0.048 H 
ATOM     20  H   LIG d   1       8.418   0.350  -6.781  0.00  0.00     0.048 H 
ATOM     21  H   LIG d   1       6.304   1.191  -3.931  0.00  0.00     0.087 H 
ATOM     22  H   LIG d   1       7.165   0.118  -2.797  0.00  0.00     0.087 H 
ENDROOT
BRANCH  13  23
ATOM     23  C   LIG d   1       7.050  -1.217  -5.023  0.00  0.00     0.027 C 
ATOM     24  H   LIG d   1       6.846  -1.326  -6.088  0.00  0.00     0.048 H 
ATOM     25  H   LIG d   1       7.624  -2.075  -4.673  0.00  0.00     0.048 H 
BRANCH  23  26
ATOM     26  C   LIG d   1       5.747  -1.142  -4.268  0.00  0.00    -0.032 A 
ATOM     27  C   LIG d   1       4.664  -0.490  -4.823  0.00  0.00    -0.039 A 
ATOM     28  C   LIG d   1       3.467  -0.427  -4.133  0.00  0.00     0.041 A 
ATOM     29  H   LIG d   1       4.749  -0.034  -5.799  0.00  0.00     0.064 H 
ATOM     30  C   LIG d   1       3.359  -1.006  -2.881  0.00  0.00    -0.043 A 
ATOM     31 CL   LIG d   1       2.101   0.386  -4.832  0.00  0.00    -0.084 Cl
ATOM     32  C   LIG d   1       4.446  -1.652  -2.324  0.00  0.00    -0.060 A 
ATOM     33  H   LIG d   1       2.426  -0.953  -2.339  0.00  0.00     0.063 H 
ATOM     34  C   LIG d   1       5.640  -1.722  -3.017  0.00  0.00    -0.057 A 
ATOM     35  H   LIG d   1       4.363  -2.105  -1.346  0.00  0.00     0.062 H 
ATOM     36  H   LIG d   1       6.489  -2.227  -2.582  0.00  0.00     0.062 H 
ENDBRANCH  23  26
ENDBRANCH  13  23
BRANCH   1  37
ATOM     37  C   LIG d   1      10.625   6.408  -7.271  0.00  0.00    -0.030 C 
ATOM     38  H   LIG d   1      11.471   6.548  -7.944  0.00  0.00     0.031 H 
ATOM     39  H   LIG d   1      10.972   6.450  -6.239  0.00  0.00     0.031 H 
BRANCH  37  40
ATOM     40  C   LIG d   1       9.595   7.514  -7.508  0.00  0.00    -0.061 C 
ATOM     41  H   LIG d   1       9.081   7.737  -6.573  0.00  0.00     0.023 H 
ATOM     42  H   LIG d   1      10.100   8.410  -7.868  0.00  0.00     0.023 H 
ATOM     43  H   LIG d   1       8.870   7.182  -8.250  0.00  0.00     0.023 H 
ENDBRANCH  37  40
ENDBRANCH   1  37
TORSDOF 4
ENDMDL
MODEL 9
REMARK VINA RESULT:      -5.9      5.295      8.453
REMARK  4 active torsions:
REMARK  status: ('A' for Active; 'I' for Inactive)
REMARK    1  A    between atoms: C_1  and  C_2 
REMARK    2  A    between atoms: C_2  and  C_3 
REMARK    3  A    between atoms: N_15  and  C_18 
REMARK    4  A    between atoms: C_18  and  C_19 
ROOT
ATOM      1  C   LIG d   1       1.999  -2.233 -11.013  0.00  0.00    -0.030 A 
ATOM      2  C   LIG d   1       1.863  -3.565 -10.780  0.00  0.00     0.027 A 
ATOM      3  C   LIG d   1       2.547  -4.161  -9.701  0.00  0.00     0.338 A 
ATOM      4  O   LIG d   1       2.416  -5.356  -9.504  0.00  0.00    -0.245 OA
ATOM      5  O   LIG d   1       3.338  -3.448  -8.886  0.00  0.00    -0.422 OA
ATOM      6  C   LIG d   1       3.515  -2.120  -9.061  0.00  0.00     0.147 A 
ATOM      7  C   LIG d   1       2.867  -1.461 -10.122  0.00  0.00     0.021 A 
ATOM      8  C   LIG d   1       3.053  -0.087 -10.310  0.00  0.00    -0.047 A 
ATOM      9  C   LIG d   1       3.868   0.607  -9.465  0.00  0.00    -0.019 A 
ATOM     10  C   LIG d   1       4.517  -0.040  -8.411  0.00  0.00     0.130 A 
ATOM     11  C   LIG d   1       4.333  -1.396  -8.204  0.00  0.00     0.051 A 
ATOM     12  C   LIG d   1       5.021  -2.105  -7.066  0.00  0.00     0.034 C 
ATOM     13  N   LIG d   1       6.122  -1.274  -6.560  0.00  0.00    -0.262 N 
ATOM     14  C   LIG d   1       5.652   0.101  -6.322  0.00  0.00     0.144 C 
ATOM     15  O   LIG d   1       5.322   0.684  -7.591  0.00  0.00    -0.476 OA
ATOM     16  H   LIG d   1       1.233  -4.165 -11.420  0.00  0.00     0.069 H 
ATOM     17  H   LIG d   1       2.555   0.422 -11.122  0.00  0.00     0.063 H 
ATOM     18  H   LIG d   1       4.013   1.667  -9.611  0.00  0.00     0.065 H 
ATOM     19  H   LIG d   1       4.304  -2.284  -6.264  0.00  0.00     0.048 H 
ATOM     20  H   LIG d   1       5.416  -3.057  -7.418  0.00  0.00     0.048 H 
ATOM     21  H   LIG d   1       4.777   0.080  -5.672  0.00  0.00     0.087 H 
ATOM     22  H   LIG d   1       6.446   0.682  -5.852  0.00  0.00     0.087 H 
ENDROOT
BRANCH  13  23
ATOM     23  C   LIG d   1       6.701  -1.852  -5.341  0.00  0.00     0.027 C 
ATOM     24  H   LIG d   1       6.930  -2.904  -5.510  0.00  0.00     0.048 H 
ATOM     25  H   LIG d   1       7.617  -1.318  -5.085  0.00  0.00     0.048 H 
BRANCH  23  26
ATOM     26  C   LIG d   1       5.714  -1.730  -4.209  0.00  0.00    -0.032 A 
ATOM     27  C   LIG d   1       5.657  -0.567  -3.465  0.00  0.00    -0.039 A 
ATOM     28  C   LIG d   1       4.746  -0.453  -2.429  0.00  0.00     0.041 A 
ATOM     29  H   LIG d   1       6.320   0.254  -3.694  0.00  0.00     0.064 H 
ATOM     30  C   LIG d   1       3.902  -1.507  -2.132  0.00  0.00    -0.043 A 
ATOM     31 CL   LIG d   1       4.669   1.010  -1.497  0.00  0.00    -0.084 Cl
ATOM     32  C   LIG d   1       3.964  -2.673  -2.874  0.00  0.00    -0.060 A 
ATOM     33  H   LIG d   1       3.194  -1.421  -1.321  0.00  0.00     0.063 H 
ATOM     34  C   LIG d   1       4.869  -2.784  -3.912  0.00  0.00    -0.057 A 
ATOM     35  H   LIG d   1       3.305  -3.496  -2.642  0.00  0.00     0.062 H 
ATOM     36  H   LIG d   1       4.918  -3.694  -4.492  0.00  0.00     0.062 H 
ENDBRANCH  23  26
ENDBRANCH  13  23
BRANCH   1  37
ATOM     37  C   LIG d   1       1.279  -1.571 -12.160  0.00  0.00    -0.030 C 
ATOM     38  H   LIG d   1       1.353  -0.488 -12.059  0.00  0.00     0.031 H 
ATOM     39  H   LIG d   1       0.231  -1.866 -12.150  0.00  0.00     0.031 H 
BRANCH  37  40
ATOM     40  C   LIG d   1       1.918  -2.005 -13.481  0.00  0.00    -0.061 C 
ATOM     41  H   LIG d   1       1.402  -1.520 -14.310  0.00  0.00     0.023 H 
ATOM     42  H   LIG d   1       2.969  -1.716 -13.488  0.00  0.00     0.023 H 
ATOM     43  H   LIG d   1       1.837  -3.086 -13.585  0.00  0.00     0.023 H 
ENDBRANCH  37  40
ENDBRANCH   1  37
TORSDOF 4
ENDMDL
