MODEL 1
REMARK VINA RESULT:      -4.5      0.000      0.000
REMARK  10 active torsions:
REMARK  status: ('A' for Active; 'I' for Inactive)
REMARK    1  A    between atoms: C_1  and  C_2 
REMARK    2  A    between atoms: C_2  and  C_3 
REMARK    3  A    between atoms: C_3  and  C_4 
REMARK    4  A    between atoms: C_4  and  C_5 
REMARK    5  A    between atoms: C_5  and  C_6 
REMARK    6  A    between atoms: C_6  and  C_8 
REMARK    7  A    between atoms: C_6  and  O_12 
REMARK    8  A    between atoms: C_8  and  C_9 
REMARK    9  A    between atoms: C_9  and  C_10 
REMARK   10  A    between atoms: C_10  and  C_11 
ROOT
ATOM      1  C   LIG d   1       4.650  -2.063  -4.162  0.00  0.00     0.055 C 
ATOM      2  H   LIG d   1       4.591  -1.049  -4.558  0.00  0.00     0.059 H 
ENDROOT
BRANCH   1   3
ATOM      3  C   LIG d   1       3.925  -2.128  -2.816  0.00  0.00    -0.027 C 
ATOM      4  H   LIG d   1       3.458  -3.106  -2.703  0.00  0.00     0.029 H 
ATOM      5  H   LIG d   1       4.642  -1.973  -2.010  0.00  0.00     0.029 H 
BRANCH   3   6
ATOM      6  C   LIG d   1       2.852  -1.039  -2.761  0.00  0.00    -0.051 C 
ATOM      7  H   LIG d   1       1.929  -1.417  -3.201  0.00  0.00     0.027 H 
ATOM      8  H   LIG d   1       2.673  -0.757  -1.724  0.00  0.00     0.027 H 
BRANCH   6   9
ATOM      9  C   LIG d   1       3.328   0.185  -3.548  0.00  0.00    -0.053 C 
ATOM     10  H   LIG d   1       4.274  -0.043  -4.037  0.00  0.00     0.026 H 
ATOM     11  H   LIG d   1       2.583   0.445  -4.300  0.00  0.00     0.026 H 
BRANCH   9  12
ATOM     12  C   LIG d   1       3.518   1.363  -2.590  0.00  0.00    -0.056 C 
ATOM     13  H   LIG d   1       3.834   2.241  -3.152  0.00  0.00     0.026 H 
ATOM     14  H   LIG d   1       2.576   1.575  -2.083  0.00  0.00     0.026 H 
BRANCH  12  15
ATOM     15  C   LIG d   1       4.587   1.009  -1.553  0.00  0.00    -0.065 C 
ATOM     16  H   LIG d   1       4.105   0.638  -0.649  0.00  0.00     0.023 H 
ATOM     17  H   LIG d   1       5.245   0.240  -1.958  0.00  0.00     0.023 H 
ATOM     18  H   LIG d   1       5.170   1.898  -1.315  0.00  0.00     0.023 H 
ENDBRANCH  12  15
ENDBRANCH   9  12
ENDBRANCH   6   9
ENDBRANCH   3   6
ENDBRANCH   1   3
BRANCH   1  19
ATOM     19  C   LIG d   1       6.118  -2.450  -3.971  0.00  0.00    -0.027 C 
ATOM     20  H   LIG d   1       6.188  -3.273  -3.259  0.00  0.00     0.029 H 
ATOM     21  H   LIG d   1       6.539  -2.761  -4.928  0.00  0.00     0.029 H 
BRANCH  19  22
ATOM     22  C   LIG d   1       6.897  -1.247  -3.438  0.00  0.00    -0.051 C 
ATOM     23  H   LIG d   1       6.436  -0.894  -2.515  0.00  0.00     0.027 H 
ATOM     24  H   LIG d   1       7.928  -1.540  -3.239  0.00  0.00     0.027 H 
BRANCH  22  25
ATOM     25  C   LIG d   1       6.878  -0.125  -4.478  0.00  0.00    -0.056 C 
ATOM     26  H   LIG d   1       7.536  -0.386  -5.307  0.00  0.00     0.026 H 
ATOM     27  H   LIG d   1       5.861   0.008  -4.850  0.00  0.00     0.026 H 
BRANCH  25  28
ATOM     28  C   LIG d   1       7.359   1.177  -3.834  0.00  0.00    -0.065 C 
ATOM     29  H   LIG d   1       6.527   1.877  -3.766  0.00  0.00     0.023 H 
ATOM     30  H   LIG d   1       7.742   0.969  -2.836  0.00  0.00     0.023 H 
ATOM     31  H   LIG d   1       8.151   1.613  -4.444  0.00  0.00     0.023 H 
ENDBRANCH  25  28
ENDBRANCH  22  25
ENDBRANCH  19  22
ENDBRANCH   1  19
BRANCH   1  32
ATOM     32  O   LIG d   1       4.034  -2.969  -5.080  0.00  0.00    -0.392 OA
ATOM     33  H   LIG d   1       3.067  -2.970  -5.041  0.00  0.00     0.210 HD
ENDBRANCH   1  32
TORSDOF 10
ENDMDL
MODEL 2
REMARK VINA RESULT:      -4.4      0.791      3.286
REMARK  10 active torsions:
REMARK  status: ('A' for Active; 'I' for Inactive)
REMARK    1  A    between atoms: C_1  and  C_2 
REMARK    2  A    between atoms: C_2  and  C_3 
REMARK    3  A    between atoms: C_3  and  C_4 
REMARK    4  A    between atoms: C_4  and  C_5 
REMARK    5  A    between atoms: C_5  and  C_6 
REMARK    6  A    between atoms: C_6  and  C_8 
REMARK    7  A    between atoms: C_6  and  O_12 
REMARK    8  A    between atoms: C_8  and  C_9 
REMARK    9  A    between atoms: C_9  and  C_10 
REMARK   10  A    between atoms: C_10  and  C_11 
ROOT
ATOM      1  C   LIG d   1       4.442  -2.460  -3.303  0.00  0.00     0.055 C 
ATOM      2  H   LIG d   1       4.447  -3.474  -2.902  0.00  0.00     0.059 H 
ENDROOT
BRANCH   1   3
ATOM      3  C   LIG d   1       5.867  -2.058  -3.689  0.00  0.00    -0.027 C 
ATOM      4  H   LIG d   1       6.212  -1.264  -3.027  0.00  0.00     0.029 H 
ATOM      5  H   LIG d   1       6.526  -2.921  -3.595  0.00  0.00     0.029 H 
BRANCH   3   6
ATOM      6  C   LIG d   1       5.882  -1.559  -5.135  0.00  0.00    -0.051 C 
ATOM      7  H   LIG d   1       6.479  -2.236  -5.747  0.00  0.00     0.027 H 
ATOM      8  H   LIG d   1       4.862  -1.526  -5.519  0.00  0.00     0.027 H 
BRANCH   6   9
ATOM      9  C   LIG d   1       6.491  -0.156  -5.184  0.00  0.00    -0.053 C 
ATOM     10  H   LIG d   1       7.192  -0.094  -6.016  0.00  0.00     0.026 H 
ATOM     11  H   LIG d   1       5.698   0.579  -5.321  0.00  0.00     0.026 H 
BRANCH   9  12
ATOM     12  C   LIG d   1       7.227   0.126  -3.873  0.00  0.00    -0.056 C 
ATOM     13  H   LIG d   1       6.593  -0.156  -3.033  0.00  0.00     0.026 H 
ATOM     14  H   LIG d   1       8.150  -0.453  -3.842  0.00  0.00     0.026 H 
BRANCH  12  15
ATOM     15  C   LIG d   1       7.558   1.618  -3.785  0.00  0.00    -0.065 C 
ATOM     16  H   LIG d   1       8.453   1.755  -3.180  0.00  0.00     0.023 H 
ATOM     17  H   LIG d   1       7.730   2.011  -4.787  0.00  0.00     0.023 H 
ATOM     18  H   LIG d   1       6.724   2.148  -3.325  0.00  0.00     0.023 H 
ENDBRANCH  12  15
ENDBRANCH   9  12
ENDBRANCH   6   9
ENDBRANCH   3   6
ENDBRANCH   1   3
BRANCH   1  19
ATOM     19  C   LIG d   1       3.910  -1.495  -2.241  0.00  0.00    -0.027 C 
ATOM     20  H   LIG d   1       3.377  -2.056  -1.474  0.00  0.00     0.029 H 
ATOM     21  H   LIG d   1       4.744  -0.959  -1.787  0.00  0.00     0.029 H 
BRANCH  19  22
ATOM     22  C   LIG d   1       2.957  -0.493  -2.895  0.00  0.00    -0.051 C 
ATOM     23  H   LIG d   1       2.841  -0.737  -3.952  0.00  0.00     0.027 H 
ATOM     24  H   LIG d   1       1.984  -0.542  -2.404  0.00  0.00     0.027 H 
BRANCH  22  25
ATOM     25  C   LIG d   1       3.527   0.919  -2.756  0.00  0.00    -0.056 C 
ATOM     26  H   LIG d   1       4.020   1.206  -3.685  0.00  0.00     0.026 H 
ATOM     27  H   LIG d   1       2.718   1.619  -2.543  0.00  0.00     0.026 H 
BRANCH  25  28
ATOM     28  C   LIG d   1       4.541   0.949  -1.610  0.00  0.00    -0.065 C 
ATOM     29  H   LIG d   1       5.481   0.512  -1.945  0.00  0.00     0.023 H 
ATOM     30  H   LIG d   1       4.709   1.980  -1.301  0.00  0.00     0.023 H 
ATOM     31  H   LIG d   1       4.153   0.376  -0.767  0.00  0.00     0.023 H 
ENDBRANCH  25  28
ENDBRANCH  22  25
ENDBRANCH  19  22
ENDBRANCH   1  19
BRANCH   1  32
ATOM     32  O   LIG d   1       3.602  -2.409  -4.458  0.00  0.00    -0.392 OA
ATOM     33  H   LIG d   1       4.087  -2.359  -5.294  0.00  0.00     0.210 HD
ENDBRANCH   1  32
TORSDOF 10
ENDMDL
MODEL 3
REMARK VINA RESULT:      -4.3      3.408      4.621
REMARK  10 active torsions:
REMARK  status: ('A' for Active; 'I' for Inactive)
REMARK    1  A    between atoms: C_1  and  C_2 
REMARK    2  A    between atoms: C_2  and  C_3 
REMARK    3  A    between atoms: C_3  and  C_4 
REMARK    4  A    between atoms: C_4  and  C_5 
REMARK    5  A    between atoms: C_5  and  C_6 
REMARK    6  A    between atoms: C_6  and  C_8 
REMARK    7  A    between atoms: C_6  and  O_12 
REMARK    8  A    between atoms: C_8  and  C_9 
REMARK    9  A    between atoms: C_9  and  C_10 
REMARK   10  A    between atoms: C_10  and  C_11 
ROOT
ATOM      1  C   LIG d   1       3.618  -0.213  -5.164  0.00  0.00     0.055 C 
ATOM      2  H   LIG d   1       4.609   0.241  -5.194  0.00  0.00     0.059 H 
ENDROOT
BRANCH   1   3
ATOM      3  C   LIG d   1       2.752   0.383  -6.276  0.00  0.00    -0.027 C 
ATOM      4  H   LIG d   1       1.699   0.222  -6.040  0.00  0.00     0.029 H 
ATOM      5  H   LIG d   1       2.946   1.452  -6.355  0.00  0.00     0.029 H 
BRANCH   3   6
ATOM      6  C   LIG d   1       3.087  -0.297  -7.604  0.00  0.00    -0.051 C 
ATOM      7  H   LIG d   1       4.165  -0.447  -7.673  0.00  0.00     0.027 H 
ATOM      8  H   LIG d   1       2.582  -1.262  -7.657  0.00  0.00     0.027 H 
BRANCH   6   9
ATOM      9  C   LIG d   1       2.620   0.587  -8.763  0.00  0.00    -0.053 C 
ATOM     10  H   LIG d   1       3.173   0.326  -9.664  0.00  0.00     0.026 H 
ATOM     11  H   LIG d   1       1.555   0.432  -8.931  0.00  0.00     0.026 H 
BRANCH   9  12
ATOM     12  C   LIG d   1       2.872   2.056  -8.416  0.00  0.00    -0.056 C 
ATOM     13  H   LIG d   1       1.948   2.620  -8.531  0.00  0.00     0.026 H 
ATOM     14  H   LIG d   1       3.219   2.131  -7.385  0.00  0.00     0.026 H 
BRANCH  12  15
ATOM     15  C   LIG d   1       3.939   2.626  -9.355  0.00  0.00    -0.065 C 
ATOM     16  H   LIG d   1       4.922   2.507  -8.901  0.00  0.00     0.023 H 
ATOM     17  H   LIG d   1       3.908   2.091 -10.305  0.00  0.00     0.023 H 
ATOM     18  H   LIG d   1       3.743   3.684  -9.527  0.00  0.00     0.023 H 
ENDBRANCH  12  15
ENDBRANCH   9  12
ENDBRANCH   6   9
ENDBRANCH   3   6
ENDBRANCH   1   3
BRANCH   1  19
ATOM     19  C   LIG d   1       2.971   0.067  -3.806  0.00  0.00    -0.027 C 
ATOM     20  H   LIG d   1       3.431   0.947  -3.358  0.00  0.00     0.029 H 
ATOM     21  H   LIG d   1       1.903   0.245  -3.943  0.00  0.00     0.029 H 
BRANCH  19  22
ATOM     22  C   LIG d   1       3.172  -1.139  -2.887  0.00  0.00    -0.051 C 
ATOM     23  H   LIG d   1       2.257  -1.326  -2.326  0.00  0.00     0.027 H 
ATOM     24  H   LIG d   1       3.417  -2.016  -3.487  0.00  0.00     0.027 H 
BRANCH  22  25
ATOM     25  C   LIG d   1       4.318  -0.852  -1.914  0.00  0.00    -0.056 C 
ATOM     26  H   LIG d   1       4.100  -1.311  -0.950  0.00  0.00     0.026 H 
ATOM     27  H   LIG d   1       5.245  -1.266  -2.312  0.00  0.00     0.026 H 
BRANCH  25  28
ATOM     28  C   LIG d   1       4.470   0.660  -1.738  0.00  0.00    -0.065 C 
ATOM     29  H   LIG d   1       4.995   1.076  -2.598  0.00  0.00     0.023 H 
ATOM     30  H   LIG d   1       3.486   1.118  -1.656  0.00  0.00     0.023 H 
ATOM     31  H   LIG d   1       5.042   0.865  -0.831  0.00  0.00     0.023 H 
ENDBRANCH  25  28
ENDBRANCH  22  25
ENDBRANCH  19  22
ENDBRANCH   1  19
BRANCH   1  32
ATOM     32  O   LIG d   1       3.735  -1.624  -5.355  0.00  0.00    -0.392 OA
ATOM     33  H   LIG d   1       4.640  -1.925  -5.518  0.00  0.00     0.210 HD
ENDBRANCH   1  32
TORSDOF 10
ENDMDL
MODEL 4
REMARK VINA RESULT:      -4.3      3.423      4.271
REMARK  10 active torsions:
REMARK  status: ('A' for Active; 'I' for Inactive)
REMARK    1  A    between atoms: C_1  and  C_2 
REMARK    2  A    between atoms: C_2  and  C_3 
REMARK    3  A    between atoms: C_3  and  C_4 
REMARK    4  A    between atoms: C_4  and  C_5 
REMARK    5  A    between atoms: C_5  and  C_6 
REMARK    6  A    between atoms: C_6  and  C_8 
REMARK    7  A    between atoms: C_6  and  O_12 
REMARK    8  A    between atoms: C_8  and  C_9 
REMARK    9  A    between atoms: C_9  and  C_10 
REMARK   10  A    between atoms: C_10  and  C_11 
ROOT
ATOM      1  C   LIG d   1       3.560  -0.305  -5.913  0.00  0.00     0.055 C 
ATOM      2  H   LIG d   1       3.521  -1.374  -5.702  0.00  0.00     0.059 H 
ENDROOT
BRANCH   1   3
ATOM      3  C   LIG d   1       2.627   0.437  -4.954  0.00  0.00    -0.027 C 
ATOM      4  H   LIG d   1       3.031   1.429  -4.749  0.00  0.00     0.029 H 
ATOM      5  H   LIG d   1       1.641   0.535  -5.408  0.00  0.00     0.029 H 
BRANCH   3   6
ATOM      6  C   LIG d   1       2.511  -0.346  -3.645  0.00  0.00    -0.051 C 
ATOM      7  H   LIG d   1       1.469  -0.370  -3.326  0.00  0.00     0.027 H 
ATOM      8  H   LIG d   1       2.868  -1.365  -3.799  0.00  0.00     0.027 H 
BRANCH   6   9
ATOM      9  C   LIG d   1       3.359   0.333  -2.567  0.00  0.00    -0.053 C 
ATOM     10  H   LIG d   1       3.937   1.140  -3.016  0.00  0.00     0.026 H 
ATOM     11  H   LIG d   1       2.706   0.740  -1.795  0.00  0.00     0.026 H 
BRANCH   9  12
ATOM     12  C   LIG d   1       4.308  -0.692  -1.944  0.00  0.00    -0.056 C 
ATOM     13  H   LIG d   1       5.327  -0.489  -2.272  0.00  0.00     0.026 H 
ATOM     14  H   LIG d   1       4.255  -0.623  -0.858  0.00  0.00     0.026 H 
BRANCH  12  15
ATOM     15  C   LIG d   1       3.900  -2.099  -2.387  0.00  0.00    -0.065 C 
ATOM     16  H   LIG d   1       4.695  -2.535  -2.991  0.00  0.00     0.023 H 
ATOM     17  H   LIG d   1       3.728  -2.721  -1.507  0.00  0.00     0.023 H 
ATOM     18  H   LIG d   1       2.985  -2.043  -2.976  0.00  0.00     0.023 H 
ENDBRANCH  12  15
ENDBRANCH   9  12
ENDBRANCH   6   9
ENDBRANCH   3   6
ENDBRANCH   1   3
BRANCH   1  19
ATOM     19  C   LIG d   1       3.115  -0.053  -7.355  0.00  0.00    -0.027 C 
ATOM     20  H   LIG d   1       3.914  -0.342  -8.038  0.00  0.00     0.029 H 
ATOM     21  H   LIG d   1       2.223  -0.643  -7.568  0.00  0.00     0.029 H 
BRANCH  19  22
ATOM     22  C   LIG d   1       2.800   1.432  -7.539  0.00  0.00    -0.051 C 
ATOM     23  H   LIG d   1       1.809   1.647  -7.138  0.00  0.00     0.027 H 
ATOM     24  H   LIG d   1       3.543   2.030  -7.009  0.00  0.00     0.027 H 
BRANCH  22  25
ATOM     25  C   LIG d   1       2.834   1.780  -9.028  0.00  0.00    -0.056 C 
ATOM     26  H   LIG d   1       2.910   0.864  -9.614  0.00  0.00     0.026 H 
ATOM     27  H   LIG d   1       1.920   2.310  -9.299  0.00  0.00     0.026 H 
BRANCH  25  28
ATOM     28  C   LIG d   1       4.044   2.672  -9.316  0.00  0.00    -0.065 C 
ATOM     29  H   LIG d   1       3.703   3.677  -9.567  0.00  0.00     0.023 H 
ATOM     30  H   LIG d   1       4.682   2.714  -8.435  0.00  0.00     0.023 H 
ATOM     31  H   LIG d   1       4.608   2.261 -10.154  0.00  0.00     0.023 H 
ENDBRANCH  25  28
ENDBRANCH  22  25
ENDBRANCH  19  22
ENDBRANCH   1  19
BRANCH   1  32
ATOM     32  O   LIG d   1       4.897   0.166  -5.737  0.00  0.00    -0.392 OA
ATOM     33  H   LIG d   1       4.986   1.128  -5.795  0.00  0.00     0.210 HD
ENDBRANCH   1  32
TORSDOF 10
ENDMDL
MODEL 5
REMARK VINA RESULT:      -4.1      1.906      2.633
REMARK  10 active torsions:
REMARK  status: ('A' for Active; 'I' for Inactive)
REMARK    1  A    between atoms: C_1  and  C_2 
REMARK    2  A    between atoms: C_2  and  C_3 
REMARK    3  A    between atoms: C_3  and  C_4 
REMARK    4  A    between atoms: C_4  and  C_5 
REMARK    5  A    between atoms: C_5  and  C_6 
REMARK    6  A    between atoms: C_6  and  C_8 
REMARK    7  A    between atoms: C_6  and  O_12 
REMARK    8  A    between atoms: C_8  and  C_9 
REMARK    9  A    between atoms: C_9  and  C_10 
REMARK   10  A    between atoms: C_10  and  C_11 
ROOT
ATOM      1  C   LIG d   1       5.831  -2.237  -4.055  0.00  0.00     0.055 C 
ATOM      2  H   LIG d   1       6.310  -3.119  -4.482  0.00  0.00     0.059 H 
ENDROOT
BRANCH   1   3
ATOM      3  C   LIG d   1       4.443  -2.615  -3.532  0.00  0.00    -0.027 C 
ATOM      4  H   LIG d   1       3.706  -2.464  -4.320  0.00  0.00     0.029 H 
ATOM      5  H   LIG d   1       4.441  -3.662  -3.230  0.00  0.00     0.029 H 
BRANCH   3   6
ATOM      6  C   LIG d   1       4.094  -1.736  -2.330  0.00  0.00    -0.051 C 
ATOM      7  H   LIG d   1       3.820  -2.368  -1.485  0.00  0.00     0.027 H 
ATOM      8  H   LIG d   1       4.957  -1.125  -2.064  0.00  0.00     0.027 H 
BRANCH   6   9
ATOM      9  C   LIG d   1       2.917  -0.826  -2.689  0.00  0.00    -0.053 C 
ATOM     10  H   LIG d   1       2.564  -1.068  -3.690  0.00  0.00     0.026 H 
ATOM     11  H   LIG d   1       2.110  -0.977  -1.972  0.00  0.00     0.026 H 
BRANCH   9  12
ATOM     12  C   LIG d   1       3.370   0.635  -2.645  0.00  0.00    -0.056 C 
ATOM     13  H   LIG d   1       3.667   0.953  -3.644  0.00  0.00     0.026 H 
ATOM     14  H   LIG d   1       2.550   1.259  -2.292  0.00  0.00     0.026 H 
BRANCH  12  15
ATOM     15  C   LIG d   1       4.560   0.770  -1.691  0.00  0.00    -0.065 C 
ATOM     16  H   LIG d   1       4.293   1.435  -0.871  0.00  0.00     0.023 H 
ATOM     17  H   LIG d   1       4.822  -0.211  -1.296  0.00  0.00     0.023 H 
ATOM     18  H   LIG d   1       5.412   1.184  -2.231  0.00  0.00     0.023 H 
ENDBRANCH  12  15
ENDBRANCH   9  12
ENDBRANCH   6   9
ENDBRANCH   3   6
ENDBRANCH   1   3
BRANCH   1  19
ATOM     19  C   LIG d   1       5.695  -1.159  -5.131  0.00  0.00    -0.027 C 
ATOM     20  H   LIG d   1       5.467  -0.202  -4.662  0.00  0.00     0.029 H 
ATOM     21  H   LIG d   1       6.631  -1.078  -5.685  0.00  0.00     0.029 H 
BRANCH  19  22
ATOM     22  C   LIG d   1       4.566  -1.537  -6.092  0.00  0.00    -0.051 C 
ATOM     23  H   LIG d   1       4.918  -2.302  -6.785  0.00  0.00     0.027 H 
ATOM     24  H   LIG d   1       3.720  -1.925  -5.524  0.00  0.00     0.027 H 
BRANCH  22  25
ATOM     25  C   LIG d   1       4.129  -0.300  -6.878  0.00  0.00    -0.056 C 
ATOM     26  H   LIG d   1       4.910   0.459  -6.826  0.00  0.00     0.026 H 
ATOM     27  H   LIG d   1       3.956  -0.573  -7.919  0.00  0.00     0.026 H 
BRANCH  25  28
ATOM     28  C   LIG d   1       2.836   0.256  -6.276  0.00  0.00    -0.065 C 
ATOM     29  H   LIG d   1       2.225  -0.567  -5.904  0.00  0.00     0.023 H 
ATOM     30  H   LIG d   1       3.077   0.930  -5.455  0.00  0.00     0.023 H 
ATOM     31  H   LIG d   1       2.283   0.801  -7.042  0.00  0.00     0.023 H 
ENDBRANCH  25  28
ENDBRANCH  22  25
ENDBRANCH  19  22
ENDBRANCH   1  19
BRANCH   1  32
ATOM     32  O   LIG d   1       6.627  -1.738  -2.978  0.00  0.00    -0.392 OA
ATOM     33  H   LIG d   1       6.525  -0.789  -2.821  0.00  0.00     0.210 HD
ENDBRANCH   1  32
TORSDOF 10
ENDMDL
MODEL 6
REMARK VINA RESULT:      -4.0      2.393      4.300
REMARK  10 active torsions:
REMARK  status: ('A' for Active; 'I' for Inactive)
REMARK    1  A    between atoms: C_1  and  C_2 
REMARK    2  A    between atoms: C_2  and  C_3 
REMARK    3  A    between atoms: C_3  and  C_4 
REMARK    4  A    between atoms: C_4  and  C_5 
REMARK    5  A    between atoms: C_5  and  C_6 
REMARK    6  A    between atoms: C_6  and  C_8 
REMARK    7  A    between atoms: C_6  and  O_12 
REMARK    8  A    between atoms: C_8  and  C_9 
REMARK    9  A    between atoms: C_9  and  C_10 
REMARK   10  A    between atoms: C_10  and  C_11 
ROOT
ATOM      1  C   LIG d   1       4.013   0.704  -3.262  0.00  0.00     0.055 C 
ATOM      2  H   LIG d   1       4.757   0.428  -4.009  0.00  0.00     0.059 H 
ENDROOT
BRANCH   1   3
ATOM      3  C   LIG d   1       4.439   0.163  -1.895  0.00  0.00    -0.027 C 
ATOM      4  H   LIG d   1       5.450   0.502  -1.671  0.00  0.00     0.029 H 
ATOM      5  H   LIG d   1       3.755   0.529  -1.130  0.00  0.00     0.029 H 
BRANCH   3   6
ATOM      6  C   LIG d   1       4.406  -1.366  -1.919  0.00  0.00    -0.051 C 
ATOM      7  H   LIG d   1       4.652  -1.750  -0.929  0.00  0.00     0.027 H 
ATOM      8  H   LIG d   1       3.410  -1.704  -2.204  0.00  0.00     0.027 H 
BRANCH   6   9
ATOM      9  C   LIG d   1       5.430  -1.882  -2.934  0.00  0.00    -0.053 C 
ATOM     10  H   LIG d   1       5.819  -1.046  -3.514  0.00  0.00     0.026 H 
ATOM     11  H   LIG d   1       6.248  -2.372  -2.408  0.00  0.00     0.026 H 
BRANCH   9  12
ATOM     12  C   LIG d   1       4.755  -2.885  -3.873  0.00  0.00    -0.056 C 
ATOM     13  H   LIG d   1       4.456  -3.766  -3.307  0.00  0.00     0.026 H 
ATOM     14  H   LIG d   1       3.876  -2.425  -4.324  0.00  0.00     0.026 H 
BRANCH  12  15
ATOM     15  C   LIG d   1       5.738  -3.293  -4.973  0.00  0.00    -0.065 C 
ATOM     16  H   LIG d   1       5.300  -4.091  -5.572  0.00  0.00     0.023 H 
ATOM     17  H   LIG d   1       5.948  -2.433  -5.609  0.00  0.00     0.023 H 
ATOM     18  H   LIG d   1       6.664  -3.646  -4.520  0.00  0.00     0.023 H 
ENDBRANCH  12  15
ENDBRANCH   9  12
ENDBRANCH   6   9
ENDBRANCH   3   6
ENDBRANCH   1   3
BRANCH   1  19
ATOM     19  C   LIG d   1       2.658   0.107  -3.647  0.00  0.00    -0.027 C 
ATOM     20  H   LIG d   1       2.693  -0.977  -3.539  0.00  0.00     0.029 H 
ATOM     21  H   LIG d   1       1.884   0.512  -2.994  0.00  0.00     0.029 H 
BRANCH  19  22
ATOM     22  C   LIG d   1       2.337   0.465  -5.099  0.00  0.00    -0.051 C 
ATOM     23  H   LIG d   1       1.371   0.041  -5.375  0.00  0.00     0.027 H 
ATOM     24  H   LIG d   1       2.302   1.550  -5.207  0.00  0.00     0.027 H 
BRANCH  22  25
ATOM     25  C   LIG d   1       3.423  -0.102  -6.015  0.00  0.00    -0.056 C 
ATOM     26  H   LIG d   1       4.333   0.490  -5.913  0.00  0.00     0.026 H 
ATOM     27  H   LIG d   1       3.630  -1.136  -5.737  0.00  0.00     0.026 H 
BRANCH  25  28
ATOM     28  C   LIG d   1       2.943  -0.053  -7.467  0.00  0.00    -0.065 C 
ATOM     29  H   LIG d   1       2.045  -0.661  -7.574  0.00  0.00     0.023 H 
ATOM     30  H   LIG d   1       2.719   0.977  -7.742  0.00  0.00     0.023 H 
ATOM     31  H   LIG d   1       3.724  -0.441  -8.122  0.00  0.00     0.023 H 
ENDBRANCH  25  28
ENDBRANCH  22  25
ENDBRANCH  19  22
ENDBRANCH   1  19
BRANCH   1  32
ATOM     32  O   LIG d   1       3.906   2.128  -3.199  0.00  0.00    -0.392 OA
ATOM     33  H   LIG d   1       3.004   2.460  -3.309  0.00  0.00     0.210 HD
ENDBRANCH   1  32
TORSDOF 10
ENDMDL
MODEL 7
REMARK VINA RESULT:      -4.0      1.866      3.079
REMARK  10 active torsions:
REMARK  status: ('A' for Active; 'I' for Inactive)
REMARK    1  A    between atoms: C_1  and  C_2 
REMARK    2  A    between atoms: C_2  and  C_3 
REMARK    3  A    between atoms: C_3  and  C_4 
REMARK    4  A    between atoms: C_4  and  C_5 
REMARK    5  A    between atoms: C_5  and  C_6 
REMARK    6  A    between atoms: C_6  and  C_8 
REMARK    7  A    between atoms: C_6  and  O_12 
REMARK    8  A    between atoms: C_8  and  C_9 
REMARK    9  A    between atoms: C_9  and  C_10 
REMARK   10  A    between atoms: C_10  and  C_11 
ROOT
ATOM      1  C   LIG d   1       4.996  -2.464  -3.892  0.00  0.00     0.055 C 
ATOM      2  H   LIG d   1       5.394  -3.436  -3.599  0.00  0.00     0.059 H 
ENDROOT
BRANCH   1   3
ATOM      3  C   LIG d   1       5.470  -2.126  -5.308  0.00  0.00    -0.027 C 
ATOM      4  H   LIG d   1       6.559  -2.160  -5.343  0.00  0.00     0.029 H 
ATOM      5  H   LIG d   1       5.062  -2.851  -6.011  0.00  0.00     0.029 H 
BRANCH   3   6
ATOM      6  C   LIG d   1       4.990  -0.723  -5.685  0.00  0.00    -0.051 C 
ATOM      7  H   LIG d   1       4.477  -0.274  -4.834  0.00  0.00     0.027 H 
ATOM      8  H   LIG d   1       5.847  -0.108  -5.960  0.00  0.00     0.027 H 
BRANCH   6   9
ATOM      9  C   LIG d   1       4.027  -0.815  -6.871  0.00  0.00    -0.053 C 
ATOM     10  H   LIG d   1       4.578  -0.664  -7.798  0.00  0.00     0.026 H 
ATOM     11  H   LIG d   1       3.559  -1.800  -6.883  0.00  0.00     0.026 H 
BRANCH   9  12
ATOM     12  C   LIG d   1       2.948   0.261  -6.735  0.00  0.00    -0.056 C 
ATOM     13  H   LIG d   1       3.320   1.201  -7.140  0.00  0.00     0.026 H 
ATOM     14  H   LIG d   1       2.058  -0.045  -7.286  0.00  0.00     0.026 H 
BRANCH  12  15
ATOM     15  C   LIG d   1       2.594   0.445  -5.257  0.00  0.00    -0.065 C 
ATOM     16  H   LIG d   1       3.391   0.031  -4.640  0.00  0.00     0.023 H 
ATOM     17  H   LIG d   1       2.480   1.507  -5.041  0.00  0.00     0.023 H 
ATOM     18  H   LIG d   1       1.660  -0.073  -5.040  0.00  0.00     0.023 H 
ENDBRANCH  12  15
ENDBRANCH   9  12
ENDBRANCH   6   9
ENDBRANCH   3   6
ENDBRANCH   1   3
BRANCH   1  19
ATOM     19  C   LIG d   1       5.494  -1.394  -2.918  0.00  0.00    -0.027 C 
ATOM     20  H   LIG d   1       6.355  -1.774  -2.369  0.00  0.00     0.029 H 
ATOM     21  H   LIG d   1       5.784  -0.502  -3.475  0.00  0.00     0.029 H 
BRANCH  19  22
ATOM     22  C   LIG d   1       4.377  -1.041  -1.935  0.00  0.00    -0.051 C 
ATOM     23  H   LIG d   1       3.445  -1.505  -2.260  0.00  0.00     0.027 H 
ATOM     24  H   LIG d   1       4.638  -1.407  -0.941  0.00  0.00     0.027 H 
BRANCH  22  25
ATOM     25  C   LIG d   1       4.201   0.478  -1.888  0.00  0.00    -0.056 C 
ATOM     26  H   LIG d   1       3.266   0.751  -2.378  0.00  0.00     0.026 H 
ATOM     27  H   LIG d   1       4.177   0.809  -0.849  0.00  0.00     0.026 H 
BRANCH  25  28
ATOM     28  C   LIG d   1       5.371   1.150  -2.610  0.00  0.00    -0.065 C 
ATOM     29  H   LIG d   1       6.093   0.393  -2.915  0.00  0.00     0.023 H 
ATOM     30  H   LIG d   1       5.002   1.676  -3.489  0.00  0.00     0.023 H 
ATOM     31  H   LIG d   1       5.853   1.860  -1.937  0.00  0.00     0.023 H 
ENDBRANCH  25  28
ENDBRANCH  22  25
ENDBRANCH  19  22
ENDBRANCH   1  19
BRANCH   1  32
ATOM     32  O   LIG d   1       3.568  -2.507  -3.865  0.00  0.00    -0.392 OA
ATOM     33  H   LIG d   1       3.154  -2.350  -4.725  0.00  0.00     0.210 HD
ENDBRANCH   1  32
TORSDOF 10
ENDMDL
MODEL 8
REMARK VINA RESULT:      -3.9      1.976      4.001
REMARK  10 active torsions:
REMARK  status: ('A' for Active; 'I' for Inactive)
REMARK    1  A    between atoms: C_1  and  C_2 
REMARK    2  A    between atoms: C_2  and  C_3 
REMARK    3  A    between atoms: C_3  and  C_4 
REMARK    4  A    between atoms: C_4  and  C_5 
REMARK    5  A    between atoms: C_5  and  C_6 
REMARK    6  A    between atoms: C_6  and  C_8 
REMARK    7  A    between atoms: C_6  and  O_12 
REMARK    8  A    between atoms: C_8  and  C_9 
REMARK    9  A    between atoms: C_9  and  C_10 
REMARK   10  A    between atoms: C_10  and  C_11 
ROOT
ATOM      1  C   LIG d   1       3.271  -0.072  -5.351  0.00  0.00     0.055 C 
ATOM      2  H   LIG d   1       2.586  -0.912  -5.461  0.00  0.00     0.059 H 
ENDROOT
BRANCH   1   3
ATOM      3  C   LIG d   1       4.709  -0.558  -5.542  0.00  0.00    -0.027 C 
ATOM      4  H   LIG d   1       5.178   0.003  -6.351  0.00  0.00     0.029 H 
ATOM      5  H   LIG d   1       5.270  -0.403  -4.620  0.00  0.00     0.029 H 
BRANCH   3   6
ATOM      6  C   LIG d   1       4.702  -2.048  -5.890  0.00  0.00    -0.051 C 
ATOM      7  H   LIG d   1       3.688  -2.355  -6.148  0.00  0.00     0.027 H 
ATOM      8  H   LIG d   1       5.363  -2.226  -6.738  0.00  0.00     0.027 H 
BRANCH   6   9
ATOM      9  C   LIG d   1       5.189  -2.856  -4.685  0.00  0.00    -0.053 C 
ATOM     10  H   LIG d   1       4.780  -2.427  -3.771  0.00  0.00     0.026 H 
ATOM     11  H   LIG d   1       4.856  -3.889  -4.783  0.00  0.00     0.026 H 
BRANCH   9  12
ATOM     12  C   LIG d   1       6.717  -2.816  -4.630  0.00  0.00    -0.056 C 
ATOM     13  H   LIG d   1       7.107  -3.834  -4.631  0.00  0.00     0.026 H 
ATOM     14  H   LIG d   1       7.099  -2.280  -5.498  0.00  0.00     0.026 H 
BRANCH  12  15
ATOM     15  C   LIG d   1       7.163  -2.100  -3.352  0.00  0.00    -0.065 C 
ATOM     16  H   LIG d   1       6.385  -1.406  -3.036  0.00  0.00     0.023 H 
ATOM     17  H   LIG d   1       7.336  -2.836  -2.566  0.00  0.00     0.023 H 
ATOM     18  H   LIG d   1       8.084  -1.551  -3.546  0.00  0.00     0.023 H 
ENDBRANCH  12  15
ENDBRANCH   9  12
ENDBRANCH   6   9
ENDBRANCH   3   6
ENDBRANCH   1   3
BRANCH   1  19
ATOM     19  C   LIG d   1       3.117   0.532  -3.954  0.00  0.00    -0.027 C 
ATOM     20  H   LIG d   1       4.009   1.108  -3.706  0.00  0.00     0.029 H 
ATOM     21  H   LIG d   1       2.245   1.188  -3.936  0.00  0.00     0.029 H 
BRANCH  19  22
ATOM     22  C   LIG d   1       2.933  -0.589  -2.931  0.00  0.00    -0.051 C 
ATOM     23  H   LIG d   1       2.001  -0.437  -2.386  0.00  0.00     0.027 H 
ATOM     24  H   LIG d   1       2.899  -1.550  -3.447  0.00  0.00     0.027 H 
BRANCH  22  25
ATOM     25  C   LIG d   1       4.106  -0.581  -1.949  0.00  0.00    -0.056 C 
ATOM     26  H   LIG d   1       3.785  -1.000  -0.995  0.00  0.00     0.026 H 
ATOM     27  H   LIG d   1       4.923  -1.180  -2.352  0.00  0.00     0.026 H 
BRANCH  25  28
ATOM     28  C   LIG d   1       4.584   0.857  -1.738  0.00  0.00    -0.065 C 
ATOM     29  H   LIG d   1       4.897   0.988  -0.703  0.00  0.00     0.023 H 
ATOM     30  H   LIG d   1       5.425   1.061  -2.400  0.00  0.00     0.023 H 
ATOM     31  H   LIG d   1       3.770   1.548  -1.962  0.00  0.00     0.023 H 
ENDBRANCH  25  28
ENDBRANCH  22  25
ENDBRANCH  19  22
ENDBRANCH   1  19
BRANCH   1  32
ATOM     32  O   LIG d   1       2.969   0.920  -6.335  0.00  0.00    -0.392 OA
ATOM     33  H   LIG d   1       2.051   1.223  -6.319  0.00  0.00     0.210 HD
ENDBRANCH   1  32
TORSDOF 10
ENDMDL
MODEL 9
REMARK VINA RESULT:      -3.7      2.296      3.661
REMARK  10 active torsions:
REMARK  status: ('A' for Active; 'I' for Inactive)
REMARK    1  A    between atoms: C_1  and  C_2 
REMARK    2  A    between atoms: C_2  and  C_3 
REMARK    3  A    between atoms: C_3  and  C_4 
REMARK    4  A    between atoms: C_4  and  C_5 
REMARK    5  A    between atoms: C_5  and  C_6 
REMARK    6  A    between atoms: C_6  and  C_8 
REMARK    7  A    between atoms: C_6  and  O_12 
REMARK    8  A    between atoms: C_8  and  C_9 
REMARK    9  A    between atoms: C_9  and  C_10 
REMARK   10  A    between atoms: C_10  and  C_11 
ROOT
ATOM      1  C   LIG d   1       6.330  -0.248  -5.950  0.00  0.00     0.055 C 
ATOM      2  H   LIG d   1       6.958  -1.086  -6.254  0.00  0.00     0.059 H 
ENDROOT
BRANCH   1   3
ATOM      3  C   LIG d   1       6.921   0.403  -4.698  0.00  0.00    -0.027 C 
ATOM      4  H   LIG d   1       7.967   0.110  -4.596  0.00  0.00     0.029 H 
ATOM      5  H   LIG d   1       6.856   1.487  -4.787  0.00  0.00     0.029 H 
BRANCH   3   6
ATOM      6  C   LIG d   1       6.140  -0.057  -3.466  0.00  0.00    -0.051 C 
ATOM      7  H   LIG d   1       5.330  -0.718  -3.776  0.00  0.00     0.027 H 
ATOM      8  H   LIG d   1       6.808  -0.591  -2.791  0.00  0.00     0.027 H 
BRANCH   6   9
ATOM      9  C   LIG d   1       5.556   1.163  -2.748  0.00  0.00    -0.053 C 
ATOM     10  H   LIG d   1       6.350   1.685  -2.217  0.00  0.00     0.026 H 
ATOM     11  H   LIG d   1       5.105   1.833  -3.480  0.00  0.00     0.026 H 
BRANCH   9  12
ATOM     12  C   LIG d   1       4.489   0.704  -1.752  0.00  0.00    -0.056 C 
ATOM     13  H   LIG d   1       4.804   0.960  -0.741  0.00  0.00     0.026 H 
ATOM     14  H   LIG d   1       3.545   1.201  -1.976  0.00  0.00     0.026 H 
BRANCH  12  15
ATOM     15  C   LIG d   1       4.307  -0.812  -1.861  0.00  0.00    -0.065 C 
ATOM     16  H   LIG d   1       4.878  -1.303  -1.075  0.00  0.00     0.023 H 
ATOM     17  H   LIG d   1       3.251  -1.059  -1.754  0.00  0.00     0.023 H 
ATOM     18  H   LIG d   1       4.663  -1.150  -2.834  0.00  0.00     0.023 H 
ENDBRANCH  12  15
ENDBRANCH   9  12
ENDBRANCH   6   9
ENDBRANCH   3   6
ENDBRANCH   1   3
BRANCH   1  19
ATOM     19  C   LIG d   1       4.919  -0.753  -5.645  0.00  0.00    -0.027 C 
ATOM     20  H   LIG d   1       4.962  -1.804  -5.358  0.00  0.00     0.029 H 
ATOM     21  H   LIG d   1       4.494  -0.171  -4.827  0.00  0.00     0.029 H 
BRANCH  19  22
ATOM     22  C   LIG d   1       4.042  -0.600  -6.889  0.00  0.00    -0.051 C 
ATOM     23  H   LIG d   1       4.625  -0.146  -7.691  0.00  0.00     0.027 H 
ATOM     24  H   LIG d   1       3.689  -1.581  -7.208  0.00  0.00     0.027 H 
BRANCH  22  25
ATOM     25  C   LIG d   1       2.843   0.292  -6.561  0.00  0.00    -0.056 C 
ATOM     26  H   LIG d   1       3.013   1.291  -6.961  0.00  0.00     0.026 H 
ATOM     27  H   LIG d   1       1.943  -0.131  -7.009  0.00  0.00     0.026 H 
BRANCH  25  28
ATOM     28  C   LIG d   1       2.667   0.372  -5.043  0.00  0.00    -0.065 C 
ATOM     29  H   LIG d   1       2.079   1.254  -4.792  0.00  0.00     0.023 H 
ATOM     30  H   LIG d   1       2.153  -0.520  -4.689  0.00  0.00     0.023 H 
ATOM     31  H   LIG d   1       3.646   0.440  -4.567  0.00  0.00     0.023 H 
ENDBRANCH  25  28
ENDBRANCH  22  25
ENDBRANCH  19  22
ENDBRANCH   1  19
BRANCH   1  32
ATOM     32  O   LIG d   1       6.275   0.713  -7.007  0.00  0.00    -0.392 OA
ATOM     33  H   LIG d   1       5.398   1.096  -7.144  0.00  0.00     0.210 HD
ENDBRANCH   1  32
TORSDOF 10
ENDMDL
MODEL 10
REMARK VINA RESULT:      -3.6      1.508      3.675
REMARK  10 active torsions:
REMARK  status: ('A' for Active; 'I' for Inactive)
REMARK    1  A    between atoms: C_1  and  C_2 
REMARK    2  A    between atoms: C_2  and  C_3 
REMARK    3  A    between atoms: C_3  and  C_4 
REMARK    4  A    between atoms: C_4  and  C_5 
REMARK    5  A    between atoms: C_5  and  C_6 
REMARK    6  A    between atoms: C_6  and  C_8 
REMARK    7  A    between atoms: C_6  and  O_12 
REMARK    8  A    between atoms: C_8  and  C_9 
REMARK    9  A    between atoms: C_9  and  C_10 
REMARK   10  A    between atoms: C_10  and  C_11 
ROOT
ATOM      1  C   LIG d   1       3.550  -0.138  -3.474  0.00  0.00     0.055 C 
ATOM      2  H   LIG d   1       4.436  -0.356  -4.071  0.00  0.00     0.059 H 
ENDROOT
BRANCH   1   3
ATOM      3  C   LIG d   1       3.889   0.926  -2.428  0.00  0.00    -0.027 C 
ATOM      4  H   LIG d   1       3.123   1.702  -2.439  0.00  0.00     0.029 H 
ATOM      5  H   LIG d   1       3.927   0.467  -1.441  0.00  0.00     0.029 H 
BRANCH   3   6
ATOM      6  C   LIG d   1       5.248   1.547  -2.755  0.00  0.00    -0.051 C 
ATOM      7  H   LIG d   1       5.173   2.122  -3.678  0.00  0.00     0.027 H 
ATOM      8  H   LIG d   1       5.553   2.204  -1.940  0.00  0.00     0.027 H 
BRANCH   6   9
ATOM      9  C   LIG d   1       6.288   0.437  -2.929  0.00  0.00    -0.053 C 
ATOM     10  H   LIG d   1       6.907   0.376  -2.036  0.00  0.00     0.026 H 
ATOM     11  H   LIG d   1       5.779  -0.515  -3.084  0.00  0.00     0.026 H 
BRANCH   9  12
ATOM     12  C   LIG d   1       7.167   0.748  -4.142  0.00  0.00    -0.056 C 
ATOM     13  H   LIG d   1       7.801  -0.110  -4.361  0.00  0.00     0.026 H 
ATOM     14  H   LIG d   1       6.534   0.962  -5.004  0.00  0.00     0.026 H 
BRANCH  12  15
ATOM     15  C   LIG d   1       8.042   1.966  -3.837  0.00  0.00    -0.065 C 
ATOM     16  H   LIG d   1       7.526   2.617  -3.133  0.00  0.00     0.023 H 
ATOM     17  H   LIG d   1       8.986   1.635  -3.404  0.00  0.00     0.023 H 
ATOM     18  H   LIG d   1       8.238   2.512  -4.760  0.00  0.00     0.023 H 
ENDBRANCH  12  15
ENDBRANCH   9  12
ENDBRANCH   6   9
ENDBRANCH   3   6
ENDBRANCH   1   3
BRANCH   1  19
ATOM     19  C   LIG d   1       3.083  -1.414  -2.771  0.00  0.00    -0.027 C 
ATOM     20  H   LIG d   1       2.945  -1.215  -1.708  0.00  0.00     0.029 H 
ATOM     21  H   LIG d   1       2.137  -1.742  -3.204  0.00  0.00     0.029 H 
BRANCH  19  22
ATOM     22  C   LIG d   1       4.134  -2.510  -2.952  0.00  0.00    -0.051 C 
ATOM     23  H   LIG d   1       4.949  -2.353  -2.245  0.00  0.00     0.027 H 
ATOM     24  H   LIG d   1       3.679  -3.484  -2.770  0.00  0.00     0.027 H 
BRANCH  22  25
ATOM     25  C   LIG d   1       4.680  -2.461  -4.380  0.00  0.00    -0.056 C 
ATOM     26  H   LIG d   1       3.952  -1.978  -5.032  0.00  0.00     0.026 H 
ATOM     27  H   LIG d   1       5.612  -1.895  -4.394  0.00  0.00     0.026 H 
BRANCH  25  28
ATOM     28  C   LIG d   1       4.943  -3.885  -4.875  0.00  0.00    -0.065 C 
ATOM     29  H   LIG d   1       4.428  -4.042  -5.822  0.00  0.00     0.023 H 
ATOM     30  H   LIG d   1       6.013  -4.030  -5.015  0.00  0.00     0.023 H 
ATOM     31  H   LIG d   1       4.573  -4.600  -4.138  0.00  0.00     0.023 H 
ENDBRANCH  25  28
ENDBRANCH  22  25
ENDBRANCH  19  22
ENDBRANCH   1  19
BRANCH   1  32
ATOM     32  O   LIG d   1       2.509   0.346  -4.326  0.00  0.00    -0.392 OA
ATOM     33  H   LIG d   1       1.828   0.854  -3.864  0.00  0.00     0.210 HD
ENDBRANCH   1  32
TORSDOF 10
ENDMDL
