MODEL 1
REMARK VINA RESULT:      -6.3      0.000      0.000
REMARK  10 active torsions:
REMARK  status: ('A' for Active; 'I' for Inactive)
REMARK    1  A    between atoms: C_3  and  O_37 
REMARK    2  A    between atoms: C_6  and  C_7 
REMARK    3  A    between atoms: C_15  and  O_35 
REMARK    4  A    between atoms: C_17  and  O_18 
REMARK    5  A    between atoms: O_18  and  C_19 
REMARK    6  A    between atoms: C_21  and  O_34 
REMARK    7  A    between atoms: C_23  and  O_33 
REMARK    8  A    between atoms: C_25  and  O_32 
REMARK    9  A    between atoms: C_27  and  C_30 
REMARK   10  A    between atoms: C_30  and  O_31 
ROOT
ATOM      1  C   LIG d   1       1.648  -1.179 -10.472  0.00  0.00     0.132 C 
ATOM      2  H   LIG d   1       0.832  -1.144  -9.749  0.00  0.00     0.079 H 
ATOM      3  C   LIG d   1       2.342  -2.546 -10.393  0.00  0.00     0.052 C 
ATOM      4  C   LIG d   1       1.305  -3.596 -10.748  0.00  0.00     0.174 C 
ATOM      5  O   LIG d   1       1.240  -4.654 -10.156  0.00  0.00    -0.292 OA
ATOM      6  C   LIG d   1       0.387  -3.269 -11.844  0.00  0.00     0.101 A 
ATOM      7  C   LIG d   1       0.334  -1.945 -12.318  0.00  0.00     0.139 A 
ATOM      8  C   LIG d   1      -0.539  -1.628 -13.343  0.00  0.00     0.022 A 
ATOM      9  C   LIG d   1      -1.350  -2.609 -13.900  0.00  0.00     0.124 A 
ATOM     10  C   LIG d   1      -1.296  -3.919 -13.440  0.00  0.00     0.023 A 
ATOM     11  C   LIG d   1      -0.431  -4.257 -12.414  0.00  0.00     0.141 A 
ATOM     12  O   LIG d   1       1.128  -0.986 -11.787  0.00  0.00    -0.483 OA
ATOM     13  H   LIG d   1       3.168  -2.584 -11.104  0.00  0.00     0.038 H 
ATOM     14  H   LIG d   1       2.713  -2.717  -9.384  0.00  0.00     0.038 H 
ATOM     15  H   LIG d   1      -0.592  -0.613 -13.712  0.00  0.00     0.069 H 
ATOM     16  H   LIG d   1      -1.929  -4.673 -13.881  0.00  0.00     0.069 H 
ENDROOT
BRANCH  11  17
ATOM     17  O   LIG d   1      -0.373  -5.535 -11.963  0.00  0.00    -0.460 OA
BRANCH  17  18
ATOM     18  C   LIG d   1      -1.608  -6.145 -11.580  0.00  0.00     0.231 C 
ATOM     19  H   LIG d   1      -2.317  -6.078 -12.405  0.00  0.00     0.108 H 
ATOM     20  O   LIG d   1      -1.380  -7.518 -11.259  0.00  0.00    -0.331 OA
ATOM     21  C   LIG d   1      -2.559  -8.233 -10.885  0.00  0.00     0.114 C 
ATOM     22  C   LIG d   1      -3.168  -7.595  -9.633  0.00  0.00     0.112 C 
ATOM     23  H   LIG d   1      -3.281  -8.193 -11.701  0.00  0.00     0.065 H 
ATOM     24  C   LIG d   1      -3.468  -6.120  -9.917  0.00  0.00     0.115 C 
ATOM     25  H   LIG d   1      -4.091  -8.111  -9.373  0.00  0.00     0.065 H 
ATOM     26  C   LIG d   1      -2.177  -5.422 -10.357  0.00  0.00     0.145 C 
ATOM     27  H   LIG d   1      -4.211  -6.045 -10.711  0.00  0.00     0.065 H 
ATOM     28  H   LIG d   1      -2.392  -4.385 -10.614  0.00  0.00     0.068 H 
BRANCH  21  29
ATOM     29  C   LIG d   1      -2.202  -9.691 -10.591  0.00  0.00     0.073 C 
ATOM     30  H   LIG d   1      -2.178 -10.254 -11.524  0.00  0.00     0.058 H 
ATOM     31  H   LIG d   1      -1.223  -9.737 -10.114  0.00  0.00     0.058 H 
BRANCH  29  32
ATOM     32  O   LIG d   1      -3.183 -10.255  -9.718  0.00  0.00    -0.392 OA
ATOM     33  H   LIG d   1      -4.014 -10.486 -10.158  0.00  0.00     0.209 HD
ENDBRANCH  29  32
ENDBRANCH  21  29
BRANCH  22  34
ATOM     34  O   LIG d   1      -2.243  -7.693  -8.549  0.00  0.00    -0.387 OA
ATOM     35  H   LIG d   1      -2.538  -7.252  -7.740  0.00  0.00     0.210 HD
ENDBRANCH  22  34
BRANCH  24  36
ATOM     36  O   LIG d   1      -3.969  -5.496  -8.733  0.00  0.00    -0.386 OA
ATOM     37  H   LIG d   1      -4.419  -6.103  -8.128  0.00  0.00     0.210 HD
ENDBRANCH  24  36
BRANCH  26  38
ATOM     38  O   LIG d   1      -1.225  -5.462  -9.292  0.00  0.00    -0.383 OA
ATOM     39  H   LIG d   1      -0.504  -4.825  -9.385  0.00  0.00     0.210 HD
ENDBRANCH  26  38
ENDBRANCH  17  18
ENDBRANCH  11  17
BRANCH   9  40
ATOM     40  O   LIG d   1      -2.203  -2.286 -14.904  0.00  0.00    -0.506 OA
ATOM     41  H   LIG d   1      -3.112  -2.582 -14.758  0.00  0.00     0.292 HD
ENDBRANCH   9  40
BRANCH   1  42
ATOM     42  C   LIG d   1       2.643  -0.091 -10.159  0.00  0.00    -0.007 A 
ATOM     43  C   LIG d   1       2.412   0.774  -9.106  0.00  0.00    -0.052 A 
ATOM     44  C   LIG d   1       3.322   1.772  -8.817  0.00  0.00    -0.020 A 
ATOM     45  H   LIG d   1       1.521   0.668  -8.506  0.00  0.00     0.062 H 
ATOM     46  C   LIG d   1       4.470   1.905  -9.586  0.00  0.00     0.117 A 
ATOM     47  H   LIG d   1       3.142   2.448  -7.995  0.00  0.00     0.065 H 
ATOM     48  C   LIG d   1       4.699   1.036 -10.643  0.00  0.00    -0.020 A 
ATOM     49  C   LIG d   1       3.785   0.040 -10.926  0.00  0.00    -0.052 A 
ATOM     50  H   LIG d   1       5.592   1.138 -11.242  0.00  0.00     0.065 H 
ATOM     51  H   LIG d   1       3.964  -0.637 -11.749  0.00  0.00     0.062 H 
BRANCH  46  52
ATOM     52  O   LIG d   1       5.367   2.887  -9.304  0.00  0.00    -0.507 OA
ATOM     53  H   LIG d   1       5.233   3.700  -9.810  0.00  0.00     0.292 HD
ENDBRANCH  46  52
ENDBRANCH   1  42
TORSDOF 10
ENDMDL
MODEL 2
REMARK VINA RESULT:      -6.3      8.118      9.336
REMARK  10 active torsions:
REMARK  status: ('A' for Active; 'I' for Inactive)
REMARK    1  A    between atoms: C_3  and  O_37 
REMARK    2  A    between atoms: C_6  and  C_7 
REMARK    3  A    between atoms: C_15  and  O_35 
REMARK    4  A    between atoms: C_17  and  O_18 
REMARK    5  A    between atoms: O_18  and  C_19 
REMARK    6  A    between atoms: C_21  and  O_34 
REMARK    7  A    between atoms: C_23  and  O_33 
REMARK    8  A    between atoms: C_25  and  O_32 
REMARK    9  A    between atoms: C_27  and  C_30 
REMARK   10  A    between atoms: C_30  and  O_31 
ROOT
ATOM      1  C   LIG d   1       5.508  -2.963  -4.769  0.00  0.00     0.132 C 
ATOM      2  H   LIG d   1       5.313  -2.658  -5.797  0.00  0.00     0.079 H 
ATOM      3  C   LIG d   1       4.548  -4.097  -4.382  0.00  0.00     0.052 C 
ATOM      4  C   LIG d   1       4.825  -5.259  -5.317  0.00  0.00     0.174 C 
ATOM      5  O   LIG d   1       3.928  -5.934  -5.780  0.00  0.00    -0.292 OA
ATOM      6  C   LIG d   1       6.233  -5.527  -5.634  0.00  0.00     0.101 A 
ATOM      7  C   LIG d   1       7.204  -4.570  -5.288  0.00  0.00     0.139 A 
ATOM      8  C   LIG d   1       8.531  -4.810  -5.595  0.00  0.00     0.022 A 
ATOM      9  C   LIG d   1       8.898  -5.989  -6.234  0.00  0.00     0.124 A 
ATOM     10  C   LIG d   1       7.943  -6.940  -6.571  0.00  0.00     0.023 A 
ATOM     11  C   LIG d   1       6.609  -6.717  -6.275  0.00  0.00     0.141 A 
ATOM     12  O   LIG d   1       6.855  -3.424  -4.657  0.00  0.00    -0.483 OA
ATOM     13  H   LIG d   1       4.728  -4.400  -3.350  0.00  0.00     0.038 H 
ATOM     14  H   LIG d   1       3.517  -3.765  -4.496  0.00  0.00     0.038 H 
ATOM     15  H   LIG d   1       9.285  -4.081  -5.338  0.00  0.00     0.069 H 
ATOM     16  H   LIG d   1       8.240  -7.852  -7.066  0.00  0.00     0.069 H 
ENDROOT
BRANCH  11  17
ATOM     17  O   LIG d   1       5.674  -7.643  -6.600  0.00  0.00    -0.460 OA
BRANCH  17  18
ATOM     18  C   LIG d   1       5.827  -8.948  -6.036  0.00  0.00     0.231 C 
ATOM     19  H   LIG d   1       6.871  -9.103  -5.760  0.00  0.00     0.108 H 
ATOM     20  O   LIG d   1       5.005  -9.062  -4.874  0.00  0.00    -0.331 OA
ATOM     21  C   LIG d   1       5.102 -10.326  -4.213  0.00  0.00     0.114 C 
ATOM     22  C   LIG d   1       4.653 -11.436  -5.168  0.00  0.00     0.112 C 
ATOM     23  H   LIG d   1       6.136 -10.500  -3.913  0.00  0.00     0.065 H 
ATOM     24  C   LIG d   1       5.518 -11.392  -6.431  0.00  0.00     0.115 C 
ATOM     25  H   LIG d   1       4.769 -12.404  -4.680  0.00  0.00     0.065 H 
ATOM     26  C   LIG d   1       5.408 -10.001  -7.064  0.00  0.00     0.145 C 
ATOM     27  H   LIG d   1       6.557 -11.592  -6.170  0.00  0.00     0.065 H 
ATOM     28  H   LIG d   1       6.063  -9.943  -7.933  0.00  0.00     0.068 H 
BRANCH  21  29
ATOM     29  C   LIG d   1       4.205 -10.325  -2.974  0.00  0.00     0.073 C 
ATOM     30  H   LIG d   1       3.970 -11.353  -2.696  0.00  0.00     0.058 H 
ATOM     31  H   LIG d   1       4.723  -9.835  -2.150  0.00  0.00     0.058 H 
BRANCH  29  32
ATOM     32  O   LIG d   1       2.995  -9.621  -3.263  0.00  0.00    -0.392 OA
ATOM     33  H   LIG d   1       2.883  -9.401  -4.198  0.00  0.00     0.209 HD
ENDBRANCH  29  32
ENDBRANCH  21  29
BRANCH  22  34
ATOM     34  O   LIG d   1       3.283 -11.238  -5.520  0.00  0.00    -0.387 OA
ATOM     35  H   LIG d   1       2.709 -11.984  -5.297  0.00  0.00     0.210 HD
ENDBRANCH  22  34
BRANCH  24  36
ATOM     36  O   LIG d   1       5.060 -12.377  -7.360  0.00  0.00    -0.386 OA
ATOM     37  H   LIG d   1       5.310 -12.199  -8.278  0.00  0.00     0.210 HD
ENDBRANCH  24  36
BRANCH  26  38
ATOM     38  O   LIG d   1       4.057  -9.764  -7.467  0.00  0.00    -0.383 OA
ATOM     39  H   LIG d   1       3.411 -10.332  -7.026  0.00  0.00     0.210 HD
ENDBRANCH  26  38
ENDBRANCH  17  18
ENDBRANCH  11  17
BRANCH   9  40
ATOM     40  O   LIG d   1      10.202  -6.214  -6.531  0.00  0.00    -0.506 OA
ATOM     41  H   LIG d   1      10.414  -6.117  -7.469  0.00  0.00     0.292 HD
ENDBRANCH   9  40
BRANCH   1  42
ATOM     42  C   LIG d   1       5.299  -1.790  -3.847  0.00  0.00    -0.007 A 
ATOM     43  C   LIG d   1       4.462  -1.911  -2.754  0.00  0.00    -0.052 A 
ATOM     44  C   LIG d   1       4.269  -0.837  -1.907  0.00  0.00    -0.020 A 
ATOM     45  H   LIG d   1       3.961  -2.847  -2.560  0.00  0.00     0.062 H 
ATOM     46  C   LIG d   1       4.918   0.365  -2.155  0.00  0.00     0.117 A 
ATOM     47  H   LIG d   1       3.615  -0.932  -1.054  0.00  0.00     0.065 H 
ATOM     48  C   LIG d   1       5.758   0.484  -3.252  0.00  0.00    -0.020 A 
ATOM     49  C   LIG d   1       5.947  -0.594  -4.095  0.00  0.00    -0.052 A 
ATOM     50  H   LIG d   1       6.263   1.418  -3.447  0.00  0.00     0.065 H 
ATOM     51  H   LIG d   1       6.601  -0.502  -4.950  0.00  0.00     0.062 H 
BRANCH  46  52
ATOM     52  O   LIG d   1       4.729   1.423  -1.323  0.00  0.00    -0.507 OA
ATOM     53  H   LIG d   1       4.658   1.182  -0.390  0.00  0.00     0.292 HD
ENDBRANCH  46  52
ENDBRANCH   1  42
TORSDOF 10
ENDMDL
MODEL 3
REMARK VINA RESULT:      -6.2      8.185     11.056
REMARK  10 active torsions:
REMARK  status: ('A' for Active; 'I' for Inactive)
REMARK    1  A    between atoms: C_3  and  O_37 
REMARK    2  A    between atoms: C_6  and  C_7 
REMARK    3  A    between atoms: C_15  and  O_35 
REMARK    4  A    between atoms: C_17  and  O_18 
REMARK    5  A    between atoms: O_18  and  C_19 
REMARK    6  A    between atoms: C_21  and  O_34 
REMARK    7  A    between atoms: C_23  and  O_33 
REMARK    8  A    between atoms: C_25  and  O_32 
REMARK    9  A    between atoms: C_27  and  C_30 
REMARK   10  A    between atoms: C_30  and  O_31 
ROOT
ATOM      1  C   LIG d   1       9.211   2.961  -8.449  0.00  0.00     0.132 C 
ATOM      2  H   LIG d   1       9.974   2.184  -8.485  0.00  0.00     0.079 H 
ATOM      3  C   LIG d   1       7.820   2.314  -8.515  0.00  0.00     0.052 C 
ATOM      4  C   LIG d   1       7.684   1.414  -7.301  0.00  0.00     0.174 C 
ATOM      5  O   LIG d   1       7.154   0.324  -7.370  0.00  0.00    -0.292 OA
ATOM      6  C   LIG d   1       8.227   1.928  -6.038  0.00  0.00     0.101 A 
ATOM      7  C   LIG d   1       9.053   3.066  -6.063  0.00  0.00     0.139 A 
ATOM      8  C   LIG d   1       9.578   3.548  -4.877  0.00  0.00     0.022 A 
ATOM      9  C   LIG d   1       9.285   2.915  -3.675  0.00  0.00     0.124 A 
ATOM     10  C   LIG d   1       8.464   1.794  -3.645  0.00  0.00     0.023 A 
ATOM     11  C   LIG d   1       7.931   1.295  -4.821  0.00  0.00     0.141 A 
ATOM     12  O   LIG d   1       9.335   3.693  -7.230  0.00  0.00    -0.483 OA
ATOM     13  H   LIG d   1       7.050   3.086  -8.492  0.00  0.00     0.038 H 
ATOM     14  H   LIG d   1       7.727   1.725  -9.427  0.00  0.00     0.038 H 
ATOM     15  H   LIG d   1      10.217   4.418  -4.885  0.00  0.00     0.069 H 
ATOM     16  H   LIG d   1       8.242   1.312  -2.705  0.00  0.00     0.069 H 
ENDROOT
BRANCH  11  17
ATOM     17  O   LIG d   1       7.127   0.203  -4.796  0.00  0.00    -0.460 OA
BRANCH  17  18
ATOM     18  C   LIG d   1       5.922   0.300  -4.033  0.00  0.00     0.231 C 
ATOM     19  H   LIG d   1       5.939   1.217  -3.443  0.00  0.00     0.108 H 
ATOM     20  O   LIG d   1       4.801   0.324  -4.917  0.00  0.00    -0.331 OA
ATOM     21  C   LIG d   1       3.539   0.445  -4.256  0.00  0.00     0.114 C 
ATOM     22  C   LIG d   1       3.331  -0.756  -3.330  0.00  0.00     0.112 C 
ATOM     23  H   LIG d   1       3.525   1.364  -3.668  0.00  0.00     0.065 H 
ATOM     24  C   LIG d   1       4.489  -0.826  -2.329  0.00  0.00     0.115 C 
ATOM     25  H   LIG d   1       2.390  -0.642  -2.792  0.00  0.00     0.065 H 
ATOM     26  C   LIG d   1       5.811  -0.906  -3.099  0.00  0.00     0.145 C 
ATOM     27  H   LIG d   1       4.485   0.067  -1.704  0.00  0.00     0.065 H 
ATOM     28  H   LIG d   1       6.644  -0.901  -2.395  0.00  0.00     0.068 H 
BRANCH  21  29
ATOM     29  C   LIG d   1       2.418   0.488  -5.296  0.00  0.00     0.073 C 
ATOM     30  H   LIG d   1       1.499   0.102  -4.855  0.00  0.00     0.058 H 
ATOM     31  H   LIG d   1       2.262   1.516  -5.620  0.00  0.00     0.058 H 
BRANCH  29  32
ATOM     32  O   LIG d   1       2.782  -0.316  -6.421  0.00  0.00    -0.392 OA
ATOM     33  H   LIG d   1       3.560   0.005  -6.898  0.00  0.00     0.209 HD
ENDBRANCH  29  32
ENDBRANCH  21  29
BRANCH  22  34
ATOM     34  O   LIG d   1       3.297  -1.956  -4.104  0.00  0.00    -0.387 OA
ATOM     35  H   LIG d   1       3.675  -1.863  -4.990  0.00  0.00     0.210 HD
ENDBRANCH  22  34
BRANCH  24  36
ATOM     36  O   LIG d   1       4.342  -1.985  -1.507  0.00  0.00    -0.386 OA
ATOM     37  H   LIG d   1       3.985  -2.755  -1.972  0.00  0.00     0.210 HD
ENDBRANCH  24  36
BRANCH  26  38
ATOM     38  O   LIG d   1       5.844  -2.111  -3.868  0.00  0.00    -0.383 OA
ATOM     39  H   LIG d   1       4.988  -2.555  -3.938  0.00  0.00     0.210 HD
ENDBRANCH  26  38
ENDBRANCH  17  18
ENDBRANCH  11  17
BRANCH   9  40
ATOM     40  O   LIG d   1       9.806   3.396  -2.519  0.00  0.00    -0.506 OA
ATOM     41  H   LIG d   1      10.402   4.147  -2.639  0.00  0.00     0.292 HD
ENDBRANCH   9  40
BRANCH   1  42
ATOM     42  C   LIG d   1       9.388   3.895  -9.617  0.00  0.00    -0.007 A 
ATOM     43  C   LIG d   1       8.853   5.168  -9.570  0.00  0.00    -0.052 A 
ATOM     44  C   LIG d   1       9.015   6.027 -10.640  0.00  0.00    -0.020 A 
ATOM     45  H   LIG d   1       8.312   5.495  -8.695  0.00  0.00     0.062 H 
ATOM     46  C   LIG d   1       9.716   5.610 -11.763  0.00  0.00     0.117 A 
ATOM     47  H   LIG d   1       8.597   7.022 -10.603  0.00  0.00     0.065 H 
ATOM     48  C   LIG d   1      10.252   4.331 -11.807  0.00  0.00    -0.020 A 
ATOM     49  C   LIG d   1      10.087   3.477 -10.734  0.00  0.00    -0.052 A 
ATOM     50  H   LIG d   1      10.797   4.004 -12.680  0.00  0.00     0.065 H 
ATOM     51  H   LIG d   1      10.504   2.481 -10.769  0.00  0.00     0.062 H 
BRANCH  46  52
ATOM     52  O   LIG d   1       9.876   6.453 -12.817  0.00  0.00    -0.507 OA
ATOM     53  H   LIG d   1       9.055   6.861 -13.122  0.00  0.00     0.292 HD
ENDBRANCH  46  52
ENDBRANCH   1  42
TORSDOF 10
ENDMDL
MODEL 4
REMARK VINA RESULT:      -6.2      5.945     10.268
REMARK  10 active torsions:
REMARK  status: ('A' for Active; 'I' for Inactive)
REMARK    1  A    between atoms: C_3  and  O_37 
REMARK    2  A    between atoms: C_6  and  C_7 
REMARK    3  A    between atoms: C_15  and  O_35 
REMARK    4  A    between atoms: C_17  and  O_18 
REMARK    5  A    between atoms: O_18  and  C_19 
REMARK    6  A    between atoms: C_21  and  O_34 
REMARK    7  A    between atoms: C_23  and  O_33 
REMARK    8  A    between atoms: C_25  and  O_32 
REMARK    9  A    between atoms: C_27  and  C_30 
REMARK   10  A    between atoms: C_30  and  O_31 
ROOT
ATOM      1  C   LIG d   1       8.669   1.801  -4.208  0.00  0.00     0.132 C 
ATOM      2  H   LIG d   1       9.294   0.922  -4.048  0.00  0.00     0.079 H 
ATOM      3  C   LIG d   1       8.236   1.861  -5.680  0.00  0.00     0.052 C 
ATOM      4  C   LIG d   1       7.430   0.607  -5.962  0.00  0.00     0.174 C 
ATOM      5  O   LIG d   1       7.546  -0.006  -7.005  0.00  0.00    -0.292 OA
ATOM      6  C   LIG d   1       6.502   0.172  -4.912  0.00  0.00     0.101 A 
ATOM      7  C   LIG d   1       6.593   0.756  -3.635  0.00  0.00     0.139 A 
ATOM      8  C   LIG d   1       5.730   0.341  -2.638  0.00  0.00     0.022 A 
ATOM      9  C   LIG d   1       4.779  -0.639  -2.899  0.00  0.00     0.124 A 
ATOM     10  C   LIG d   1       4.681  -1.213  -4.160  0.00  0.00     0.023 A 
ATOM     11  C   LIG d   1       5.537  -0.814  -5.171  0.00  0.00     0.141 A 
ATOM     12  O   LIG d   1       7.511   1.718  -3.377  0.00  0.00    -0.483 OA
ATOM     13  H   LIG d   1       7.621   2.745  -5.850  0.00  0.00     0.038 H 
ATOM     14  H   LIG d   1       9.115   1.891  -6.324  0.00  0.00     0.038 H 
ATOM     15  H   LIG d   1       5.794   0.779  -1.653  0.00  0.00     0.069 H 
ATOM     16  H   LIG d   1       3.937  -1.972  -4.352  0.00  0.00     0.069 H 
ENDROOT
BRANCH  11  17
ATOM     17  O   LIG d   1       5.443  -1.370  -6.404  0.00  0.00    -0.460 OA
BRANCH  17  18
ATOM     18  C   LIG d   1       4.214  -1.185  -7.109  0.00  0.00     0.231 C 
ATOM     19  H   LIG d   1       3.379  -1.447  -6.458  0.00  0.00     0.108 H 
ATOM     20  O   LIG d   1       4.096   0.182  -7.508  0.00  0.00    -0.331 OA
ATOM     21  C   LIG d   1       2.884   0.484  -8.202  0.00  0.00     0.114 C 
ATOM     22  C   LIG d   1       2.811  -0.346  -9.487  0.00  0.00     0.112 C 
ATOM     23  H   LIG d   1       2.031   0.244  -7.565  0.00  0.00     0.065 H 
ATOM     24  C   LIG d   1       2.902  -1.833  -9.131  0.00  0.00     0.115 C 
ATOM     25  H   LIG d   1       1.867  -0.149  -9.994  0.00  0.00     0.065 H 
ATOM     26  C   LIG d   1       4.196  -2.082  -8.349  0.00  0.00     0.145 C 
ATOM     27  H   LIG d   1       2.046  -2.114  -8.517  0.00  0.00     0.065 H 
ATOM     28  H   LIG d   1       4.242  -3.127  -8.043  0.00  0.00     0.068 H 
BRANCH  21  29
ATOM     29  C   LIG d   1       2.854   1.973  -8.554  0.00  0.00     0.073 C 
ATOM     30  H   LIG d   1       2.271   2.119  -9.464  0.00  0.00     0.058 H 
ATOM     31  H   LIG d   1       2.398   2.531  -7.737  0.00  0.00     0.058 H 
BRANCH  29  32
ATOM     32  O   LIG d   1       4.189   2.439  -8.763  0.00  0.00    -0.392 OA
ATOM     33  H   LIG d   1       4.740   2.419  -7.968  0.00  0.00     0.209 HD
ENDBRANCH  29  32
ENDBRANCH  21  29
BRANCH  22  34
ATOM     34  O   LIG d   1       3.898   0.006 -10.345  0.00  0.00    -0.387 OA
ATOM     35  H   LIG d   1       3.823  -0.350 -11.241  0.00  0.00     0.210 HD
ENDBRANCH  22  34
BRANCH  24  36
ATOM     36  O   LIG d   1       2.908  -2.613 -10.328  0.00  0.00    -0.386 OA
ATOM     37  H   LIG d   1       3.715  -3.133 -10.454  0.00  0.00     0.210 HD
ENDBRANCH  24  36
BRANCH  26  38
ATOM     38  O   LIG d   1       5.320  -1.776  -9.176  0.00  0.00    -0.383 OA
ATOM     39  H   LIG d   1       5.749  -2.554  -9.559  0.00  0.00     0.210 HD
ENDBRANCH  26  38
ENDBRANCH  17  18
ENDBRANCH  11  17
BRANCH   9  40
ATOM     40  O   LIG d   1       3.938  -1.038  -1.913  0.00  0.00    -0.506 OA
ATOM     41  H   LIG d   1       3.365  -1.777  -2.160  0.00  0.00     0.292 HD
ENDBRANCH   9  40
BRANCH   1  42
ATOM     42  C   LIG d   1       9.449   3.042  -3.861  0.00  0.00    -0.007 A 
ATOM     43  C   LIG d   1       9.253   4.204  -4.583  0.00  0.00    -0.052 A 
ATOM     44  C   LIG d   1       9.966   5.345  -4.268  0.00  0.00    -0.020 A 
ATOM     45  H   LIG d   1       8.539   4.223  -5.393  0.00  0.00     0.062 H 
ATOM     46  C   LIG d   1      10.880   5.322  -3.223  0.00  0.00     0.117 A 
ATOM     47  H   LIG d   1       9.814   6.252  -4.832  0.00  0.00     0.065 H 
ATOM     48  C   LIG d   1      11.074   4.154  -2.500  0.00  0.00    -0.020 A 
ATOM     49  C   LIG d   1      10.358   3.018  -2.820  0.00  0.00    -0.052 A 
ATOM     50  H   LIG d   1      11.785   4.135  -1.687  0.00  0.00     0.065 H 
ATOM     51  H   LIG d   1      10.509   2.108  -2.257  0.00  0.00     0.062 H 
BRANCH  46  52
ATOM     52  O   LIG d   1      11.583   6.442  -2.910  0.00  0.00    -0.507 OA
ATOM     53  H   LIG d   1      11.971   6.889  -3.675  0.00  0.00     0.292 HD
ENDBRANCH  46  52
ENDBRANCH   1  42
TORSDOF 10
ENDMDL
MODEL 5
REMARK VINA RESULT:      -6.1     13.561     17.384
REMARK  10 active torsions:
REMARK  status: ('A' for Active; 'I' for Inactive)
REMARK    1  A    between atoms: C_3  and  O_37 
REMARK    2  A    between atoms: C_6  and  C_7 
REMARK    3  A    between atoms: C_15  and  O_35 
REMARK    4  A    between atoms: C_17  and  O_18 
REMARK    5  A    between atoms: O_18  and  C_19 
REMARK    6  A    between atoms: C_21  and  O_34 
REMARK    7  A    between atoms: C_23  and  O_33 
REMARK    8  A    between atoms: C_25  and  O_32 
REMARK    9  A    between atoms: C_27  and  C_30 
REMARK   10  A    between atoms: C_30  and  O_31 
ROOT
ATOM      1  C   LIG d   1      11.018   6.862  -0.885  0.00  0.00     0.132 C 
ATOM      2  H   LIG d   1      12.006   6.924  -1.341  0.00  0.00     0.079 H 
ATOM      3  C   LIG d   1      10.135   7.996  -1.424  0.00  0.00     0.052 C 
ATOM      4  C   LIG d   1      10.014   7.798  -2.924  0.00  0.00     0.174 C 
ATOM      5  O   LIG d   1      10.049   8.734  -3.697  0.00  0.00    -0.292 OA
ATOM      6  C   LIG d   1       9.853   6.417  -3.393  0.00  0.00     0.101 A 
ATOM      7  C   LIG d   1      10.079   5.359  -2.493  0.00  0.00     0.139 A 
ATOM      8  C   LIG d   1       9.941   4.055  -2.933  0.00  0.00     0.022 A 
ATOM      9  C   LIG d   1       9.577   3.796  -4.249  0.00  0.00     0.124 A 
ATOM     10  C   LIG d   1       9.347   4.838  -5.139  0.00  0.00     0.023 A 
ATOM     11  C   LIG d   1       9.482   6.150  -4.720  0.00  0.00     0.141 A 
ATOM     12  O   LIG d   1      10.424   5.605  -1.207  0.00  0.00    -0.483 OA
ATOM     13  H   LIG d   1       9.147   7.949  -0.963  0.00  0.00     0.038 H 
ATOM     14  H   LIG d   1      10.597   8.960  -1.213  0.00  0.00     0.038 H 
ATOM     15  H   LIG d   1      10.116   3.235  -2.252  0.00  0.00     0.069 H 
ATOM     16  H   LIG d   1       9.063   4.624  -6.159  0.00  0.00     0.069 H 
ENDROOT
BRANCH  11  17
ATOM     17  O   LIG d   1       9.256   7.169  -5.585  0.00  0.00    -0.460 OA
BRANCH  17  18
ATOM     18  C   LIG d   1      10.081   7.228  -6.750  0.00  0.00     0.231 C 
ATOM     19  H   LIG d   1      11.016   6.700  -6.560  0.00  0.00     0.108 H 
ATOM     20  O   LIG d   1       9.401   6.614  -7.846  0.00  0.00    -0.331 OA
ATOM     21  C   LIG d   1      10.152   6.595  -9.062  0.00  0.00     0.114 C 
ATOM     22  C   LIG d   1      10.456   8.032  -9.496  0.00  0.00     0.112 C 
ATOM     23  H   LIG d   1      11.088   6.058  -8.902  0.00  0.00     0.065 H 
ATOM     24  C   LIG d   1      11.215   8.746  -8.374  0.00  0.00     0.115 C 
ATOM     25  H   LIG d   1      11.066   8.018 -10.398  0.00  0.00     0.065 H 
ATOM     26  C   LIG d   1      10.381   8.690  -7.090  0.00  0.00     0.145 C 
ATOM     27  H   LIG d   1      12.172   8.250  -8.208  0.00  0.00     0.065 H 
ATOM     28  H   LIG d   1      10.938   9.147  -6.273  0.00  0.00     0.068 H 
BRANCH  21  29
ATOM     29  C   LIG d   1       9.342   5.893 -10.153  0.00  0.00     0.073 C 
ATOM     30  H   LIG d   1       9.694   6.218 -11.132  0.00  0.00     0.058 H 
ATOM     31  H   LIG d   1       9.466   4.815 -10.062  0.00  0.00     0.058 H 
BRANCH  29  32
ATOM     32  O   LIG d   1       7.959   6.227 -10.008  0.00  0.00    -0.392 OA
ATOM     33  H   LIG d   1       7.419   5.513  -9.643  0.00  0.00     0.209 HD
ENDBRANCH  29  32
ENDBRANCH  21  29
BRANCH  22  34
ATOM     34  O   LIG d   1       9.231   8.721  -9.756  0.00  0.00    -0.387 OA
ATOM     35  H   LIG d   1       9.223   9.637  -9.447  0.00  0.00     0.210 HD
ENDBRANCH  22  34
BRANCH  24  36
ATOM     36  O   LIG d   1      11.440  10.109  -8.739  0.00  0.00    -0.386 OA
ATOM     37  H   LIG d   1      12.342  10.292  -9.039  0.00  0.00     0.210 HD
ENDBRANCH  24  36
BRANCH  26  38
ATOM     38  O   LIG d   1       9.154   9.396  -7.286  0.00  0.00    -0.383 OA
ATOM     39  H   LIG d   1       8.626   9.068  -8.026  0.00  0.00     0.210 HD
ENDBRANCH  26  38
ENDBRANCH  17  18
ENDBRANCH  11  17
BRANCH   9  40
ATOM     40  O   LIG d   1       9.445   2.513  -4.669  0.00  0.00    -0.506 OA
ATOM     41  H   LIG d   1       8.802   2.397  -5.382  0.00  0.00     0.292 HD
ENDBRANCH   9  40
BRANCH   1  42
ATOM     42  C   LIG d   1      11.145   6.990   0.611  0.00  0.00    -0.007 A 
ATOM     43  C   LIG d   1      11.492   8.205   1.172  0.00  0.00    -0.052 A 
ATOM     44  C   LIG d   1      11.610   8.326   2.543  0.00  0.00    -0.020 A 
ATOM     45  H   LIG d   1      11.668   9.062   0.539  0.00  0.00     0.062 H 
ATOM     46  C   LIG d   1      11.378   7.226   3.357  0.00  0.00     0.117 A 
ATOM     47  H   LIG d   1      11.881   9.274   2.981  0.00  0.00     0.065 H 
ATOM     48  C   LIG d   1      11.030   6.008   2.791  0.00  0.00    -0.020 A 
ATOM     49  C   LIG d   1      10.914   5.894   1.419  0.00  0.00    -0.052 A 
ATOM     50  H   LIG d   1      10.849   5.151   3.422  0.00  0.00     0.065 H 
ATOM     51  H   LIG d   1      10.643   4.946   0.978  0.00  0.00     0.062 H 
BRANCH  46  52
ATOM     52  O   LIG d   1      11.493   7.342   4.706  0.00  0.00    -0.507 OA
ATOM     53  H   LIG d   1      11.446   8.252   5.028  0.00  0.00     0.292 HD
ENDBRANCH  46  52
ENDBRANCH   1  42
TORSDOF 10
ENDMDL
MODEL 6
REMARK VINA RESULT:      -6.0     13.851     20.831
REMARK  10 active torsions:
REMARK  status: ('A' for Active; 'I' for Inactive)
REMARK    1  A    between atoms: C_3  and  O_37 
REMARK    2  A    between atoms: C_6  and  C_7 
REMARK    3  A    between atoms: C_15  and  O_35 
REMARK    4  A    between atoms: C_17  and  O_18 
REMARK    5  A    between atoms: O_18  and  C_19 
REMARK    6  A    between atoms: C_21  and  O_34 
REMARK    7  A    between atoms: C_23  and  O_33 
REMARK    8  A    between atoms: C_25  and  O_32 
REMARK    9  A    between atoms: C_27  and  C_30 
REMARK   10  A    between atoms: C_30  and  O_31 
ROOT
ATOM      1  C   LIG d   1      10.799   6.119  -2.317  0.00  0.00     0.132 C 
ATOM      2  H   LIG d   1      11.715   6.472  -2.791  0.00  0.00     0.079 H 
ATOM      3  C   LIG d   1      11.135   5.493  -0.957  0.00  0.00     0.052 C 
ATOM      4  C   LIG d   1      11.761   6.580  -0.103  0.00  0.00     0.174 C 
ATOM      5  O   LIG d   1      12.708   6.356   0.623  0.00  0.00    -0.292 OA
ATOM      6  C   LIG d   1      11.163   7.917  -0.200  0.00  0.00     0.101 A 
ATOM      7  C   LIG d   1      10.249   8.182  -1.236  0.00  0.00     0.139 A 
ATOM      8  C   LIG d   1       9.692   9.444  -1.339  0.00  0.00     0.022 A 
ATOM      9  C   LIG d   1      10.029  10.435  -0.425  0.00  0.00     0.124 A 
ATOM     10  C   LIG d   1      10.926  10.174   0.604  0.00  0.00     0.023 A 
ATOM     11  C   LIG d   1      11.497   8.919   0.724  0.00  0.00     0.141 A 
ATOM     12  O   LIG d   1       9.909   7.219  -2.125  0.00  0.00    -0.483 OA
ATOM     13  H   LIG d   1      10.225   5.125  -0.482  0.00  0.00     0.038 H 
ATOM     14  H   LIG d   1      11.840   4.673  -1.090  0.00  0.00     0.038 H 
ATOM     15  H   LIG d   1       8.993   9.661  -2.134  0.00  0.00     0.069 H 
ATOM     16  H   LIG d   1      11.179  10.951   1.309  0.00  0.00     0.069 H 
ENDROOT
BRANCH  11  17
ATOM     17  O   LIG d   1      12.371   8.660   1.728  0.00  0.00    -0.460 OA
BRANCH  17  18
ATOM     18  C   LIG d   1      12.006   9.101   3.037  0.00  0.00     0.231 C 
ATOM     19  H   LIG d   1      11.035   9.596   2.996  0.00  0.00     0.108 H 
ATOM     20  O   LIG d   1      11.930   7.976   3.914  0.00  0.00    -0.331 OA
ATOM     21  C   LIG d   1      11.545   8.303   5.251  0.00  0.00     0.114 C 
ATOM     22  C   LIG d   1      12.579   9.254   5.861  0.00  0.00     0.112 C 
ATOM     23  H   LIG d   1      10.568   8.788   5.239  0.00  0.00     0.065 H 
ATOM     24  C   LIG d   1      12.691  10.505   4.983  0.00  0.00     0.115 C 
ATOM     25  H   LIG d   1      12.264   9.540   6.864  0.00  0.00     0.065 H 
ATOM     26  C   LIG d   1      13.058  10.084   3.557  0.00  0.00     0.145 C 
ATOM     27  H   LIG d   1      11.736  11.030   4.974  0.00  0.00     0.065 H 
ATOM     28  H   LIG d   1      13.085  10.963   2.913  0.00  0.00     0.068 H 
BRANCH  21  29
ATOM     29  C   LIG d   1      11.471   7.026   6.089  0.00  0.00     0.073 C 
ATOM     30  H   LIG d   1      11.561   7.279   7.146  0.00  0.00     0.058 H 
ATOM     31  H   LIG d   1      10.516   6.531   5.915  0.00  0.00     0.058 H 
BRANCH  29  32
ATOM     32  O   LIG d   1      12.537   6.149   5.716  0.00  0.00    -0.392 OA
ATOM     33  H   LIG d   1      13.367   6.320   6.182  0.00  0.00     0.209 HD
ENDBRANCH  29  32
ENDBRANCH  21  29
BRANCH  22  34
ATOM     34  O   LIG d   1      13.849   8.602   5.926  0.00  0.00    -0.387 OA
ATOM     35  H   LIG d   1      14.199   8.513   6.823  0.00  0.00     0.210 HD
ENDBRANCH  22  34
BRANCH  24  36
ATOM     36  O   LIG d   1      13.705  11.367   5.504  0.00  0.00    -0.386 OA
ATOM     37  H   LIG d   1      14.189  11.859   4.825  0.00  0.00     0.210 HD
ENDBRANCH  24  36
BRANCH  26  38
ATOM     38  O   LIG d   1      14.340   9.453   3.559  0.00  0.00    -0.383 OA
ATOM     39  H   LIG d   1      14.340   8.565   3.942  0.00  0.00     0.210 HD
ENDBRANCH  26  38
ENDBRANCH  17  18
ENDBRANCH  11  17
BRANCH   9  40
ATOM     40  O   LIG d   1       9.477  11.668  -0.537  0.00  0.00    -0.506 OA
ATOM     41  H   LIG d   1       9.890  12.224  -1.212  0.00  0.00     0.292 HD
ENDBRANCH   9  40
BRANCH   1  42
ATOM     42  C   LIG d   1      10.142   5.089  -3.198  0.00  0.00    -0.007 A 
ATOM     43  C   LIG d   1       9.959   3.800  -2.734  0.00  0.00    -0.052 A 
ATOM     44  C   LIG d   1       9.356   2.853  -3.539  0.00  0.00    -0.020 A 
ATOM     45  H   LIG d   1      10.284   3.533  -1.740  0.00  0.00     0.062 H 
ATOM     46  C   LIG d   1       8.934   3.198  -4.816  0.00  0.00     0.117 A 
ATOM     47  H   LIG d   1       9.214   1.846  -3.177  0.00  0.00     0.065 H 
ATOM     48  C   LIG d   1       9.119   4.492  -5.279  0.00  0.00    -0.020 A 
ATOM     49  C   LIG d   1       9.722   5.435  -4.469  0.00  0.00    -0.052 A 
ATOM     50  H   LIG d   1       8.791   4.762  -6.271  0.00  0.00     0.065 H 
ATOM     51  H   LIG d   1       9.865   6.443  -4.829  0.00  0.00     0.062 H 
BRANCH  46  52
ATOM     52  O   LIG d   1       8.341   2.268  -5.610  0.00  0.00    -0.507 OA
ATOM     53  H   LIG d   1       8.857   1.457  -5.719  0.00  0.00     0.292 HD
ENDBRANCH  46  52
ENDBRANCH   1  42
TORSDOF 10
ENDMDL
MODEL 7
REMARK VINA RESULT:      -6.0      6.835     13.148
REMARK  10 active torsions:
REMARK  status: ('A' for Active; 'I' for Inactive)
REMARK    1  A    between atoms: C_3  and  O_37 
REMARK    2  A    between atoms: C_6  and  C_7 
REMARK    3  A    between atoms: C_15  and  O_35 
REMARK    4  A    between atoms: C_17  and  O_18 
REMARK    5  A    between atoms: O_18  and  C_19 
REMARK    6  A    between atoms: C_21  and  O_34 
REMARK    7  A    between atoms: C_23  and  O_33 
REMARK    8  A    between atoms: C_25  and  O_32 
REMARK    9  A    between atoms: C_27  and  C_30 
REMARK   10  A    between atoms: C_30  and  O_31 
ROOT
ATOM      1  C   LIG d   1       5.580  -2.920  -5.858  0.00  0.00     0.132 C 
ATOM      2  H   LIG d   1       5.535  -2.245  -6.713  0.00  0.00     0.079 H 
ATOM      3  C   LIG d   1       7.024  -2.997  -5.342  0.00  0.00     0.052 C 
ATOM      4  C   LIG d   1       7.419  -1.598  -4.905  0.00  0.00     0.174 C 
ATOM      5  O   LIG d   1       8.525  -1.149  -5.128  0.00  0.00    -0.292 OA
ATOM      6  C   LIG d   1       6.398  -0.817  -4.199  0.00  0.00     0.101 A 
ATOM      7  C   LIG d   1       5.068  -1.276  -4.196  0.00  0.00     0.139 A 
ATOM      8  C   LIG d   1       4.099  -0.537  -3.542  0.00  0.00     0.022 A 
ATOM      9  C   LIG d   1       4.439   0.643  -2.891  0.00  0.00     0.124 A 
ATOM     10  C   LIG d   1       5.752   1.096  -2.886  0.00  0.00     0.023 A 
ATOM     11  C   LIG d   1       6.737   0.373  -3.536  0.00  0.00     0.141 A 
ATOM     12  O   LIG d   1       4.731  -2.430  -4.820  0.00  0.00    -0.483 OA
ATOM     13  H   LIG d   1       7.079  -3.681  -4.494  0.00  0.00     0.038 H 
ATOM     14  H   LIG d   1       7.684  -3.338  -6.138  0.00  0.00     0.038 H 
ATOM     15  H   LIG d   1       3.073  -0.878  -3.538  0.00  0.00     0.069 H 
ATOM     16  H   LIG d   1       6.005   2.013  -2.376  0.00  0.00     0.069 H 
ENDROOT
BRANCH  11  17
ATOM     17  O   LIG d   1       8.020   0.810  -3.531  0.00  0.00    -0.460 OA
BRANCH  17  18
ATOM     18  C   LIG d   1       8.245   2.170  -3.911  0.00  0.00     0.231 C 
ATOM     19  H   LIG d   1       7.307   2.723  -3.852  0.00  0.00     0.108 H 
ATOM     20  O   LIG d   1       9.202   2.758  -3.029  0.00  0.00    -0.331 OA
ATOM     21  C   LIG d   1       9.483   4.132  -3.305  0.00  0.00     0.114 C 
ATOM     22  C   LIG d   1      10.064   4.260  -4.716  0.00  0.00     0.112 C 
ATOM     23  H   LIG d   1       8.561   4.711  -3.238  0.00  0.00     0.065 H 
ATOM     24  C   LIG d   1       9.071   3.673  -5.724  0.00  0.00     0.115 C 
ATOM     25  H   LIG d   1      10.236   5.312  -4.944  0.00  0.00     0.065 H 
ATOM     26  C   LIG d   1       8.776   2.218  -5.346  0.00  0.00     0.145 C 
ATOM     27  H   LIG d   1       8.146   4.249  -5.703  0.00  0.00     0.065 H 
ATOM     28  H   LIG d   1       8.028   1.809  -6.025  0.00  0.00     0.068 H 
BRANCH  21  29
ATOM     29  C   LIG d   1      10.494   4.663  -2.287  0.00  0.00     0.073 C 
ATOM     30  H   LIG d   1      11.213   5.308  -2.792  0.00  0.00     0.058 H 
ATOM     31  H   LIG d   1       9.972   5.232  -1.518  0.00  0.00     0.058 H 
BRANCH  29  32
ATOM     32  O   LIG d   1      11.180   3.564  -1.682  0.00  0.00    -0.392 OA
ATOM     33  H   LIG d   1      10.838   2.697  -1.940  0.00  0.00     0.209 HD
ENDBRANCH  29  32
ENDBRANCH  21  29
BRANCH  22  34
ATOM     34  O   LIG d   1      11.299   3.545  -4.791  0.00  0.00    -0.387 OA
ATOM     35  H   LIG d   1      11.231   2.616  -4.529  0.00  0.00     0.210 HD
ENDBRANCH  22  34
BRANCH  24  36
ATOM     36  O   LIG d   1       9.635   3.721  -7.036  0.00  0.00    -0.386 OA
ATOM     37  H   LIG d   1       9.958   4.596  -7.293  0.00  0.00     0.210 HD
ENDBRANCH  24  36
BRANCH  26  38
ATOM     38  O   LIG d   1       9.976   1.448  -5.437  0.00  0.00    -0.383 OA
ATOM     39  H   LIG d   1      10.270   1.283  -6.343  0.00  0.00     0.210 HD
ENDBRANCH  26  38
ENDBRANCH  17  18
ENDBRANCH  11  17
BRANCH   9  40
ATOM     40  O   LIG d   1       3.479   1.359  -2.254  0.00  0.00    -0.506 OA
ATOM     41  H   LIG d   1       2.688   1.518  -2.787  0.00  0.00     0.292 HD
ENDBRANCH   9  40
BRANCH   1  42
ATOM     42  C   LIG d   1       5.121  -4.293  -6.277  0.00  0.00    -0.007 A 
ATOM     43  C   LIG d   1       4.275  -4.436  -7.361  0.00  0.00    -0.052 A 
ATOM     44  C   LIG d   1       3.853  -5.694  -7.747  0.00  0.00    -0.020 A 
ATOM     45  H   LIG d   1       3.947  -3.566  -7.909  0.00  0.00     0.062 H 
ATOM     46  C   LIG d   1       4.279  -6.813  -7.046  0.00  0.00     0.117 A 
ATOM     47  H   LIG d   1       3.193  -5.806  -8.593  0.00  0.00     0.065 H 
ATOM     48  C   LIG d   1       5.128  -6.666  -5.958  0.00  0.00    -0.020 A 
ATOM     49  C   LIG d   1       5.547  -5.406  -5.577  0.00  0.00    -0.052 A 
ATOM     50  H   LIG d   1       5.460  -7.535  -5.411  0.00  0.00     0.065 H 
ATOM     51  H   LIG d   1       6.207  -5.290  -4.730  0.00  0.00     0.062 H 
BRANCH  46  52
ATOM     52  O   LIG d   1       3.865  -8.051  -7.424  0.00  0.00    -0.507 OA
ATOM     53  H   LIG d   1       3.440  -8.075  -8.292  0.00  0.00     0.292 HD
ENDBRANCH  46  52
ENDBRANCH   1  42
TORSDOF 10
ENDMDL
MODEL 8
REMARK VINA RESULT:      -5.8      8.664     12.681
REMARK  10 active torsions:
REMARK  status: ('A' for Active; 'I' for Inactive)
REMARK    1  A    between atoms: C_3  and  O_37 
REMARK    2  A    between atoms: C_6  and  C_7 
REMARK    3  A    between atoms: C_15  and  O_35 
REMARK    4  A    between atoms: C_17  and  O_18 
REMARK    5  A    between atoms: O_18  and  C_19 
REMARK    6  A    between atoms: C_21  and  O_34 
REMARK    7  A    between atoms: C_23  and  O_33 
REMARK    8  A    between atoms: C_25  and  O_32 
REMARK    9  A    between atoms: C_27  and  C_30 
REMARK   10  A    between atoms: C_30  and  O_31 
ROOT
ATOM      1  C   LIG d   1      11.036   3.433  -3.593  0.00  0.00     0.132 C 
ATOM      2  H   LIG d   1      11.074   3.875  -4.590  0.00  0.00     0.079 H 
ATOM      3  C   LIG d   1       9.584   3.415  -3.097  0.00  0.00     0.052 C 
ATOM      4  C   LIG d   1       8.790   2.554  -4.062  0.00  0.00     0.174 C 
ATOM      5  O   LIG d   1       7.669   2.859  -4.415  0.00  0.00    -0.292 OA
ATOM      6  C   LIG d   1       9.446   1.334  -4.547  0.00  0.00     0.101 A 
ATOM      7  C   LIG d   1      10.823   1.163  -4.317  0.00  0.00     0.139 A 
ATOM      8  C   LIG d   1      11.449   0.021  -4.783  0.00  0.00     0.022 A 
ATOM      9  C   LIG d   1      10.721  -0.947  -5.464  0.00  0.00     0.124 A 
ATOM     10  C   LIG d   1       9.360  -0.785  -5.687  0.00  0.00     0.023 A 
ATOM     11  C   LIG d   1       8.715   0.352  -5.231  0.00  0.00     0.141 A 
ATOM     12  O   LIG d   1      11.536   2.098  -3.645  0.00  0.00    -0.483 OA
ATOM     13  H   LIG d   1       9.540   2.987  -2.094  0.00  0.00     0.038 H 
ATOM     14  H   LIG d   1       9.182   4.428  -3.085  0.00  0.00     0.038 H 
ATOM     15  H   LIG d   1      12.508  -0.119  -4.617  0.00  0.00     0.069 H 
ATOM     16  H   LIG d   1       8.805  -1.545  -6.216  0.00  0.00     0.069 H 
ENDROOT
BRANCH  11  17
ATOM     17  O   LIG d   1       7.385   0.513  -5.444  0.00  0.00    -0.460 OA
BRANCH  17  18
ATOM     18  C   LIG d   1       6.498  -0.227  -4.603  0.00  0.00     0.231 C 
ATOM     19  H   LIG d   1       7.071  -0.727  -3.822  0.00  0.00     0.108 H 
ATOM     20  O   LIG d   1       5.557   0.666  -4.004  0.00  0.00    -0.331 OA
ATOM     21  C   LIG d   1       4.632   0.030  -3.118  0.00  0.00     0.114 C 
ATOM     22  C   LIG d   1       3.811  -1.003  -3.894  0.00  0.00     0.112 C 
ATOM     23  H   LIG d   1       5.181  -0.468  -2.318  0.00  0.00     0.065 H 
ATOM     24  C   LIG d   1       4.760  -2.016  -4.541  0.00  0.00     0.115 C 
ATOM     25  H   LIG d   1       3.137  -1.520  -3.210  0.00  0.00     0.065 H 
ATOM     26  C   LIG d   1       5.752  -1.270  -5.439  0.00  0.00     0.145 C 
ATOM     27  H   LIG d   1       5.305  -2.554  -3.765  0.00  0.00     0.065 H 
ATOM     28  H   LIG d   1       6.466  -1.977  -5.861  0.00  0.00     0.068 H 
BRANCH  21  29
ATOM     29  C   LIG d   1       3.695   1.080  -2.518  0.00  0.00     0.073 C 
ATOM     30  H   LIG d   1       2.722   0.629  -2.323  0.00  0.00     0.058 H 
ATOM     31  H   LIG d   1       4.117   1.452  -1.584  0.00  0.00     0.058 H 
BRANCH  29  32
ATOM     32  O   LIG d   1       3.543   2.164  -3.437  0.00  0.00    -0.392 OA
ATOM     33  H   LIG d   1       4.364   2.641  -3.621  0.00  0.00     0.209 HD
ENDBRANCH  29  32
ENDBRANCH  21  29
BRANCH  22  34
ATOM     34  O   LIG d   1       3.051  -0.345  -4.909  0.00  0.00    -0.387 OA
ATOM     35  H   LIG d   1       2.914   0.599  -4.747  0.00  0.00     0.210 HD
ENDBRANCH  22  34
BRANCH  24  36
ATOM     36  O   LIG d   1       4.008  -2.943  -5.327  0.00  0.00    -0.386 OA
ATOM     37  H   LIG d   1       3.053  -2.901  -5.178  0.00  0.00     0.210 HD
ENDBRANCH  24  36
BRANCH  26  38
ATOM     38  O   LIG d   1       5.044  -0.618  -6.495  0.00  0.00    -0.383 OA
ATOM     39  H   LIG d   1       4.082  -0.682  -6.422  0.00  0.00     0.210 HD
ENDBRANCH  26  38
ENDBRANCH  17  18
ENDBRANCH  11  17
BRANCH   9  40
ATOM     40  O   LIG d   1      11.347  -2.063  -5.917  0.00  0.00    -0.506 OA
ATOM     41  H   LIG d   1      11.641  -2.003  -6.836  0.00  0.00     0.292 HD
ENDBRANCH   9  40
BRANCH   1  42
ATOM     42  C   LIG d   1      11.881   4.250  -2.650  0.00  0.00    -0.007 A 
ATOM     43  C   LIG d   1      11.316   4.790  -1.510  0.00  0.00    -0.052 A 
ATOM     44  C   LIG d   1      12.088   5.540  -0.643  0.00  0.00    -0.020 A 
ATOM     45  H   LIG d   1      10.272   4.624  -1.294  0.00  0.00     0.062 H 
ATOM     46  C   LIG d   1      13.432   5.748  -0.918  0.00  0.00     0.117 A 
ATOM     47  H   LIG d   1      11.647   5.961   0.247  0.00  0.00     0.065 H 
ATOM     48  C   LIG d   1      13.996   5.205  -2.063  0.00  0.00    -0.020 A 
ATOM     49  C   LIG d   1      13.219   4.457  -2.926  0.00  0.00    -0.052 A 
ATOM     50  H   LIG d   1      15.042   5.367  -2.279  0.00  0.00     0.065 H 
ATOM     51  H   LIG d   1      13.658   4.034  -3.817  0.00  0.00     0.062 H 
BRANCH  46  52
ATOM     52  O   LIG d   1      14.194   6.485  -0.067  0.00  0.00    -0.507 OA
ATOM     53  H   LIG d   1      14.496   5.998   0.712  0.00  0.00     0.292 HD
ENDBRANCH  46  52
ENDBRANCH   1  42
TORSDOF 10
ENDMDL
MODEL 9
REMARK VINA RESULT:      -5.8     10.532     14.203
REMARK  10 active torsions:
REMARK  status: ('A' for Active; 'I' for Inactive)
REMARK    1  A    between atoms: C_3  and  O_37 
REMARK    2  A    between atoms: C_6  and  C_7 
REMARK    3  A    between atoms: C_15  and  O_35 
REMARK    4  A    between atoms: C_17  and  O_18 
REMARK    5  A    between atoms: O_18  and  C_19 
REMARK    6  A    between atoms: C_21  and  O_34 
REMARK    7  A    between atoms: C_23  and  O_33 
REMARK    8  A    between atoms: C_25  and  O_32 
REMARK    9  A    between atoms: C_27  and  C_30 
REMARK   10  A    between atoms: C_30  and  O_31 
ROOT
ATOM      1  C   LIG d   1       9.921   6.026  -2.205  0.00  0.00     0.132 C 
ATOM      2  H   LIG d   1       8.885   5.713  -2.074  0.00  0.00     0.079 H 
ATOM      3  C   LIG d   1      10.855   4.855  -1.870  0.00  0.00     0.052 C 
ATOM      4  C   LIG d   1      10.538   3.734  -2.843  0.00  0.00     0.174 C 
ATOM      5  O   LIG d   1      10.504   2.573  -2.490  0.00  0.00    -0.292 OA
ATOM      6  C   LIG d   1      10.274   4.126  -4.232  0.00  0.00     0.101 A 
ATOM      7  C   LIG d   1      10.069   5.486  -4.531  0.00  0.00     0.139 A 
ATOM      8  C   LIG d   1       9.808   5.859  -5.837  0.00  0.00     0.022 A 
ATOM      9  C   LIG d   1       9.754   4.900  -6.841  0.00  0.00     0.124 A 
ATOM     10  C   LIG d   1       9.962   3.558  -6.551  0.00  0.00     0.023 A 
ATOM     11  C   LIG d   1      10.223   3.162  -5.251  0.00  0.00     0.141 A 
ATOM     12  O   LIG d   1      10.130   6.426  -3.559  0.00  0.00    -0.483 OA
ATOM     13  H   LIG d   1      11.895   5.164  -1.986  0.00  0.00     0.038 H 
ATOM     14  H   LIG d   1      10.680   4.521  -0.848  0.00  0.00     0.038 H 
ATOM     15  H   LIG d   1       9.644   6.900  -6.077  0.00  0.00     0.069 H 
ATOM     16  H   LIG d   1       9.919   2.822  -7.340  0.00  0.00     0.069 H 
ENDROOT
BRANCH  11  17
ATOM     17  O   LIG d   1      10.429   1.853  -4.964  0.00  0.00    -0.460 OA
BRANCH  17  18
ATOM     18  C   LIG d   1       9.472   0.919  -5.468  0.00  0.00     0.231 C 
ATOM     19  H   LIG d   1       9.402   1.020  -6.552  0.00  0.00     0.108 H 
ATOM     20  O   LIG d   1       9.885  -0.409  -5.140  0.00  0.00    -0.331 OA
ATOM     21  C   LIG d   1       9.007  -1.429  -5.621  0.00  0.00     0.114 C 
ATOM     22  C   LIG d   1       7.620  -1.244  -4.999  0.00  0.00     0.112 C 
ATOM     23  H   LIG d   1       8.931  -1.358  -6.707  0.00  0.00     0.065 H 
ATOM     24  C   LIG d   1       7.100   0.156  -5.339  0.00  0.00     0.115 C 
ATOM     25  H   LIG d   1       6.939  -1.994  -5.400  0.00  0.00     0.065 H 
ATOM     26  C   LIG d   1       8.105   1.199  -4.840  0.00  0.00     0.145 C 
ATOM     27  H   LIG d   1       6.984   0.250  -6.419  0.00  0.00     0.065 H 
ATOM     28  H   LIG d   1       7.770   2.196  -5.126  0.00  0.00     0.068 H 
BRANCH  21  29
ATOM     29  C   LIG d   1       9.560  -2.802  -5.237  0.00  0.00     0.073 C 
ATOM     30  H   LIG d   1       8.734  -3.500  -5.101  0.00  0.00     0.058 H 
ATOM     31  H   LIG d   1      10.216  -3.165  -6.028  0.00  0.00     0.058 H 
BRANCH  29  32
ATOM     32  O   LIG d   1      10.299  -2.694  -4.018  0.00  0.00    -0.392 OA
ATOM     33  H   LIG d   1       9.889  -2.113  -3.361  0.00  0.00     0.209 HD
ENDBRANCH  29  32
ENDBRANCH  21  29
BRANCH  22  34
ATOM     34  O   LIG d   1       7.710  -1.388  -3.580  0.00  0.00    -0.387 OA
ATOM     35  H   LIG d   1       8.573  -1.147  -3.215  0.00  0.00     0.210 HD
ENDBRANCH  22  34
BRANCH  24  36
ATOM     36  O   LIG d   1       5.838   0.366  -4.702  0.00  0.00    -0.386 OA
ATOM     37  H   LIG d   1       5.139  -0.231  -5.007  0.00  0.00     0.210 HD
ENDBRANCH  24  36
BRANCH  26  38
ATOM     38  O   LIG d   1       8.209   1.120  -3.416  0.00  0.00    -0.383 OA
ATOM     39  H   LIG d   1       7.356   1.112  -2.961  0.00  0.00     0.210 HD
ENDBRANCH  26  38
ENDBRANCH  17  18
ENDBRANCH  11  17
BRANCH   9  40
ATOM     40  O   LIG d   1       9.495   5.279  -8.118  0.00  0.00    -0.506 OA
ATOM     41  H   LIG d   1       8.857   4.713  -8.574  0.00  0.00     0.292 HD
ENDBRANCH   9  40
BRANCH   1  42
ATOM     42  C   LIG d   1      10.216   7.184  -1.287  0.00  0.00    -0.007 A 
ATOM     43  C   LIG d   1       9.765   8.451  -1.607  0.00  0.00    -0.052 A 
ATOM     44  C   LIG d   1      10.034   9.515  -0.768  0.00  0.00    -0.020 A 
ATOM     45  H   LIG d   1       9.199   8.609  -2.513  0.00  0.00     0.062 H 
ATOM     46  C   LIG d   1      10.756   9.309   0.399  0.00  0.00     0.117 A 
ATOM     47  H   LIG d   1       9.682  10.503  -1.018  0.00  0.00     0.065 H 
ATOM     48  C   LIG d   1      11.208   8.037   0.718  0.00  0.00    -0.020 A 
ATOM     49  C   LIG d   1      10.936   6.978  -0.125  0.00  0.00    -0.052 A 
ATOM     50  H   LIG d   1      11.770   7.875   1.626  0.00  0.00     0.065 H 
ATOM     51  H   LIG d   1      11.287   5.987   0.123  0.00  0.00     0.062 H 
BRANCH  46  52
ATOM     52  O   LIG d   1      11.022  10.354   1.227  0.00  0.00    -0.507 OA
ATOM     53  H   LIG d   1      10.844  10.172   2.160  0.00  0.00     0.292 HD
ENDBRANCH  46  52
ENDBRANCH   1  42
TORSDOF 10
ENDMDL
