MODEL 1
REMARK VINA RESULT:      -5.1      0.000      0.000
REMARK  3 active torsions:
REMARK  status: ('A' for Active; 'I' for Inactive)
REMARK    1  A    between atoms: C_1  and  O_2 
REMARK    2  A    between atoms: O_2  and  C_3 
REMARK    3  A    between atoms: C_3  and  C_5 
ROOT
ATOM      1  C   LIG d   1       4.708  -3.525  -5.811  0.00  0.00     0.084 A 
ATOM      2  C   LIG d   1       5.075  -2.743  -6.867  0.00  0.00     0.017 A 
ATOM      3  N   LIG d   1       5.197  -1.456  -6.464  0.00  0.00    -0.360 N 
ATOM      4  H   LIG d   1       5.448  -0.717  -7.040  0.00  0.00     0.165 HD
ATOM      5  C   LIG d   1       4.915  -1.344  -5.118  0.00  0.00     0.048 A 
ATOM      6  C   LIG d   1       4.596  -2.628  -4.646  0.00  0.00     0.014 A 
ATOM      7  C   LIG d   1       4.264  -2.818  -3.308  0.00  0.00    -0.051 A 
ATOM      8  C   LIG d   1       4.250  -1.740  -2.448  0.00  0.00    -0.047 A 
ATOM      9  C   LIG d   1       4.564  -0.472  -2.912  0.00  0.00     0.020 A 
ATOM     10  C   LIG d   1       4.895  -0.269  -4.236  0.00  0.00    -0.024 A 
ATOM     11 BR   LIG d   1       4.540   0.996  -1.719  0.00  0.00    -0.050 Br
ATOM     12  H   LIG d   1       5.241  -3.097  -7.874  0.00  0.00     0.082 H 
ATOM     13  H   LIG d   1       4.019  -3.805  -2.944  0.00  0.00     0.062 H 
ATOM     14  H   LIG d   1       3.993  -1.885  -1.409  0.00  0.00     0.063 H 
ATOM     15  H   LIG d   1       5.137   0.723  -4.587  0.00  0.00     0.065 H 
ENDROOT
BRANCH   1  16
ATOM     16  C   LIG d   1       4.468  -4.973  -5.832  0.00  0.00     0.341 C 
ATOM     17  O   LIG d   1       3.388  -5.404  -6.185  0.00  0.00    -0.245 OA
BRANCH  16  18
ATOM     18  O   LIG d   1       5.445  -5.823  -5.458  0.00  0.00    -0.464 OA
BRANCH  18  19
ATOM     19  C   LIG d   1       5.153  -7.243  -5.546  0.00  0.00     0.082 C 
ATOM     20  H   LIG d   1       4.733  -7.587  -4.601  0.00  0.00     0.066 H 
ATOM     21  H   LIG d   1       4.433  -7.417  -6.347  0.00  0.00     0.066 H 
ATOM     22  H   LIG d   1       6.071  -7.791  -5.757  0.00  0.00     0.066 H 
ENDBRANCH  18  19
ENDBRANCH  16  18
ENDBRANCH   1  16
TORSDOF 3
ENDMDL
MODEL 2
REMARK VINA RESULT:      -4.9      1.258      1.672
REMARK  3 active torsions:
REMARK  status: ('A' for Active; 'I' for Inactive)
REMARK    1  A    between atoms: C_1  and  O_2 
REMARK    2  A    between atoms: O_2  and  C_3 
REMARK    3  A    between atoms: C_3  and  C_5 
ROOT
ATOM      1  C   LIG d   1       5.498  -4.137  -5.223  0.00  0.00     0.084 A 
ATOM      2  C   LIG d   1       6.682  -3.729  -5.764  0.00  0.00     0.017 A 
ATOM      3  N   LIG d   1       7.025  -2.521  -5.257  0.00  0.00    -0.360 N 
ATOM      4  H   LIG d   1       7.827  -2.030  -5.492  0.00  0.00     0.165 HD
ATOM      5  C   LIG d   1       6.072  -2.088  -4.357  0.00  0.00     0.048 A 
ATOM      6  C   LIG d   1       5.075  -3.074  -4.293  0.00  0.00     0.014 A 
ATOM      7  C   LIG d   1       3.975  -2.902  -3.456  0.00  0.00    -0.051 A 
ATOM      8  C   LIG d   1       3.872  -1.759  -2.691  0.00  0.00    -0.047 A 
ATOM      9  C   LIG d   1       4.857  -0.785  -2.753  0.00  0.00     0.020 A 
ATOM     10  C   LIG d   1       5.951  -0.942  -3.578  0.00  0.00    -0.024 A 
ATOM     11 BR   LIG d   1       4.698   0.777  -1.697  0.00  0.00    -0.050 Br
ATOM     12  H   LIG d   1       7.258  -4.285  -6.488  0.00  0.00     0.082 H 
ATOM     13  H   LIG d   1       3.208  -3.660  -3.406  0.00  0.00     0.062 H 
ATOM     14  H   LIG d   1       3.020  -1.624  -2.040  0.00  0.00     0.063 H 
ATOM     15  H   LIG d   1       6.711  -0.177  -3.619  0.00  0.00     0.065 H 
ENDROOT
BRANCH   1  16
ATOM     16  C   LIG d   1       4.782  -5.386  -5.514  0.00  0.00     0.341 C 
ATOM     17  O   LIG d   1       5.273  -6.453  -5.199  0.00  0.00    -0.245 OA
BRANCH  16  18
ATOM     18  O   LIG d   1       3.584  -5.348  -6.129  0.00  0.00    -0.464 OA
BRANCH  18  19
ATOM     19  C   LIG d   1       3.581  -5.035  -7.547  0.00  0.00     0.082 C 
ATOM     20  H   LIG d   1       4.203  -4.158  -7.727  0.00  0.00     0.066 H 
ATOM     21  H   LIG d   1       3.979  -5.882  -8.107  0.00  0.00     0.066 H 
ATOM     22  H   LIG d   1       2.561  -4.830  -7.872  0.00  0.00     0.066 H 
ENDBRANCH  18  19
ENDBRANCH  16  18
ENDBRANCH   1  16
TORSDOF 3
ENDMDL
MODEL 3
REMARK VINA RESULT:      -4.9      3.977      5.312
REMARK  3 active torsions:
REMARK  status: ('A' for Active; 'I' for Inactive)
REMARK    1  A    between atoms: C_1  and  O_2 
REMARK    2  A    between atoms: O_2  and  C_3 
REMARK    3  A    between atoms: C_3  and  C_5 
ROOT
ATOM      1  C   LIG d   1       5.227   0.279  -3.367  0.00  0.00     0.084 A 
ATOM      2  C   LIG d   1       6.437   0.897  -3.245  0.00  0.00     0.017 A 
ATOM      3  N   LIG d   1       7.426   0.037  -3.586  0.00  0.00    -0.360 N 
ATOM      4  H   LIG d   1       8.372   0.251  -3.578  0.00  0.00     0.165 HD
ATOM      5  C   LIG d   1       6.898  -1.185  -3.950  0.00  0.00     0.048 A 
ATOM      6  C   LIG d   1       5.502  -1.093  -3.830  0.00  0.00     0.014 A 
ATOM      7  C   LIG d   1       4.701  -2.191  -4.134  0.00  0.00    -0.051 A 
ATOM      8  C   LIG d   1       5.286  -3.367  -4.552  0.00  0.00    -0.047 A 
ATOM      9  C   LIG d   1       6.665  -3.460  -4.671  0.00  0.00     0.020 A 
ATOM     10  C   LIG d   1       7.470  -2.380  -4.374  0.00  0.00    -0.024 A 
ATOM     11 BR   LIG d   1       7.449  -5.082  -5.247  0.00  0.00    -0.050 Br
ATOM     12  H   LIG d   1       6.584   1.917  -2.924  0.00  0.00     0.082 H 
ATOM     13  H   LIG d   1       3.628  -2.121  -4.042  0.00  0.00     0.062 H 
ATOM     14  H   LIG d   1       4.666  -4.220  -4.789  0.00  0.00     0.063 H 
ATOM     15  H   LIG d   1       8.542  -2.463  -4.469  0.00  0.00     0.065 H 
ENDROOT
BRANCH   1  16
ATOM     16  C   LIG d   1       3.910   0.865  -3.088  0.00  0.00     0.341 C 
ATOM     17  O   LIG d   1       3.466   0.849  -1.956  0.00  0.00    -0.245 OA
BRANCH  16  18
ATOM     18  O   LIG d   1       3.193   1.418  -4.086  0.00  0.00    -0.464 OA
BRANCH  18  19
ATOM     19  C   LIG d   1       2.383   0.521  -4.892  0.00  0.00     0.082 C 
ATOM     20  H   LIG d   1       2.112  -0.353  -4.299  0.00  0.00     0.066 H 
ATOM     21  H   LIG d   1       1.478   1.037  -5.212  0.00  0.00     0.066 H 
ATOM     22  H   LIG d   1       2.951   0.205  -5.767  0.00  0.00     0.066 H 
ENDBRANCH  18  19
ENDBRANCH  16  18
ENDBRANCH   1  16
TORSDOF 3
ENDMDL
MODEL 4
REMARK VINA RESULT:      -4.8      4.070      5.503
REMARK  3 active torsions:
REMARK  status: ('A' for Active; 'I' for Inactive)
REMARK    1  A    between atoms: C_1  and  O_2 
REMARK    2  A    between atoms: O_2  and  C_3 
REMARK    3  A    between atoms: C_3  and  C_5 
ROOT
ATOM      1  C   LIG d   1       4.901  -0.435  -3.531  0.00  0.00     0.084 A 
ATOM      2  C   LIG d   1       3.574  -0.728  -3.644  0.00  0.00     0.017 A 
ATOM      3  N   LIG d   1       3.422  -1.979  -4.139  0.00  0.00    -0.360 N 
ATOM      4  H   LIG d   1       2.569  -2.408  -4.307  0.00  0.00     0.165 HD
ATOM      5  C   LIG d   1       4.653  -2.558  -4.371  0.00  0.00     0.048 A 
ATOM      6  C   LIG d   1       5.634  -1.623  -4.003  0.00  0.00     0.014 A 
ATOM      7  C   LIG d   1       6.984  -1.940  -4.132  0.00  0.00    -0.051 A 
ATOM      8  C   LIG d   1       7.352  -3.175  -4.622  0.00  0.00    -0.047 A 
ATOM      9  C   LIG d   1       6.384  -4.099  -4.986  0.00  0.00     0.020 A 
ATOM     10  C   LIG d   1       5.043  -3.799  -4.863  0.00  0.00    -0.024 A 
ATOM     11 BR   LIG d   1       6.907  -5.789  -5.657  0.00  0.00    -0.050 Br
ATOM     12  H   LIG d   1       2.766  -0.062  -3.379  0.00  0.00     0.082 H 
ATOM     13  H   LIG d   1       7.739  -1.222  -3.849  0.00  0.00     0.062 H 
ATOM     14  H   LIG d   1       8.398  -3.423  -4.723  0.00  0.00     0.063 H 
ATOM     15  H   LIG d   1       4.298  -4.526  -5.150  0.00  0.00     0.065 H 
ENDROOT
BRANCH   1  16
ATOM     16  C   LIG d   1       5.485   0.820  -3.040  0.00  0.00     0.341 C 
ATOM     17  O   LIG d   1       5.307   1.163  -1.887  0.00  0.00    -0.245 OA
BRANCH  16  18
ATOM     18  O   LIG d   1       6.218   1.591  -3.868  0.00  0.00    -0.464 OA
BRANCH  18  19
ATOM     19  C   LIG d   1       7.659   1.563  -3.692  0.00  0.00     0.082 C 
ATOM     20  H   LIG d   1       7.991   2.509  -3.263  0.00  0.00     0.066 H 
ATOM     21  H   LIG d   1       7.927   0.747  -3.020  0.00  0.00     0.066 H 
ATOM     22  H   LIG d   1       8.141   1.413  -4.658  0.00  0.00     0.066 H 
ENDBRANCH  18  19
ENDBRANCH  16  18
ENDBRANCH   1  16
TORSDOF 3
ENDMDL
MODEL 5
REMARK VINA RESULT:      -4.8      3.712      4.906
REMARK  3 active torsions:
REMARK  status: ('A' for Active; 'I' for Inactive)
REMARK    1  A    between atoms: C_1  and  O_2 
REMARK    2  A    between atoms: O_2  and  C_3 
REMARK    3  A    between atoms: C_3  and  C_5 
ROOT
ATOM      1  C   LIG d   1       3.422  -0.276  -7.965  0.00  0.00     0.084 A 
ATOM      2  C   LIG d   1       4.483  -1.066  -8.299  0.00  0.00     0.017 A 
ATOM      3  N   LIG d   1       5.136  -1.453  -7.178  0.00  0.00    -0.360 N 
ATOM      4  H   LIG d   1       5.923  -2.019  -7.163  0.00  0.00     0.165 HD
ATOM      5  C   LIG d   1       4.523  -0.929  -6.057  0.00  0.00     0.048 A 
ATOM      6  C   LIG d   1       3.426  -0.170  -6.494  0.00  0.00     0.014 A 
ATOM      7  C   LIG d   1       2.615   0.483  -5.570  0.00  0.00    -0.051 A 
ATOM      8  C   LIG d   1       2.896   0.381  -4.224  0.00  0.00    -0.047 A 
ATOM      9  C   LIG d   1       3.980  -0.369  -3.791  0.00  0.00     0.020 A 
ATOM     10  C   LIG d   1       4.791  -1.021  -4.696  0.00  0.00    -0.024 A 
ATOM     11 BR   LIG d   1       4.350  -0.498  -1.940  0.00  0.00    -0.050 Br
ATOM     12  H   LIG d   1       4.761  -1.340  -9.306  0.00  0.00     0.082 H 
ATOM     13  H   LIG d   1       1.771   1.067  -5.905  0.00  0.00     0.062 H 
ATOM     14  H   LIG d   1       2.269   0.886  -3.504  0.00  0.00     0.063 H 
ATOM     15  H   LIG d   1       5.632  -1.601  -4.348  0.00  0.00     0.065 H 
ENDROOT
BRANCH   1  16
ATOM     16  C   LIG d   1       2.467   0.350  -8.889  0.00  0.00     0.341 C 
ATOM     17  O   LIG d   1       1.697  -0.342  -9.526  0.00  0.00    -0.245 OA
BRANCH  16  18
ATOM     18  O   LIG d   1       2.446   1.690  -9.029  0.00  0.00    -0.464 OA
BRANCH  18  19
ATOM     19  C   LIG d   1       3.606   2.306  -9.651  0.00  0.00     0.082 C 
ATOM     20  H   LIG d   1       4.512   1.946  -9.164  0.00  0.00     0.066 H 
ATOM     21  H   LIG d   1       3.633   2.043 -10.709  0.00  0.00     0.066 H 
ATOM     22  H   LIG d   1       3.542   3.389  -9.547  0.00  0.00     0.066 H 
ENDBRANCH  18  19
ENDBRANCH  16  18
ENDBRANCH   1  16
TORSDOF 3
ENDMDL
MODEL 6
REMARK VINA RESULT:      -4.7      3.513      4.722
REMARK  3 active torsions:
REMARK  status: ('A' for Active; 'I' for Inactive)
REMARK    1  A    between atoms: C_1  and  O_2 
REMARK    2  A    between atoms: O_2  and  C_3 
REMARK    3  A    between atoms: C_3  and  C_5 
ROOT
ATOM      1  C   LIG d   1       4.763  -1.381  -3.828  0.00  0.00     0.084 A 
ATOM      2  C   LIG d   1       5.978  -1.788  -4.297  0.00  0.00     0.017 A 
ATOM      3  N   LIG d   1       6.121  -1.409  -5.589  0.00  0.00    -0.360 N 
ATOM      4  H   LIG d   1       6.902  -1.586  -6.134  0.00  0.00     0.165 HD
ATOM      5  C   LIG d   1       4.997  -0.733  -6.020  0.00  0.00     0.048 A 
ATOM      6  C   LIG d   1       4.097  -0.683  -4.943  0.00  0.00     0.014 A 
ATOM      7  C   LIG d   1       2.864  -0.055  -5.092  0.00  0.00    -0.051 A 
ATOM      8  C   LIG d   1       2.531   0.518  -6.302  0.00  0.00    -0.047 A 
ATOM      9  C   LIG d   1       3.420   0.470  -7.366  0.00  0.00     0.020 A 
ATOM     10  C   LIG d   1       4.645  -0.149  -7.232  0.00  0.00    -0.024 A 
ATOM     11 BR   LIG d   1       2.947   1.262  -9.018  0.00  0.00    -0.050 Br
ATOM     12  H   LIG d   1       6.714  -2.331  -3.724  0.00  0.00     0.082 H 
ATOM     13  H   LIG d   1       2.171  -0.016  -4.265  0.00  0.00     0.062 H 
ATOM     14  H   LIG d   1       1.575   1.007  -6.420  0.00  0.00     0.063 H 
ATOM     15  H   LIG d   1       5.328  -0.181  -8.067  0.00  0.00     0.065 H 
ENDROOT
BRANCH   1  16
ATOM     16  C   LIG d   1       4.223  -1.599  -2.480  0.00  0.00     0.341 C 
ATOM     17  O   LIG d   1       3.488  -2.544  -2.267  0.00  0.00    -0.245 OA
BRANCH  16  18
ATOM     18  O   LIG d   1       4.542  -0.752  -1.482  0.00  0.00    -0.464 OA
BRANCH  18  19
ATOM     19  C   LIG d   1       4.520   0.667  -1.789  0.00  0.00     0.082 C 
ATOM     20  H   LIG d   1       5.454   0.947  -2.278  0.00  0.00     0.066 H 
ATOM     21  H   LIG d   1       3.684   0.882  -2.455  0.00  0.00     0.066 H 
ATOM     22  H   LIG d   1       4.407   1.237  -0.867  0.00  0.00     0.066 H 
ENDBRANCH  18  19
ENDBRANCH  16  18
ENDBRANCH   1  16
TORSDOF 3
ENDMDL
MODEL 7
REMARK VINA RESULT:      -4.7      4.177      5.640
REMARK  3 active torsions:
REMARK  status: ('A' for Active; 'I' for Inactive)
REMARK    1  A    between atoms: C_1  and  O_2 
REMARK    2  A    between atoms: O_2  and  C_3 
REMARK    3  A    between atoms: C_3  and  C_5 
ROOT
ATOM      1  C   LIG d   1       4.438  -0.691  -2.539  0.00  0.00     0.084 A 
ATOM      2  C   LIG d   1       3.571  -1.744  -2.535  0.00  0.00     0.017 A 
ATOM      3  N   LIG d   1       4.100  -2.775  -3.237  0.00  0.00    -0.360 N 
ATOM      4  H   LIG d   1       3.667  -3.632  -3.372  0.00  0.00     0.165 HD
ATOM      5  C   LIG d   1       5.343  -2.435  -3.730  0.00  0.00     0.048 A 
ATOM      6  C   LIG d   1       5.614  -1.119  -3.319  0.00  0.00     0.014 A 
ATOM      7  C   LIG d   1       6.812  -0.508  -3.677  0.00  0.00    -0.051 A 
ATOM      8  C   LIG d   1       7.731  -1.200  -4.437  0.00  0.00    -0.047 A 
ATOM      9  C   LIG d   1       7.465  -2.500  -4.844  0.00  0.00     0.020 A 
ATOM     10  C   LIG d   1       6.282  -3.117  -4.496  0.00  0.00    -0.024 A 
ATOM     11 BR   LIG d   1       8.738  -3.434  -5.886  0.00  0.00    -0.050 Br
ATOM     12  H   LIG d   1       2.608  -1.755  -2.047  0.00  0.00     0.082 H 
ATOM     13  H   LIG d   1       7.021   0.503  -3.362  0.00  0.00     0.062 H 
ATOM     14  H   LIG d   1       8.662  -0.728  -4.716  0.00  0.00     0.063 H 
ATOM     15  H   LIG d   1       6.085  -4.128  -4.818  0.00  0.00     0.065 H 
ENDROOT
BRANCH   1  16
ATOM     16  C   LIG d   1       4.238   0.614  -1.897  0.00  0.00     0.341 C 
ATOM     17  O   LIG d   1       5.013   0.995  -1.041  0.00  0.00    -0.245 OA
BRANCH  16  18
ATOM     18  O   LIG d   1       3.195   1.388  -2.256  0.00  0.00    -0.464 OA
BRANCH  18  19
ATOM     19  C   LIG d   1       3.122   1.790  -3.650  0.00  0.00     0.082 C 
ATOM     20  H   LIG d   1       2.806   2.832  -3.712  0.00  0.00     0.066 H 
ATOM     21  H   LIG d   1       4.104   1.681  -4.112  0.00  0.00     0.066 H 
ATOM     22  H   LIG d   1       2.402   1.160  -4.173  0.00  0.00     0.066 H 
ENDBRANCH  18  19
ENDBRANCH  16  18
ENDBRANCH   1  16
TORSDOF 3
ENDMDL
MODEL 8
REMARK VINA RESULT:      -4.7      3.590      4.649
REMARK  3 active torsions:
REMARK  status: ('A' for Active; 'I' for Inactive)
REMARK    1  A    between atoms: C_1  and  O_2 
REMARK    2  A    between atoms: O_2  and  C_3 
REMARK    3  A    between atoms: C_3  and  C_5 
ROOT
ATOM      1  C   LIG d   1       3.730  -1.094  -4.307  0.00  0.00     0.084 A 
ATOM      2  C   LIG d   1       2.553  -0.523  -3.921  0.00  0.00     0.017 A 
ATOM      3  N   LIG d   1       2.077   0.264  -4.915  0.00  0.00    -0.360 N 
ATOM      4  H   LIG d   1       1.253   0.773  -4.872  0.00  0.00     0.165 HD
ATOM      5  C   LIG d   1       2.931   0.238  -6.000  0.00  0.00     0.048 A 
ATOM      6  C   LIG d   1       4.002  -0.609  -5.672  0.00  0.00     0.014 A 
ATOM      7  C   LIG d   1       5.027  -0.825  -6.589  0.00  0.00    -0.051 A 
ATOM      8  C   LIG d   1       4.985  -0.203  -7.819  0.00  0.00    -0.047 A 
ATOM      9  C   LIG d   1       3.927   0.634  -8.144  0.00  0.00     0.020 A 
ATOM     10  C   LIG d   1       2.905   0.856  -7.245  0.00  0.00    -0.024 A 
ATOM     11 BR   LIG d   1       3.886   1.478  -9.836  0.00  0.00    -0.050 Br
ATOM     12  H   LIG d   1       2.072  -0.675  -2.966  0.00  0.00     0.082 H 
ATOM     13  H   LIG d   1       5.851  -1.476  -6.339  0.00  0.00     0.062 H 
ATOM     14  H   LIG d   1       5.779  -0.369  -8.533  0.00  0.00     0.063 H 
ATOM     15  H   LIG d   1       2.087   1.510  -7.508  0.00  0.00     0.065 H 
ENDROOT
BRANCH   1  16
ATOM     16  C   LIG d   1       4.565  -2.007  -3.516  0.00  0.00     0.341 C 
ATOM     17  O   LIG d   1       4.271  -3.184  -3.438  0.00  0.00    -0.245 OA
BRANCH  16  18
ATOM     18  O   LIG d   1       5.655  -1.539  -2.877  0.00  0.00    -0.464 OA
BRANCH  18  19
ATOM     19  C   LIG d   1       6.949  -1.897  -3.432  0.00  0.00     0.082 C 
ATOM     20  H   LIG d   1       7.740  -1.510  -2.789  0.00  0.00     0.066 H 
ATOM     21  H   LIG d   1       7.030  -2.983  -3.493  0.00  0.00     0.066 H 
ATOM     22  H   LIG d   1       7.048  -1.468  -4.429  0.00  0.00     0.066 H 
ENDBRANCH  18  19
ENDBRANCH  16  18
ENDBRANCH   1  16
TORSDOF 3
ENDMDL
MODEL 9
REMARK VINA RESULT:      -4.5      2.340      2.715
REMARK  3 active torsions:
REMARK  status: ('A' for Active; 'I' for Inactive)
REMARK    1  A    between atoms: C_1  and  O_2 
REMARK    2  A    between atoms: O_2  and  C_3 
REMARK    3  A    between atoms: C_3  and  C_5 
ROOT
ATOM      1  C   LIG d   1       6.377  -3.871  -4.967  0.00  0.00     0.084 A 
ATOM      2  C   LIG d   1       5.179  -4.418  -5.324  0.00  0.00     0.017 A 
ATOM      3  N   LIG d   1       4.168  -3.630  -4.886  0.00  0.00    -0.360 N 
ATOM      4  H   LIG d   1       3.226  -3.814  -5.021  0.00  0.00     0.165 HD
ATOM      5  C   LIG d   1       4.668  -2.528  -4.222  0.00  0.00     0.048 A 
ATOM      6  C   LIG d   1       6.069  -2.626  -4.240  0.00  0.00     0.014 A 
ATOM      7  C   LIG d   1       6.846  -1.641  -3.636  0.00  0.00    -0.051 A 
ATOM      8  C   LIG d   1       6.233  -0.570  -3.020  0.00  0.00    -0.047 A 
ATOM      9  C   LIG d   1       4.849  -0.473  -3.002  0.00  0.00     0.020 A 
ATOM     10  C   LIG d   1       4.068  -1.441  -3.596  0.00  0.00    -0.024 A 
ATOM     11 BR   LIG d   1       4.025   1.003  -2.152  0.00  0.00    -0.050 Br
ATOM     12  H   LIG d   1       5.056  -5.340  -5.872  0.00  0.00     0.082 H 
ATOM     13  H   LIG d   1       7.923  -1.715  -3.649  0.00  0.00     0.062 H 
ATOM     14  H   LIG d   1       6.833   0.195  -2.551  0.00  0.00     0.063 H 
ATOM     15  H   LIG d   1       2.992  -1.356  -3.576  0.00  0.00     0.065 H 
ENDROOT
BRANCH   1  16
ATOM     16  C   LIG d   1       7.711  -4.418  -5.247  0.00  0.00     0.341 C 
ATOM     17  O   LIG d   1       8.037  -4.665  -6.392  0.00  0.00    -0.245 OA
BRANCH  16  18
ATOM     18  O   LIG d   1       8.571  -4.646  -4.235  0.00  0.00    -0.464 OA
BRANCH  18  19
ATOM     19  C   LIG d   1       9.014  -6.016  -4.042  0.00  0.00     0.082 C 
ATOM     20  H   LIG d   1       9.558  -6.093  -3.100  0.00  0.00     0.066 H 
ATOM     21  H   LIG d   1       8.147  -6.677  -4.014  0.00  0.00     0.066 H 
ATOM     22  H   LIG d   1       9.667  -6.306  -4.865  0.00  0.00     0.066 H 
ENDBRANCH  18  19
ENDBRANCH  16  18
ENDBRANCH   1  16
TORSDOF 3
ENDMDL
