MODEL 1
REMARK VINA RESULT:      -4.9      0.000      0.000
REMARK  6 active torsions:
REMARK  status: ('A' for Active; 'I' for Inactive)
REMARK    1  A    between atoms: C_1  and  O_2 
REMARK    2  A    between atoms: O_2  and  C_3 
REMARK    3  A    between atoms: C_8  and  N_9 
REMARK    4  A    between atoms: C_12  and  C_16 
REMARK    5  A    between atoms: C_16  and  C_17 
REMARK    6  A    between atoms: C_17  and  N_30 
ROOT
ATOM      1  C   LIG d   1       4.405  -0.729  -3.318  0.00  0.00     0.198 A 
ATOM      2  C   LIG d   1       5.515  -1.559  -3.186  0.00  0.00    -0.011 A 
ATOM      3  C   LIG d   1       6.075  -2.165  -4.289  0.00  0.00    -0.034 A 
ATOM      4  C   LIG d   1       5.538  -1.941  -5.552  0.00  0.00     0.053 A 
ATOM      5  C   LIG d   1       4.420  -1.101  -5.690  0.00  0.00     0.084 A 
ATOM      6  C   LIG d   1       3.855  -0.498  -4.564  0.00  0.00     0.324 A 
ATOM      7  C   LIG d   1       4.104  -1.077  -7.121  0.00  0.00    -0.011 A 
ATOM      8  C   LIG d   1       5.010  -1.854  -7.736  0.00  0.00     0.006 A 
ATOM      9  N   LIG d   1       5.875  -2.380  -6.815  0.00  0.00    -0.360 N 
ATOM     10  H   LIG d   1       6.614  -2.973  -7.020  0.00  0.00     0.165 HD
ATOM     11  H   LIG d   1       5.937  -1.735  -2.208  0.00  0.00     0.066 H 
ATOM     12  H   LIG d   1       6.937  -2.805  -4.174  0.00  0.00     0.064 H 
ATOM     13  H   LIG d   1       5.048  -2.039  -8.799  0.00  0.00     0.081 H 
ENDROOT
BRANCH   7  14
ATOM     14  C   LIG d   1       2.982  -0.317  -7.779  0.00  0.00     0.015 C 
ATOM     15  H   LIG d   1       2.260  -0.007  -7.023  0.00  0.00     0.037 H 
ATOM     16  H   LIG d   1       2.489  -0.958  -8.509  0.00  0.00     0.037 H 
BRANCH  14  17
ATOM     17  C   LIG d   1       3.545   0.919  -8.483  0.00  0.00    -0.031 C 
ATOM     18  H   LIG d   1       3.307   0.872  -9.546  0.00  0.00     0.082 H 
ATOM     19  H   LIG d   1       4.627   0.949  -8.354  0.00  0.00     0.082 H 
BRANCH  17  20
ATOM     20  N   LIG d   1       2.924   2.125  -7.907  0.00  0.00     0.219 N 
ATOM     21  H   LIG d   1       2.403   1.881  -7.066  0.00  0.00     0.199 HD
ATOM     22  H   LIG d   1       3.642   2.809  -7.674  0.00  0.00     0.199 HD
ATOM     23  H   LIG d   1       2.281   2.533  -8.593  0.00  0.00     0.199 HD
ENDBRANCH  17  20
ENDBRANCH  14  17
ENDBRANCH   7  14
BRANCH   6  24
ATOM     24  N   LIG d   1       2.675   0.385  -4.704  0.00  0.00     0.084 N 
ATOM     25  O   LIG d   1       2.826   1.583  -4.866  0.00  0.00     0.042 OA
ATOM     26  O   LIG d   1       1.554  -0.087  -4.657  0.00  0.00    -0.576 OA
ENDBRANCH   6  24
BRANCH   1  27
ATOM     27  O   LIG d   1       3.860  -0.146  -2.219  0.00  0.00    -0.489 OA
BRANCH  27  28
ATOM     28  C   LIG d   1       4.581   0.942  -1.637  0.00  0.00     0.079 C 
ATOM     29  H   LIG d   1       4.883   0.677  -0.624  0.00  0.00     0.066 H 
ATOM     30  H   LIG d   1       5.468   1.152  -2.236  0.00  0.00     0.066 H 
ATOM     31  H   LIG d   1       3.945   1.826  -1.607  0.00  0.00     0.066 H 
ENDBRANCH  27  28
ENDBRANCH   1  27
TORSDOF 6
ENDMDL
MODEL 2
REMARK VINA RESULT:      -4.8      2.064      3.630
REMARK  6 active torsions:
REMARK  status: ('A' for Active; 'I' for Inactive)
REMARK    1  A    between atoms: C_1  and  O_2 
REMARK    2  A    between atoms: O_2  and  C_3 
REMARK    3  A    between atoms: C_8  and  N_9 
REMARK    4  A    between atoms: C_12  and  C_16 
REMARK    5  A    between atoms: C_16  and  C_17 
REMARK    6  A    between atoms: C_17  and  N_30 
ROOT
ATOM      1  C   LIG d   1       3.540  -0.312  -3.694  0.00  0.00     0.198 A 
ATOM      2  C   LIG d   1       2.797   0.766  -4.170  0.00  0.00    -0.011 A 
ATOM      3  C   LIG d   1       2.596   0.938  -5.521  0.00  0.00    -0.034 A 
ATOM      4  C   LIG d   1       3.128   0.025  -6.425  0.00  0.00     0.053 A 
ATOM      5  C   LIG d   1       3.875  -1.066  -5.948  0.00  0.00     0.084 A 
ATOM      6  C   LIG d   1       4.078  -1.227  -4.576  0.00  0.00     0.324 A 
ATOM      7  C   LIG d   1       4.288  -1.823  -7.133  0.00  0.00    -0.011 A 
ATOM      8  C   LIG d   1       3.785  -1.186  -8.202  0.00  0.00     0.006 A 
ATOM      9  N   LIG d   1       3.088  -0.078  -7.799  0.00  0.00    -0.360 N 
ATOM     10  H   LIG d   1       2.635   0.541  -8.392  0.00  0.00     0.165 HD
ATOM     11  H   LIG d   1       2.380   1.477  -3.472  0.00  0.00     0.066 H 
ATOM     12  H   LIG d   1       2.017   1.777  -5.878  0.00  0.00     0.064 H 
ATOM     13  H   LIG d   1       3.913  -1.499  -9.227  0.00  0.00     0.081 H 
ENDROOT
BRANCH   7  14
ATOM     14  C   LIG d   1       5.116  -3.083  -7.148  0.00  0.00     0.015 C 
ATOM     15  H   LIG d   1       5.529  -3.258  -6.155  0.00  0.00     0.037 H 
ATOM     16  H   LIG d   1       5.928  -2.974  -7.866  0.00  0.00     0.037 H 
BRANCH  14  17
ATOM     17  C   LIG d   1       4.234  -4.267  -7.551  0.00  0.00    -0.031 C 
ATOM     18  H   LIG d   1       4.863  -5.083  -7.908  0.00  0.00     0.082 H 
ATOM     19  H   LIG d   1       3.553  -3.960  -8.345  0.00  0.00     0.082 H 
BRANCH  17  20
ATOM     20  N   LIG d   1       3.479  -4.726  -6.372  0.00  0.00     0.219 N 
ATOM     21  H   LIG d   1       2.487  -4.793  -6.598  0.00  0.00     0.199 HD
ATOM     22  H   LIG d   1       3.820  -5.638  -6.072  0.00  0.00     0.199 HD
ATOM     23  H   LIG d   1       3.604  -4.052  -5.608  0.00  0.00     0.199 HD
ENDBRANCH  17  20
ENDBRANCH  14  17
ENDBRANCH   7  14
BRANCH   6  24
ATOM     24  N   LIG d   1       4.868  -2.374  -4.069  0.00  0.00     0.084 N 
ATOM     25  O   LIG d   1       4.315  -3.430  -3.820  0.00  0.00     0.042 OA
ATOM     26  O   LIG d   1       6.068  -2.259  -3.903  0.00  0.00    -0.576 OA
ENDBRANCH   6  24
BRANCH   1  27
ATOM     27  O   LIG d   1       3.735  -0.463  -2.358  0.00  0.00    -0.489 OA
BRANCH  27  28
ATOM     28  C   LIG d   1       4.562   0.504  -1.709  0.00  0.00     0.079 C 
ATOM     29  H   LIG d   1       5.133   0.021  -0.916  0.00  0.00     0.066 H 
ATOM     30  H   LIG d   1       5.249   0.940  -2.435  0.00  0.00     0.066 H 
ATOM     31  H   LIG d   1       3.939   1.289  -1.282  0.00  0.00     0.066 H 
ENDBRANCH  27  28
ENDBRANCH   1  27
TORSDOF 6
ENDMDL
MODEL 3
REMARK VINA RESULT:      -4.7      2.598      3.517
REMARK  6 active torsions:
REMARK  status: ('A' for Active; 'I' for Inactive)
REMARK    1  A    between atoms: C_1  and  O_2 
REMARK    2  A    between atoms: O_2  and  C_3 
REMARK    3  A    between atoms: C_8  and  N_9 
REMARK    4  A    between atoms: C_12  and  C_16 
REMARK    5  A    between atoms: C_16  and  C_17 
REMARK    6  A    between atoms: C_17  and  N_30 
ROOT
ATOM      1  C   LIG d   1       6.312  -1.303  -4.179  0.00  0.00     0.198 A 
ATOM      2  C   LIG d   1       5.752  -1.685  -2.963  0.00  0.00    -0.011 A 
ATOM      3  C   LIG d   1       4.416  -1.471  -2.707  0.00  0.00    -0.034 A 
ATOM      4  C   LIG d   1       3.609  -0.879  -3.672  0.00  0.00     0.053 A 
ATOM      5  C   LIG d   1       4.170  -0.496  -4.903  0.00  0.00     0.084 A 
ATOM      6  C   LIG d   1       5.528  -0.710  -5.149  0.00  0.00     0.324 A 
ATOM      7  C   LIG d   1       3.076   0.090  -5.682  0.00  0.00    -0.011 A 
ATOM      8  C   LIG d   1       1.971   0.021  -4.923  0.00  0.00     0.006 A 
ATOM      9  N   LIG d   1       2.269  -0.555  -3.717  0.00  0.00    -0.360 N 
ATOM     10  H   LIG d   1       1.634  -0.712  -3.002  0.00  0.00     0.165 HD
ATOM     11  H   LIG d   1       6.373  -2.147  -2.210  0.00  0.00     0.066 H 
ATOM     12  H   LIG d   1       3.992  -1.774  -1.760  0.00  0.00     0.064 H 
ATOM     13  H   LIG d   1       0.993   0.369  -5.218  0.00  0.00     0.081 H 
ENDROOT
BRANCH   7  14
ATOM     14  C   LIG d   1       3.170   0.656  -7.076  0.00  0.00     0.015 C 
ATOM     15  H   LIG d   1       4.219   0.770  -7.351  0.00  0.00     0.037 H 
ATOM     16  H   LIG d   1       2.679   1.627  -7.107  0.00  0.00     0.037 H 
BRANCH  14  17
ATOM     17  C   LIG d   1       2.486  -0.295  -8.060  0.00  0.00    -0.031 C 
ATOM     18  H   LIG d   1       2.499   0.145  -9.058  0.00  0.00     0.082 H 
ATOM     19  H   LIG d   1       1.454  -0.460  -7.749  0.00  0.00     0.082 H 
BRANCH  17  20
ATOM     20  N   LIG d   1       3.225  -1.570  -8.090  0.00  0.00     0.219 N 
ATOM     21  H   LIG d   1       3.193  -2.012  -7.172  0.00  0.00     0.199 HD
ATOM     22  H   LIG d   1       2.814  -2.194  -8.782  0.00  0.00     0.199 HD
ATOM     23  H   LIG d   1       4.203  -1.387  -8.340  0.00  0.00     0.199 HD
ENDBRANCH  17  20
ENDBRANCH  14  17
ENDBRANCH   7  14
BRANCH   6  24
ATOM     24  N   LIG d   1       6.124  -0.304  -6.443  0.00  0.00     0.084 N 
ATOM     25  O   LIG d   1       6.589   0.814  -6.575  0.00  0.00     0.042 OA
ATOM     26  O   LIG d   1       6.149  -1.089  -7.373  0.00  0.00    -0.576 OA
ENDBRANCH   6  24
BRANCH   1  27
ATOM     27  O   LIG d   1       7.634  -1.514  -4.413  0.00  0.00    -0.489 OA
BRANCH  27  28
ATOM     28  C   LIG d   1       8.084  -2.870  -4.415  0.00  0.00     0.079 C 
ATOM     29  H   LIG d   1       7.225  -3.538  -4.456  0.00  0.00     0.066 H 
ATOM     30  H   LIG d   1       8.718  -3.040  -5.287  0.00  0.00     0.066 H 
ATOM     31  H   LIG d   1       8.655  -3.066  -3.509  0.00  0.00     0.066 H 
ENDBRANCH  27  28
ENDBRANCH   1  27
TORSDOF 6
ENDMDL
MODEL 4
REMARK VINA RESULT:      -4.6      2.381      4.554
REMARK  6 active torsions:
REMARK  status: ('A' for Active; 'I' for Inactive)
REMARK    1  A    between atoms: C_1  and  O_2 
REMARK    2  A    between atoms: O_2  and  C_3 
REMARK    3  A    between atoms: C_8  and  N_9 
REMARK    4  A    between atoms: C_12  and  C_16 
REMARK    5  A    between atoms: C_16  and  C_17 
REMARK    6  A    between atoms: C_17  and  N_30 
ROOT
ATOM      1  C   LIG d   1       5.394  -2.441  -6.077  0.00  0.00     0.198 A 
ATOM      2  C   LIG d   1       5.237  -1.979  -7.381  0.00  0.00    -0.011 A 
ATOM      3  C   LIG d   1       4.416  -0.908  -7.653  0.00  0.00    -0.034 A 
ATOM      4  C   LIG d   1       3.742  -0.269  -6.619  0.00  0.00     0.053 A 
ATOM      5  C   LIG d   1       3.901  -0.729  -5.300  0.00  0.00     0.084 A 
ATOM      6  C   LIG d   1       4.730  -1.822  -5.037  0.00  0.00     0.324 A 
ATOM      7  C   LIG d   1       3.070   0.141  -4.464  0.00  0.00    -0.011 A 
ATOM      8  C   LIG d   1       2.495   1.038  -5.280  0.00  0.00     0.006 A 
ATOM      9  N   LIG d   1       2.884   0.810  -6.572  0.00  0.00    -0.360 N 
ATOM     10  H   LIG d   1       2.599   1.329  -7.340  0.00  0.00     0.165 HD
ATOM     11  H   LIG d   1       5.760  -2.471  -8.188  0.00  0.00     0.066 H 
ATOM     12  H   LIG d   1       4.304  -0.557  -8.669  0.00  0.00     0.064 H 
ATOM     13  H   LIG d   1       1.823   1.822  -4.964  0.00  0.00     0.081 H 
ENDROOT
BRANCH   7  14
ATOM     14  C   LIG d   1       2.898   0.050  -2.969  0.00  0.00     0.015 C 
ATOM     15  H   LIG d   1       3.300  -0.899  -2.614  0.00  0.00     0.037 H 
ATOM     16  H   LIG d   1       1.839   0.111  -2.721  0.00  0.00     0.037 H 
BRANCH  14  17
ATOM     17  C   LIG d   1       3.647   1.204  -2.299  0.00  0.00    -0.031 C 
ATOM     18  H   LIG d   1       2.970   1.738  -1.632  0.00  0.00     0.082 H 
ATOM     19  H   LIG d   1       4.019   1.888  -3.062  0.00  0.00     0.082 H 
BRANCH  17  20
ATOM     20  N   LIG d   1       4.765   0.657  -1.509  0.00  0.00     0.219 N 
ATOM     21  H   LIG d   1       5.532   1.327  -1.481  0.00  0.00     0.199 HD
ATOM     22  H   LIG d   1       4.455   0.456  -0.560  0.00  0.00     0.199 HD
ATOM     23  H   LIG d   1       5.093  -0.211  -1.947  0.00  0.00     0.199 HD
ENDBRANCH  17  20
ENDBRANCH  14  17
ENDBRANCH   7  14
BRANCH   6  24
ATOM     24  N   LIG d   1       4.897  -2.313  -3.649  0.00  0.00     0.084 N 
ATOM     25  O   LIG d   1       4.135  -3.154  -3.206  0.00  0.00     0.042 OA
ATOM     26  O   LIG d   1       5.795  -1.877  -2.954  0.00  0.00    -0.576 OA
ENDBRANCH   6  24
BRANCH   1  27
ATOM     27  O   LIG d   1       6.202  -3.505  -5.827  0.00  0.00    -0.489 OA
BRANCH  27  28
ATOM     28  C   LIG d   1       7.611  -3.284  -5.913  0.00  0.00     0.079 C 
ATOM     29  H   LIG d   1       7.921  -2.602  -5.122  0.00  0.00     0.066 H 
ATOM     30  H   LIG d   1       8.135  -4.234  -5.799  0.00  0.00     0.066 H 
ATOM     31  H   LIG d   1       7.853  -2.851  -6.883  0.00  0.00     0.066 H 
ENDBRANCH  27  28
ENDBRANCH   1  27
TORSDOF 6
ENDMDL
MODEL 5
REMARK VINA RESULT:      -4.5      2.544      4.896
REMARK  6 active torsions:
REMARK  status: ('A' for Active; 'I' for Inactive)
REMARK    1  A    between atoms: C_1  and  O_2 
REMARK    2  A    between atoms: O_2  and  C_3 
REMARK    3  A    between atoms: C_8  and  N_9 
REMARK    4  A    between atoms: C_12  and  C_16 
REMARK    5  A    between atoms: C_16  and  C_17 
REMARK    6  A    between atoms: C_17  and  N_30 
ROOT
ATOM      1  C   LIG d   1       3.506   0.096  -6.642  0.00  0.00     0.198 A 
ATOM      2  C   LIG d   1       2.444   0.592  -5.890  0.00  0.00    -0.011 A 
ATOM      3  C   LIG d   1       2.266   0.198  -4.583  0.00  0.00    -0.034 A 
ATOM      4  C   LIG d   1       3.157  -0.694  -3.998  0.00  0.00     0.053 A 
ATOM      5  C   LIG d   1       4.234  -1.193  -4.752  0.00  0.00     0.084 A 
ATOM      6  C   LIG d   1       4.400  -0.793  -6.080  0.00  0.00     0.324 A 
ATOM      7  C   LIG d   1       4.970  -2.095  -3.862  0.00  0.00    -0.011 A 
ATOM      8  C   LIG d   1       4.337  -2.081  -2.679  0.00  0.00     0.006 A 
ATOM      9  N   LIG d   1       3.251  -1.250  -2.739  0.00  0.00    -0.360 N 
ATOM     10  H   LIG d   1       2.639  -1.079  -2.007  0.00  0.00     0.165 HD
ATOM     11  H   LIG d   1       1.750   1.286  -6.339  0.00  0.00     0.066 H 
ATOM     12  H   LIG d   1       1.439   0.591  -4.009  0.00  0.00     0.064 H 
ATOM     13  H   LIG d   1       4.639  -2.644  -1.808  0.00  0.00     0.081 H 
ENDROOT
BRANCH   7  14
ATOM     14  C   LIG d   1       6.207  -2.882  -4.208  0.00  0.00     0.015 C 
ATOM     15  H   LIG d   1       6.390  -2.820  -5.281  0.00  0.00     0.037 H 
ATOM     16  H   LIG d   1       6.066  -3.924  -3.923  0.00  0.00     0.037 H 
BRANCH  14  17
ATOM     17  C   LIG d   1       7.407  -2.305  -3.453  0.00  0.00    -0.031 C 
ATOM     18  H   LIG d   1       8.273  -2.949  -3.601  0.00  0.00     0.082 H 
ATOM     19  H   LIG d   1       7.174  -2.248  -2.389  0.00  0.00     0.082 H 
BRANCH  17  20
ATOM     20  N   LIG d   1       7.710  -0.965  -3.986  0.00  0.00     0.219 N 
ATOM     21  H   LIG d   1       8.679  -0.721  -3.784  0.00  0.00     0.199 HD
ATOM     22  H   LIG d   1       7.559  -0.947  -4.993  0.00  0.00     0.199 HD
ATOM     23  H   LIG d   1       7.091  -0.277  -3.541  0.00  0.00     0.199 HD
ENDBRANCH  17  20
ENDBRANCH  14  17
ENDBRANCH   7  14
BRANCH   6  24
ATOM     24  N   LIG d   1       5.530  -1.319  -6.880  0.00  0.00     0.084 N 
ATOM     25  O   LIG d   1       6.604  -0.744  -6.869  0.00  0.00     0.042 OA
ATOM     26  O   LIG d   1       5.385  -2.326  -7.549  0.00  0.00    -0.576 OA
ENDBRANCH   6  24
BRANCH   1  27
ATOM     27  O   LIG d   1       3.663   0.489  -7.934  0.00  0.00    -0.489 OA
BRANCH  27  28
ATOM     28  C   LIG d   1       2.958   1.661  -8.346  0.00  0.00     0.079 C 
ATOM     29  H   LIG d   1       3.339   1.994  -9.311  0.00  0.00     0.066 H 
ATOM     30  H   LIG d   1       1.895   1.432  -8.436  0.00  0.00     0.066 H 
ATOM     31  H   LIG d   1       3.098   2.450  -7.608  0.00  0.00     0.066 H 
ENDBRANCH  27  28
ENDBRANCH   1  27
TORSDOF 6
ENDMDL
MODEL 6
REMARK VINA RESULT:      -4.5     10.139     11.384
REMARK  6 active torsions:
REMARK  status: ('A' for Active; 'I' for Inactive)
REMARK    1  A    between atoms: C_1  and  O_2 
REMARK    2  A    between atoms: O_2  and  C_3 
REMARK    3  A    between atoms: C_8  and  N_9 
REMARK    4  A    between atoms: C_12  and  C_16 
REMARK    5  A    between atoms: C_16  and  C_17 
REMARK    6  A    between atoms: C_17  and  N_30 
ROOT
ATOM      1  C   LIG d   1       9.982   6.917  -1.356  0.00  0.00     0.198 A 
ATOM      2  C   LIG d   1       9.924   5.854  -2.254  0.00  0.00    -0.011 A 
ATOM      3  C   LIG d   1       9.911   6.083  -3.612  0.00  0.00    -0.034 A 
ATOM      4  C   LIG d   1       9.966   7.384  -4.098  0.00  0.00     0.053 A 
ATOM      5  C   LIG d   1      10.028   8.459  -3.195  0.00  0.00     0.084 A 
ATOM      6  C   LIG d   1      10.034   8.216  -1.819  0.00  0.00     0.324 A 
ATOM      7  C   LIG d   1      10.072   9.674  -4.012  0.00  0.00    -0.011 A 
ATOM      8  C   LIG d   1      10.046   9.285  -5.296  0.00  0.00     0.006 A 
ATOM      9  N   LIG d   1       9.983   7.919  -5.369  0.00  0.00    -0.360 N 
ATOM     10  H   LIG d   1       9.954   7.406  -6.191  0.00  0.00     0.165 HD
ATOM     11  H   LIG d   1       9.884   4.841  -1.881  0.00  0.00     0.066 H 
ATOM     12  H   LIG d   1       9.868   5.250  -4.299  0.00  0.00     0.064 H 
ATOM     13  H   LIG d   1      10.070   9.950  -6.146  0.00  0.00     0.081 H 
ENDROOT
BRANCH   7  14
ATOM     14  C   LIG d   1      10.140  11.093  -3.507  0.00  0.00     0.015 C 
ATOM     15  H   LIG d   1      10.956  11.617  -4.005  0.00  0.00     0.037 H 
ATOM     16  H   LIG d   1      10.315  11.087  -2.432  0.00  0.00     0.037 H 
BRANCH  14  17
ATOM     17  C   LIG d   1       8.819  11.805  -3.806  0.00  0.00    -0.031 C 
ATOM     18  H   LIG d   1       8.470  11.521  -4.799  0.00  0.00     0.082 H 
ATOM     19  H   LIG d   1       8.971  12.884  -3.769  0.00  0.00     0.082 H 
BRANCH  17  20
ATOM     20  N   LIG d   1       7.815  11.392  -2.810  0.00  0.00     0.219 N 
ATOM     21  H   LIG d   1       7.207  10.676  -3.204  0.00  0.00     0.199 HD
ATOM     22  H   LIG d   1       8.277  11.025  -1.980  0.00  0.00     0.199 HD
ATOM     23  H   LIG d   1       7.247  12.206  -2.546  0.00  0.00     0.199 HD
ENDBRANCH  17  20
ENDBRANCH  14  17
ENDBRANCH   7  14
BRANCH   6  24
ATOM     24  N   LIG d   1      10.095   9.346  -0.863  0.00  0.00     0.084 N 
ATOM     25  O   LIG d   1       9.066   9.858  -0.460  0.00  0.00     0.042 OA
ATOM     26  O   LIG d   1      11.173   9.761  -0.481  0.00  0.00    -0.576 OA
ENDBRANCH   6  24
BRANCH   1  27
ATOM     27  O   LIG d   1       9.987   6.674  -0.018  0.00  0.00    -0.489 OA
BRANCH  27  28
ATOM     28  C   LIG d   1      11.153   6.053   0.525  0.00  0.00     0.079 C 
ATOM     29  H   LIG d   1      11.105   4.978   0.355  0.00  0.00     0.066 H 
ATOM     30  H   LIG d   1      12.041   6.458   0.036  0.00  0.00     0.066 H 
ATOM     31  H   LIG d   1      11.207   6.251   1.595  0.00  0.00     0.066 H 
ENDBRANCH  27  28
ENDBRANCH   1  27
TORSDOF 6
ENDMDL
MODEL 7
REMARK VINA RESULT:      -4.4      2.844      4.960
REMARK  6 active torsions:
REMARK  status: ('A' for Active; 'I' for Inactive)
REMARK    1  A    between atoms: C_1  and  O_2 
REMARK    2  A    between atoms: O_2  and  C_3 
REMARK    3  A    between atoms: C_8  and  N_9 
REMARK    4  A    between atoms: C_12  and  C_16 
REMARK    5  A    between atoms: C_16  and  C_17 
REMARK    6  A    between atoms: C_17  and  N_30 
ROOT
ATOM      1  C   LIG d   1       3.091   0.563  -8.468  0.00  0.00     0.198 A 
ATOM      2  C   LIG d   1       2.166   0.161  -9.428  0.00  0.00    -0.011 A 
ATOM      3  C   LIG d   1       2.007  -1.171  -9.736  0.00  0.00    -0.034 A 
ATOM      4  C   LIG d   1       2.767  -2.132  -9.079  0.00  0.00     0.053 A 
ATOM      5  C   LIG d   1       3.700  -1.731  -8.106  0.00  0.00     0.084 A 
ATOM      6  C   LIG d   1       3.858  -0.376  -7.807  0.00  0.00     0.324 A 
ATOM      7  C   LIG d   1       4.327  -2.960  -7.614  0.00  0.00    -0.011 A 
ATOM      8  C   LIG d   1       3.760  -3.982  -8.274  0.00  0.00     0.006 A 
ATOM      9  N   LIG d   1       2.825  -3.508  -9.154  0.00  0.00    -0.360 N 
ATOM     10  H   LIG d   1       2.285  -4.057  -9.743  0.00  0.00     0.165 HD
ATOM     11  H   LIG d   1       1.571   0.903  -9.940  0.00  0.00     0.066 H 
ATOM     12  H   LIG d   1       1.285  -1.471 -10.481  0.00  0.00     0.064 H 
ATOM     13  H   LIG d   1       4.006  -5.024  -8.133  0.00  0.00     0.081 H 
ENDROOT
BRANCH   7  14
ATOM     14  C   LIG d   1       5.400  -3.059  -6.560  0.00  0.00     0.015 C 
ATOM     15  H   LIG d   1       5.763  -2.061  -6.316  0.00  0.00     0.037 H 
ATOM     16  H   LIG d   1       6.224  -3.663  -6.938  0.00  0.00     0.037 H 
BRANCH  14  17
ATOM     17  C   LIG d   1       4.822  -3.713  -5.303  0.00  0.00    -0.031 C 
ATOM     18  H   LIG d   1       5.637  -4.048  -4.661  0.00  0.00     0.082 H 
ATOM     19  H   LIG d   1       4.209  -4.568  -5.587  0.00  0.00     0.082 H 
BRANCH  17  20
ATOM     20  N   LIG d   1       4.015  -2.719  -4.573  0.00  0.00     0.219 N 
ATOM     21  H   LIG d   1       4.234  -1.781  -4.904  0.00  0.00     0.199 HD
ATOM     22  H   LIG d   1       3.024  -2.906  -4.712  0.00  0.00     0.199 HD
ATOM     23  H   LIG d   1       4.232  -2.780  -3.571  0.00  0.00     0.199 HD
ENDBRANCH  17  20
ENDBRANCH  14  17
ENDBRANCH   7  14
BRANCH   6  24
ATOM     24  N   LIG d   1       4.842   0.052  -6.786  0.00  0.00     0.084 N 
ATOM     25  O   LIG d   1       4.523   0.088  -5.611  0.00  0.00     0.042 OA
ATOM     26  O   LIG d   1       5.968   0.368  -7.122  0.00  0.00    -0.576 OA
ENDBRANCH   6  24
BRANCH   1  27
ATOM     27  O   LIG d   1       3.241   1.883  -8.182  0.00  0.00    -0.489 OA
BRANCH  27  28
ATOM     28  C   LIG d   1       3.936   2.681  -9.141  0.00  0.00     0.079 C 
ATOM     29  H   LIG d   1       4.446   2.032  -9.852  0.00  0.00     0.066 H 
ATOM     30  H   LIG d   1       3.223   3.313  -9.673  0.00  0.00     0.066 H 
ATOM     31  H   LIG d   1       4.667   3.308  -8.632  0.00  0.00     0.066 H 
ENDBRANCH  27  28
ENDBRANCH   1  27
TORSDOF 6
ENDMDL
MODEL 8
REMARK VINA RESULT:      -4.3      2.495      3.883
REMARK  6 active torsions:
REMARK  status: ('A' for Active; 'I' for Inactive)
REMARK    1  A    between atoms: C_1  and  O_2 
REMARK    2  A    between atoms: O_2  and  C_3 
REMARK    3  A    between atoms: C_8  and  N_9 
REMARK    4  A    between atoms: C_12  and  C_16 
REMARK    5  A    between atoms: C_16  and  C_17 
REMARK    6  A    between atoms: C_17  and  N_30 
ROOT
ATOM      1  C   LIG d   1       4.650  -2.619  -6.983  0.00  0.00     0.198 A 
ATOM      2  C   LIG d   1       4.203  -3.673  -7.777  0.00  0.00    -0.011 A 
ATOM      3  C   LIG d   1       3.329  -3.447  -8.816  0.00  0.00    -0.034 A 
ATOM      4  C   LIG d   1       2.891  -2.156  -9.088  0.00  0.00     0.053 A 
ATOM      5  C   LIG d   1       3.342  -1.089  -8.291  0.00  0.00     0.084 A 
ATOM      6  C   LIG d   1       4.223  -1.331  -7.235  0.00  0.00     0.324 A 
ATOM      7  C   LIG d   1       2.704   0.116  -8.827  0.00  0.00    -0.011 A 
ATOM      8  C   LIG d   1       1.952  -0.268  -9.870  0.00  0.00     0.006 A 
ATOM      9  N   LIG d   1       2.050  -1.623 -10.042  0.00  0.00    -0.360 N 
ATOM     10  H   LIG d   1       1.595  -2.131 -10.732  0.00  0.00     0.165 HD
ATOM     11  H   LIG d   1       4.542  -4.677  -7.572  0.00  0.00     0.066 H 
ATOM     12  H   LIG d   1       2.991  -4.272  -9.427  0.00  0.00     0.064 H 
ATOM     13  H   LIG d   1       1.356   0.393 -10.481  0.00  0.00     0.081 H 
ENDROOT
BRANCH   7  14
ATOM     14  C   LIG d   1       2.868   1.523  -8.311  0.00  0.00     0.015 C 
ATOM     15  H   LIG d   1       3.383   1.499  -7.350  0.00  0.00     0.037 H 
ATOM     16  H   LIG d   1       1.887   1.980  -8.186  0.00  0.00     0.037 H 
BRANCH  14  17
ATOM     17  C   LIG d   1       3.688   2.341  -9.309  0.00  0.00    -0.031 C 
ATOM     18  H   LIG d   1       3.378   3.385  -9.265  0.00  0.00     0.082 H 
ATOM     19  H   LIG d   1       3.525   1.956 -10.316  0.00  0.00     0.082 H 
BRANCH  17  20
ATOM     20  N   LIG d   1       5.114   2.250  -8.948  0.00  0.00     0.219 N 
ATOM     21  H   LIG d   1       5.318   2.876  -8.171  0.00  0.00     0.199 HD
ATOM     22  H   LIG d   1       5.347   1.294  -8.684  0.00  0.00     0.199 HD
ATOM     23  H   LIG d   1       5.684   2.523  -9.757  0.00  0.00     0.199 HD
ENDBRANCH  17  20
ENDBRANCH  14  17
ENDBRANCH   7  14
BRANCH   6  24
ATOM     24  N   LIG d   1       4.699  -0.211  -6.390  0.00  0.00     0.084 N 
ATOM     25  O   LIG d   1       4.067   0.116  -5.401  0.00  0.00     0.042 OA
ATOM     26  O   LIG d   1       5.720   0.383  -6.685  0.00  0.00    -0.576 OA
ENDBRANCH   6  24
BRANCH   1  27
ATOM     27  O   LIG d   1       5.507  -2.860  -5.957  0.00  0.00    -0.489 OA
BRANCH  27  28
ATOM     28  C   LIG d   1       4.956  -3.444  -4.774  0.00  0.00     0.079 C 
ATOM     29  H   LIG d   1       3.897  -3.196  -4.706  0.00  0.00     0.066 H 
ATOM     30  H   LIG d   1       5.074  -4.528  -4.816  0.00  0.00     0.066 H 
ATOM     31  H   LIG d   1       5.478  -3.056  -3.900  0.00  0.00     0.066 H 
ENDBRANCH  27  28
ENDBRANCH   1  27
TORSDOF 6
ENDMDL
MODEL 9
REMARK VINA RESULT:      -4.3      9.405     10.768
REMARK  6 active torsions:
REMARK  status: ('A' for Active; 'I' for Inactive)
REMARK    1  A    between atoms: C_1  and  O_2 
REMARK    2  A    between atoms: O_2  and  C_3 
REMARK    3  A    between atoms: C_8  and  N_9 
REMARK    4  A    between atoms: C_12  and  C_16 
REMARK    5  A    between atoms: C_16  and  C_17 
REMARK    6  A    between atoms: C_17  and  N_30 
ROOT
ATOM      1  C   LIG d   1       9.893   5.417  -3.216  0.00  0.00     0.198 A 
ATOM      2  C   LIG d   1       9.559   5.173  -4.546  0.00  0.00    -0.011 A 
ATOM      3  C   LIG d   1       9.450   6.210  -5.444  0.00  0.00    -0.034 A 
ATOM      4  C   LIG d   1       9.686   7.516  -5.030  0.00  0.00     0.053 A 
ATOM      5  C   LIG d   1      10.028   7.767  -3.689  0.00  0.00     0.084 A 
ATOM      6  C   LIG d   1      10.128   6.707  -2.785  0.00  0.00     0.324 A 
ATOM      7  C   LIG d   1      10.203   9.217  -3.579  0.00  0.00    -0.011 A 
ATOM      8  C   LIG d   1       9.980   9.733  -4.798  0.00  0.00     0.006 A 
ATOM      9  N   LIG d   1       9.669   8.733  -5.679  0.00  0.00    -0.360 N 
ATOM     10  H   LIG d   1       9.467   8.861  -6.618  0.00  0.00     0.165 HD
ATOM     11  H   LIG d   1       9.377   4.160  -4.873  0.00  0.00     0.066 H 
ATOM     12  H   LIG d   1       9.191   6.008  -6.473  0.00  0.00     0.064 H 
ATOM     13  H   LIG d   1      10.037  10.783  -5.046  0.00  0.00     0.081 H 
ENDROOT
BRANCH   7  14
ATOM     14  C   LIG d   1      10.572   9.984  -2.335  0.00  0.00     0.015 C 
ATOM     15  H   LIG d   1      11.423  10.632  -2.547  0.00  0.00     0.037 H 
ATOM     16  H   LIG d   1      10.838   9.284  -1.543  0.00  0.00     0.037 H 
BRANCH  14  17
ATOM     17  C   LIG d   1       9.382  10.834  -1.888  0.00  0.00    -0.031 C 
ATOM     18  H   LIG d   1       8.930  11.312  -2.757  0.00  0.00     0.082 H 
ATOM     19  H   LIG d   1       9.723  11.598  -1.189  0.00  0.00     0.082 H 
BRANCH  17  20
ATOM     20  N   LIG d   1       8.381   9.961  -1.248  0.00  0.00     0.219 N 
ATOM     21  H   LIG d   1       7.535   9.928  -1.815  0.00  0.00     0.199 HD
ATOM     22  H   LIG d   1       8.756   9.020  -1.143  0.00  0.00     0.199 HD
ATOM     23  H   LIG d   1       8.150  10.336  -0.321  0.00  0.00     0.199 HD
ENDBRANCH  17  20
ENDBRANCH  14  17
ENDBRANCH   7  14
BRANCH   6  24
ATOM     24  N   LIG d   1      10.484   6.966  -1.370  0.00  0.00     0.084 N 
ATOM     25  O   LIG d   1      11.651   6.943  -1.023  0.00  0.00     0.042 OA
ATOM     26  O   LIG d   1       9.610   7.202  -0.557  0.00  0.00    -0.576 OA
ENDBRANCH   6  24
BRANCH   1  27
ATOM     27  O   LIG d   1       9.989   4.382  -2.340  0.00  0.00    -0.489 OA
BRANCH  27  28
ATOM     28  C   LIG d   1      10.748   3.246  -2.759  0.00  0.00     0.079 C 
ATOM     29  H   LIG d   1      11.779   3.353  -2.422  0.00  0.00     0.066 H 
ATOM     30  H   LIG d   1      10.317   2.342  -2.326  0.00  0.00     0.066 H 
ATOM     31  H   LIG d   1      10.726   3.173  -3.846  0.00  0.00     0.066 H 
ENDBRANCH  27  28
ENDBRANCH   1  27
TORSDOF 6
ENDMDL
MODEL 10
REMARK VINA RESULT:      -4.1      9.777     11.123
REMARK  6 active torsions:
REMARK  status: ('A' for Active; 'I' for Inactive)
REMARK    1  A    between atoms: C_1  and  O_2 
REMARK    2  A    between atoms: O_2  and  C_3 
REMARK    3  A    between atoms: C_8  and  N_9 
REMARK    4  A    between atoms: C_12  and  C_16 
REMARK    5  A    between atoms: C_16  and  C_17 
REMARK    6  A    between atoms: C_17  and  N_30 
ROOT
ATOM      1  C   LIG d   1      11.006   8.143   0.381  0.00  0.00     0.198 A 
ATOM      2  C   LIG d   1      11.149   7.134   1.330  0.00  0.00    -0.011 A 
ATOM      3  C   LIG d   1      11.214   5.813   0.947  0.00  0.00    -0.034 A 
ATOM      4  C   LIG d   1      11.149   5.477  -0.401  0.00  0.00     0.053 A 
ATOM      5  C   LIG d   1      11.008   6.493  -1.362  0.00  0.00     0.084 A 
ATOM      6  C   LIG d   1      10.935   7.828  -0.961  0.00  0.00     0.324 A 
ATOM      7  C   LIG d   1      10.968   5.818  -2.662  0.00  0.00    -0.011 A 
ATOM      8  C   LIG d   1      11.091   4.502  -2.426  0.00  0.00     0.006 A 
ATOM      9  N   LIG d   1      11.201   4.278  -1.080  0.00  0.00    -0.360 N 
ATOM     10  H   LIG d   1      11.299   3.406  -0.667  0.00  0.00     0.165 HD
ATOM     11  H   LIG d   1      11.202   7.390   2.378  0.00  0.00     0.066 H 
ATOM     12  H   LIG d   1      11.327   5.039   1.692  0.00  0.00     0.064 H 
ATOM     13  H   LIG d   1      11.101   3.735  -3.186  0.00  0.00     0.081 H 
ENDROOT
BRANCH   7  14
ATOM     14  C   LIG d   1      10.823   6.477  -4.010  0.00  0.00     0.015 C 
ATOM     15  H   LIG d   1      11.412   5.930  -4.747  0.00  0.00     0.037 H 
ATOM     16  H   LIG d   1      11.179   7.504  -3.952  0.00  0.00     0.037 H 
BRANCH  14  17
ATOM     17  C   LIG d   1       9.351   6.469  -4.426  0.00  0.00    -0.031 C 
ATOM     18  H   LIG d   1       8.730   6.243  -3.560  0.00  0.00     0.082 H 
ATOM     19  H   LIG d   1       9.194   5.710  -5.194  0.00  0.00     0.082 H 
BRANCH  17  20
ATOM     20  N   LIG d   1       8.990   7.802  -4.940  0.00  0.00     0.219 N 
ATOM     21  H   LIG d   1       8.015   7.810  -5.235  0.00  0.00     0.199 HD
ATOM     22  H   LIG d   1       9.130   8.504  -4.215  0.00  0.00     0.199 HD
ATOM     23  H   LIG d   1       9.586   8.026  -5.745  0.00  0.00     0.199 HD
ENDBRANCH  17  20
ENDBRANCH  14  17
ENDBRANCH   7  14
BRANCH   6  24
ATOM     24  N   LIG d   1      10.783   8.902  -1.970  0.00  0.00     0.084 N 
ATOM     25  O   LIG d   1      11.770   9.405  -2.478  0.00  0.00     0.042 OA
ATOM     26  O   LIG d   1       9.672   9.281  -2.292  0.00  0.00    -0.576 OA
ENDBRANCH   6  24
BRANCH   1  27
ATOM     27  O   LIG d   1      10.934   9.441   0.777  0.00  0.00    -0.489 OA
BRANCH  27  28
ATOM     28  C   LIG d   1      12.088   9.988   1.420  0.00  0.00     0.079 C 
ATOM     29  H   LIG d   1      12.426  10.867   0.872  0.00  0.00     0.066 H 
ATOM     30  H   LIG d   1      11.834  10.272   2.442  0.00  0.00     0.066 H 
ATOM     31  H   LIG d   1      12.883   9.243   1.437  0.00  0.00     0.066 H 
ENDBRANCH  27  28
ENDBRANCH   1  27
TORSDOF 6
ENDMDL
