MODEL 1
REMARK VINA RESULT:      -7.1      0.000      0.000
REMARK  3 active torsions:
REMARK  status: ('A' for Active; 'I' for Inactive)
REMARK    1  A    between atoms: C_12  and  C_20 
REMARK    2  A    between atoms: C_15  and  N_17 
REMARK    3  A    between atoms: C_23  and  O_26 
ROOT
ATOM      1  C   LIG d   1       4.757   0.356  -2.142  0.00  0.00    -0.061 A 
ATOM      2  C   LIG d   1       4.321  -0.832  -1.574  0.00  0.00    -0.058 A 
ATOM      3  C   LIG d   1       4.182  -1.969  -2.341  0.00  0.00    -0.018 A 
ATOM      4  C   LIG d   1       4.479  -1.930  -3.698  0.00  0.00     0.143 A 
ATOM      5  C   LIG d   1       4.918  -0.727  -4.273  0.00  0.00     0.060 A 
ATOM      6  C   LIG d   1       5.056   0.417  -3.484  0.00  0.00    -0.048 A 
ATOM      7  C   LIG d   1       5.227  -0.699  -5.712  0.00  0.00     0.152 A 
ATOM      8  C   LIG d   1       5.071  -1.851  -6.427  0.00  0.00     0.092 A 
ATOM      9  C   LIG d   1       4.628  -3.016  -5.777  0.00  0.00     0.345 A 
ATOM     10  O   LIG d   1       4.492  -4.039  -6.426  0.00  0.00    -0.245 OA
ATOM     11  O   LIG d   1       4.348  -3.033  -4.466  0.00  0.00    -0.422 OA
ATOM     12  C   LIG d   1       5.370  -1.883  -7.901  0.00  0.00     0.059 C 
ATOM     13  H   LIG d   1       5.923  -2.791  -8.138  0.00  0.00     0.046 H 
ATOM     14  C   LIG d   1       6.191  -0.687  -8.292  0.00  0.00     0.098 C 
ATOM     15  C   LIG d   1       6.286   0.392  -7.478  0.00  0.00     0.199 C 
ATOM     16  O   LIG d   1       5.651   0.439  -6.293  0.00  0.00    -0.440 OA
ATOM     17  C   LIG d   1       6.887  -0.688  -9.544  0.00  0.00     0.101 C 
ATOM     18  N   LIG d   1       7.439  -0.688 -10.537  0.00  0.00    -0.191 NA
ATOM     19  H   LIG d   1       4.862   1.239  -1.527  0.00  0.00     0.062 H 
ATOM     20  H   LIG d   1       4.089  -0.867  -0.520  0.00  0.00     0.062 H 
ATOM     21  H   LIG d   1       3.842  -2.888  -1.889  0.00  0.00     0.065 H 
ATOM     22  H   LIG d   1       5.395   1.343  -3.924  0.00  0.00     0.063 H 
ENDROOT
BRANCH  12  23
ATOM     23  C   LIG d   1       4.075  -1.873  -8.673  0.00  0.00    -0.034 A 
ATOM     24  C   LIG d   1       3.183  -0.830  -8.511  0.00  0.00    -0.054 A 
ATOM     25  C   LIG d   1       1.998  -0.814  -9.223  0.00  0.00    -0.020 A 
ATOM     26  H   LIG d   1       3.412  -0.025  -7.828  0.00  0.00     0.062 H 
ATOM     27  C   LIG d   1       1.704  -1.848 -10.100  0.00  0.00     0.117 A 
ATOM     28  H   LIG d   1       1.302   0.001  -9.096  0.00  0.00     0.065 H 
ATOM     29  C   LIG d   1       2.602  -2.894 -10.261  0.00  0.00    -0.020 A 
ATOM     30  C   LIG d   1       3.785  -2.904  -9.548  0.00  0.00    -0.054 A 
ATOM     31  H   LIG d   1       2.375  -3.700 -10.943  0.00  0.00     0.065 H 
ATOM     32  H   LIG d   1       4.483  -3.718  -9.673  0.00  0.00     0.062 H 
BRANCH  27  33
ATOM     33  O   LIG d   1       0.540  -1.836 -10.801  0.00  0.00    -0.507 OA
ATOM     34  H   LIG d   1      -0.220  -2.171 -10.307  0.00  0.00     0.292 HD
ENDBRANCH  27  33
ENDBRANCH  12  23
BRANCH  15  35
ATOM     35  N   LIG d   1       7.046   1.464  -7.873  0.00  0.00    -0.328 N 
ATOM     36  H   LIG d   1       7.281   1.575  -8.808  0.00  0.00     0.145 HD
ATOM     37  H   LIG d   1       7.349   2.113  -7.218  0.00  0.00     0.145 HD
ENDBRANCH  15  35
TORSDOF 3
ENDMDL
MODEL 2
REMARK VINA RESULT:      -6.9      3.171      6.282
REMARK  3 active torsions:
REMARK  status: ('A' for Active; 'I' for Inactive)
REMARK    1  A    between atoms: C_12  and  C_20 
REMARK    2  A    between atoms: C_15  and  N_17 
REMARK    3  A    between atoms: C_23  and  O_26 
ROOT
ATOM      1  C   LIG d   1       3.543   2.180  -9.838  0.00  0.00    -0.061 A 
ATOM      2  C   LIG d   1       3.849   1.390 -10.937  0.00  0.00    -0.058 A 
ATOM      3  C   LIG d   1       4.267   0.087 -10.772  0.00  0.00    -0.018 A 
ATOM      4  C   LIG d   1       4.386  -0.446  -9.495  0.00  0.00     0.143 A 
ATOM      5  C   LIG d   1       4.080   0.353  -8.382  0.00  0.00     0.060 A 
ATOM      6  C   LIG d   1       3.656   1.671  -8.563  0.00  0.00    -0.048 A 
ATOM      7  C   LIG d   1       4.213  -0.224  -7.034  0.00  0.00     0.152 A 
ATOM      8  C   LIG d   1       4.632  -1.518  -6.927  0.00  0.00     0.092 A 
ATOM      9  C   LIG d   1       4.919  -2.254  -8.089  0.00  0.00     0.345 A 
ATOM     10  O   LIG d   1       5.293  -3.409  -7.980  0.00  0.00    -0.245 OA
ATOM     11  O   LIG d   1       4.796  -1.721  -9.314  0.00  0.00    -0.422 OA
ATOM     12  C   LIG d   1       4.789  -2.161  -5.575  0.00  0.00     0.059 C 
ATOM     13  H   LIG d   1       4.377  -3.170  -5.605  0.00  0.00     0.046 H 
ATOM     14  C   LIG d   1       4.062  -1.361  -4.531  0.00  0.00     0.098 C 
ATOM     15  C   LIG d   1       3.676  -0.085  -4.771  0.00  0.00     0.199 C 
ATOM     16  O   LIG d   1       3.925   0.517  -5.948  0.00  0.00    -0.440 OA
ATOM     17  C   LIG d   1       3.773  -1.958  -3.262  0.00  0.00     0.101 C 
ATOM     18  N   LIG d   1       3.543  -2.430  -2.254  0.00  0.00    -0.191 NA
ATOM     19  H   LIG d   1       3.216   3.199  -9.983  0.00  0.00     0.062 H 
ATOM     20  H   LIG d   1       3.758   1.801 -11.932  0.00  0.00     0.062 H 
ATOM     21  H   LIG d   1       4.502  -0.518 -11.634  0.00  0.00     0.065 H 
ATOM     22  H   LIG d   1       3.417   2.288  -7.709  0.00  0.00     0.063 H 
ENDROOT
BRANCH  12  23
ATOM     23  C   LIG d   1       6.253  -2.231  -5.222  0.00  0.00    -0.034 A 
ATOM     24  C   LIG d   1       7.045  -1.105  -5.339  0.00  0.00    -0.054 A 
ATOM     25  C   LIG d   1       8.386  -1.164  -5.010  0.00  0.00    -0.020 A 
ATOM     26  H   LIG d   1       6.616  -0.177  -5.689  0.00  0.00     0.062 H 
ATOM     27  C   LIG d   1       8.937  -2.356  -4.562  0.00  0.00     0.117 A 
ATOM     28  H   LIG d   1       9.005  -0.284  -5.102  0.00  0.00     0.065 H 
ATOM     29  C   LIG d   1       8.139  -3.485  -4.445  0.00  0.00    -0.020 A 
ATOM     30  C   LIG d   1       6.799  -3.420  -4.775  0.00  0.00    -0.054 A 
ATOM     31  H   LIG d   1       8.565  -4.414  -4.096  0.00  0.00     0.065 H 
ATOM     32  H   LIG d   1       6.178  -4.299  -4.684  0.00  0.00     0.062 H 
BRANCH  27  33
ATOM     33  O   LIG d   1      10.255  -2.418  -4.237  0.00  0.00    -0.507 OA
ATOM     34  H   LIG d   1      10.481  -3.155  -3.653  0.00  0.00     0.292 HD
ENDBRANCH  27  33
ENDBRANCH  12  23
BRANCH  15  35
ATOM     35  N   LIG d   1       3.015   0.611  -3.790  0.00  0.00    -0.328 N 
ATOM     36  H   LIG d   1       2.151   0.302  -3.474  0.00  0.00     0.145 HD
ATOM     37  H   LIG d   1       3.413   1.411  -3.411  0.00  0.00     0.145 HD
ENDBRANCH  15  35
TORSDOF 3
ENDMDL
MODEL 3
REMARK VINA RESULT:      -6.8      4.209      6.466
REMARK  3 active torsions:
REMARK  status: ('A' for Active; 'I' for Inactive)
REMARK    1  A    between atoms: C_12  and  C_20 
REMARK    2  A    between atoms: C_15  and  N_17 
REMARK    3  A    between atoms: C_23  and  O_26 
ROOT
ATOM      1  C   LIG d   1       3.590   0.032  -2.052  0.00  0.00    -0.061 A 
ATOM      2  C   LIG d   1       4.298   1.226  -2.074  0.00  0.00    -0.058 A 
ATOM      3  C   LIG d   1       5.486   1.326  -2.767  0.00  0.00    -0.018 A 
ATOM      4  C   LIG d   1       5.984   0.224  -3.451  0.00  0.00     0.143 A 
ATOM      5  C   LIG d   1       5.270  -0.984  -3.427  0.00  0.00     0.060 A 
ATOM      6  C   LIG d   1       4.068  -1.072  -2.722  0.00  0.00    -0.048 A 
ATOM      7  C   LIG d   1       5.811  -2.144  -4.154  0.00  0.00     0.152 A 
ATOM      8  C   LIG d   1       6.990  -1.992  -4.822  0.00  0.00     0.092 A 
ATOM      9  C   LIG d   1       7.646  -0.749  -4.800  0.00  0.00     0.345 A 
ATOM     10  O   LIG d   1       8.699  -0.625  -5.401  0.00  0.00    -0.245 OA
ATOM     11  O   LIG d   1       7.146   0.303  -4.135  0.00  0.00    -0.422 OA
ATOM     12  C   LIG d   1       7.593  -3.143  -5.582  0.00  0.00     0.059 C 
ATOM     13  H   LIG d   1       7.959  -2.788  -6.545  0.00  0.00     0.046 H 
ATOM     14  C   LIG d   1       6.564  -4.214  -5.807  0.00  0.00     0.098 C 
ATOM     15  C   LIG d   1       5.415  -4.241  -5.090  0.00  0.00     0.199 C 
ATOM     16  O   LIG d   1       5.149  -3.316  -4.150  0.00  0.00    -0.440 OA
ATOM     17  C   LIG d   1       6.800  -5.221  -6.797  0.00  0.00     0.101 C 
ATOM     18  N   LIG d   1       6.987  -6.021  -7.582  0.00  0.00    -0.191 NA
ATOM     19  H   LIG d   1       2.661  -0.031  -1.505  0.00  0.00     0.062 H 
ATOM     20  H   LIG d   1       3.914   2.084  -1.544  0.00  0.00     0.062 H 
ATOM     21  H   LIG d   1       6.028   2.259  -2.778  0.00  0.00     0.065 H 
ATOM     22  H   LIG d   1       3.515  -2.000  -2.703  0.00  0.00     0.063 H 
ENDROOT
BRANCH  12  23
ATOM     23  C   LIG d   1       8.743  -3.714  -4.792  0.00  0.00    -0.034 A 
ATOM     24  C   LIG d   1       9.876  -4.160  -5.446  0.00  0.00    -0.054 A 
ATOM     25  C   LIG d   1      10.934  -4.678  -4.724  0.00  0.00    -0.020 A 
ATOM     26  H   LIG d   1       9.935  -4.103  -6.523  0.00  0.00     0.062 H 
ATOM     27  C   LIG d   1      10.858  -4.751  -3.341  0.00  0.00     0.117 A 
ATOM     28  H   LIG d   1      11.819  -5.026  -5.236  0.00  0.00     0.065 H 
ATOM     29  C   LIG d   1       9.720  -4.303  -2.687  0.00  0.00    -0.020 A 
ATOM     30  C   LIG d   1       8.666  -3.785  -3.413  0.00  0.00    -0.054 A 
ATOM     31  H   LIG d   1       9.659  -4.359  -1.609  0.00  0.00     0.065 H 
ATOM     32  H   LIG d   1       7.779  -3.436  -2.904  0.00  0.00     0.062 H 
BRANCH  27  33
ATOM     33  O   LIG d   1      11.898  -5.260  -2.628  0.00  0.00    -0.507 OA
ATOM     34  H   LIG d   1      12.378  -4.601  -2.108  0.00  0.00     0.292 HD
ENDBRANCH  27  33
ENDBRANCH  12  23
BRANCH  15  35
ATOM     35  N   LIG d   1       4.501  -5.237  -5.326  0.00  0.00    -0.328 N 
ATOM     36  H   LIG d   1       3.947  -5.208  -6.122  0.00  0.00     0.145 HD
ATOM     37  H   LIG d   1       4.409  -5.971  -4.698  0.00  0.00     0.145 HD
ENDBRANCH  15  35
TORSDOF 3
ENDMDL
MODEL 4
REMARK VINA RESULT:      -6.6      3.951      6.229
REMARK  3 active torsions:
REMARK  status: ('A' for Active; 'I' for Inactive)
REMARK    1  A    between atoms: C_12  and  C_20 
REMARK    2  A    between atoms: C_15  and  N_17 
REMARK    3  A    between atoms: C_23  and  O_26 
ROOT
ATOM      1  C   LIG d   1       4.625  -6.583  -6.318  0.00  0.00    -0.061 A 
ATOM      2  C   LIG d   1       5.877  -7.179  -6.381  0.00  0.00    -0.058 A 
ATOM      3  C   LIG d   1       6.989  -6.531  -5.886  0.00  0.00    -0.018 A 
ATOM      4  C   LIG d   1       6.862  -5.270  -5.319  0.00  0.00     0.143 A 
ATOM      5  C   LIG d   1       5.596  -4.666  -5.258  0.00  0.00     0.060 A 
ATOM      6  C   LIG d   1       4.477  -5.333  -5.762  0.00  0.00    -0.048 A 
ATOM      7  C   LIG d   1       5.475  -3.327  -4.656  0.00  0.00     0.152 A 
ATOM      8  C   LIG d   1       6.607  -2.730  -4.183  0.00  0.00     0.092 A 
ATOM      9  C   LIG d   1       7.838  -3.400  -4.280  0.00  0.00     0.345 A 
ATOM     10  O   LIG d   1       8.842  -2.857  -3.854  0.00  0.00    -0.245 OA
ATOM     11  O   LIG d   1       7.940  -4.619  -4.830  0.00  0.00    -0.422 OA
ATOM     12  C   LIG d   1       6.546  -1.362  -3.560  0.00  0.00     0.059 C 
ATOM     13  H   LIG d   1       7.160  -1.347  -2.660  0.00  0.00     0.046 H 
ATOM     14  C   LIG d   1       5.129  -1.017  -3.198  0.00  0.00     0.098 C 
ATOM     15  C   LIG d   1       4.086  -1.707  -3.721  0.00  0.00     0.199 C 
ATOM     16  O   LIG d   1       4.275  -2.722  -4.582  0.00  0.00    -0.440 OA
ATOM     17  C   LIG d   1       4.876   0.056  -2.285  0.00  0.00     0.101 C 
ATOM     18  N   LIG d   1       4.674   0.908  -1.560  0.00  0.00    -0.191 NA
ATOM     19  H   LIG d   1       3.763  -7.103  -6.710  0.00  0.00     0.062 H 
ATOM     20  H   LIG d   1       5.981  -8.160  -6.821  0.00  0.00     0.062 H 
ATOM     21  H   LIG d   1       7.958  -7.004  -5.939  0.00  0.00     0.065 H 
ATOM     22  H   LIG d   1       3.502  -4.871  -5.714  0.00  0.00     0.063 H 
ENDROOT
BRANCH  12  23
ATOM     23  C   LIG d   1       7.073  -0.343  -4.539  0.00  0.00    -0.034 A 
ATOM     24  C   LIG d   1       7.896   0.677  -4.098  0.00  0.00    -0.054 A 
ATOM     25  C   LIG d   1       8.385   1.607  -4.994  0.00  0.00    -0.020 A 
ATOM     26  H   LIG d   1       8.156   0.746  -3.053  0.00  0.00     0.062 H 
ATOM     27  C   LIG d   1       8.050   1.518  -6.338  0.00  0.00     0.117 A 
ATOM     28  H   LIG d   1       9.028   2.404  -4.650  0.00  0.00     0.065 H 
ATOM     29  C   LIG d   1       7.224   0.493  -6.777  0.00  0.00    -0.020 A 
ATOM     30  C   LIG d   1       6.738  -0.435  -5.877  0.00  0.00    -0.054 A 
ATOM     31  H   LIG d   1       6.962   0.421  -7.823  0.00  0.00     0.065 H 
ATOM     32  H   LIG d   1       6.095  -1.233  -6.220  0.00  0.00     0.062 H 
BRANCH  27  33
ATOM     33  O   LIG d   1       8.530   2.432  -7.222  0.00  0.00    -0.507 OA
ATOM     34  H   LIG d   1       8.054   2.452  -8.063  0.00  0.00     0.292 HD
ENDBRANCH  27  33
ENDBRANCH  12  23
BRANCH  15  35
ATOM     35  N   LIG d   1       2.807  -1.359  -3.365  0.00  0.00    -0.328 N 
ATOM     36  H   LIG d   1       2.094  -2.015  -3.417  0.00  0.00     0.145 HD
ATOM     37  H   LIG d   1       2.616  -0.458  -3.061  0.00  0.00     0.145 HD
ENDBRANCH  15  35
TORSDOF 3
ENDMDL
MODEL 5
REMARK VINA RESULT:      -6.6      3.107      3.770
REMARK  3 active torsions:
REMARK  status: ('A' for Active; 'I' for Inactive)
REMARK    1  A    between atoms: C_12  and  C_20 
REMARK    2  A    between atoms: C_15  and  N_17 
REMARK    3  A    between atoms: C_23  and  O_26 
ROOT
ATOM      1  C   LIG d   1       5.012   1.348  -2.534  0.00  0.00    -0.061 A 
ATOM      2  C   LIG d   1       3.718   0.915  -2.285  0.00  0.00    -0.058 A 
ATOM      3  C   LIG d   1       3.315  -0.349  -2.662  0.00  0.00    -0.018 A 
ATOM      4  C   LIG d   1       4.209  -1.201  -3.297  0.00  0.00     0.143 A 
ATOM      5  C   LIG d   1       5.519  -0.761  -3.552  0.00  0.00     0.060 A 
ATOM      6  C   LIG d   1       5.914   0.520  -3.164  0.00  0.00    -0.048 A 
ATOM      7  C   LIG d   1       6.455  -1.674  -4.228  0.00  0.00     0.152 A 
ATOM      8  C   LIG d   1       6.006  -2.912  -4.581  0.00  0.00     0.092 A 
ATOM      9  C   LIG d   1       4.680  -3.279  -4.291  0.00  0.00     0.345 A 
ATOM     10  O   LIG d   1       4.290  -4.388  -4.611  0.00  0.00    -0.245 OA
ATOM     11  O   LIG d   1       3.833  -2.442  -3.675  0.00  0.00    -0.422 OA
ATOM     12  C   LIG d   1       6.917  -3.888  -5.277  0.00  0.00     0.059 C 
ATOM     13  H   LIG d   1       6.789  -4.877  -4.839  0.00  0.00     0.046 H 
ATOM     14  C   LIG d   1       8.349  -3.460  -5.124  0.00  0.00     0.098 C 
ATOM     15  C   LIG d   1       8.666  -2.200  -4.742  0.00  0.00     0.199 C 
ATOM     16  O   LIG d   1       7.717  -1.282  -4.485  0.00  0.00    -0.440 OA
ATOM     17  C   LIG d   1       9.397  -4.401  -5.386  0.00  0.00     0.101 C 
ATOM     18  N   LIG d   1      10.228  -5.147  -5.594  0.00  0.00    -0.191 NA
ATOM     19  H   LIG d   1       5.313   2.341  -2.232  0.00  0.00     0.062 H 
ATOM     20  H   LIG d   1       3.019   1.574  -1.791  0.00  0.00     0.062 H 
ATOM     21  H   LIG d   1       2.306  -0.676  -2.463  0.00  0.00     0.065 H 
ATOM     22  H   LIG d   1       6.921   0.860  -3.356  0.00  0.00     0.063 H 
ENDROOT
BRANCH  12  23
ATOM     23  C   LIG d   1       6.565  -3.941  -6.742  0.00  0.00    -0.034 A 
ATOM     24  C   LIG d   1       6.469  -2.772  -7.472  0.00  0.00    -0.054 A 
ATOM     25  C   LIG d   1       6.153  -2.819  -8.816  0.00  0.00    -0.020 A 
ATOM     26  H   LIG d   1       6.640  -1.820  -6.991  0.00  0.00     0.062 H 
ATOM     27  C   LIG d   1       5.932  -4.042  -9.433  0.00  0.00     0.117 A 
ATOM     28  H   LIG d   1       6.078  -1.904  -9.386  0.00  0.00     0.065 H 
ATOM     29  C   LIG d   1       6.029  -5.214  -8.698  0.00  0.00    -0.020 A 
ATOM     30  C   LIG d   1       6.346  -5.162  -7.355  0.00  0.00    -0.054 A 
ATOM     31  H   LIG d   1       5.858  -6.167  -9.176  0.00  0.00     0.065 H 
ATOM     32  H   LIG d   1       6.422  -6.074  -6.782  0.00  0.00     0.062 H 
BRANCH  27  33
ATOM     33  O   LIG d   1       5.622  -4.091 -10.756  0.00  0.00    -0.507 OA
ATOM     34  H   LIG d   1       4.837  -4.620 -10.955  0.00  0.00     0.292 HD
ENDBRANCH  27  33
ENDBRANCH  12  23
BRANCH  15  35
ATOM     35  N   LIG d   1       9.987  -1.851  -4.615  0.00  0.00    -0.328 N 
ATOM     36  H   LIG d   1      10.228  -0.992  -4.233  0.00  0.00     0.145 HD
ATOM     37  H   LIG d   1      10.681  -2.463  -4.907  0.00  0.00     0.145 HD
ENDBRANCH  15  35
TORSDOF 3
ENDMDL
MODEL 6
REMARK VINA RESULT:      -6.5      4.676      5.460
REMARK  3 active torsions:
REMARK  status: ('A' for Active; 'I' for Inactive)
REMARK    1  A    between atoms: C_12  and  C_20 
REMARK    2  A    between atoms: C_15  and  N_17 
REMARK    3  A    between atoms: C_23  and  O_26 
ROOT
ATOM      1  C   LIG d   1       4.215   0.527  -1.911  0.00  0.00    -0.061 A 
ATOM      2  C   LIG d   1       3.873  -0.786  -2.201  0.00  0.00    -0.058 A 
ATOM      3  C   LIG d   1       4.690  -1.567  -2.991  0.00  0.00    -0.018 A 
ATOM      4  C   LIG d   1       5.867  -1.040  -3.505  0.00  0.00     0.143 A 
ATOM      5  C   LIG d   1       6.212   0.290  -3.214  0.00  0.00     0.060 A 
ATOM      6  C   LIG d   1       5.376   1.070  -2.412  0.00  0.00    -0.048 A 
ATOM      7  C   LIG d   1       7.461   0.837  -3.768  0.00  0.00     0.152 A 
ATOM      8  C   LIG d   1       8.233   0.023  -4.544  0.00  0.00     0.092 A 
ATOM      9  C   LIG d   1       7.819  -1.299  -4.789  0.00  0.00     0.345 A 
ATOM     10  O   LIG d   1       8.516  -2.017  -5.484  0.00  0.00    -0.245 OA
ATOM     11  O   LIG d   1       6.679  -1.789  -4.281  0.00  0.00    -0.422 OA
ATOM     12  C   LIG d   1       9.520   0.526  -5.139  0.00  0.00     0.059 C 
ATOM     13  H   LIG d   1      10.291  -0.235  -5.028  0.00  0.00     0.046 H 
ATOM     14  C   LIG d   1       9.959   1.782  -4.441  0.00  0.00     0.098 C 
ATOM     15  C   LIG d   1       9.098   2.494  -3.674  0.00  0.00     0.199 C 
ATOM     16  O   LIG d   1       7.820   2.108  -3.506  0.00  0.00    -0.440 OA
ATOM     17  C   LIG d   1      11.310   2.234  -4.587  0.00  0.00     0.101 C 
ATOM     18  N   LIG d   1      12.381   2.594  -4.703  0.00  0.00    -0.191 NA
ATOM     19  H   LIG d   1       3.565   1.127  -1.291  0.00  0.00     0.062 H 
ATOM     20  H   LIG d   1       2.958  -1.200  -1.803  0.00  0.00     0.062 H 
ATOM     21  H   LIG d   1       4.414  -2.588  -3.209  0.00  0.00     0.065 H 
ATOM     22  H   LIG d   1       5.641   2.093  -2.185  0.00  0.00     0.063 H 
ENDROOT
BRANCH  12  23
ATOM     23  C   LIG d   1       9.313   0.816  -6.604  0.00  0.00    -0.034 A 
ATOM     24  C   LIG d   1      10.157   0.257  -7.545  0.00  0.00    -0.054 A 
ATOM     25  C   LIG d   1       9.965   0.516  -8.888  0.00  0.00    -0.020 A 
ATOM     26  H   LIG d   1      10.967  -0.383  -7.229  0.00  0.00     0.062 H 
ATOM     27  C   LIG d   1       8.924   1.339  -9.293  0.00  0.00     0.117 A 
ATOM     28  H   LIG d   1      10.626   0.079  -9.623  0.00  0.00     0.065 H 
ATOM     29  C   LIG d   1       8.078   1.899  -8.347  0.00  0.00    -0.020 A 
ATOM     30  C   LIG d   1       8.273   1.636  -7.005  0.00  0.00    -0.054 A 
ATOM     31  H   LIG d   1       7.266   2.540  -8.660  0.00  0.00     0.065 H 
ATOM     32  H   LIG d   1       7.614   2.072  -6.269  0.00  0.00     0.062 H 
BRANCH  27  33
ATOM     33  O   LIG d   1       8.733   1.595 -10.614  0.00  0.00    -0.507 OA
ATOM     34  H   LIG d   1       8.510   2.516 -10.807  0.00  0.00     0.292 HD
ENDBRANCH  27  33
ENDBRANCH  12  23
BRANCH  15  35
ATOM     35  N   LIG d   1       9.539   3.635  -3.054  0.00  0.00    -0.328 N 
ATOM     36  H   LIG d   1       9.183   3.886  -2.186  0.00  0.00     0.145 HD
ATOM     37  H   LIG d   1      10.208   4.193  -3.482  0.00  0.00     0.145 HD
ENDBRANCH  15  35
TORSDOF 3
ENDMDL
MODEL 7
REMARK VINA RESULT:      -6.5      2.494      6.307
REMARK  3 active torsions:
REMARK  status: ('A' for Active; 'I' for Inactive)
REMARK    1  A    between atoms: C_12  and  C_20 
REMARK    2  A    between atoms: C_15  and  N_17 
REMARK    3  A    between atoms: C_23  and  O_26 
ROOT
ATOM      1  C   LIG d   1       1.703  -2.250 -10.701  0.00  0.00    -0.061 A 
ATOM      2  C   LIG d   1       1.861  -1.004 -11.290  0.00  0.00    -0.058 A 
ATOM      3  C   LIG d   1       2.741  -0.084 -10.762  0.00  0.00    -0.018 A 
ATOM      4  C   LIG d   1       3.479  -0.401  -9.629  0.00  0.00     0.143 A 
ATOM      5  C   LIG d   1       3.317  -1.661  -9.031  0.00  0.00     0.060 A 
ATOM      6  C   LIG d   1       2.423  -2.585  -9.576  0.00  0.00    -0.048 A 
ATOM      7  C   LIG d   1       4.104  -1.984  -7.829  0.00  0.00     0.152 A 
ATOM      8  C   LIG d   1       4.959  -1.037  -7.347  0.00  0.00     0.092 A 
ATOM      9  C   LIG d   1       5.066   0.202  -8.003  0.00  0.00     0.345 A 
ATOM     10  O   LIG d   1       5.834   1.040  -7.562  0.00  0.00    -0.245 OA
ATOM     11  O   LIG d   1       4.345   0.488  -9.097  0.00  0.00    -0.422 OA
ATOM     12  C   LIG d   1       5.788  -1.308  -6.120  0.00  0.00     0.059 C 
ATOM     13  H   LIG d   1       6.804  -0.950  -6.284  0.00  0.00     0.046 H 
ATOM     14  C   LIG d   1       5.823  -2.782  -5.832  0.00  0.00     0.098 C 
ATOM     15  C   LIG d   1       4.927  -3.627  -6.397  0.00  0.00     0.199 C 
ATOM     16  O   LIG d   1       3.972  -3.184  -7.234  0.00  0.00    -0.440 OA
ATOM     17  C   LIG d   1       6.822  -3.304  -4.948  0.00  0.00     0.101 C 
ATOM     18  N   LIG d   1       7.613  -3.718  -4.246  0.00  0.00    -0.191 NA
ATOM     19  H   LIG d   1       1.009  -2.961 -11.127  0.00  0.00     0.062 H 
ATOM     20  H   LIG d   1       1.289  -0.753 -12.171  0.00  0.00     0.062 H 
ATOM     21  H   LIG d   1       2.856   0.883 -11.229  0.00  0.00     0.065 H 
ATOM     22  H   LIG d   1       2.299  -3.556  -9.120  0.00  0.00     0.063 H 
ENDROOT
BRANCH  12  23
ATOM     23  C   LIG d   1       5.189  -0.583  -4.942  0.00  0.00    -0.034 A 
ATOM     24  C   LIG d   1       6.001   0.143  -4.092  0.00  0.00    -0.054 A 
ATOM     25  C   LIG d   1       5.453   0.813  -3.015  0.00  0.00    -0.020 A 
ATOM     26  H   LIG d   1       7.065   0.187  -4.269  0.00  0.00     0.062 H 
ATOM     27  C   LIG d   1       4.085   0.756  -2.787  0.00  0.00     0.117 A 
ATOM     28  H   LIG d   1       6.088   1.381  -2.351  0.00  0.00     0.065 H 
ATOM     29  C   LIG d   1       3.272   0.026  -3.642  0.00  0.00    -0.020 A 
ATOM     30  C   LIG d   1       3.825  -0.641  -4.718  0.00  0.00    -0.054 A 
ATOM     31  H   LIG d   1       2.207  -0.019  -3.467  0.00  0.00     0.065 H 
ATOM     32  H   LIG d   1       3.192  -1.209  -5.383  0.00  0.00     0.062 H 
BRANCH  27  33
ATOM     33  O   LIG d   1       3.543   1.415  -1.729  0.00  0.00    -0.507 OA
ATOM     34  H   LIG d   1       3.802   1.057  -0.869  0.00  0.00     0.292 HD
ENDBRANCH  27  33
ENDBRANCH  12  23
BRANCH  15  35
ATOM     35  N   LIG d   1       4.994  -4.967  -6.107  0.00  0.00    -0.328 N 
ATOM     36  H   LIG d   1       4.213  -5.530  -6.231  0.00  0.00     0.145 HD
ATOM     37  H   LIG d   1       5.821  -5.351  -5.777  0.00  0.00     0.145 HD
ENDBRANCH  15  35
TORSDOF 3
ENDMDL
MODEL 8
REMARK VINA RESULT:      -6.4      2.517      4.056
REMARK  3 active torsions:
REMARK  status: ('A' for Active; 'I' for Inactive)
REMARK    1  A    between atoms: C_12  and  C_20 
REMARK    2  A    between atoms: C_15  and  N_17 
REMARK    3  A    between atoms: C_23  and  O_26 
ROOT
ATOM      1  C   LIG d   1       4.560  -1.510  -1.932  0.00  0.00    -0.061 A 
ATOM      2  C   LIG d   1       4.214  -0.172  -1.804  0.00  0.00    -0.058 A 
ATOM      3  C   LIG d   1       3.884   0.577  -2.914  0.00  0.00    -0.018 A 
ATOM      4  C   LIG d   1       3.897  -0.007  -4.174  0.00  0.00     0.143 A 
ATOM      5  C   LIG d   1       4.249  -1.360  -4.303  0.00  0.00     0.060 A 
ATOM      6  C   LIG d   1       4.581  -2.108  -3.172  0.00  0.00    -0.048 A 
ATOM      7  C   LIG d   1       4.261  -1.966  -5.645  0.00  0.00     0.152 A 
ATOM      8  C   LIG d   1       3.928  -1.180  -6.709  0.00  0.00     0.092 A 
ATOM      9  C   LIG d   1       3.586   0.167  -6.498  0.00  0.00     0.345 A 
ATOM     10  O   LIG d   1       3.290   0.859  -7.456  0.00  0.00    -0.245 OA
ATOM     11  O   LIG d   1       3.577   0.712  -5.272  0.00  0.00    -0.422 OA
ATOM     12  C   LIG d   1       3.925  -1.742  -8.105  0.00  0.00     0.059 C 
ATOM     13  H   LIG d   1       3.036  -1.396  -8.632  0.00  0.00     0.046 H 
ATOM     14  C   LIG d   1       3.919  -3.244  -8.060  0.00  0.00     0.098 C 
ATOM     15  C   LIG d   1       4.249  -3.911  -6.927  0.00  0.00     0.199 C 
ATOM     16  O   LIG d   1       4.594  -3.261  -5.802  0.00  0.00    -0.440 OA
ATOM     17  C   LIG d   1       3.559  -3.984  -9.232  0.00  0.00     0.101 C 
ATOM     18  N   LIG d   1       3.273  -4.570 -10.162  0.00  0.00    -0.191 NA
ATOM     19  H   LIG d   1       4.816  -2.084  -1.053  0.00  0.00     0.062 H 
ATOM     20  H   LIG d   1       4.202   0.286  -0.827  0.00  0.00     0.062 H 
ATOM     21  H   LIG d   1       3.616   1.617  -2.803  0.00  0.00     0.065 H 
ATOM     22  H   LIG d   1       4.850  -3.149  -3.268  0.00  0.00     0.063 H 
ENDROOT
BRANCH  12  23
ATOM     23  C   LIG d   1       5.154  -1.269  -8.837  0.00  0.00    -0.034 A 
ATOM     24  C   LIG d   1       5.033  -0.678 -10.081  0.00  0.00    -0.054 A 
ATOM     25  C   LIG d   1       6.158  -0.237 -10.751  0.00  0.00    -0.020 A 
ATOM     26  H   LIG d   1       4.057  -0.560 -10.528  0.00  0.00     0.062 H 
ATOM     27  C   LIG d   1       7.411  -0.390 -10.175  0.00  0.00     0.117 A 
ATOM     28  H   LIG d   1       6.062   0.224 -11.723  0.00  0.00     0.065 H 
ATOM     29  C   LIG d   1       7.530  -0.984  -8.927  0.00  0.00    -0.020 A 
ATOM     30  C   LIG d   1       6.402  -1.422  -8.261  0.00  0.00    -0.054 A 
ATOM     31  H   LIG d   1       8.505  -1.103  -8.477  0.00  0.00     0.065 H 
ATOM     32  H   LIG d   1       6.495  -1.884  -7.289  0.00  0.00     0.062 H 
BRANCH  27  33
ATOM     33  O   LIG d   1       8.519   0.043 -10.832  0.00  0.00    -0.507 OA
ATOM     34  H   LIG d   1       8.331   0.491 -11.667  0.00  0.00     0.292 HD
ENDBRANCH  27  33
ENDBRANCH  12  23
BRANCH  15  35
ATOM     35  N   LIG d   1       4.233  -5.284  -6.929  0.00  0.00    -0.328 N 
ATOM     36  H   LIG d   1       3.550  -5.760  -7.426  0.00  0.00     0.145 HD
ATOM     37  H   LIG d   1       4.905  -5.778  -6.433  0.00  0.00     0.145 HD
ENDBRANCH  15  35
TORSDOF 3
ENDMDL
MODEL 9
REMARK VINA RESULT:      -6.4      2.585      4.274
REMARK  3 active torsions:
REMARK  status: ('A' for Active; 'I' for Inactive)
REMARK    1  A    between atoms: C_12  and  C_20 
REMARK    2  A    between atoms: C_15  and  N_17 
REMARK    3  A    between atoms: C_23  and  O_26 
ROOT
ATOM      1  C   LIG d   1       3.173   1.104  -3.281  0.00  0.00    -0.061 A 
ATOM      2  C   LIG d   1       3.862   1.053  -2.077  0.00  0.00    -0.058 A 
ATOM      3  C   LIG d   1       4.946   0.216  -1.922  0.00  0.00    -0.018 A 
ATOM      4  C   LIG d   1       5.358  -0.587  -2.978  0.00  0.00     0.143 A 
ATOM      5  C   LIG d   1       4.660  -0.538  -4.195  0.00  0.00     0.060 A 
ATOM      6  C   LIG d   1       3.564   0.315  -4.339  0.00  0.00    -0.048 A 
ATOM      7  C   LIG d   1       5.106  -1.397  -5.305  0.00  0.00     0.152 A 
ATOM      8  C   LIG d   1       6.184  -2.208  -5.099  0.00  0.00     0.092 A 
ATOM      9  C   LIG d   1       6.830  -2.199  -3.850  0.00  0.00     0.345 A 
ATOM     10  O   LIG d   1       7.792  -2.928  -3.678  0.00  0.00    -0.245 OA
ATOM     11  O   LIG d   1       6.418  -1.414  -2.844  0.00  0.00    -0.422 OA
ATOM     12  C   LIG d   1       6.684  -3.109  -6.195  0.00  0.00     0.059 C 
ATOM     13  H   LIG d   1       7.772  -3.064  -6.231  0.00  0.00     0.046 H 
ATOM     14  C   LIG d   1       6.127  -2.673  -7.521  0.00  0.00     0.098 C 
ATOM     15  C   LIG d   1       5.061  -1.841  -7.592  0.00  0.00     0.199 C 
ATOM     16  O   LIG d   1       4.458  -1.372  -6.485  0.00  0.00    -0.440 OA
ATOM     17  C   LIG d   1       6.734  -3.146  -8.729  0.00  0.00     0.101 C 
ATOM     18  N   LIG d   1       7.214  -3.520  -9.688  0.00  0.00    -0.191 NA
ATOM     19  H   LIG d   1       2.326   1.765  -3.387  0.00  0.00     0.062 H 
ATOM     20  H   LIG d   1       3.545   1.676  -1.254  0.00  0.00     0.062 H 
ATOM     21  H   LIG d   1       5.474   0.185  -0.982  0.00  0.00     0.065 H 
ATOM     22  H   LIG d   1       3.027   0.356  -5.276  0.00  0.00     0.063 H 
ENDROOT
BRANCH  12  23
ATOM     23  C   LIG d   1       6.252  -4.525  -5.913  0.00  0.00    -0.034 A 
ATOM     24  C   LIG d   1       4.913  -4.817  -5.737  0.00  0.00    -0.054 A 
ATOM     25  C   LIG d   1       4.514  -6.116  -5.485  0.00  0.00    -0.020 A 
ATOM     26  H   LIG d   1       4.177  -4.029  -5.796  0.00  0.00     0.062 H 
ATOM     27  C   LIG d   1       5.460  -7.128  -5.407  0.00  0.00     0.117 A 
ATOM     28  H   LIG d   1       3.467  -6.342  -5.347  0.00  0.00     0.065 H 
ATOM     29  C   LIG d   1       6.803  -6.832  -5.585  0.00  0.00    -0.020 A 
ATOM     30  C   LIG d   1       7.197  -5.533  -5.837  0.00  0.00    -0.054 A 
ATOM     31  H   LIG d   1       7.542  -7.619  -5.526  0.00  0.00     0.065 H 
ATOM     32  H   LIG d   1       8.243  -5.303  -5.975  0.00  0.00     0.062 H 
BRANCH  27  33
ATOM     33  O   LIG d   1       5.070  -8.406  -5.160  0.00  0.00    -0.507 OA
ATOM     34  H   LIG d   1       5.349  -8.741  -4.297  0.00  0.00     0.292 HD
ENDBRANCH  27  33
ENDBRANCH  12  23
BRANCH  15  35
ATOM     35  N   LIG d   1       4.583  -1.468  -8.823  0.00  0.00    -0.328 N 
ATOM     36  H   LIG d   1       4.762  -0.578  -9.164  0.00  0.00     0.145 HD
ATOM     37  H   LIG d   1       4.065  -2.095  -9.353  0.00  0.00     0.145 HD
ENDBRANCH  15  35
TORSDOF 3
ENDMDL
MODEL 10
REMARK VINA RESULT:      -6.1      3.043      5.039
REMARK  3 active torsions:
REMARK  status: ('A' for Active; 'I' for Inactive)
REMARK    1  A    between atoms: C_12  and  C_20 
REMARK    2  A    between atoms: C_15  and  N_17 
REMARK    3  A    between atoms: C_23  and  O_26 
ROOT
ATOM      1  C   LIG d   1       4.137  -0.738  -1.741  0.00  0.00    -0.061 A 
ATOM      2  C   LIG d   1       4.732   0.515  -1.764  0.00  0.00    -0.058 A 
ATOM      3  C   LIG d   1       5.442   0.935  -2.869  0.00  0.00    -0.018 A 
ATOM      4  C   LIG d   1       5.568   0.099  -3.971  0.00  0.00     0.143 A 
ATOM      5  C   LIG d   1       4.967  -1.170  -3.947  0.00  0.00     0.060 A 
ATOM      6  C   LIG d   1       4.250  -1.583  -2.822  0.00  0.00    -0.048 A 
ATOM      7  C   LIG d   1       5.110  -2.047  -5.121  0.00  0.00     0.152 A 
ATOM      8  C   LIG d   1       5.824  -1.584  -6.187  0.00  0.00     0.092 A 
ATOM      9  C   LIG d   1       6.394  -0.300  -6.136  0.00  0.00     0.345 A 
ATOM     10  O   LIG d   1       7.030   0.103  -7.094  0.00  0.00    -0.245 OA
ATOM     11  O   LIG d   1       6.260   0.492  -5.062  0.00  0.00    -0.422 OA
ATOM     12  C   LIG d   1       6.005  -2.435  -7.415  0.00  0.00     0.059 C 
ATOM     13  H   LIG d   1       5.861  -1.822  -8.304  0.00  0.00     0.046 H 
ATOM     14  C   LIG d   1       5.007  -3.558  -7.420  0.00  0.00     0.098 C 
ATOM     15  C   LIG d   1       4.341  -3.908  -6.294  0.00  0.00     0.199 C 
ATOM     16  O   LIG d   1       4.545  -3.269  -5.128  0.00  0.00    -0.440 OA
ATOM     17  C   LIG d   1       4.754  -4.270  -8.637  0.00  0.00     0.101 C 
ATOM     18  N   LIG d   1       4.553  -4.835  -9.602  0.00  0.00    -0.191 NA
ATOM     19  H   LIG d   1       3.583  -1.053  -0.868  0.00  0.00     0.062 H 
ATOM     20  H   LIG d   1       4.638   1.168  -0.910  0.00  0.00     0.062 H 
ATOM     21  H   LIG d   1       5.901   1.911  -2.877  0.00  0.00     0.065 H 
ATOM     22  H   LIG d   1       3.785  -2.558  -2.801  0.00  0.00     0.063 H 
ENDROOT
BRANCH  12  23
ATOM     23  C   LIG d   1       7.400  -3.007  -7.424  0.00  0.00    -0.034 A 
ATOM     24  C   LIG d   1       7.876  -3.685  -6.318  0.00  0.00    -0.054 A 
ATOM     25  C   LIG d   1       9.151  -4.216  -6.327  0.00  0.00    -0.020 A 
ATOM     26  H   LIG d   1       7.250  -3.801  -5.446  0.00  0.00     0.062 H 
ATOM     27  C   LIG d   1       9.956  -4.067  -7.447  0.00  0.00     0.117 A 
ATOM     28  H   LIG d   1       9.522  -4.746  -5.462  0.00  0.00     0.065 H 
ATOM     29  C   LIG d   1       9.476  -3.385  -8.556  0.00  0.00    -0.020 A 
ATOM     30  C   LIG d   1       8.200  -2.857  -8.543  0.00  0.00    -0.054 A 
ATOM     31  H   LIG d   1      10.100  -3.268  -9.430  0.00  0.00     0.065 H 
ATOM     32  H   LIG d   1       7.826  -2.327  -9.406  0.00  0.00     0.062 H 
BRANCH  27  33
ATOM     33  O   LIG d   1      11.211  -4.588  -7.459  0.00  0.00    -0.507 OA
ATOM     34  H   LIG d   1      11.690  -4.439  -8.285  0.00  0.00     0.292 HD
ENDBRANCH  27  33
ENDBRANCH  12  23
BRANCH  15  35
ATOM     35  N   LIG d   1       3.438  -4.940  -6.342  0.00  0.00    -0.328 N 
ATOM     36  H   LIG d   1       2.486  -4.753  -6.337  0.00  0.00     0.145 HD
ATOM     37  H   LIG d   1       3.752  -5.858  -6.382  0.00  0.00     0.145 HD
ENDBRANCH  15  35
TORSDOF 3
ENDMDL
