MODEL 1
REMARK VINA RESULT:      -5.6      0.000      0.000
REMARK  10 active torsions:
REMARK  status: ('A' for Active; 'I' for Inactive)
REMARK    1  A    between atoms: C_1  and  N_2 
REMARK    2  A    between atoms: C_5  and  C_7 
REMARK       I    between atoms: C_7  and  N_9 
REMARK    3  A    between atoms: N_9  and  C_10 
REMARK    4  A    between atoms: C_10  and  C_11 
REMARK    5  A    between atoms: C_11  and  O_13 
REMARK    6  A    between atoms: O_13  and  C_14 
REMARK    7  A    between atoms: C_19  and  O_24 
REMARK    8  A    between atoms: C_20  and  O_22 
REMARK    9  A    between atoms: O_22  and  C_23 
REMARK   10  A    between atoms: O_24  and  C_25 
ROOT
ATOM      1  N   LIG d   1       5.153   0.393  -8.733  0.00  0.00    -0.266 N 
ATOM      2  C   LIG d   1       4.016  -0.132  -9.277  0.00  0.00     0.073 A 
ATOM      3  C   LIG d   1       3.125  -0.269  -8.255  0.00  0.00     0.015 A 
ATOM      4  C   LIG d   1       3.785   0.193  -7.101  0.00  0.00     0.151 A 
ATOM      5  N   LIG d   1       4.994   0.572  -7.470  0.00  0.00    -0.166 NA
ATOM      6  C   LIG d   1       1.852  -0.843  -8.816  0.00  0.00     0.003 A 
ATOM      7  C   LIG d   1       2.105  -1.033 -10.293  0.00  0.00    -0.030 A 
ATOM      8  C   LIG d   1       3.406  -0.597 -10.542  0.00  0.00     0.007 A 
ATOM      9  C   LIG d   1       3.911  -0.656 -11.844  0.00  0.00    -0.007 A 
ATOM     10  C   LIG d   1       3.122  -1.141 -12.869  0.00  0.00     0.162 A 
ATOM     11  C   LIG d   1       1.824  -1.574 -12.609  0.00  0.00     0.162 A 
ATOM     12  C   LIG d   1       1.321  -1.517 -11.317  0.00  0.00    -0.012 A 
ATOM     13  H   LIG d   1       1.632  -1.801  -8.323  0.00  0.00     0.036 H 
ATOM     14  H   LIG d   1       1.024  -0.140  -8.640  0.00  0.00     0.036 H 
ATOM     15  H   LIG d   1       4.918  -0.321 -12.049  0.00  0.00     0.066 H 
ATOM     16  H   LIG d   1       0.315  -1.852 -11.114  0.00  0.00     0.066 H 
ENDROOT
BRANCH   4  17
ATOM     17  C   LIG d   1       3.229   0.246  -5.733  0.00  0.00     0.265 C 
ATOM     18  O   LIG d   1       2.688   1.259  -5.336  0.00  0.00    -0.268 OA
ATOM     19  N   LIG d   1       3.321  -0.831  -4.927  0.00  0.00    -0.299 N 
ATOM     20  H   LIG d   1       3.810  -1.748  -5.287  0.00  0.00     0.150 HD
BRANCH  19  21
ATOM     21  C   LIG d   1       2.769  -0.778  -3.571  0.00  0.00     0.109 C 
ATOM     22  H   LIG d   1       2.692   0.270  -3.246  0.00  0.00     0.058 H 
ATOM     23  H   LIG d   1       1.769  -1.238  -3.563  0.00  0.00     0.058 H 
BRANCH  21  24
ATOM     24  C   LIG d   1       3.675  -1.531  -2.631  0.00  0.00     0.324 C 
ATOM     25  O   LIG d   1       3.849  -2.717  -2.781  0.00  0.00    -0.249 OA
BRANCH  24  26
ATOM     26  O   LIG d   1       4.287  -0.884  -1.627  0.00  0.00    -0.467 OA
BRANCH  26  27
ATOM     27  C   LIG d   1       4.524   0.538  -1.807  0.00  0.00     0.082 C 
ATOM     28  H   LIG d   1       4.825   0.983  -0.847  0.00  0.00     0.066 H 
ATOM     29  H   LIG d   1       3.603   1.021  -2.163  0.00  0.00     0.066 H 
ATOM     30  H   LIG d   1       5.325   0.685  -2.546  0.00  0.00     0.066 H 
ENDBRANCH  26  27
ENDBRANCH  24  26
ENDBRANCH  21  24
ENDBRANCH  19  21
ENDBRANCH   4  17
BRANCH   1  31
ATOM     31  C   LIG d   1       6.376   0.706  -9.479  0.00  0.00     0.031 C 
ATOM     32  H   LIG d   1       6.374   1.772  -9.754  0.00  0.00     0.047 H 
ATOM     33  H   LIG d   1       6.417   0.091 -10.390  0.00  0.00     0.047 H 
ATOM     34  H   LIG d   1       7.253   0.491  -8.851  0.00  0.00     0.047 H 
ENDBRANCH   1  31
BRANCH  10  35
ATOM     35  O   LIG d   1       3.615  -1.198 -14.136  0.00  0.00    -0.491 OA
BRANCH  35  36
ATOM     36  C   LIG d   1       4.961  -0.759 -14.329  0.00  0.00     0.079 C 
ATOM     37  H   LIG d   1       5.639  -1.381 -13.726  0.00  0.00     0.066 H 
ATOM     38  H   LIG d   1       5.051   0.292 -14.016  0.00  0.00     0.066 H 
ATOM     39  H   LIG d   1       5.227  -0.849 -15.392  0.00  0.00     0.066 H 
ENDBRANCH  35  36
ENDBRANCH  10  35
BRANCH  11  40
ATOM     40  O   LIG d   1       1.051  -2.052 -13.620  0.00  0.00    -0.491 OA
BRANCH  40  41
ATOM     41  C   LIG d   1      -0.312  -2.351 -13.307  0.00  0.00     0.079 C 
ATOM     42  H   LIG d   1      -0.462  -2.281 -12.220  0.00  0.00     0.066 H 
ATOM     43  H   LIG d   1      -0.552  -3.369 -13.645  0.00  0.00     0.066 H 
ATOM     44  H   LIG d   1      -0.971  -1.630 -13.815  0.00  0.00     0.066 H 
ENDBRANCH  40  41
ENDBRANCH  11  40
TORSDOF 10
ENDMDL
MODEL 2
REMARK VINA RESULT:      -5.5      6.456      8.578
REMARK  10 active torsions:
REMARK  status: ('A' for Active; 'I' for Inactive)
REMARK    1  A    between atoms: C_1  and  N_2 
REMARK    2  A    between atoms: C_5  and  C_7 
REMARK       I    between atoms: C_7  and  N_9 
REMARK    3  A    between atoms: N_9  and  C_10 
REMARK    4  A    between atoms: C_10  and  C_11 
REMARK    5  A    between atoms: C_11  and  O_13 
REMARK    6  A    between atoms: O_13  and  C_14 
REMARK    7  A    between atoms: C_19  and  O_24 
REMARK    8  A    between atoms: C_20  and  O_22 
REMARK    9  A    between atoms: O_22  and  C_23 
REMARK   10  A    between atoms: O_24  and  C_25 
ROOT
ATOM      1  N   LIG d   1       7.736  -3.878  -5.915  0.00  0.00    -0.266 N 
ATOM      2  C   LIG d   1       6.860  -3.149  -5.163  0.00  0.00     0.073 A 
ATOM      3  C   LIG d   1       5.756  -3.929  -4.989  0.00  0.00     0.015 A 
ATOM      4  C   LIG d   1       6.023  -5.134  -5.665  0.00  0.00     0.151 A 
ATOM      5  N   LIG d   1       7.227  -5.025  -6.193  0.00  0.00    -0.166 NA
ATOM      6  C   LIG d   1       4.765  -3.160  -4.158  0.00  0.00     0.003 A 
ATOM      7  C   LIG d   1       5.417  -1.828  -3.870  0.00  0.00    -0.030 A 
ATOM      8  C   LIG d   1       6.671  -1.850  -4.480  0.00  0.00     0.007 A 
ATOM      9  C   LIG d   1       7.505  -0.733  -4.372  0.00  0.00    -0.007 A 
ATOM     10  C   LIG d   1       7.084   0.376  -3.665  0.00  0.00     0.162 A 
ATOM     11  C   LIG d   1       5.830   0.386  -3.059  0.00  0.00     0.162 A 
ATOM     12  C   LIG d   1       5.000  -0.721  -3.165  0.00  0.00    -0.012 A 
ATOM     13  H   LIG d   1       3.831  -3.032  -4.725  0.00  0.00     0.036 H 
ATOM     14  H   LIG d   1       4.557  -3.713  -3.229  0.00  0.00     0.036 H 
ATOM     15  H   LIG d   1       8.478  -0.739  -4.841  0.00  0.00     0.066 H 
ATOM     16  H   LIG d   1       4.028  -0.715  -2.696  0.00  0.00     0.066 H 
ENDROOT
BRANCH   4  17
ATOM     17  C   LIG d   1       5.123  -6.302  -5.765  0.00  0.00     0.265 C 
ATOM     18  O   LIG d   1       3.920  -6.139  -5.825  0.00  0.00    -0.268 OA
ATOM     19  N   LIG d   1       5.637  -7.548  -5.791  0.00  0.00    -0.299 N 
ATOM     20  H   LIG d   1       6.726  -7.695  -5.738  0.00  0.00     0.150 HD
BRANCH  19  21
ATOM     21  C   LIG d   1       4.745  -8.706  -5.890  0.00  0.00     0.109 C 
ATOM     22  H   LIG d   1       3.730  -8.366  -6.145  0.00  0.00     0.058 H 
ATOM     23  H   LIG d   1       5.111  -9.385  -6.675  0.00  0.00     0.058 H 
BRANCH  21  24
ATOM     24  C   LIG d   1       4.717  -9.432  -4.571  0.00  0.00     0.324 C 
ATOM     25  O   LIG d   1       5.731  -9.913  -4.124  0.00  0.00    -0.249 OA
BRANCH  24  26
ATOM     26  O   LIG d   1       3.565  -9.545  -3.892  0.00  0.00    -0.467 OA
BRANCH  26  27
ATOM     27  C   LIG d   1       3.202 -10.871  -3.425  0.00  0.00     0.082 C 
ATOM     28  H   LIG d   1       2.379 -10.791  -2.699  0.00  0.00     0.066 H 
ATOM     29  H   LIG d   1       4.072 -11.341  -2.943  0.00  0.00     0.066 H 
ATOM     30  H   LIG d   1       2.879 -11.485  -4.279  0.00  0.00     0.066 H 
ENDBRANCH  26  27
ENDBRANCH  24  26
ENDBRANCH  21  24
ENDBRANCH  19  21
ENDBRANCH   4  17
BRANCH   1  31
ATOM     31  C   LIG d   1       9.061  -3.421  -6.342  0.00  0.00     0.031 C 
ATOM     32  H   LIG d   1       9.712  -3.312  -5.461  0.00  0.00     0.047 H 
ATOM     33  H   LIG d   1       8.968  -2.451  -6.852  0.00  0.00     0.047 H 
ATOM     34  H   LIG d   1       9.499  -4.157  -7.032  0.00  0.00     0.047 H 
ENDBRANCH   1  31
BRANCH  10  35
ATOM     35  O   LIG d   1       7.896   1.462  -3.560  0.00  0.00    -0.491 OA
BRANCH  35  36
ATOM     36  C   LIG d   1       8.236   2.137  -4.773  0.00  0.00     0.079 C 
ATOM     37  H   LIG d   1       9.258   1.860  -5.072  0.00  0.00     0.066 H 
ATOM     38  H   LIG d   1       8.182   3.224  -4.614  0.00  0.00     0.066 H 
ATOM     39  H   LIG d   1       7.530   1.847  -5.564  0.00  0.00     0.066 H 
ENDBRANCH  35  36
ENDBRANCH  10  35
BRANCH  11  40
ATOM     40  O   LIG d   1       5.419   1.480  -2.364  0.00  0.00    -0.491 OA
BRANCH  40  41
ATOM     41  C   LIG d   1       4.036   1.538  -2.006  0.00  0.00     0.079 C 
ATOM     42  H   LIG d   1       3.672   2.570  -2.117  0.00  0.00     0.066 H 
ATOM     43  H   LIG d   1       3.913   1.217  -0.962  0.00  0.00     0.066 H 
ATOM     44  H   LIG d   1       3.458   0.872  -2.665  0.00  0.00     0.066 H 
ENDBRANCH  40  41
ENDBRANCH  11  40
TORSDOF 10
ENDMDL
MODEL 3
REMARK VINA RESULT:      -5.1      8.599     12.927
REMARK  10 active torsions:
REMARK  status: ('A' for Active; 'I' for Inactive)
REMARK    1  A    between atoms: C_1  and  N_2 
REMARK    2  A    between atoms: C_5  and  C_7 
REMARK       I    between atoms: C_7  and  N_9 
REMARK    3  A    between atoms: N_9  and  C_10 
REMARK    4  A    between atoms: C_10  and  C_11 
REMARK    5  A    between atoms: C_11  and  O_13 
REMARK    6  A    between atoms: O_13  and  C_14 
REMARK    7  A    between atoms: C_19  and  O_24 
REMARK    8  A    between atoms: C_20  and  O_22 
REMARK    9  A    between atoms: O_22  and  C_23 
REMARK   10  A    between atoms: O_24  and  C_25 
ROOT
ATOM      1  N   LIG d   1       9.465   6.609  -4.631  0.00  0.00    -0.266 N 
ATOM      2  C   LIG d   1       9.789   6.788  -3.317  0.00  0.00     0.073 A 
ATOM      3  C   LIG d   1       9.819   5.547  -2.754  0.00  0.00     0.015 A 
ATOM      4  C   LIG d   1       9.500   4.645  -3.786  0.00  0.00     0.151 A 
ATOM      5  N   LIG d   1       9.302   5.358  -4.878  0.00  0.00    -0.166 NA
ATOM      6  C   LIG d   1      10.180   5.700  -1.301  0.00  0.00     0.003 A 
ATOM      7  C   LIG d   1      10.352   7.184  -1.076  0.00  0.00    -0.030 A 
ATOM      8  C   LIG d   1      10.116   7.810  -2.299  0.00  0.00     0.007 A 
ATOM      9  C   LIG d   1      10.211   9.202  -2.385  0.00  0.00    -0.007 A 
ATOM     10  C   LIG d   1      10.538   9.942  -1.266  0.00  0.00     0.162 A 
ATOM     11  C   LIG d   1      10.771   9.306  -0.049  0.00  0.00     0.162 A 
ATOM     12  C   LIG d   1      10.677   7.924   0.039  0.00  0.00    -0.012 A 
ATOM     13  H   LIG d   1       9.371   5.293  -0.677  0.00  0.00     0.036 H 
ATOM     14  H   LIG d   1      11.112   5.153  -1.094  0.00  0.00     0.036 H 
ATOM     15  H   LIG d   1      10.030   9.698  -3.328  0.00  0.00     0.066 H 
ATOM     16  H   LIG d   1      10.858   7.429   0.982  0.00  0.00     0.066 H 
ENDROOT
BRANCH   4  17
ATOM     17  C   LIG d   1       9.406   3.175  -3.669  0.00  0.00     0.265 C 
ATOM     18  O   LIG d   1      10.232   2.563  -3.021  0.00  0.00    -0.268 OA
ATOM     19  N   LIG d   1       8.403   2.514  -4.281  0.00  0.00    -0.299 N 
ATOM     20  H   LIG d   1       7.656   3.068  -4.868  0.00  0.00     0.150 HD
BRANCH  19  21
ATOM     21  C   LIG d   1       8.310   1.056  -4.165  0.00  0.00     0.109 C 
ATOM     22  H   LIG d   1       8.324   0.607  -5.170  0.00  0.00     0.058 H 
ATOM     23  H   LIG d   1       9.164   0.679  -3.583  0.00  0.00     0.058 H 
BRANCH  21  24
ATOM     24  C   LIG d   1       7.026   0.689  -3.469  0.00  0.00     0.324 C 
ATOM     25  O   LIG d   1       6.790  -0.467  -3.206  0.00  0.00    -0.249 OA
BRANCH  24  26
ATOM     26  O   LIG d   1       6.143   1.645  -3.141  0.00  0.00    -0.467 OA
BRANCH  26  27
ATOM     27  C   LIG d   1       4.874   1.209  -2.587  0.00  0.00     0.082 C 
ATOM     28  H   LIG d   1       4.338   2.075  -2.172  0.00  0.00     0.066 H 
ATOM     29  H   LIG d   1       5.055   0.474  -1.789  0.00  0.00     0.066 H 
ATOM     30  H   LIG d   1       4.267   0.748  -3.380  0.00  0.00     0.066 H 
ENDBRANCH  26  27
ENDBRANCH  24  26
ENDBRANCH  21  24
ENDBRANCH  19  21
ENDBRANCH   4  17
BRANCH   1  31
ATOM     31  C   LIG d   1       9.323   7.686  -5.616  0.00  0.00     0.031 C 
ATOM     32  H   LIG d   1       8.357   7.583  -6.134  0.00  0.00     0.047 H 
ATOM     33  H   LIG d   1      10.141   7.623  -6.349  0.00  0.00     0.047 H 
ATOM     34  H   LIG d   1       9.363   8.658  -5.104  0.00  0.00     0.047 H 
ENDBRANCH   1  31
BRANCH  10  35
ATOM     35  O   LIG d   1      10.630  11.297  -1.351  0.00  0.00    -0.491 OA
BRANCH  35  36
ATOM     36  C   LIG d   1       9.754  11.950  -2.271  0.00  0.00     0.079 C 
ATOM     37  H   LIG d   1       9.813  13.039  -2.124  0.00  0.00     0.066 H 
ATOM     38  H   LIG d   1       8.722  11.612  -2.096  0.00  0.00     0.066 H 
ATOM     39  H   LIG d   1      10.052  11.702  -3.300  0.00  0.00     0.066 H 
ENDBRANCH  35  36
ENDBRANCH  10  35
BRANCH  11  40
ATOM     40  O   LIG d   1      11.092  10.037   1.051  0.00  0.00    -0.491 OA
BRANCH  40  41
ATOM     41  C   LIG d   1      12.231   9.612   1.803  0.00  0.00     0.079 C 
ATOM     42  H   LIG d   1      12.251   8.513   1.847  0.00  0.00     0.066 H 
ATOM     43  H   LIG d   1      12.171  10.018   2.823  0.00  0.00     0.066 H 
ATOM     44  H   LIG d   1      13.148   9.976   1.316  0.00  0.00     0.066 H 
ENDBRANCH  40  41
ENDBRANCH  11  40
TORSDOF 10
ENDMDL
MODEL 4
REMARK VINA RESULT:      -5.1      8.592     11.753
REMARK  10 active torsions:
REMARK  status: ('A' for Active; 'I' for Inactive)
REMARK    1  A    between atoms: C_1  and  N_2 
REMARK    2  A    between atoms: C_5  and  C_7 
REMARK       I    between atoms: C_7  and  N_9 
REMARK    3  A    between atoms: N_9  and  C_10 
REMARK    4  A    between atoms: C_10  and  C_11 
REMARK    5  A    between atoms: C_11  and  O_13 
REMARK    6  A    between atoms: O_13  and  C_14 
REMARK    7  A    between atoms: C_19  and  O_24 
REMARK    8  A    between atoms: C_20  and  O_22 
REMARK    9  A    between atoms: O_22  and  C_23 
REMARK   10  A    between atoms: O_24  and  C_25 
ROOT
ATOM      1  N   LIG d   1      10.482   6.057  -1.712  0.00  0.00    -0.266 N 
ATOM      2  C   LIG d   1      10.162   6.582  -2.931  0.00  0.00     0.073 A 
ATOM      3  C   LIG d   1       9.830   5.529  -3.731  0.00  0.00     0.015 A 
ATOM      4  C   LIG d   1       9.969   4.378  -2.933  0.00  0.00     0.151 A 
ATOM      5  N   LIG d   1      10.363   4.777  -1.739  0.00  0.00    -0.166 NA
ATOM      6  C   LIG d   1       9.464   6.068  -5.087  0.00  0.00     0.003 A 
ATOM      7  C   LIG d   1       9.629   7.567  -4.991  0.00  0.00    -0.030 A 
ATOM      8  C   LIG d   1      10.044   7.847  -3.689  0.00  0.00     0.007 A 
ATOM      9  C   LIG d   1      10.272   9.174  -3.314  0.00  0.00    -0.007 A 
ATOM     10  C   LIG d   1      10.085  10.192  -4.228  0.00  0.00     0.162 A 
ATOM     11  C   LIG d   1       9.671   9.900  -5.525  0.00  0.00     0.162 A 
ATOM     12  C   LIG d   1       9.443   8.583  -5.901  0.00  0.00    -0.012 A 
ATOM     13  H   LIG d   1      10.137   5.641  -5.846  0.00  0.00     0.036 H 
ATOM     14  H   LIG d   1       8.425   5.794  -5.323  0.00  0.00     0.036 H 
ATOM     15  H   LIG d   1      10.594   9.402  -2.308  0.00  0.00     0.066 H 
ATOM     16  H   LIG d   1       9.121   8.356  -6.906  0.00  0.00     0.066 H 
ENDROOT
BRANCH   4  17
ATOM     17  C   LIG d   1       9.721   2.983  -3.354  0.00  0.00     0.265 C 
ATOM     18  O   LIG d   1      10.625   2.172  -3.332  0.00  0.00    -0.268 OA
ATOM     19  N   LIG d   1       8.491   2.612  -3.762  0.00  0.00    -0.299 N 
ATOM     20  H   LIG d   1       7.672   3.346  -3.782  0.00  0.00     0.150 HD
BRANCH  19  21
ATOM     21  C   LIG d   1       8.245   1.229  -4.179  0.00  0.00     0.109 C 
ATOM     22  H   LIG d   1       8.158   1.187  -5.275  0.00  0.00     0.058 H 
ATOM     23  H   LIG d   1       9.081   0.593  -3.853  0.00  0.00     0.058 H 
BRANCH  21  24
ATOM     24  C   LIG d   1       6.966   0.736  -3.554  0.00  0.00     0.324 C 
ATOM     25  O   LIG d   1       6.775  -0.450  -3.426  0.00  0.00    -0.249 OA
BRANCH  24  26
ATOM     26  O   LIG d   1       6.039   1.614  -3.140  0.00  0.00    -0.467 OA
BRANCH  26  27
ATOM     27  C   LIG d   1       4.936   1.088  -2.356  0.00  0.00     0.082 C 
ATOM     28  H   LIG d   1       5.087   1.340  -1.296  0.00  0.00     0.066 H 
ATOM     29  H   LIG d   1       4.893  -0.005  -2.470  0.00  0.00     0.066 H 
ATOM     30  H   LIG d   1       3.992   1.530  -2.707  0.00  0.00     0.066 H 
ENDBRANCH  26  27
ENDBRANCH  24  26
ENDBRANCH  21  24
ENDBRANCH  19  21
ENDBRANCH   4  17
BRANCH   1  31
ATOM     31  C   LIG d   1      10.901   6.837  -0.544  0.00  0.00     0.031 C 
ATOM     32  H   LIG d   1      10.968   6.176   0.334  0.00  0.00     0.047 H 
ATOM     33  H   LIG d   1      10.165   7.631  -0.350  0.00  0.00     0.047 H 
ATOM     34  H   LIG d   1      11.885   7.289  -0.738  0.00  0.00     0.047 H 
ENDBRANCH   1  31
BRANCH  10  35
ATOM     35  O   LIG d   1      10.308  11.483  -3.862  0.00  0.00    -0.491 OA
BRANCH  35  36
ATOM     36  C   LIG d   1       9.362  12.076  -2.971  0.00  0.00     0.079 C 
ATOM     37  H   LIG d   1       9.714  13.076  -2.675  0.00  0.00     0.066 H 
ATOM     38  H   LIG d   1       9.256  11.445  -2.076  0.00  0.00     0.066 H 
ATOM     39  H   LIG d   1       8.389  12.165  -3.475  0.00  0.00     0.066 H 
ENDBRANCH  35  36
ENDBRANCH  10  35
BRANCH  11  40
ATOM     40  O   LIG d   1       9.488  10.904  -6.424  0.00  0.00    -0.491 OA
BRANCH  40  41
ATOM     41  C   LIG d   1      10.504  11.080  -7.415  0.00  0.00     0.079 C 
ATOM     42  H   LIG d   1      11.379  10.467  -7.154  0.00  0.00     0.066 H 
ATOM     43  H   LIG d   1      10.797  12.138  -7.456  0.00  0.00     0.066 H 
ATOM     44  H   LIG d   1      10.116  10.768  -8.396  0.00  0.00     0.066 H 
ENDBRANCH  40  41
ENDBRANCH  11  40
TORSDOF 10
ENDMDL
MODEL 5
REMARK VINA RESULT:      -5.1     11.046     14.440
REMARK  10 active torsions:
REMARK  status: ('A' for Active; 'I' for Inactive)
REMARK    1  A    between atoms: C_1  and  N_2 
REMARK    2  A    between atoms: C_5  and  C_7 
REMARK       I    between atoms: C_7  and  N_9 
REMARK    3  A    between atoms: N_9  and  C_10 
REMARK    4  A    between atoms: C_10  and  C_11 
REMARK    5  A    between atoms: C_11  and  O_13 
REMARK    6  A    between atoms: O_13  and  C_14 
REMARK    7  A    between atoms: C_19  and  O_24 
REMARK    8  A    between atoms: C_20  and  O_22 
REMARK    9  A    between atoms: O_22  and  C_23 
REMARK   10  A    between atoms: O_24  and  C_25 
ROOT
ATOM      1  N   LIG d   1      10.171  10.122  -1.263  0.00  0.00    -0.266 N 
ATOM      2  C   LIG d   1      10.408   8.788  -1.086  0.00  0.00     0.073 A 
ATOM      3  C   LIG d   1      11.006   8.660   0.132  0.00  0.00     0.015 A 
ATOM      4  C   LIG d   1      11.108   9.964   0.653  0.00  0.00     0.151 A 
ATOM      5  N   LIG d   1      10.586  10.782  -0.241  0.00  0.00    -0.166 NA
ATOM      6  C   LIG d   1      11.280   7.200   0.369  0.00  0.00     0.003 A 
ATOM      7  C   LIG d   1      10.777   6.484  -0.863  0.00  0.00    -0.030 A 
ATOM      8  C   LIG d   1      10.257   7.458  -1.714  0.00  0.00     0.007 A 
ATOM      9  C   LIG d   1       9.711   7.073  -2.943  0.00  0.00    -0.007 A 
ATOM     10  C   LIG d   1       9.690   5.740  -3.301  0.00  0.00     0.162 A 
ATOM     11  C   LIG d   1      10.212   4.775  -2.442  0.00  0.00     0.162 A 
ATOM     12  C   LIG d   1      10.754   5.155  -1.222  0.00  0.00    -0.012 A 
ATOM     13  H   LIG d   1      12.361   7.046   0.505  0.00  0.00     0.036 H 
ATOM     14  H   LIG d   1      10.747   6.867   1.271  0.00  0.00     0.036 H 
ATOM     15  H   LIG d   1       9.306   7.819  -3.611  0.00  0.00     0.066 H 
ATOM     16  H   LIG d   1      11.159   4.408  -0.555  0.00  0.00     0.066 H 
ENDROOT
BRANCH   4  17
ATOM     17  C   LIG d   1      11.690  10.345   1.957  0.00  0.00     0.265 C 
ATOM     18  O   LIG d   1      11.794  11.519   2.255  0.00  0.00    -0.268 OA
ATOM     19  N   LIG d   1      12.103   9.392   2.815  0.00  0.00    -0.299 N 
ATOM     20  H   LIG d   1      12.009   8.330   2.544  0.00  0.00     0.150 HD
BRANCH  19  21
ATOM     21  C   LIG d   1      12.680   9.770   4.107  0.00  0.00     0.109 C 
ATOM     22  H   LIG d   1      13.774   9.665   4.065  0.00  0.00     0.058 H 
ATOM     23  H   LIG d   1      12.421  10.816   4.333  0.00  0.00     0.058 H 
BRANCH  21  24
ATOM     24  C   LIG d   1      12.130   8.873   5.185  0.00  0.00     0.324 C 
ATOM     25  O   LIG d   1      11.476   9.342   6.086  0.00  0.00    -0.249 OA
BRANCH  24  26
ATOM     26  O   LIG d   1      12.365   7.553   5.144  0.00  0.00    -0.467 OA
BRANCH  26  27
ATOM     27  C   LIG d   1      11.208   6.677   5.103  0.00  0.00     0.082 C 
ATOM     28  H   LIG d   1      10.803   6.652   4.081  0.00  0.00     0.066 H 
ATOM     29  H   LIG d   1      10.439   7.053   5.793  0.00  0.00     0.066 H 
ATOM     30  H   LIG d   1      11.506   5.661   5.403  0.00  0.00     0.066 H 
ENDBRANCH  26  27
ENDBRANCH  24  26
ENDBRANCH  21  24
ENDBRANCH  19  21
ENDBRANCH   4  17
BRANCH   1  31
ATOM     31  C   LIG d   1       9.536  10.713  -2.445  0.00  0.00     0.031 C 
ATOM     32  H   LIG d   1       8.535  10.276  -2.580  0.00  0.00     0.047 H 
ATOM     33  H   LIG d   1      10.151  10.507  -3.333  0.00  0.00     0.047 H 
ATOM     34  H   LIG d   1       9.445  11.800  -2.306  0.00  0.00     0.047 H 
ENDBRANCH   1  31
BRANCH  10  35
ATOM     35  O   LIG d   1       9.159   5.366  -4.497  0.00  0.00    -0.491 OA
BRANCH  35  36
ATOM     36  C   LIG d   1       9.805   5.855  -5.674  0.00  0.00     0.079 C 
ATOM     37  H   LIG d   1       9.045   6.167  -6.406  0.00  0.00     0.066 H 
ATOM     38  H   LIG d   1      10.426   5.057  -6.108  0.00  0.00     0.066 H 
ATOM     39  H   LIG d   1      10.440   6.714  -5.414  0.00  0.00     0.066 H 
ENDBRANCH  35  36
ENDBRANCH  10  35
BRANCH  11  40
ATOM     40  O   LIG d   1      10.191   3.463  -2.798  0.00  0.00    -0.491 OA
BRANCH  40  41
ATOM     41  C   LIG d   1      11.402   2.914  -3.322  0.00  0.00     0.079 C 
ATOM     42  H   LIG d   1      12.101   2.715  -2.496  0.00  0.00     0.066 H 
ATOM     43  H   LIG d   1      11.857   3.628  -4.023  0.00  0.00     0.066 H 
ATOM     44  H   LIG d   1      11.180   1.973  -3.848  0.00  0.00     0.066 H 
ENDBRANCH  40  41
ENDBRANCH  11  40
TORSDOF 10
ENDMDL
MODEL 6
REMARK VINA RESULT:      -5.1     10.054     12.486
REMARK  10 active torsions:
REMARK  status: ('A' for Active; 'I' for Inactive)
REMARK    1  A    between atoms: C_1  and  N_2 
REMARK    2  A    between atoms: C_5  and  C_7 
REMARK       I    between atoms: C_7  and  N_9 
REMARK    3  A    between atoms: N_9  and  C_10 
REMARK    4  A    between atoms: C_10  and  C_11 
REMARK    5  A    between atoms: C_11  and  O_13 
REMARK    6  A    between atoms: O_13  and  C_14 
REMARK    7  A    between atoms: C_19  and  O_24 
REMARK    8  A    between atoms: C_20  and  O_22 
REMARK    9  A    between atoms: O_22  and  C_23 
REMARK   10  A    between atoms: O_24  and  C_25 
ROOT
ATOM      1  N   LIG d   1       9.687  -8.423  -2.837  0.00  0.00    -0.266 N 
ATOM      2  C   LIG d   1       8.472  -9.012  -2.631  0.00  0.00     0.073 A 
ATOM      3  C   LIG d   1       8.543  -9.633  -1.420  0.00  0.00     0.015 A 
ATOM      4  C   LIG d   1       9.839  -9.385  -0.932  0.00  0.00     0.151 A 
ATOM      5  N   LIG d   1      10.462  -8.654  -1.837  0.00  0.00    -0.166 NA
ATOM      6  C   LIG d   1       7.216 -10.292  -1.153  0.00  0.00     0.003 A 
ATOM      7  C   LIG d   1       6.359  -9.989  -2.359  0.00  0.00    -0.030 A 
ATOM      8  C   LIG d   1       7.134  -9.219  -3.226  0.00  0.00     0.007 A 
ATOM      9  C   LIG d   1       6.584  -8.787  -4.436  0.00  0.00    -0.007 A 
ATOM     10  C   LIG d   1       5.284  -9.122  -4.763  0.00  0.00     0.162 A 
ATOM     11  C   LIG d   1       4.519  -9.891  -3.889  0.00  0.00     0.162 A 
ATOM     12  C   LIG d   1       5.063 -10.322  -2.687  0.00  0.00    -0.012 A 
ATOM     13  H   LIG d   1       7.363 -11.375  -1.031  0.00  0.00     0.036 H 
ATOM     14  H   LIG d   1       6.777  -9.875  -0.235  0.00  0.00     0.036 H 
ATOM     15  H   LIG d   1       7.175  -8.190  -5.115  0.00  0.00     0.066 H 
ATOM     16  H   LIG d   1       4.471 -10.918  -2.009  0.00  0.00     0.066 H 
ENDROOT
BRANCH   4  17
ATOM     17  C   LIG d   1      10.398  -9.853   0.353  0.00  0.00     0.265 C 
ATOM     18  O   LIG d   1      10.685 -11.025   0.499  0.00  0.00    -0.268 OA
ATOM     19  N   LIG d   1      10.590  -8.981   1.362  0.00  0.00    -0.299 N 
ATOM     20  H   LIG d   1      10.330  -7.920   1.229  0.00  0.00     0.150 HD
BRANCH  19  21
ATOM     21  C   LIG d   1      11.144  -9.445   2.636  0.00  0.00     0.109 C 
ATOM     22  H   LIG d   1      10.323  -9.714   3.317  0.00  0.00     0.058 H 
ATOM     23  H   LIG d   1      11.777 -10.328   2.461  0.00  0.00     0.058 H 
BRANCH  21  24
ATOM     24  C   LIG d   1      11.971  -8.348   3.254  0.00  0.00     0.324 C 
ATOM     25  O   LIG d   1      11.751  -7.992   4.388  0.00  0.00    -0.249 OA
BRANCH  24  26
ATOM     26  O   LIG d   1      12.950  -7.766   2.546  0.00  0.00    -0.467 OA
BRANCH  26  27
ATOM     27  C   LIG d   1      14.314  -8.017   2.977  0.00  0.00     0.082 C 
ATOM     28  H   LIG d   1      14.961  -7.190   2.647  0.00  0.00     0.066 H 
ATOM     29  H   LIG d   1      14.670  -8.959   2.536  0.00  0.00     0.066 H 
ATOM     30  H   LIG d   1      14.345  -8.090   4.074  0.00  0.00     0.066 H 
ENDBRANCH  26  27
ENDBRANCH  24  26
ENDBRANCH  21  24
ENDBRANCH  19  21
ENDBRANCH   4  17
BRANCH   1  31
ATOM     31  C   LIG d   1      10.055  -7.643  -4.022  0.00  0.00     0.031 C 
ATOM     32  H   LIG d   1       9.219  -7.651  -4.739  0.00  0.00     0.047 H 
ATOM     33  H   LIG d   1      10.945  -8.086  -4.491  0.00  0.00     0.047 H 
ATOM     34  H   LIG d   1      10.274  -6.607  -3.726  0.00  0.00     0.047 H 
ENDBRANCH   1  31
BRANCH  10  35
ATOM     35  O   LIG d   1       4.750  -8.701  -5.941  0.00  0.00    -0.491 OA
BRANCH  35  36
ATOM     36  C   LIG d   1       4.825  -7.302  -6.224  0.00  0.00     0.079 C 
ATOM     37  H   LIG d   1       3.811  -6.874  -6.227  0.00  0.00     0.066 H 
ATOM     38  H   LIG d   1       5.289  -7.153  -7.210  0.00  0.00     0.066 H 
ATOM     39  H   LIG d   1       5.432  -6.805  -5.454  0.00  0.00     0.066 H 
ENDBRANCH  35  36
ENDBRANCH  10  35
BRANCH  11  40
ATOM     40  O   LIG d   1       3.241 -10.221  -4.214  0.00  0.00    -0.491 OA
BRANCH  40  41
ATOM     41  C   LIG d   1       2.994 -11.581  -4.580  0.00  0.00     0.079 C 
ATOM     42  H   LIG d   1       2.418 -12.076  -3.785  0.00  0.00     0.066 H 
ATOM     43  H   LIG d   1       3.951 -12.103  -4.719  0.00  0.00     0.066 H 
ATOM     44  H   LIG d   1       2.421 -11.609  -5.519  0.00  0.00     0.066 H 
ENDBRANCH  40  41
ENDBRANCH  11  40
TORSDOF 10
ENDMDL
MODEL 7
REMARK VINA RESULT:      -5.0      5.536      7.815
REMARK  10 active torsions:
REMARK  status: ('A' for Active; 'I' for Inactive)
REMARK    1  A    between atoms: C_1  and  N_2 
REMARK    2  A    between atoms: C_5  and  C_7 
REMARK       I    between atoms: C_7  and  N_9 
REMARK    3  A    between atoms: N_9  and  C_10 
REMARK    4  A    between atoms: C_10  and  C_11 
REMARK    5  A    between atoms: C_11  and  O_13 
REMARK    6  A    between atoms: O_13  and  C_14 
REMARK    7  A    between atoms: C_19  and  O_24 
REMARK    8  A    between atoms: C_20  and  O_22 
REMARK    9  A    between atoms: O_22  and  C_23 
REMARK   10  A    between atoms: O_24  and  C_25 
ROOT
ATOM      1  N   LIG d   1       3.563  -5.170  -8.314  0.00  0.00    -0.266 N 
ATOM      2  C   LIG d   1       4.077  -4.504  -7.238  0.00  0.00     0.073 A 
ATOM      3  C   LIG d   1       4.567  -5.454  -6.392  0.00  0.00     0.015 A 
ATOM      4  C   LIG d   1       4.318  -6.692  -7.014  0.00  0.00     0.151 A 
ATOM      5  N   LIG d   1       3.715  -6.437  -8.160  0.00  0.00    -0.166 NA
ATOM      6  C   LIG d   1       5.149  -4.758  -5.192  0.00  0.00     0.003 A 
ATOM      7  C   LIG d   1       4.935  -3.281  -5.431  0.00  0.00    -0.030 A 
ATOM      8  C   LIG d   1       4.295  -3.158  -6.664  0.00  0.00     0.007 A 
ATOM      9  C   LIG d   1       3.975  -1.886  -7.145  0.00  0.00    -0.007 A 
ATOM     10  C   LIG d   1       4.293  -0.766  -6.402  0.00  0.00     0.162 A 
ATOM     11  C   LIG d   1       4.932  -0.901  -5.172  0.00  0.00     0.162 A 
ATOM     12  C   LIG d   1       5.252  -2.164  -4.692  0.00  0.00    -0.012 A 
ATOM     13  H   LIG d   1       4.627  -5.094  -4.284  0.00  0.00     0.036 H 
ATOM     14  H   LIG d   1       6.219  -4.999  -5.111  0.00  0.00     0.036 H 
ATOM     15  H   LIG d   1       3.479  -1.778  -8.099  0.00  0.00     0.066 H 
ATOM     16  H   LIG d   1       5.748  -2.270  -3.739  0.00  0.00     0.066 H 
ENDROOT
BRANCH   4  17
ATOM     17  C   LIG d   1       4.668  -8.026  -6.484  0.00  0.00     0.265 C 
ATOM     18  O   LIG d   1       4.793  -8.967  -7.243  0.00  0.00    -0.268 OA
ATOM     19  N   LIG d   1       4.849  -8.198  -5.160  0.00  0.00    -0.299 N 
ATOM     20  H   LIG d   1       4.737  -7.346  -4.473  0.00  0.00     0.150 HD
BRANCH  19  21
ATOM     21  C   LIG d   1       5.196  -9.522  -4.635  0.00  0.00     0.109 C 
ATOM     22  H   LIG d   1       5.046 -10.278  -5.419  0.00  0.00     0.058 H 
ATOM     23  H   LIG d   1       6.250  -9.527  -4.318  0.00  0.00     0.058 H 
BRANCH  21  24
ATOM     24  C   LIG d   1       4.315  -9.840  -3.454  0.00  0.00     0.324 C 
ATOM     25  O   LIG d   1       3.168  -9.460  -3.437  0.00  0.00    -0.249 OA
BRANCH  24  26
ATOM     26  O   LIG d   1       4.805 -10.543  -2.422  0.00  0.00    -0.467 OA
BRANCH  26  27
ATOM     27  C   LIG d   1       6.145 -10.210  -1.974  0.00  0.00     0.082 C 
ATOM     28  H   LIG d   1       6.837 -11.019  -2.253  0.00  0.00     0.066 H 
ATOM     29  H   LIG d   1       6.147 -10.088  -0.881  0.00  0.00     0.066 H 
ATOM     30  H   LIG d   1       6.469  -9.272  -2.448  0.00  0.00     0.066 H 
ENDBRANCH  26  27
ENDBRANCH  24  26
ENDBRANCH  21  24
ENDBRANCH  19  21
ENDBRANCH   4  17
BRANCH   1  31
ATOM     31  C   LIG d   1       2.931  -4.534  -9.474  0.00  0.00     0.031 C 
ATOM     32  H   LIG d   1       3.616  -4.579 -10.334  0.00  0.00     0.047 H 
ATOM     33  H   LIG d   1       2.705  -3.484  -9.238  0.00  0.00     0.047 H 
ATOM     34  H   LIG d   1       1.999  -5.064  -9.720  0.00  0.00     0.047 H 
ENDBRANCH   1  31
BRANCH  10  35
ATOM     35  O   LIG d   1       3.981   0.472  -6.871  0.00  0.00    -0.491 OA
BRANCH  35  36
ATOM     36  C   LIG d   1       2.967   0.548  -7.876  0.00  0.00     0.079 C 
ATOM     37  H   LIG d   1       3.259  -0.070  -8.738  0.00  0.00     0.066 H 
ATOM     38  H   LIG d   1       2.849   1.593  -8.197  0.00  0.00     0.066 H 
ATOM     39  H   LIG d   1       2.016   0.180  -7.465  0.00  0.00     0.066 H 
ENDBRANCH  35  36
ENDBRANCH  10  35
BRANCH  11  40
ATOM     40  O   LIG d   1       5.244   0.203  -4.441  0.00  0.00    -0.491 OA
BRANCH  40  41
ATOM     41  C   LIG d   1       6.263   0.058  -3.450  0.00  0.00     0.079 C 
ATOM     42  H   LIG d   1       5.997   0.650  -2.562  0.00  0.00     0.066 H 
ATOM     43  H   LIG d   1       7.221   0.414  -3.853  0.00  0.00     0.066 H 
ATOM     44  H   LIG d   1       6.354  -1.003  -3.170  0.00  0.00     0.066 H 
ENDBRANCH  40  41
ENDBRANCH  11  40
TORSDOF 10
ENDMDL
MODEL 8
REMARK VINA RESULT:      -4.9      8.629     10.976
REMARK  10 active torsions:
REMARK  status: ('A' for Active; 'I' for Inactive)
REMARK    1  A    between atoms: C_1  and  N_2 
REMARK    2  A    between atoms: C_5  and  C_7 
REMARK       I    between atoms: C_7  and  N_9 
REMARK    3  A    between atoms: N_9  and  C_10 
REMARK    4  A    between atoms: C_10  and  C_11 
REMARK    5  A    between atoms: C_11  and  O_13 
REMARK    6  A    between atoms: O_13  and  C_14 
REMARK    7  A    between atoms: C_19  and  O_24 
REMARK    8  A    between atoms: C_20  and  O_22 
REMARK    9  A    between atoms: O_22  and  C_23 
REMARK   10  A    between atoms: O_24  and  C_25 
ROOT
ATOM      1  N   LIG d   1       9.974   4.105  -3.292  0.00  0.00    -0.266 N 
ATOM      2  C   LIG d   1       9.862   5.006  -4.312  0.00  0.00     0.073 A 
ATOM      3  C   LIG d   1       9.803   6.239  -3.735  0.00  0.00     0.015 A 
ATOM      4  C   LIG d   1       9.884   6.021  -2.347  0.00  0.00     0.151 A 
ATOM      5  N   LIG d   1       9.984   4.718  -2.163  0.00  0.00    -0.166 NA
ATOM      6  C   LIG d   1       9.685   7.265  -4.830  0.00  0.00     0.003 A 
ATOM      7  C   LIG d   1       9.673   6.483  -6.123  0.00  0.00    -0.030 A 
ATOM      8  C   LIG d   1       9.784   5.135  -5.784  0.00  0.00     0.007 A 
ATOM      9  C   LIG d   1       9.803   4.173  -6.798  0.00  0.00    -0.007 A 
ATOM     10  C   LIG d   1       9.713   4.562  -8.120  0.00  0.00     0.162 A 
ATOM     11  C   LIG d   1       9.603   5.912  -8.447  0.00  0.00     0.162 A 
ATOM     12  C   LIG d   1       9.584   6.869  -7.441  0.00  0.00    -0.012 A 
ATOM     13  H   LIG d   1       8.753   7.834  -4.700  0.00  0.00     0.036 H 
ATOM     14  H   LIG d   1      10.543   7.951  -4.785  0.00  0.00     0.036 H 
ATOM     15  H   LIG d   1       9.887   3.126  -6.547  0.00  0.00     0.066 H 
ATOM     16  H   LIG d   1       9.499   7.915  -7.693  0.00  0.00     0.066 H 
ENDROOT
BRANCH   4  17
ATOM     17  C   LIG d   1       9.863   7.057  -1.293  0.00  0.00     0.265 C 
ATOM     18  O   LIG d   1       8.816   7.599  -0.995  0.00  0.00    -0.268 OA
ATOM     19  N   LIG d   1      11.003   7.399  -0.661  0.00  0.00    -0.299 N 
ATOM     20  H   LIG d   1      11.950   6.909  -0.930  0.00  0.00     0.150 HD
BRANCH  19  21
ATOM     21  C   LIG d   1      10.981   8.426   0.384  0.00  0.00     0.109 C 
ATOM     22  H   LIG d   1      11.671   9.239   0.114  0.00  0.00     0.058 H 
ATOM     23  H   LIG d   1       9.962   8.829   0.481  0.00  0.00     0.058 H 
BRANCH  21  24
ATOM     24  C   LIG d   1      11.409   7.818   1.694  0.00  0.00     0.324 C 
ATOM     25  O   LIG d   1      11.347   6.622   1.854  0.00  0.00    -0.249 OA
BRANCH  24  26
ATOM     26  O   LIG d   1      11.857   8.605   2.684  0.00  0.00    -0.467 OA
BRANCH  26  27
ATOM     27  C   LIG d   1      12.300   9.938   2.318  0.00  0.00     0.082 C 
ATOM     28  H   LIG d   1      11.429  10.605   2.240  0.00  0.00     0.066 H 
ATOM     29  H   LIG d   1      12.820   9.899   1.350  0.00  0.00     0.066 H 
ATOM     30  H   LIG d   1      12.986  10.322   3.088  0.00  0.00     0.066 H 
ENDBRANCH  26  27
ENDBRANCH  24  26
ENDBRANCH  21  24
ENDBRANCH  19  21
ENDBRANCH   4  17
BRANCH   1  31
ATOM     31  C   LIG d   1      10.067   2.652  -3.460  0.00  0.00     0.031 C 
ATOM     32  H   LIG d   1       9.146   2.277  -3.931  0.00  0.00     0.047 H 
ATOM     33  H   LIG d   1      10.197   2.177  -2.476  0.00  0.00     0.047 H 
ATOM     34  H   LIG d   1      10.929   2.411  -4.099  0.00  0.00     0.047 H 
ENDBRANCH   1  31
BRANCH  10  35
ATOM     35  O   LIG d   1       9.732   3.626  -9.106  0.00  0.00    -0.491 OA
BRANCH  35  36
ATOM     36  C   LIG d   1       8.664   2.676  -9.118  0.00  0.00     0.079 C 
ATOM     37  H   LIG d   1       8.033   2.846 -10.004  0.00  0.00     0.066 H 
ATOM     38  H   LIG d   1       8.058   2.796  -8.208  0.00  0.00     0.066 H 
ATOM     39  H   LIG d   1       9.078   1.659  -9.152  0.00  0.00     0.066 H 
ENDBRANCH  35  36
ENDBRANCH  10  35
BRANCH  11  40
ATOM     40  O   LIG d   1       9.515   6.292  -9.749  0.00  0.00    -0.491 OA
BRANCH  40  41
ATOM     41  C   LIG d   1      10.489   7.227 -10.220  0.00  0.00     0.079 C 
ATOM     42  H   LIG d   1      10.039   7.867 -10.993  0.00  0.00     0.066 H 
ATOM     43  H   LIG d   1      11.343   6.683 -10.646  0.00  0.00     0.066 H 
ATOM     44  H   LIG d   1      10.832   7.851  -9.381  0.00  0.00     0.066 H 
ENDBRANCH  40  41
ENDBRANCH  11  40
TORSDOF 10
ENDMDL
MODEL 9
REMARK VINA RESULT:      -4.9      9.159     13.670
REMARK  10 active torsions:
REMARK  status: ('A' for Active; 'I' for Inactive)
REMARK    1  A    between atoms: C_1  and  N_2 
REMARK    2  A    between atoms: C_5  and  C_7 
REMARK       I    between atoms: C_7  and  N_9 
REMARK    3  A    between atoms: N_9  and  C_10 
REMARK    4  A    between atoms: C_10  and  C_11 
REMARK    5  A    between atoms: C_11  and  O_13 
REMARK    6  A    between atoms: O_13  and  C_14 
REMARK    7  A    between atoms: C_19  and  O_24 
REMARK    8  A    between atoms: C_20  and  O_22 
REMARK    9  A    between atoms: O_22  and  C_23 
REMARK   10  A    between atoms: O_24  and  C_25 
ROOT
ATOM      1  N   LIG d   1      10.025   9.142  -6.106  0.00  0.00    -0.266 N 
ATOM      2  C   LIG d   1       9.973   8.177  -5.141  0.00  0.00     0.073 A 
ATOM      3  C   LIG d   1       9.748   6.997  -5.785  0.00  0.00     0.015 A 
ATOM      4  C   LIG d   1       9.671   7.311  -7.154  0.00  0.00     0.151 A 
ATOM      5  N   LIG d   1       9.847   8.614  -7.265  0.00  0.00    -0.166 NA
ATOM      6  C   LIG d   1       9.690   5.903  -4.753  0.00  0.00     0.003 A 
ATOM      7  C   LIG d   1       9.899   6.585  -3.421  0.00  0.00    -0.030 A 
ATOM      8  C   LIG d   1      10.070   7.944  -3.683  0.00  0.00     0.007 A 
ATOM      9  C   LIG d   1      10.289   8.824  -2.620  0.00  0.00    -0.007 A 
ATOM     10  C   LIG d   1      10.336   8.345  -1.325  0.00  0.00     0.162 A 
ATOM     11  C   LIG d   1      10.165   6.985  -1.076  0.00  0.00     0.162 A 
ATOM     12  C   LIG d   1       9.947   6.109  -2.130  0.00  0.00    -0.012 A 
ATOM     13  H   LIG d   1       8.708   5.409  -4.797  0.00  0.00     0.036 H 
ATOM     14  H   LIG d   1      10.480   5.166  -4.954  0.00  0.00     0.036 H 
ATOM     15  H   LIG d   1      10.422   9.879  -2.811  0.00  0.00     0.066 H 
ATOM     16  H   LIG d   1       9.814   5.055  -1.938  0.00  0.00     0.066 H 
ENDROOT
BRANCH   4  17
ATOM     17  C   LIG d   1       9.439   6.360  -8.262  0.00  0.00     0.265 C 
ATOM     18  O   LIG d   1       9.856   5.222  -8.183  0.00  0.00    -0.268 OA
ATOM     19  N   LIG d   1       8.762   6.757  -9.358  0.00  0.00    -0.299 N 
ATOM     20  H   LIG d   1       8.384   7.787  -9.429  0.00  0.00     0.150 HD
BRANCH  19  21
ATOM     21  C   LIG d   1       8.532   5.814 -10.456  0.00  0.00     0.109 C 
ATOM     22  H   LIG d   1       9.025   4.858 -10.228  0.00  0.00     0.058 H 
ATOM     23  H   LIG d   1       7.451   5.648 -10.576  0.00  0.00     0.058 H 
BRANCH  21  24
ATOM     24  C   LIG d   1       9.098   6.381 -11.732  0.00  0.00     0.324 C 
ATOM     25  O   LIG d   1       8.678   6.002 -12.800  0.00  0.00    -0.249 OA
BRANCH  24  26
ATOM     26  O   LIG d   1      10.069   7.305 -11.682  0.00  0.00    -0.467 OA
BRANCH  26  27
ATOM     27  C   LIG d   1       9.864   8.519 -12.453  0.00  0.00     0.082 C 
ATOM     28  H   LIG d   1      10.461   9.334 -12.018  0.00  0.00     0.066 H 
ATOM     29  H   LIG d   1       8.799   8.792 -12.430  0.00  0.00     0.066 H 
ATOM     30  H   LIG d   1      10.178   8.351 -13.493  0.00  0.00     0.066 H 
ENDBRANCH  26  27
ENDBRANCH  24  26
ENDBRANCH  21  24
ENDBRANCH  19  21
ENDBRANCH   4  17
BRANCH   1  31
ATOM     31  C   LIG d   1      10.250  10.568  -5.857  0.00  0.00     0.031 C 
ATOM     32  H   LIG d   1       9.614  10.900  -5.022  0.00  0.00     0.047 H 
ATOM     33  H   LIG d   1       9.997  11.142  -6.761  0.00  0.00     0.047 H 
ATOM     34  H   LIG d   1      11.307  10.734  -5.601  0.00  0.00     0.047 H 
ENDBRANCH   1  31
BRANCH  10  35
ATOM     35  O   LIG d   1      10.550   9.202  -0.291  0.00  0.00    -0.491 OA
BRANCH  35  36
ATOM     36  C   LIG d   1       9.573  10.224  -0.084  0.00  0.00     0.079 C 
ATOM     37  H   LIG d   1       9.324  10.694  -1.048  0.00  0.00     0.066 H 
ATOM     38  H   LIG d   1       9.978  10.984   0.600  0.00  0.00     0.066 H 
ATOM     39  H   LIG d   1       8.667   9.782   0.353  0.00  0.00     0.066 H 
ENDBRANCH  35  36
ENDBRANCH  10  35
BRANCH  11  40
ATOM     40  O   LIG d   1      10.211   6.516   0.200  0.00  0.00    -0.491 OA
BRANCH  40  41
ATOM     41  C   LIG d   1      11.335   5.706   0.552  0.00  0.00     0.079 C 
ATOM     42  H   LIG d   1      12.260   6.289   0.430  0.00  0.00     0.066 H 
ATOM     43  H   LIG d   1      11.371   4.823  -0.101  0.00  0.00     0.066 H 
ATOM     44  H   LIG d   1      11.240   5.384   1.600  0.00  0.00     0.066 H 
ENDBRANCH  40  41
ENDBRANCH  11  40
TORSDOF 10
ENDMDL
MODEL 10
REMARK VINA RESULT:      -4.9      8.998     12.719
REMARK  10 active torsions:
REMARK  status: ('A' for Active; 'I' for Inactive)
REMARK    1  A    between atoms: C_1  and  N_2 
REMARK    2  A    between atoms: C_5  and  C_7 
REMARK       I    between atoms: C_7  and  N_9 
REMARK    3  A    between atoms: N_9  and  C_10 
REMARK    4  A    between atoms: C_10  and  C_11 
REMARK    5  A    between atoms: C_11  and  O_13 
REMARK    6  A    between atoms: O_13  and  C_14 
REMARK    7  A    between atoms: C_19  and  O_24 
REMARK    8  A    between atoms: C_20  and  O_22 
REMARK    9  A    between atoms: O_22  and  C_23 
REMARK   10  A    between atoms: O_24  and  C_25 
ROOT
ATOM      1  N   LIG d   1       9.816   9.363  -6.875  0.00  0.00    -0.266 N 
ATOM      2  C   LIG d   1       9.827   8.041  -6.532  0.00  0.00     0.073 A 
ATOM      3  C   LIG d   1       9.952   7.341  -7.694  0.00  0.00     0.015 A 
ATOM      4  C   LIG d   1      10.014   8.301  -8.721  0.00  0.00     0.151 A 
ATOM      5  N   LIG d   1       9.926   9.488  -8.149  0.00  0.00    -0.166 NA
ATOM      6  C   LIG d   1       9.973   5.874  -7.358  0.00  0.00     0.003 A 
ATOM      7  C   LIG d   1       9.837   5.797  -5.855  0.00  0.00    -0.030 A 
ATOM      8  C   LIG d   1       9.754   7.108  -5.387  0.00  0.00     0.007 A 
ATOM      9  C   LIG d   1       9.625   7.337  -4.014  0.00  0.00    -0.007 A 
ATOM     10  C   LIG d   1       9.581   6.271  -3.137  0.00  0.00     0.162 A 
ATOM     11  C   LIG d   1       9.664   4.966  -3.616  0.00  0.00     0.162 A 
ATOM     12  C   LIG d   1       9.793   4.736  -4.979  0.00  0.00    -0.012 A 
ATOM     13  H   LIG d   1       9.134   5.370  -7.861  0.00  0.00     0.036 H 
ATOM     14  H   LIG d   1      10.922   5.433  -7.697  0.00  0.00     0.036 H 
ATOM     15  H   LIG d   1       9.560   8.349  -3.640  0.00  0.00     0.066 H 
ATOM     16  H   LIG d   1       9.857   3.724  -5.352  0.00  0.00     0.066 H 
ENDROOT
BRANCH   4  17
ATOM     17  C   LIG d   1      10.151   8.032 -10.168  0.00  0.00     0.265 C 
ATOM     18  O   LIG d   1       9.957   8.923 -10.972  0.00  0.00    -0.268 OA
ATOM     19  N   LIG d   1      10.493   6.801 -10.594  0.00  0.00    -0.299 N 
ATOM     20  H   LIG d   1      10.670   5.995  -9.866  0.00  0.00     0.150 HD
BRANCH  19  21
ATOM     21  C   LIG d   1      10.630   6.534 -12.028  0.00  0.00     0.109 C 
ATOM     22  H   LIG d   1      10.466   7.465 -12.591  0.00  0.00     0.058 H 
ATOM     23  H   LIG d   1      11.641   6.154 -12.236  0.00  0.00     0.058 H 
BRANCH  21  24
ATOM     24  C   LIG d   1       9.610   5.507 -12.447  0.00  0.00     0.324 C 
ATOM     25  O   LIG d   1       9.750   4.351 -12.124  0.00  0.00    -0.249 OA
BRANCH  24  26
ATOM     26  O   LIG d   1       8.549   5.875 -13.180  0.00  0.00    -0.467 OA
BRANCH  26  27
ATOM     27  C   LIG d   1       8.558   5.508 -14.585  0.00  0.00     0.082 C 
ATOM     28  H   LIG d   1       7.660   5.912 -15.075  0.00  0.00     0.066 H 
ATOM     29  H   LIG d   1       8.566   4.413 -14.678  0.00  0.00     0.066 H 
ATOM     30  H   LIG d   1       9.456   5.924 -15.067  0.00  0.00     0.066 H 
ENDBRANCH  26  27
ENDBRANCH  24  26
ENDBRANCH  21  24
ENDBRANCH  19  21
ENDBRANCH   4  17
BRANCH   1  31
ATOM     31  C   LIG d   1       9.698  10.477  -5.929  0.00  0.00     0.031 C 
ATOM     32  H   LIG d   1      10.235  10.228  -5.001  0.00  0.00     0.047 H 
ATOM     33  H   LIG d   1       8.636  10.654  -5.702  0.00  0.00     0.047 H 
ATOM     34  H   LIG d   1      10.134  11.383  -6.373  0.00  0.00     0.047 H 
ENDBRANCH   1  31
BRANCH  10  35
ATOM     35  O   LIG d   1       9.455   6.496  -1.801  0.00  0.00    -0.491 OA
BRANCH  35  36
ATOM     36  C   LIG d   1       9.583   7.848  -1.356  0.00  0.00     0.079 C 
ATOM     37  H   LIG d   1      10.307   7.894  -0.529  0.00  0.00     0.066 H 
ATOM     38  H   LIG d   1       8.605   8.213  -1.008  0.00  0.00     0.066 H 
ATOM     39  H   LIG d   1       9.934   8.476  -2.187  0.00  0.00     0.066 H 
ENDBRANCH  35  36
ENDBRANCH  10  35
BRANCH  11  40
ATOM     40  O   LIG d   1       9.619   3.919  -2.750  0.00  0.00    -0.491 OA
BRANCH  40  41
ATOM     41  C   LIG d   1      10.576   2.874  -2.946  0.00  0.00     0.079 C 
ATOM     42  H   LIG d   1      11.008   2.958  -3.955  0.00  0.00     0.066 H 
ATOM     43  H   LIG d   1      10.081   1.899  -2.840  0.00  0.00     0.066 H 
ATOM     44  H   LIG d   1      11.375   2.964  -2.196  0.00  0.00     0.066 H 
ENDBRANCH  40  41
ENDBRANCH  11  40
TORSDOF 10
ENDMDL
