MODEL 1
REMARK VINA RESULT:      -6.0      0.000      0.000
REMARK  9 active torsions:
REMARK  status: ('A' for Active; 'I' for Inactive)
REMARK    1  A    between atoms: C_1  and  C_2 
REMARK    2  A    between atoms: C_9  and  O_39 
REMARK    3  A    between atoms: C_17  and  O_19 
REMARK    4  A    between atoms: C_21  and  C_26 
REMARK    5  A    between atoms: C_23  and  O_25 
REMARK    6  A    between atoms: C_26  and  C_27 
REMARK    7  A    between atoms: C_26  and  C_28 
REMARK    8  A    between atoms: C_26  and  C_29 
REMARK    9  A    between atoms: C_30  and  O_38 
ROOT
ATOM      1  C   LIG d   1       4.696  -0.052  -3.573  0.00  0.00     0.089 C 
ATOM      2  H   LIG d   1       4.769   0.712  -4.346  0.00  0.00     0.044 H 
ATOM      3  C   LIG d   1       3.307  -0.672  -3.591  0.00  0.00     0.313 C 
ATOM      4  O   LIG d   1       2.264  -0.104  -3.814  0.00  0.00    -0.250 OA
ATOM      5  O   LIG d   1       3.471  -1.985  -3.299  0.00  0.00    -0.455 OA
ATOM      6  C   LIG d   1       4.644  -2.428  -4.004  0.00  0.00     0.162 C 
ATOM      7  H   LIG d   1       5.044  -3.368  -3.619  0.00  0.00     0.079 H 
ATOM      8  C   LIG d   1       5.639  -1.239  -3.877  0.00  0.00     0.158 C 
ATOM      9  C   LIG d   1       6.292  -1.063  -5.244  0.00  0.00     0.214 C 
ATOM     10  C   LIG d   1       7.739  -1.463  -5.265  0.00  0.00     0.344 C 
ATOM     11  O   LIG d   1       8.672  -0.710  -5.120  0.00  0.00    -0.247 OA
ATOM     12  O   LIG d   1       7.820  -2.781  -5.506  0.00  0.00    -0.456 OA
ATOM     13  C   LIG d   1       6.680  -3.249  -6.244  0.00  0.00     0.141 C 
ATOM     14  H   LIG d   1       6.302  -4.198  -5.843  0.00  0.00     0.077 H 
ATOM     15  C   LIG d   1       5.636  -2.117  -6.180  0.00  0.00     0.097 C 
ATOM     16  C   LIG d   1       4.326  -2.495  -5.523  0.00  0.00     0.108 C 
ATOM     17  H   LIG d   1       3.534  -1.803  -5.785  0.00  0.00     0.064 H 
ATOM     18  C   LIG d   1       5.618  -1.426  -7.540  0.00  0.00     0.090 C 
ATOM     19  C   LIG d   1       6.901  -1.883  -8.239  0.00  0.00     0.009 C 
ATOM     20  H   LIG d   1       7.747  -1.287  -7.877  0.00  0.00     0.034 H 
ATOM     21  C   LIG d   1       7.059  -3.349  -7.745  0.00  0.00     0.097 C 
ATOM     22  H   LIG d   1       8.087  -3.690  -7.867  0.00  0.00     0.063 H 
ATOM     23  C   LIG d   1       4.324  -1.522  -8.308  0.00  0.00     0.164 C 
ATOM     24  H   LIG d   1       4.451  -1.351  -9.378  0.00  0.00     0.072 H 
ATOM     25  C   LIG d   1       3.528  -0.346  -7.741  0.00  0.00     0.339 C 
ATOM     26  O   LIG d   1       2.341  -0.310  -7.564  0.00  0.00    -0.248 OA
ATOM     27  O   LIG d   1       4.413   0.630  -7.473  0.00  0.00    -0.432 OA
ATOM     28  C   LIG d   1       5.713   0.094  -7.204  0.00  0.00     0.216 C 
ATOM     29  H   LIG d   1       6.474   0.572  -7.835  0.00  0.00     0.106 H 
ATOM     30  O   LIG d   1       6.034   0.209  -5.816  0.00  0.00    -0.319 OA
ENDROOT
BRANCH  19  31
ATOM     31  C   LIG d   1       6.826  -1.821  -9.759  0.00  0.00    -0.032 C 
BRANCH  31  32
ATOM     32  C   LIG d   1       6.668  -0.366 -10.202  0.00  0.00    -0.060 C 
ATOM     33  H   LIG d   1       5.609  -0.115 -10.257  0.00  0.00     0.024 H 
ATOM     34  H   LIG d   1       7.158   0.289  -9.482  0.00  0.00     0.024 H 
ATOM     35  H   LIG d   1       7.124  -0.233 -11.183  0.00  0.00     0.024 H 
ENDBRANCH  31  32
BRANCH  31  36
ATOM     36  C   LIG d   1       8.110  -2.399 -10.356  0.00  0.00    -0.060 C 
ATOM     37  H   LIG d   1       8.674  -1.605 -10.845  0.00  0.00     0.024 H 
ATOM     38  H   LIG d   1       8.716  -2.836  -9.561  0.00  0.00     0.024 H 
ATOM     39  H   LIG d   1       7.857  -3.168 -11.085  0.00  0.00     0.024 H 
ENDBRANCH  31  36
BRANCH  31  40
ATOM     40  C   LIG d   1       5.626  -2.636 -10.244  0.00  0.00    -0.060 C 
ATOM     41  H   LIG d   1       5.033  -2.954  -9.386  0.00  0.00     0.024 H 
ATOM     42  H   LIG d   1       5.012  -2.022 -10.903  0.00  0.00     0.024 H 
ATOM     43  H   LIG d   1       5.978  -3.514 -10.788  0.00  0.00     0.024 H 
ENDBRANCH  31  40
ENDBRANCH  19  31
BRANCH  21  44
ATOM     44  O   LIG d   1       6.154  -4.211  -8.434  0.00  0.00    -0.388 OA
ATOM     45  H   LIG d   1       6.563  -5.017  -8.779  0.00  0.00     0.210 HD
ENDBRANCH  21  44
BRANCH  23  46
ATOM     46  O   LIG d   1       3.638  -2.749  -8.100  0.00  0.00    -0.380 OA
ATOM     47  H   LIG d   1       3.799  -3.410  -8.787  0.00  0.00     0.210 HD
ENDBRANCH  23  46
BRANCH  16  48
ATOM     48  O   LIG d   1       3.967  -3.844  -5.862  0.00  0.00    -0.387 OA
ATOM     49  H   LIG d   1       4.481  -4.216  -6.591  0.00  0.00     0.210 HD
ENDBRANCH  16  48
BRANCH   8  50
ATOM     50  O   LIG d   1       6.602  -1.439  -2.837  0.00  0.00    -0.381 OA
ATOM     51  H   LIG d   1       6.645  -2.348  -2.511  0.00  0.00     0.210 HD
ENDBRANCH   8  50
BRANCH   1  52
ATOM     52  C   LIG d   1       5.005   0.545  -2.198  0.00  0.00    -0.049 C 
ATOM     53  H   LIG d   1       5.836   0.004  -1.745  0.00  0.00     0.024 H 
ATOM     54  H   LIG d   1       5.273   1.596  -2.310  0.00  0.00     0.024 H 
ATOM     55  H   LIG d   1       4.125   0.460  -1.560  0.00  0.00     0.024 H 
ENDBRANCH   1  52
TORSDOF 9
ENDMDL
MODEL 2
REMARK VINA RESULT:      -6.0      1.324      5.617
REMARK  9 active torsions:
REMARK  status: ('A' for Active; 'I' for Inactive)
REMARK    1  A    between atoms: C_1  and  C_2 
REMARK    2  A    between atoms: C_9  and  O_39 
REMARK    3  A    between atoms: C_17  and  O_19 
REMARK    4  A    between atoms: C_21  and  C_26 
REMARK    5  A    between atoms: C_23  and  O_25 
REMARK    6  A    between atoms: C_26  and  C_27 
REMARK    7  A    between atoms: C_26  and  C_28 
REMARK    8  A    between atoms: C_26  and  C_29 
REMARK    9  A    between atoms: C_30  and  O_38 
ROOT
ATOM      1  C   LIG d   1       7.373  -2.398  -8.562  0.00  0.00     0.089 C 
ATOM      2  H   LIG d   1       8.024  -1.897  -7.848  0.00  0.00     0.044 H 
ATOM      3  C   LIG d   1       7.213  -3.860  -8.175  0.00  0.00     0.313 C 
ATOM      4  O   LIG d   1       8.060  -4.580  -7.700  0.00  0.00    -0.250 OA
ATOM      5  O   LIG d   1       5.935  -4.198  -8.476  0.00  0.00    -0.455 OA
ATOM      6  C   LIG d   1       5.107  -3.088  -8.090  0.00  0.00     0.162 C 
ATOM      7  H   LIG d   1       4.116  -3.115  -8.549  0.00  0.00     0.079 H 
ATOM      8  C   LIG d   1       5.935  -1.834  -8.491  0.00  0.00     0.158 C 
ATOM      9  C   LIG d   1       5.811  -0.838  -7.342  0.00  0.00     0.214 C 
ATOM     10  C   LIG d   1       4.982   0.365  -7.688  0.00  0.00     0.344 C 
ATOM     11  O   LIG d   1       5.418   1.421  -8.083  0.00  0.00    -0.247 OA
ATOM     12  O   LIG d   1       3.691   0.083  -7.453  0.00  0.00    -0.456 OA
ATOM     13  C   LIG d   1       3.552  -0.922  -6.437  0.00  0.00     0.141 C 
ATOM     14  H   LIG d   1       2.794  -1.669  -6.710  0.00  0.00     0.077 H 
ATOM     15  C   LIG d   1       4.953  -1.536  -6.250  0.00  0.00     0.097 C 
ATOM     16  C   LIG d   1       5.043  -3.020  -6.539  0.00  0.00     0.108 C 
ATOM     17  H   LIG d   1       5.926  -3.461  -6.094  0.00  0.00     0.064 H 
ATOM     18  C   LIG d   1       5.525  -0.994  -4.944  0.00  0.00     0.090 C 
ATOM     19  C   LIG d   1       4.649   0.211  -4.592  0.00  0.00     0.009 C 
ATOM     20  H   LIG d   1       4.976   1.083  -5.171  0.00  0.00     0.034 H 
ATOM     21  C   LIG d   1       3.242  -0.231  -5.084  0.00  0.00     0.097 C 
ATOM     22  H   LIG d   1       2.592   0.633  -5.225  0.00  0.00     0.063 H 
ATOM     23  C   LIG d   1       5.784  -2.017  -3.866  0.00  0.00     0.164 C 
ATOM     24  H   LIG d   1       5.838  -1.578  -2.869  0.00  0.00     0.072 H 
ATOM     25  C   LIG d   1       7.183  -2.516  -4.229  0.00  0.00     0.339 C 
ATOM     26  O   LIG d   1       7.596  -3.635  -4.095  0.00  0.00    -0.248 OA
ATOM     27  O   LIG d   1       7.853  -1.465  -4.734  0.00  0.00    -0.432 OA
ATOM     28  C   LIG d   1       6.959  -0.511  -5.320  0.00  0.00     0.216 C 
ATOM     29  H   LIG d   1       7.137   0.493  -4.915  0.00  0.00     0.106 H 
ATOM     30  O   LIG d   1       7.060  -0.530  -6.746  0.00  0.00    -0.319 OA
ENDROOT
BRANCH  19  31
ATOM     31  C   LIG d   1       4.632   0.542  -3.106  0.00  0.00    -0.032 C 
BRANCH  31  32
ATOM     32  C   LIG d   1       4.319  -0.723  -2.305  0.00  0.00    -0.060 C 
ATOM     33  H   LIG d   1       3.645  -1.359  -2.878  0.00  0.00     0.024 H 
ATOM     34  H   LIG d   1       5.244  -1.263  -2.104  0.00  0.00     0.024 H 
ATOM     35  H   LIG d   1       3.847  -0.448  -1.362  0.00  0.00     0.024 H 
ENDBRANCH  31  32
BRANCH  31  36
ATOM     36  C   LIG d   1       6.000   1.085  -2.689  0.00  0.00    -0.060 C 
ATOM     37  H   LIG d   1       5.877   2.063  -2.222  0.00  0.00     0.024 H 
ATOM     38  H   LIG d   1       6.461   0.399  -1.978  0.00  0.00     0.024 H 
ATOM     39  H   LIG d   1       6.637   1.180  -3.568  0.00  0.00     0.024 H 
ENDBRANCH  31  36
BRANCH  31  40
ATOM     40  C   LIG d   1       3.559   1.598  -2.832  0.00  0.00    -0.060 C 
ATOM     41  H   LIG d   1       2.594   1.236  -3.188  0.00  0.00     0.024 H 
ATOM     42  H   LIG d   1       3.503   1.790  -1.760  0.00  0.00     0.024 H 
ATOM     43  H   LIG d   1       3.815   2.521  -3.353  0.00  0.00     0.024 H 
ENDBRANCH  31  40
ENDBRANCH  19  31
BRANCH  21  44
ATOM     44  O   LIG d   1       2.659  -1.159  -4.170  0.00  0.00    -0.388 OA
ATOM     45  H   LIG d   1       1.891  -1.631  -4.522  0.00  0.00     0.210 HD
ENDBRANCH  21  44
BRANCH  23  46
ATOM     46  O   LIG d   1       4.846  -3.084  -3.868  0.00  0.00    -0.380 OA
ATOM     47  H   LIG d   1       4.980  -3.724  -4.580  0.00  0.00     0.210 HD
ENDBRANCH  23  46
BRANCH  16  48
ATOM     48  O   LIG d   1       3.852  -3.689  -6.095  0.00  0.00    -0.387 OA
ATOM     49  H   LIG d   1       3.842  -3.888  -5.149  0.00  0.00     0.210 HD
ENDBRANCH  16  48
BRANCH   8  50
ATOM     50  O   LIG d   1       5.515  -1.276  -9.740  0.00  0.00    -0.381 OA
ATOM     51  H   LIG d   1       6.184  -0.728 -10.172  0.00  0.00     0.210 HD
ENDBRANCH   8  50
BRANCH   1  52
ATOM     52  C   LIG d   1       7.933  -2.272  -9.980  0.00  0.00    -0.049 C 
ATOM     53  H   LIG d   1       8.123  -1.221 -10.204  0.00  0.00     0.024 H 
ATOM     54  H   LIG d   1       8.865  -2.832 -10.054  0.00  0.00     0.024 H 
ATOM     55  H   LIG d   1       7.212  -2.670 -10.693  0.00  0.00     0.024 H 
ENDBRANCH   1  52
TORSDOF 9
ENDMDL
MODEL 3
REMARK VINA RESULT:      -5.8      1.616      3.188
REMARK  9 active torsions:
REMARK  status: ('A' for Active; 'I' for Inactive)
REMARK    1  A    between atoms: C_1  and  C_2 
REMARK    2  A    between atoms: C_9  and  O_39 
REMARK    3  A    between atoms: C_17  and  O_19 
REMARK    4  A    between atoms: C_21  and  C_26 
REMARK    5  A    between atoms: C_23  and  O_25 
REMARK    6  A    between atoms: C_26  and  C_27 
REMARK    7  A    between atoms: C_26  and  C_28 
REMARK    8  A    between atoms: C_26  and  C_29 
REMARK    9  A    between atoms: C_30  and  O_38 
ROOT
ATOM      1  C   LIG d   1       5.063  -0.753  -3.043  0.00  0.00     0.089 C 
ATOM      2  H   LIG d   1       6.146  -0.860  -3.064  0.00  0.00     0.044 H 
ATOM      3  C   LIG d   1       4.685   0.706  -3.256  0.00  0.00     0.313 C 
ATOM      4  O   LIG d   1       5.279   1.675  -2.844  0.00  0.00    -0.250 OA
ATOM      5  O   LIG d   1       3.547   0.702  -3.993  0.00  0.00    -0.455 OA
ATOM      6  C   LIG d   1       3.696  -0.326  -4.988  0.00  0.00     0.162 C 
ATOM      7  H   LIG d   1       2.747  -0.624  -5.439  0.00  0.00     0.079 H 
ATOM      8  C   LIG d   1       4.411  -1.486  -4.237  0.00  0.00     0.158 C 
ATOM      9  C   LIG d   1       5.481  -2.027  -5.179  0.00  0.00     0.214 C 
ATOM     10  C   LIG d   1       5.166  -3.394  -5.712  0.00  0.00     0.344 C 
ATOM     11  O   LIG d   1       5.563  -4.434  -5.241  0.00  0.00    -0.247 OA
ATOM     12  O   LIG d   1       4.405  -3.266  -6.810  0.00  0.00    -0.456 OA
ATOM     13  C   LIG d   1       4.637  -2.008  -7.462  0.00  0.00     0.141 C 
ATOM     14  H   LIG d   1       3.697  -1.538  -7.780  0.00  0.00     0.077 H 
ATOM     15  C   LIG d   1       5.424  -1.144  -6.457  0.00  0.00     0.097 C 
ATOM     16  C   LIG d   1       4.737   0.139  -6.044  0.00  0.00     0.108 C 
ATOM     17  H   LIG d   1       5.436   0.847  -5.615  0.00  0.00     0.064 H 
ATOM     18  C   LIG d   1       6.875  -1.097  -6.925  0.00  0.00     0.090 C 
ATOM     19  C   LIG d   1       7.006  -2.231  -7.944  0.00  0.00     0.009 C 
ATOM     20  H   LIG d   1       7.141  -3.183  -7.417  0.00  0.00     0.034 H 
ATOM     21  C   LIG d   1       5.618  -2.227  -8.644  0.00  0.00     0.097 C 
ATOM     22  H   LIG d   1       5.430  -3.181  -9.137  0.00  0.00     0.063 H 
ATOM     23  C   LIG d   1       7.396   0.264  -7.314  0.00  0.00     0.164 C 
ATOM     24  H   LIG d   1       8.271   0.215  -7.964  0.00  0.00     0.072 H 
ATOM     25  C   LIG d   1       7.849   0.830  -5.968  0.00  0.00     0.339 C 
ATOM     26  O   LIG d   1       7.788   1.978  -5.623  0.00  0.00    -0.248 OA
ATOM     27  O   LIG d   1       8.317  -0.205  -5.248  0.00  0.00    -0.432 OA
ATOM     28  C   LIG d   1       7.705  -1.436  -5.649  0.00  0.00     0.216 C 
ATOM     29  H   LIG d   1       8.464  -2.194  -5.883  0.00  0.00     0.106 H 
ATOM     30  O   LIG d   1       6.792  -1.898  -4.651  0.00  0.00    -0.319 OA
ENDROOT
BRANCH  19  31
ATOM     31  C   LIG d   1       8.129  -2.025  -8.951  0.00  0.00    -0.032 C 
BRANCH  31  32
ATOM     32  C   LIG d   1       9.473  -2.014  -8.221  0.00  0.00    -0.060 C 
ATOM     33  H   LIG d   1       9.882  -1.004  -8.225  0.00  0.00     0.024 H 
ATOM     34  H   LIG d   1       9.330  -2.343  -7.191  0.00  0.00     0.024 H 
ATOM     35  H   LIG d   1      10.166  -2.689  -8.724  0.00  0.00     0.024 H 
ENDBRANCH  31  32
BRANCH  31  36
ATOM     36  C   LIG d   1       8.113  -3.162  -9.973  0.00  0.00    -0.060 C 
ATOM     37  H   LIG d   1       7.110  -3.587 -10.029  0.00  0.00     0.024 H 
ATOM     38  H   LIG d   1       8.398  -2.776 -10.952  0.00  0.00     0.024 H 
ATOM     39  H   LIG d   1       8.818  -3.935  -9.668  0.00  0.00     0.024 H 
ENDBRANCH  31  36
BRANCH  31  40
ATOM     40  C   LIG d   1       7.929  -0.690  -9.671  0.00  0.00    -0.060 C 
ATOM     41  H   LIG d   1       7.952  -0.851 -10.748  0.00  0.00     0.024 H 
ATOM     42  H   LIG d   1       6.967  -0.264  -9.387  0.00  0.00     0.024 H 
ATOM     43  H   LIG d   1       8.727  -0.001  -9.390  0.00  0.00     0.024 H 
ENDBRANCH  31  40
ENDBRANCH  19  31
BRANCH  21  44
ATOM     44  O   LIG d   1       5.529  -1.149  -9.576  0.00  0.00    -0.388 OA
ATOM     45  H   LIG d   1       5.466  -1.430 -10.499  0.00  0.00     0.210 HD
ENDBRANCH  21  44
BRANCH  23  46
ATOM     46  O   LIG d   1       6.407   1.094  -7.909  0.00  0.00    -0.380 OA
ATOM     47  H   LIG d   1       6.279   0.937  -8.854  0.00  0.00     0.210 HD
ENDBRANCH  23  46
BRANCH  16  48
ATOM     48  O   LIG d   1       4.038   0.715  -7.160  0.00  0.00    -0.387 OA
ATOM     49  H   LIG d   1       4.054   1.682  -7.177  0.00  0.00     0.210 HD
ENDBRANCH  16  48
BRANCH   8  50
ATOM     50  O   LIG d   1       3.500  -2.504  -3.809  0.00  0.00    -0.381 OA
ATOM     51  H   LIG d   1       3.274  -2.462  -2.870  0.00  0.00     0.210 HD
ENDBRANCH   8  50
BRANCH   1  52
ATOM     52  C   LIG d   1       4.499  -1.269  -1.717  0.00  0.00    -0.049 C 
ATOM     53  H   LIG d   1       3.770  -2.056  -1.914  0.00  0.00     0.024 H 
ATOM     54  H   LIG d   1       5.310  -1.669  -1.108  0.00  0.00     0.024 H 
ATOM     55  H   LIG d   1       4.014  -0.451  -1.186  0.00  0.00     0.024 H 
ENDBRANCH   1  52
TORSDOF 9
ENDMDL
MODEL 4
REMARK VINA RESULT:      -5.7      9.744     11.785
REMARK  9 active torsions:
REMARK  status: ('A' for Active; 'I' for Inactive)
REMARK    1  A    between atoms: C_1  and  C_2 
REMARK    2  A    between atoms: C_9  and  O_39 
REMARK    3  A    between atoms: C_17  and  O_19 
REMARK    4  A    between atoms: C_21  and  C_26 
REMARK    5  A    between atoms: C_23  and  O_25 
REMARK    6  A    between atoms: C_26  and  C_27 
REMARK    7  A    between atoms: C_26  and  C_28 
REMARK    8  A    between atoms: C_26  and  C_29 
REMARK    9  A    between atoms: C_30  and  O_38 
ROOT
ATOM      1  C   LIG d   1      11.772  10.398  -0.584  0.00  0.00     0.089 C 
ATOM      2  H   LIG d   1      12.349  10.341  -1.505  0.00  0.00     0.044 H 
ATOM      3  C   LIG d   1      10.371  10.908  -0.884  0.00  0.00     0.313 C 
ATOM      4  O   LIG d   1      10.065  11.743  -1.703  0.00  0.00    -0.250 OA
ATOM      5  O   LIG d   1       9.536  10.246  -0.047  0.00  0.00    -0.455 OA
ATOM      6  C   LIG d   1       9.985   8.882   0.002  0.00  0.00     0.162 C 
ATOM      7  H   LIG d   1       9.587   8.331   0.857  0.00  0.00     0.079 H 
ATOM      8  C   LIG d   1      11.538   8.990   0.010  0.00  0.00     0.158 C 
ATOM      9  C   LIG d   1      12.059   7.917  -0.942  0.00  0.00     0.214 C 
ATOM     10  C   LIG d   1      12.753   6.788  -0.238  0.00  0.00     0.344 C 
ATOM     11  O   LIG d   1      13.946   6.705  -0.062  0.00  0.00    -0.247 OA
ATOM     12  O   LIG d   1      11.837   5.878   0.128  0.00  0.00    -0.456 OA
ATOM     13  C   LIG d   1      10.689   5.915  -0.735  0.00  0.00     0.141 C 
ATOM     14  H   LIG d   1       9.753   5.851  -0.164  0.00  0.00     0.077 H 
ATOM     15  C   LIG d   1      10.806   7.221  -1.543  0.00  0.00     0.097 C 
ATOM     16  C   LIG d   1       9.661   8.193  -1.353  0.00  0.00     0.108 C 
ATOM     17  H   LIG d   1       9.615   8.919  -2.156  0.00  0.00     0.064 H 
ATOM     18  C   LIG d   1      11.245   6.853  -2.957  0.00  0.00     0.090 C 
ATOM     19  C   LIG d   1      11.760   5.415  -2.855  0.00  0.00     0.009 C 
ATOM     20  H   LIG d   1      12.786   5.420  -2.470  0.00  0.00     0.034 H 
ATOM     21  C   LIG d   1      10.817   4.786  -1.791  0.00  0.00     0.097 C 
ATOM     22  H   LIG d   1      11.265   3.892  -1.356  0.00  0.00     0.063 H 
ATOM     23  C   LIG d   1      10.262   7.174  -4.055  0.00  0.00     0.164 C 
ATOM     24  H   LIG d   1      10.432   6.592  -4.962  0.00  0.00     0.072 H 
ATOM     25  C   LIG d   1      10.599   8.632  -4.369  0.00  0.00     0.339 C 
ATOM     26  O   LIG d   1       9.822   9.487  -4.696  0.00  0.00    -0.248 OA
ATOM     27  O   LIG d   1      11.926   8.770  -4.201  0.00  0.00    -0.432 OA
ATOM     28  C   LIG d   1      12.432   7.818  -3.258  0.00  0.00     0.216 C 
ATOM     29  H   LIG d   1      13.276   7.257  -3.681  0.00  0.00     0.106 H 
ATOM     30  O   LIG d   1      12.789   8.459  -2.031  0.00  0.00    -0.319 OA
ENDROOT
BRANCH  19  31
ATOM     31  C   LIG d   1      11.695   4.646  -4.168  0.00  0.00    -0.032 C 
BRANCH  31  32
ATOM     32  C   LIG d   1      12.626   5.303  -5.189  0.00  0.00    -0.060 C 
ATOM     33  H   LIG d   1      13.661   5.073  -4.939  0.00  0.00     0.024 H 
ATOM     34  H   LIG d   1      12.400   4.921  -6.185  0.00  0.00     0.024 H 
ATOM     35  H   LIG d   1      12.479   6.383  -5.173  0.00  0.00     0.024 H 
ENDBRANCH  31  32
BRANCH  31  36
ATOM     36  C   LIG d   1      12.135   3.200  -3.933  0.00  0.00    -0.060 C 
ATOM     37  H   LIG d   1      12.165   2.998  -2.862  0.00  0.00     0.024 H 
ATOM     38  H   LIG d   1      11.425   2.523  -4.410  0.00  0.00     0.024 H 
ATOM     39  H   LIG d   1      13.126   3.048  -4.360  0.00  0.00     0.024 H 
ENDBRANCH  31  36
BRANCH  31  40
ATOM     40  C   LIG d   1      10.261   4.664  -4.699  0.00  0.00    -0.060 C 
ATOM     41  H   LIG d   1      10.213   5.286  -5.593  0.00  0.00     0.024 H 
ATOM     42  H   LIG d   1       9.952   3.648  -4.945  0.00  0.00     0.024 H 
ATOM     43  H   LIG d   1       9.595   5.072  -3.937  0.00  0.00     0.024 H 
ENDBRANCH  31  40
ENDBRANCH  19  31
BRANCH  21  44
ATOM     44  O   LIG d   1       9.543   4.488  -2.362  0.00  0.00    -0.388 OA
ATOM     45  H   LIG d   1       8.795   4.849  -1.866  0.00  0.00     0.210 HD
ENDBRANCH  21  44
BRANCH  23  46
ATOM     46  O   LIG d   1       8.906   7.040  -3.651  0.00  0.00    -0.380 OA
ATOM     47  H   LIG d   1       8.778   7.056  -2.692  0.00  0.00     0.210 HD
ENDBRANCH  23  46
BRANCH  16  48
ATOM     48  O   LIG d   1       8.418   7.484  -1.226  0.00  0.00    -0.387 OA
ATOM     49  H   LIG d   1       8.437   6.590  -1.592  0.00  0.00     0.210 HD
ENDBRANCH  16  48
BRANCH   8  50
ATOM     50  O   LIG d   1      12.088   8.862   1.325  0.00  0.00    -0.381 OA
ATOM     51  H   LIG d   1      13.003   9.166   1.399  0.00  0.00     0.210 HD
ENDBRANCH   8  50
BRANCH   1  52
ATOM     52  C   LIG d   1      12.472  11.303   0.432  0.00  0.00    -0.049 C 
ATOM     53  H   LIG d   1      12.016  12.294   0.410  0.00  0.00     0.024 H 
ATOM     54  H   LIG d   1      12.368  10.878   1.430  0.00  0.00     0.024 H 
ATOM     55  H   LIG d   1      13.529  11.384   0.180  0.00  0.00     0.024 H 
ENDBRANCH   1  52
TORSDOF 9
ENDMDL
MODEL 5
REMARK VINA RESULT:      -5.7     11.174     13.555
REMARK  9 active torsions:
REMARK  status: ('A' for Active; 'I' for Inactive)
REMARK    1  A    between atoms: C_1  and  C_2 
REMARK    2  A    between atoms: C_9  and  O_39 
REMARK    3  A    between atoms: C_17  and  O_19 
REMARK    4  A    between atoms: C_21  and  C_26 
REMARK    5  A    between atoms: C_23  and  O_25 
REMARK    6  A    between atoms: C_26  and  C_27 
REMARK    7  A    between atoms: C_26  and  C_28 
REMARK    8  A    between atoms: C_26  and  C_29 
REMARK    9  A    between atoms: C_30  and  O_38 
ROOT
ATOM      1  C   LIG d   1      12.439   6.845  -0.523  0.00  0.00     0.089 C 
ATOM      2  H   LIG d   1      13.089   7.711  -0.416  0.00  0.00     0.044 H 
ATOM      3  C   LIG d   1      11.387   6.850   0.576  0.00  0.00     0.313 C 
ATOM      4  O   LIG d   1      11.539   7.206   1.722  0.00  0.00    -0.250 OA
ATOM      5  O   LIG d   1      10.249   6.370   0.019  0.00  0.00    -0.455 OA
ATOM      6  C   LIG d   1      10.153   6.943  -1.296  0.00  0.00     0.162 C 
ATOM      7  H   LIG d   1       9.453   6.409  -1.944  0.00  0.00     0.079 H 
ATOM      8  C   LIG d   1      11.615   6.929  -1.828  0.00  0.00     0.158 C 
ATOM      9  C   LIG d   1      11.845   8.271  -2.517  0.00  0.00     0.214 C 
ATOM     10  C   LIG d   1      11.959   8.159  -4.009  0.00  0.00     0.344 C 
ATOM     11  O   LIG d   1      12.995   8.070  -4.625  0.00  0.00    -0.247 OA
ATOM     12  O   LIG d   1      10.728   8.208  -4.542  0.00  0.00    -0.456 OA
ATOM     13  C   LIG d   1       9.822   8.935  -3.697  0.00  0.00     0.141 C 
ATOM     14  H   LIG d   1       8.852   8.426  -3.614  0.00  0.00     0.077 H 
ATOM     15  C   LIG d   1      10.533   9.084  -2.338  0.00  0.00     0.097 C 
ATOM     16  C   LIG d   1       9.811   8.453  -1.167  0.00  0.00     0.108 C 
ATOM     17  H   LIG d   1      10.159   8.851  -0.221  0.00  0.00     0.064 H 
ATOM     18  C   LIG d   1      11.018  10.526  -2.226  0.00  0.00     0.090 C 
ATOM     19  C   LIG d   1      10.946  11.085  -3.649  0.00  0.00     0.009 C 
ATOM     20  H   LIG d   1      11.830  10.765  -4.213  0.00  0.00     0.034 H 
ATOM     21  C   LIG d   1       9.686  10.384  -4.231  0.00  0.00     0.097 C 
ATOM     22  H   LIG d   1       9.702  10.403  -5.322  0.00  0.00     0.063 H 
ATOM     23  C   LIG d   1      10.403  11.342  -1.116  0.00  0.00     0.164 C 
ATOM     24  H   LIG d   1      10.485  12.417  -1.283  0.00  0.00     0.072 H 
ATOM     25  C   LIG d   1      11.297  10.988   0.073  0.00  0.00     0.339 C 
ATOM     26  O   LIG d   1      10.948  10.881   1.217  0.00  0.00    -0.248 OA
ATOM     27  O   LIG d   1      12.538  10.811  -0.411  0.00  0.00    -0.432 OA
ATOM     28  C   LIG d   1      12.508  10.401  -1.784  0.00  0.00     0.216 C 
ATOM     29  H   LIG d   1      13.141  11.051  -2.402  0.00  0.00     0.106 H 
ATOM     30  O   LIG d   1      12.882   9.027  -1.911  0.00  0.00    -0.319 OA
ENDROOT
BRANCH  19  31
ATOM     31  C   LIG d   1      10.807  12.601  -3.707  0.00  0.00    -0.032 C 
BRANCH  31  32
ATOM     32  C   LIG d   1      12.051  13.250  -3.098  0.00  0.00    -0.060 C 
ATOM     33  H   LIG d   1      12.141  12.956  -2.053  0.00  0.00     0.024 H 
ATOM     34  H   LIG d   1      12.936  12.923  -3.645  0.00  0.00     0.024 H 
ATOM     35  H   LIG d   1      11.964  14.335  -3.165  0.00  0.00     0.024 H 
ENDBRANCH  31  32
BRANCH  31  36
ATOM     36  C   LIG d   1      10.660  13.044  -5.163  0.00  0.00    -0.060 C 
ATOM     37  H   LIG d   1      10.854  12.197  -5.822  0.00  0.00     0.024 H 
ATOM     38  H   LIG d   1       9.647  13.410  -5.332  0.00  0.00     0.024 H 
ATOM     39  H   LIG d   1      11.374  13.840  -5.374  0.00  0.00     0.024 H 
ENDBRANCH  31  36
BRANCH  31  40
ATOM     40  C   LIG d   1       9.569  13.029  -2.916  0.00  0.00    -0.060 C 
ATOM     41  H   LIG d   1       9.729  14.025  -2.503  0.00  0.00     0.024 H 
ATOM     42  H   LIG d   1       8.703  13.044  -3.577  0.00  0.00     0.024 H 
ATOM     43  H   LIG d   1       9.394  12.323  -2.103  0.00  0.00     0.024 H 
ENDBRANCH  31  40
ENDBRANCH  19  31
BRANCH  21  44
ATOM     44  O   LIG d   1       8.496  10.994  -3.731  0.00  0.00    -0.388 OA
ATOM     45  H   LIG d   1       8.633  11.538  -2.944  0.00  0.00     0.210 HD
ENDBRANCH  21  44
BRANCH  23  46
ATOM     46  O   LIG d   1       9.049  11.003  -0.855  0.00  0.00    -0.380 OA
ATOM     47  H   LIG d   1       8.909  10.067  -0.655  0.00  0.00     0.210 HD
ENDBRANCH  23  46
BRANCH  16  48
ATOM     48  O   LIG d   1       8.390   8.619  -1.306  0.00  0.00    -0.387 OA
ATOM     49  H   LIG d   1       8.022   9.326  -0.759  0.00  0.00     0.210 HD
ENDBRANCH  16  48
BRANCH   8  50
ATOM     50  O   LIG d   1      11.871   5.822  -2.698  0.00  0.00    -0.381 OA
ATOM     51  H   LIG d   1      11.282   5.778  -3.463  0.00  0.00     0.210 HD
ENDBRANCH   8  50
BRANCH   1  52
ATOM     52  C   LIG d   1      13.257   5.552  -0.483  0.00  0.00    -0.049 C 
ATOM     53  H   LIG d   1      12.815   4.821  -1.161  0.00  0.00     0.024 H 
ATOM     54  H   LIG d   1      14.281   5.760  -0.791  0.00  0.00     0.024 H 
ATOM     55  H   LIG d   1      13.256   5.153   0.531  0.00  0.00     0.024 H 
ENDBRANCH   1  52
TORSDOF 9
ENDMDL
MODEL 6
REMARK VINA RESULT:      -5.6      1.910      5.535
REMARK  9 active torsions:
REMARK  status: ('A' for Active; 'I' for Inactive)
REMARK    1  A    between atoms: C_1  and  C_2 
REMARK    2  A    between atoms: C_9  and  O_39 
REMARK    3  A    between atoms: C_17  and  O_19 
REMARK    4  A    between atoms: C_21  and  C_26 
REMARK    5  A    between atoms: C_23  and  O_25 
REMARK    6  A    between atoms: C_26  and  C_27 
REMARK    7  A    between atoms: C_26  and  C_28 
REMARK    8  A    between atoms: C_26  and  C_29 
REMARK    9  A    between atoms: C_30  and  O_38 
ROOT
ATOM      1  C   LIG d   1       8.227  -2.716  -7.792  0.00  0.00     0.089 C 
ATOM      2  H   LIG d   1       7.740  -1.794  -8.105  0.00  0.00     0.044 H 
ATOM      3  C   LIG d   1       9.462  -2.390  -6.965  0.00  0.00     0.313 C 
ATOM      4  O   LIG d   1      10.226  -1.469  -7.136  0.00  0.00    -0.250 OA
ATOM      5  O   LIG d   1       9.540  -3.343  -6.004  0.00  0.00    -0.455 OA
ATOM      6  C   LIG d   1       8.201  -3.576  -5.535  0.00  0.00     0.162 C 
ATOM      7  H   LIG d   1       8.097  -4.515  -4.987  0.00  0.00     0.079 H 
ATOM      8  C   LIG d   1       7.329  -3.516  -6.822  0.00  0.00     0.158 C 
ATOM      9  C   LIG d   1       6.079  -2.716  -6.471  0.00  0.00     0.214 C 
ATOM     10  C   LIG d   1       4.835  -3.554  -6.413  0.00  0.00     0.344 C 
ATOM     11  O   LIG d   1       4.051  -3.701  -7.321  0.00  0.00    -0.247 OA
ATOM     12  O   LIG d   1       4.724  -4.079  -5.184  0.00  0.00    -0.456 OA
ATOM     13  C   LIG d   1       5.379  -3.259  -4.203  0.00  0.00     0.141 C 
ATOM     14  H   LIG d   1       5.960  -3.863  -3.495  0.00  0.00     0.077 H 
ATOM     15  C   LIG d   1       6.251  -2.264  -4.994  0.00  0.00     0.097 C 
ATOM     16  C   LIG d   1       7.734  -2.348  -4.705  0.00  0.00     0.108 C 
ATOM     17  H   LIG d   1       8.253  -1.449  -5.016  0.00  0.00     0.064 H 
ATOM     18  C   LIG d   1       5.558  -0.906  -4.951  0.00  0.00     0.090 C 
ATOM     19  C   LIG d   1       4.126  -1.200  -4.496  0.00  0.00     0.009 C 
ATOM     20  H   LIG d   1       3.534  -1.547  -5.351  0.00  0.00     0.034 H 
ATOM     21  C   LIG d   1       4.318  -2.375  -3.496  0.00  0.00     0.097 C 
ATOM     22  H   LIG d   1       3.384  -2.921  -3.357  0.00  0.00     0.063 H 
ATOM     23  C   LIG d   1       6.310   0.194  -4.246  0.00  0.00     0.164 C 
ATOM     24  H   LIG d   1       5.664   1.011  -3.921  0.00  0.00     0.072 H 
ATOM     25  C   LIG d   1       7.211   0.730  -5.359  0.00  0.00     0.339 C 
ATOM     26  O   LIG d   1       8.328   1.152  -5.229  0.00  0.00    -0.248 OA
ATOM     27  O   LIG d   1       6.517   0.627  -6.506  0.00  0.00    -0.432 OA
ATOM     28  C   LIG d   1       5.550  -0.428  -6.436  0.00  0.00     0.216 C 
ATOM     29  H   LIG d   1       4.552  -0.064  -6.710  0.00  0.00     0.106 H 
ATOM     30  O   LIG d   1       5.948  -1.536  -7.247  0.00  0.00    -0.319 OA
ENDROOT
BRANCH  19  31
ATOM     31  C   LIG d   1       3.441  -0.017  -3.826  0.00  0.00    -0.032 C 
BRANCH  31  32
ATOM     32  C   LIG d   1       4.484   0.828  -3.093  0.00  0.00    -0.060 C 
ATOM     33  H   LIG d   1       5.199   0.174  -2.596  0.00  0.00     0.024 H 
ATOM     34  H   LIG d   1       5.008   1.461  -3.810  0.00  0.00     0.024 H 
ATOM     35  H   LIG d   1       3.988   1.455  -2.352  0.00  0.00     0.024 H 
ENDBRANCH  31  32
BRANCH  31  36
ATOM     36  C   LIG d   1       2.747   0.838  -4.888  0.00  0.00    -0.060 C 
ATOM     37  H   LIG d   1       2.264   1.691  -4.410  0.00  0.00     0.024 H 
ATOM     38  H   LIG d   1       3.485   1.195  -5.607  0.00  0.00     0.024 H 
ATOM     39  H   LIG d   1       1.997   0.238  -5.404  0.00  0.00     0.024 H 
ENDBRANCH  31  36
BRANCH  31  40
ATOM     40  C   LIG d   1       2.403  -0.528  -2.825  0.00  0.00    -0.060 C 
ATOM     41  H   LIG d   1       2.820  -0.492  -1.819  0.00  0.00     0.024 H 
ATOM     42  H   LIG d   1       1.512   0.098  -2.873  0.00  0.00     0.024 H 
ATOM     43  H   LIG d   1       2.137  -1.557  -3.071  0.00  0.00     0.024 H 
ENDBRANCH  31  40
ENDBRANCH  19  31
BRANCH  21  44
ATOM     44  O   LIG d   1       4.817  -1.897  -2.247  0.00  0.00    -0.388 OA
ATOM     45  H   LIG d   1       5.093  -2.596  -1.639  0.00  0.00     0.210 HD
ENDBRANCH  21  44
BRANCH  23  46
ATOM     46  O   LIG d   1       7.080  -0.270  -3.145  0.00  0.00    -0.380 OA
ATOM     47  H   LIG d   1       7.933   0.176  -3.046  0.00  0.00     0.210 HD
ENDBRANCH  23  46
BRANCH  16  48
ATOM     48  O   LIG d   1       7.959  -2.618  -3.312  0.00  0.00    -0.387 OA
ATOM     49  H   LIG d   1       7.148  -2.724  -2.797  0.00  0.00     0.210 HD
ENDBRANCH  16  48
BRANCH   8  50
ATOM     50  O   LIG d   1       7.015  -4.817  -7.331  0.00  0.00    -0.381 OA
ATOM     51  H   LIG d   1       6.411  -5.323  -6.771  0.00  0.00     0.210 HD
ENDBRANCH   8  50
BRANCH   1  52
ATOM     52  C   LIG d   1       8.600  -3.565  -9.009  0.00  0.00    -0.049 C 
ATOM     53  H   LIG d   1       9.062  -4.495  -8.676  0.00  0.00     0.024 H 
ATOM     54  H   LIG d   1       7.702  -3.791  -9.584  0.00  0.00     0.024 H 
ATOM     55  H   LIG d   1       9.302  -3.014  -9.635  0.00  0.00     0.024 H 
ENDBRANCH   1  52
TORSDOF 9
ENDMDL
MODEL 7
REMARK VINA RESULT:      -5.6     10.910     13.070
REMARK  9 active torsions:
REMARK  status: ('A' for Active; 'I' for Inactive)
REMARK    1  A    between atoms: C_1  and  C_2 
REMARK    2  A    between atoms: C_9  and  O_39 
REMARK    3  A    between atoms: C_17  and  O_19 
REMARK    4  A    between atoms: C_21  and  C_26 
REMARK    5  A    between atoms: C_23  and  O_25 
REMARK    6  A    between atoms: C_26  and  C_27 
REMARK    7  A    between atoms: C_26  and  C_28 
REMARK    8  A    between atoms: C_26  and  C_29 
REMARK    9  A    between atoms: C_30  and  O_38 
ROOT
ATOM      1  C   LIG d   1      12.294  11.052   0.505  0.00  0.00     0.089 C 
ATOM      2  H   LIG d   1      13.042  10.889  -0.268  0.00  0.00     0.044 H 
ATOM      3  C   LIG d   1      11.323  12.137   0.063  0.00  0.00     0.313 C 
ATOM      4  O   LIG d   1      11.588  13.129  -0.574  0.00  0.00    -0.250 OA
ATOM      5  O   LIG d   1      10.105  11.775   0.533  0.00  0.00    -0.455 OA
ATOM      6  C   LIG d   1       9.987  10.355   0.340  0.00  0.00     0.162 C 
ATOM      7  H   LIG d   1       9.192   9.907   0.940  0.00  0.00     0.079 H 
ATOM      8  C   LIG d   1      11.401   9.803   0.684  0.00  0.00     0.158 C 
ATOM      9  C   LIG d   1      11.733   8.755  -0.374  0.00  0.00     0.214 C 
ATOM     10  C   LIG d   1      11.736   7.353   0.161  0.00  0.00     0.344 C 
ATOM     11  O   LIG d   1      12.713   6.756   0.547  0.00  0.00    -0.247 OA
ATOM     12  O   LIG d   1      10.486   6.867   0.107  0.00  0.00    -0.456 OA
ATOM     13  C   LIG d   1       9.724   7.500  -0.932  0.00  0.00     0.141 C 
ATOM     14  H   LIG d   1       8.711   7.753  -0.592  0.00  0.00     0.077 H 
ATOM     15  C   LIG d   1      10.534   8.737  -1.363  0.00  0.00     0.097 C 
ATOM     16  C   LIG d   1       9.824  10.061  -1.177  0.00  0.00     0.108 C 
ATOM     17  H   LIG d   1      10.275  10.844  -1.775  0.00  0.00     0.064 H 
ATOM     18  C   LIG d   1      11.183   8.421  -2.707  0.00  0.00     0.090 C 
ATOM     19  C   LIG d   1      11.081   6.901  -2.853  0.00  0.00     0.009 C 
ATOM     20  H   LIG d   1      11.885   6.423  -2.281  0.00  0.00     0.034 H 
ATOM     21  C   LIG d   1       9.716   6.581  -2.182  0.00  0.00     0.097 C 
ATOM     22  H   LIG d   1       9.662   5.530  -1.895  0.00  0.00     0.063 H 
ATOM     23  C   LIG d   1      10.737   9.273  -3.869  0.00  0.00     0.164 C 
ATOM     24  H   LIG d   1      10.927   8.805  -4.836  0.00  0.00     0.072 H 
ATOM     25  C   LIG d   1      11.661  10.485  -3.749  0.00  0.00     0.339 C 
ATOM     26  O   LIG d   1      11.378  11.622  -4.009  0.00  0.00    -0.248 OA
ATOM     27  O   LIG d   1      12.841  10.032  -3.291  0.00  0.00    -0.432 OA
ATOM     28  C   LIG d   1      12.676   8.834  -2.524  0.00  0.00     0.216 C 
ATOM     29  H   LIG d   1      13.335   8.037  -2.892  0.00  0.00     0.106 H 
ATOM     30  O   LIG d   1      12.885   9.089  -1.132  0.00  0.00    -0.319 OA
ENDROOT
BRANCH  19  31
ATOM     31  C   LIG d   1      11.108   6.421  -4.298  0.00  0.00    -0.032 C 
BRANCH  31  32
ATOM     32  C   LIG d   1      12.440   6.812  -4.941  0.00  0.00    -0.060 C 
ATOM     33  H   LIG d   1      12.278   7.623  -5.649  0.00  0.00     0.024 H 
ATOM     34  H   LIG d   1      13.134   7.140  -4.166  0.00  0.00     0.024 H 
ATOM     35  H   LIG d   1      12.859   5.951  -5.462  0.00  0.00     0.024 H 
ENDBRANCH  31  32
BRANCH  31  36
ATOM     36  C   LIG d   1      10.953   4.899  -4.332  0.00  0.00    -0.060 C 
ATOM     37  H   LIG d   1      11.755   4.439  -3.755  0.00  0.00     0.024 H 
ATOM     38  H   LIG d   1       9.991   4.622  -3.901  0.00  0.00     0.024 H 
ATOM     39  H   LIG d   1      11.002   4.552  -5.364  0.00  0.00     0.024 H 
ENDBRANCH  31  36
BRANCH  31  40
ATOM     40  C   LIG d   1       9.958   7.068  -5.072  0.00  0.00    -0.060 C 
ATOM     41  H   LIG d   1       9.214   7.443  -4.369  0.00  0.00     0.024 H 
ATOM     42  H   LIG d   1      10.343   7.895  -5.669  0.00  0.00     0.024 H 
ATOM     43  H   LIG d   1       9.499   6.329  -5.728  0.00  0.00     0.024 H 
ENDBRANCH  31  40
ENDBRANCH  19  31
BRANCH  21  44
ATOM     44  O   LIG d   1       8.636   6.924  -3.050  0.00  0.00    -0.388 OA
ATOM     45  H   LIG d   1       7.769   6.640  -2.731  0.00  0.00     0.210 HD
ENDBRANCH  21  44
BRANCH  23  46
ATOM     46  O   LIG d   1       9.373   9.661  -3.788  0.00  0.00    -0.380 OA
ATOM     47  H   LIG d   1       8.967   9.496  -2.925  0.00  0.00     0.210 HD
ENDBRANCH  23  46
BRANCH  16  48
ATOM     48  O   LIG d   1       8.425   9.925  -1.475  0.00  0.00    -0.387 OA
ATOM     49  H   LIG d   1       7.952  10.766  -1.531  0.00  0.00     0.210 HD
ENDBRANCH  16  48
BRANCH   8  50
ATOM     50  O   LIG d   1      11.474   9.275   2.012  0.00  0.00    -0.381 OA
ATOM     51  H   LIG d   1      10.974   8.457   2.139  0.00  0.00     0.210 HD
ENDBRANCH   8  50
BRANCH   1  52
ATOM     52  C   LIG d   1      12.963  11.431   1.828  0.00  0.00    -0.049 C 
ATOM     53  H   LIG d   1      12.356  12.178   2.342  0.00  0.00     0.024 H 
ATOM     54  H   LIG d   1      13.056  10.545   2.456  0.00  0.00     0.024 H 
ATOM     55  H   LIG d   1      13.953  11.842   1.629  0.00  0.00     0.024 H 
ENDBRANCH   1  52
TORSDOF 9
ENDMDL
MODEL 8
REMARK VINA RESULT:      -5.6      9.977     12.949
REMARK  9 active torsions:
REMARK  status: ('A' for Active; 'I' for Inactive)
REMARK    1  A    between atoms: C_1  and  C_2 
REMARK    2  A    between atoms: C_9  and  O_39 
REMARK    3  A    between atoms: C_17  and  O_19 
REMARK    4  A    between atoms: C_21  and  C_26 
REMARK    5  A    between atoms: C_23  and  O_25 
REMARK    6  A    between atoms: C_26  and  C_27 
REMARK    7  A    between atoms: C_26  and  C_28 
REMARK    8  A    between atoms: C_26  and  C_29 
REMARK    9  A    between atoms: C_30  and  O_38 
ROOT
ATOM      1  C   LIG d   1       9.957   5.223  -2.984  0.00  0.00     0.089 C 
ATOM      2  H   LIG d   1       9.171   5.914  -2.686  0.00  0.00     0.044 H 
ATOM      3  C   LIG d   1      10.540   5.651  -4.323  0.00  0.00     0.313 C 
ATOM      4  O   LIG d   1       9.938   6.133  -5.253  0.00  0.00    -0.250 OA
ATOM      5  O   LIG d   1      11.866   5.376  -4.268  0.00  0.00    -0.455 OA
ATOM      6  C   LIG d   1      12.316   5.743  -2.952  0.00  0.00     0.162 C 
ATOM      7  H   LIG d   1      13.279   5.298  -2.690  0.00  0.00     0.079 H 
ATOM      8  C   LIG d   1      11.158   5.298  -2.013  0.00  0.00     0.158 C 
ATOM      9  C   LIG d   1      10.955   6.421  -1.001  0.00  0.00     0.214 C 
ATOM     10  C   LIG d   1      11.392   6.054   0.387  0.00  0.00     0.344 C 
ATOM     11  O   LIG d   1      10.668   5.625   1.254  0.00  0.00    -0.247 OA
ATOM     12  O   LIG d   1      12.703   6.314   0.510  0.00  0.00    -0.456 OA
ATOM     13  C   LIG d   1      13.116   7.358  -0.385  0.00  0.00     0.141 C 
ATOM     14  H   LIG d   1      14.068   7.115  -0.875  0.00  0.00     0.077 H 
ATOM     15  C   LIG d   1      11.960   7.542  -1.387  0.00  0.00     0.097 C 
ATOM     16  C   LIG d   1      12.324   7.292  -2.834  0.00  0.00     0.108 C 
ATOM     17  H   LIG d   1      11.604   7.738  -3.511  0.00  0.00     0.064 H 
ATOM     18  C   LIG d   1      11.224   8.826  -1.013  0.00  0.00     0.090 C 
ATOM     19  C   LIG d   1      11.691   9.157   0.406  0.00  0.00     0.009 C 
ATOM     20  H   LIG d   1      11.130   8.551   1.127  0.00  0.00     0.034 H 
ATOM     21  C   LIG d   1      13.176   8.697   0.396  0.00  0.00     0.097 C 
ATOM     22  H   LIG d   1      13.540   8.541   1.413  0.00  0.00     0.063 H 
ATOM     23  C   LIG d   1      11.261   9.927  -2.043  0.00  0.00     0.164 C 
ATOM     24  H   LIG d   1      11.058  10.912  -1.620  0.00  0.00     0.072 H 
ATOM     25  C   LIG d   1      10.083   9.559  -2.947  0.00  0.00     0.339 C 
ATOM     26  O   LIG d   1      10.023   9.718  -4.135  0.00  0.00    -0.248 OA
ATOM     27  O   LIG d   1       9.140   9.018  -2.157  0.00  0.00    -0.432 OA
ATOM     28  C   LIG d   1       9.719   8.418  -0.991  0.00  0.00     0.216 C 
ATOM     29  H   LIG d   1       9.240   8.793  -0.078  0.00  0.00     0.106 H 
ATOM     30  O   LIG d   1       9.658   6.992  -1.070  0.00  0.00    -0.319 OA
ENDROOT
BRANCH  19  31
ATOM     31  C   LIG d   1      11.578  10.634   0.760  0.00  0.00    -0.032 C 
BRANCH  31  32
ATOM     32  C   LIG d   1      12.400  11.460  -0.231  0.00  0.00    -0.060 C 
ATOM     33  H   LIG d   1      13.020  10.796  -0.832  0.00  0.00     0.024 H 
ATOM     34  H   LIG d   1      11.729  12.019  -0.883  0.00  0.00     0.024 H 
ATOM     35  H   LIG d   1      13.037  12.156   0.316  0.00  0.00     0.024 H 
ENDBRANCH  31  32
BRANCH  31  36
ATOM     36  C   LIG d   1      10.111  11.064   0.688  0.00  0.00    -0.060 C 
ATOM     37  H   LIG d   1       9.711  10.827  -0.298  0.00  0.00     0.024 H 
ATOM     38  H   LIG d   1       9.539  10.532   1.449  0.00  0.00     0.024 H 
ATOM     39  H   LIG d   1      10.038  12.137   0.862  0.00  0.00     0.024 H 
ENDBRANCH  31  36
BRANCH  31  40
ATOM     40  C   LIG d   1      12.107  10.861   2.177  0.00  0.00    -0.060 C 
ATOM     41  H   LIG d   1      11.288  10.765   2.890  0.00  0.00     0.024 H 
ATOM     42  H   LIG d   1      12.874  10.120   2.401  0.00  0.00     0.024 H 
ATOM     43  H   LIG d   1      12.536  11.861   2.249  0.00  0.00     0.024 H 
ENDBRANCH  31  40
ENDBRANCH  19  31
BRANCH  21  44
ATOM     44  O   LIG d   1      13.991   9.643  -0.294  0.00  0.00    -0.388 OA
ATOM     45  H   LIG d   1      13.940  10.541   0.061  0.00  0.00     0.210 HD
ENDBRANCH  21  44
BRANCH  23  46
ATOM     46  O   LIG d   1      12.475   9.967  -2.779  0.00  0.00    -0.380 OA
ATOM     47  H   LIG d   1      12.906   9.106  -2.873  0.00  0.00     0.210 HD
ENDBRANCH  23  46
BRANCH  16  48
ATOM     48  O   LIG d   1      13.652   7.770  -3.106  0.00  0.00    -0.387 OA
ATOM     49  H   LIG d   1      14.353   7.204  -2.756  0.00  0.00     0.210 HD
ENDBRANCH  16  48
BRANCH   8  50
ATOM     50  O   LIG d   1      11.418   4.040  -1.382  0.00  0.00    -0.381 OA
ATOM     51  H   LIG d   1      11.606   4.105  -0.436  0.00  0.00     0.210 HD
ENDBRANCH   8  50
BRANCH   1  52
ATOM     52  C   LIG d   1       9.414   3.794  -3.063  0.00  0.00    -0.049 C 
ATOM     53  H   LIG d   1       9.472   3.329  -2.078  0.00  0.00     0.024 H 
ATOM     54  H   LIG d   1       8.376   3.817  -3.393  0.00  0.00     0.024 H 
ATOM     55  H   LIG d   1      10.009   3.218  -3.772  0.00  0.00     0.024 H 
ENDBRANCH   1  52
TORSDOF 9
ENDMDL
MODEL 9
REMARK VINA RESULT:      -5.3     11.296     14.106
REMARK  9 active torsions:
REMARK  status: ('A' for Active; 'I' for Inactive)
REMARK    1  A    between atoms: C_1  and  C_2 
REMARK    2  A    between atoms: C_9  and  O_39 
REMARK    3  A    between atoms: C_17  and  O_19 
REMARK    4  A    between atoms: C_21  and  C_26 
REMARK    5  A    between atoms: C_23  and  O_25 
REMARK    6  A    between atoms: C_26  and  C_27 
REMARK    7  A    between atoms: C_26  and  C_28 
REMARK    8  A    between atoms: C_26  and  C_29 
REMARK    9  A    between atoms: C_30  and  O_38 
ROOT
ATOM      1  C   LIG d   1      11.097   7.598  -4.989  0.00  0.00     0.089 C 
ATOM      2  H   LIG d   1      11.441   7.182  -4.044  0.00  0.00     0.044 H 
ATOM      3  C   LIG d   1       9.589   7.431  -5.107  0.00  0.00     0.313 C 
ATOM      4  O   LIG d   1       8.933   6.492  -4.720  0.00  0.00    -0.250 OA
ATOM      5  O   LIG d   1       9.130   8.538  -5.738  0.00  0.00    -0.455 OA
ATOM      6  C   LIG d   1       9.853   9.658  -5.199  0.00  0.00     0.162 C 
ATOM      7  H   LIG d   1       9.790  10.550  -5.827  0.00  0.00     0.079 H 
ATOM      8  C   LIG d   1      11.306   9.129  -5.029  0.00  0.00     0.158 C 
ATOM      9  C   LIG d   1      11.803   9.634  -3.677  0.00  0.00     0.214 C 
ATOM     10  C   LIG d   1      12.862  10.691  -3.792  0.00  0.00     0.344 C 
ATOM     11  O   LIG d   1      14.053  10.490  -3.753  0.00  0.00    -0.247 OA
ATOM     12  O   LIG d   1      12.268  11.888  -3.910  0.00  0.00    -0.456 OA
ATOM     13  C   LIG d   1      10.969  11.889  -3.298  0.00  0.00     0.141 C 
ATOM     14  H   LIG d   1      10.226  12.398  -3.927  0.00  0.00     0.077 H 
ATOM     15  C   LIG d   1      10.617  10.411  -3.040  0.00  0.00     0.097 C 
ATOM     16  C   LIG d   1       9.372   9.919  -3.745  0.00  0.00     0.108 C 
ATOM     17  H   LIG d   1       8.989   9.012  -3.294  0.00  0.00     0.064 H 
ATOM     18  C   LIG d   1      10.781  10.151  -1.546  0.00  0.00     0.090 C 
ATOM     19  C   LIG d   1      11.594  11.336  -1.019  0.00  0.00     0.009 C 
ATOM     20  H   LIG d   1      12.658  11.172  -1.228  0.00  0.00     0.034 H 
ATOM     21  C   LIG d   1      11.078  12.520  -1.885  0.00  0.00     0.097 C 
ATOM     22  H   LIG d   1      11.792  13.344  -1.878  0.00  0.00     0.063 H 
ATOM     23  C   LIG d   1       9.524   9.772  -0.803  0.00  0.00     0.164 C 
ATOM     24  H   LIG d   1       9.595   9.948   0.271  0.00  0.00     0.072 H 
ATOM     25  C   LIG d   1       9.466   8.260  -1.023  0.00  0.00     0.339 C 
ATOM     26  O   LIG d   1       8.473   7.599  -1.160  0.00  0.00    -0.248 OA
ATOM     27  O   LIG d   1      10.737   7.821  -1.042  0.00  0.00    -0.432 OA
ATOM     28  C   LIG d   1      11.637   8.850  -1.470  0.00  0.00     0.216 C 
ATOM     29  H   LIG d   1      12.456   8.978  -0.751  0.00  0.00     0.106 H 
ATOM     30  O   LIG d   1      12.128   8.580  -2.785  0.00  0.00    -0.319 OA
ENDROOT
BRANCH  19  31
ATOM     31  C   LIG d   1      11.386  11.611   0.465  0.00  0.00    -0.032 C 
BRANCH  31  32
ATOM     32  C   LIG d   1       9.906  11.894   0.728  0.00  0.00    -0.060 C 
ATOM     33  H   LIG d   1       9.728  11.933   1.802  0.00  0.00     0.024 H 
ATOM     34  H   LIG d   1       9.635  12.851   0.281  0.00  0.00     0.024 H 
ATOM     35  H   LIG d   1       9.300  11.103   0.287  0.00  0.00     0.024 H 
ENDBRANCH  31  32
BRANCH  31  36
ATOM     36  C   LIG d   1      11.823  10.389   1.275  0.00  0.00    -0.060 C 
ATOM     37  H   LIG d   1      11.491   9.481   0.772  0.00  0.00     0.024 H 
ATOM     38  H   LIG d   1      12.910  10.379   1.360  0.00  0.00     0.024 H 
ATOM     39  H   LIG d   1      11.381  10.436   2.270  0.00  0.00     0.024 H 
ENDBRANCH  31  36
BRANCH  31  40
ATOM     40  C   LIG d   1      12.220  12.824   0.880  0.00  0.00    -0.060 C 
ATOM     41  H   LIG d   1      11.973  13.670   0.240  0.00  0.00     0.024 H 
ATOM     42  H   LIG d   1      12.002  13.077   1.918  0.00  0.00     0.024 H 
ATOM     43  H   LIG d   1      13.280  12.589   0.779  0.00  0.00     0.024 H 
ENDBRANCH  31  40
ENDBRANCH  19  31
BRANCH  21  44
ATOM     44  O   LIG d   1       9.797  12.955  -1.429  0.00  0.00    -0.388 OA
ATOM     45  H   LIG d   1       9.816  13.785  -0.934  0.00  0.00     0.210 HD
ENDBRANCH  21  44
BRANCH  23  46
ATOM     46  O   LIG d   1       8.359  10.406  -1.313  0.00  0.00    -0.380 OA
ATOM     47  H   LIG d   1       8.493  10.853  -2.160  0.00  0.00     0.210 HD
ENDBRANCH  23  46
BRANCH  16  48
ATOM     48  O   LIG d   1       8.369  10.948  -3.767  0.00  0.00    -0.387 OA
ATOM     49  H   LIG d   1       8.627  11.758  -3.306  0.00  0.00     0.210 HD
ENDBRANCH  16  48
BRANCH   8  50
ATOM     50  O   LIG d   1      12.163   9.526  -6.104  0.00  0.00    -0.381 OA
ATOM     51  H   LIG d   1      12.274  10.483  -6.186  0.00  0.00     0.210 HD
ENDBRANCH   8  50
BRANCH   1  52
ATOM     52  C   LIG d   1      11.809   6.924  -6.163  0.00  0.00    -0.049 C 
ATOM     53  H   LIG d   1      12.474   7.642  -6.645  0.00  0.00     0.024 H 
ATOM     54  H   LIG d   1      12.391   6.078  -5.799  0.00  0.00     0.024 H 
ATOM     55  H   LIG d   1      11.070   6.574  -6.884  0.00  0.00     0.024 H 
ENDBRANCH   1  52
TORSDOF 9
ENDMDL
MODEL 10
REMARK VINA RESULT:      -5.2     10.914     13.155
REMARK  9 active torsions:
REMARK  status: ('A' for Active; 'I' for Inactive)
REMARK    1  A    between atoms: C_1  and  C_2 
REMARK    2  A    between atoms: C_9  and  O_39 
REMARK    3  A    between atoms: C_17  and  O_19 
REMARK    4  A    between atoms: C_21  and  C_26 
REMARK    5  A    between atoms: C_23  and  O_25 
REMARK    6  A    between atoms: C_26  and  C_27 
REMARK    7  A    between atoms: C_26  and  C_28 
REMARK    8  A    between atoms: C_26  and  C_29 
REMARK    9  A    between atoms: C_30  and  O_38 
ROOT
ATOM      1  C   LIG d   1      12.259  11.372  -0.166  0.00  0.00     0.089 C 
ATOM      2  H   LIG d   1      11.669  11.337  -1.080  0.00  0.00     0.044 H 
ATOM      3  C   LIG d   1      11.352  11.180   1.040  0.00  0.00     0.313 C 
ATOM      4  O   LIG d   1      10.225  11.597   1.172  0.00  0.00    -0.250 OA
ATOM      5  O   LIG d   1      12.062  10.457   1.940  0.00  0.00    -0.455 OA
ATOM      6  C   LIG d   1      12.771   9.448   1.201  0.00  0.00     0.162 C 
ATOM      7  H   LIG d   1      13.594   9.004   1.766  0.00  0.00     0.079 H 
ATOM      8  C   LIG d   1      13.237  10.177  -0.092  0.00  0.00     0.158 C 
ATOM      9  C   LIG d   1      12.992   9.216  -1.251  0.00  0.00     0.214 C 
ATOM     10  C   LIG d   1      14.257   8.670  -1.846  0.00  0.00     0.344 C 
ATOM     11  O   LIG d   1      14.825   9.124  -2.811  0.00  0.00    -0.247 OA
ATOM     12  O   LIG d   1      14.627   7.583  -1.152  0.00  0.00    -0.456 OA
ATOM     13  C   LIG d   1      13.496   6.943  -0.541  0.00  0.00     0.141 C 
ATOM     14  H   LIG d   1      13.714   6.642   0.493  0.00  0.00     0.077 H 
ATOM     15  C   LIG d   1      12.334   7.949  -0.636  0.00  0.00     0.097 C 
ATOM     16  C   LIG d   1      11.757   8.386   0.693  0.00  0.00     0.108 C 
ATOM     17  H   LIG d   1      10.769   8.815   0.579  0.00  0.00     0.064 H 
ATOM     18  C   LIG d   1      11.392   7.466  -1.735  0.00  0.00     0.090 C 
ATOM     19  C   LIG d   1      12.197   6.432  -2.526  0.00  0.00     0.009 C 
ATOM     20  H   LIG d   1      12.859   6.946  -3.233  0.00  0.00     0.034 H 
ATOM     21  C   LIG d   1      13.055   5.747  -1.425  0.00  0.00     0.097 C 
ATOM     22  H   LIG d   1      13.918   5.245  -1.864  0.00  0.00     0.063 H 
ATOM     23  C   LIG d   1      10.002   7.087  -1.290  0.00  0.00     0.164 C 
ATOM     24  H   LIG d   1       9.495   6.426  -1.995  0.00  0.00     0.072 H 
ATOM     25  C   LIG d   1       9.280   8.435  -1.315  0.00  0.00     0.339 C 
ATOM     26  O   LIG d   1       8.420   8.794  -0.559  0.00  0.00    -0.248 OA
ATOM     27  O   LIG d   1       9.801   9.136  -2.337  0.00  0.00    -0.432 OA
ATOM     28  C   LIG d   1      11.145   8.728  -2.617  0.00  0.00     0.216 C 
ATOM     29  H   LIG d   1      11.265   8.476  -3.679  0.00  0.00     0.106 H 
ATOM     30  O   LIG d   1      12.077   9.731  -2.205  0.00  0.00    -0.319 OA
ENDROOT
BRANCH  19  31
ATOM     31  C   LIG d   1      11.334   5.414  -3.261  0.00  0.00    -0.032 C 
BRANCH  31  32
ATOM     32  C   LIG d   1      10.365   4.761  -2.273  0.00  0.00    -0.060 C 
ATOM     33  H   LIG d   1       9.675   4.115  -2.814  0.00  0.00     0.024 H 
ATOM     34  H   LIG d   1      10.927   4.168  -1.551  0.00  0.00     0.024 H 
ATOM     35  H   LIG d   1       9.804   5.534  -1.748  0.00  0.00     0.024 H 
ENDBRANCH  31  32
BRANCH  31  36
ATOM     36  C   LIG d   1      10.541   6.119  -4.362  0.00  0.00    -0.060 C 
ATOM     37  H   LIG d   1      11.220   6.433  -5.156  0.00  0.00     0.024 H 
ATOM     38  H   LIG d   1       9.798   5.434  -4.771  0.00  0.00     0.024 H 
ATOM     39  H   LIG d   1      10.040   6.993  -3.946  0.00  0.00     0.024 H 
ENDBRANCH  31  36
BRANCH  31  40
ATOM     40  C   LIG d   1      12.229   4.341  -3.883  0.00  0.00    -0.060 C 
ATOM     41  H   LIG d   1      12.799   4.776  -4.704  0.00  0.00     0.024 H 
ATOM     42  H   LIG d   1      12.914   3.956  -3.128  0.00  0.00     0.024 H 
ATOM     43  H   LIG d   1      11.610   3.526  -4.262  0.00  0.00     0.024 H 
ENDBRANCH  31  40
ENDBRANCH  19  31
BRANCH  21  44
ATOM     44  O   LIG d   1      12.264   4.830  -0.670  0.00  0.00    -0.388 OA
ATOM     45  H   LIG d   1      11.376   5.152  -0.465  0.00  0.00     0.210 HD
ENDBRANCH  21  44
BRANCH  23  46
ATOM     46  O   LIG d   1       9.966   6.514   0.010  0.00  0.00    -0.380 OA
ATOM     47  H   LIG d   1      10.573   6.927   0.639  0.00  0.00     0.210 HD
ENDBRANCH  23  46
BRANCH  16  48
ATOM     48  O   LIG d   1      11.738   7.285   1.616  0.00  0.00    -0.387 OA
ATOM     49  H   LIG d   1      12.539   6.743   1.598  0.00  0.00     0.210 HD
ENDBRANCH  16  48
BRANCH   8  50
ATOM     50  O   LIG d   1      14.601  10.602  -0.019  0.00  0.00    -0.381 OA
ATOM     51  H   LIG d   1      14.786  11.209   0.710  0.00  0.00     0.210 HD
ENDBRANCH   8  50
BRANCH   1  52
ATOM     52  C   LIG d   1      13.018  12.697  -0.068  0.00  0.00    -0.049 C 
ATOM     53  H   LIG d   1      14.078  12.499   0.096  0.00  0.00     0.024 H 
ATOM     54  H   LIG d   1      12.892  13.258  -0.994  0.00  0.00     0.024 H 
ATOM     55  H   LIG d   1      12.625  13.279   0.766  0.00  0.00     0.024 H 
ENDBRANCH   1  52
TORSDOF 9
ENDMDL
