MODEL 1
REMARK VINA RESULT:      -7.7      0.000      0.000
REMARK  2 active torsions:
REMARK  status: ('A' for Active; 'I' for Inactive)
REMARK    1  A    between atoms: CG_4  and  CB_7 
REMARK    2  A    between atoms: CB_7  and  CA_8 
REMARK       I    between atoms: N_15  and  C_22 
REMARK       I    between atoms: C_22  and  N_24 
ROOT
ATOM      1  CA  PHE d   2       5.028  -2.751  -5.318  0.00  0.00     0.100 C 
ATOM      2  HA  PHE d   2       5.090  -1.781  -5.811  0.00  0.00     0.059 H 
ATOM      3  C   PHE d   2       6.359  -3.443  -5.407  0.00  0.00     0.237 C 
ATOM      4  O   PHE d   2       7.361  -2.783  -5.575  0.00  0.00    -0.274 OA
ATOM      5  N   PHE d   2       4.007  -3.568  -5.975  0.00  0.00    -0.302 N 
ATOM      6  H   PHE d   2       3.244  -3.139  -6.393  0.00  0.00     0.149 HD
ATOM      7  N   UNK d   1       6.461  -4.788  -5.302  0.00  0.00    -0.285 N 
ATOM      8  C   UNK d   1       7.798  -5.339  -5.088  0.00  0.00     0.031 C 
ATOM      9  C   UNK d   1       8.013  -6.676  -5.776  0.00  0.00     0.032 C 
ATOM     10  N   UNK d   1       6.801  -7.493  -5.681  0.00  0.00    -0.282 N 
ATOM     11  C   UNK d   1       5.536  -6.908  -6.144  0.00  0.00     0.043 C 
ATOM     12  C   UNK d   1       5.268  -5.624  -5.349  0.00  0.00     0.118 C 
ATOM     13  H   UNK d   1       4.984  -5.902  -4.334  0.00  0.00     0.061 H 
ATOM     14  C   UNK d   1       4.121  -4.903  -6.005  0.00  0.00     0.236 C 
ATOM     15  O   UNK d   1       3.273  -5.552  -6.578  0.00  0.00    -0.274 OA
ATOM     16  C   UNK d   1       6.844  -8.745  -5.182  0.00  0.00     0.305 C 
ATOM     17  O   UNK d   1       7.847  -9.142  -4.622  0.00  0.00    -0.252 OA
ATOM     18  N   UNK d   1       5.776  -9.558  -5.306  0.00  0.00    -0.281 N 
ATOM     19  C   UNK d   1       4.761  -9.321  -6.346  0.00  0.00     0.040 C 
ATOM     20  C   UNK d   1       4.536 -10.639  -7.105  0.00  0.00     0.064 C 
ATOM     21  O   UNK d   1       4.252 -11.679  -6.165  0.00  0.00    -0.377 OA
ATOM     22  C   UNK d   1       5.319 -11.951  -5.252  0.00  0.00     0.064 C 
ATOM     23  C   UNK d   1       5.586 -10.704  -4.403  0.00  0.00     0.040 C 
ATOM     24  H   UNK d   1       8.534  -4.629  -5.465  0.00  0.00     0.048 H 
ATOM     25  H   UNK d   1       7.956  -5.467  -4.017  0.00  0.00     0.048 H 
ATOM     26  H   UNK d   1       8.253  -6.507  -6.825  0.00  0.00     0.048 H 
ATOM     27  H   UNK d   1       8.838  -7.201  -5.295  0.00  0.00     0.048 H 
ATOM     28  H   UNK d   1       4.723  -7.615  -5.980  0.00  0.00     0.049 H 
ATOM     29  H   UNK d   1       5.610  -6.672  -7.205  0.00  0.00     0.049 H 
ATOM     30  H   UNK d   1       3.829  -8.998  -5.882  0.00  0.00     0.049 H 
ATOM     31  H   UNK d   1       5.113  -8.554  -7.035  0.00  0.00     0.049 H 
ATOM     32  H   UNK d   1       5.433 -10.894  -7.669  0.00  0.00     0.058 H 
ATOM     33  H   UNK d   1       3.695 -10.526  -7.787  0.00  0.00     0.058 H 
ATOM     34  H   UNK d   1       6.218 -12.210  -5.811  0.00  0.00     0.058 H 
ATOM     35  H   UNK d   1       5.041 -12.781  -4.604  0.00  0.00     0.058 H 
ATOM     36  H   UNK d   1       6.487 -10.852  -3.806  0.00  0.00     0.049 H 
ATOM     37  H   UNK d   1       4.737 -10.517  -3.746  0.00  0.00     0.049 H 
ENDROOT
BRANCH   1  38
ATOM     38  CB  PHE d   2       4.654  -2.554  -3.848  0.00  0.00    -0.023 C 
ATOM     39  HB1 PHE d   2       5.383  -3.063  -3.217  0.00  0.00     0.029 H 
ATOM     40  HB2 PHE d   2       3.662  -2.970  -3.666  0.00  0.00     0.029 H 
BRANCH  38  41
ATOM     41  CG  PHE d   2       4.649  -1.060  -3.519  0.00  0.00    -0.039 A 
ATOM     42  CD1 PHE d   2       3.397  -0.411  -4.115  0.00  0.00    -0.050 A 
ATOM     43  CE1 PHE d   2       3.393   1.083  -3.787  0.00  0.00    -0.053 A 
ATOM     44 1HD1 PHE d   2       2.509  -0.880  -3.692  0.00  0.00     0.027 H 
ATOM     45 2HD1 PHE d   2       3.398  -0.546  -5.196  0.00  0.00     0.027 H 
ATOM     46  CZ  PHE d   2       3.391   1.272  -2.269  0.00  0.00    -0.053 A 
ATOM     47 1HE1 PHE d   2       4.281   1.551  -4.211  0.00  0.00     0.026 H 
ATOM     48 2HE1 PHE d   2       2.501   1.545  -4.212  0.00  0.00     0.026 H 
ATOM     49  CE2 PHE d   2       4.642   0.623  -1.673  0.00  0.00    -0.053 A 
ATOM     50  HZ1 PHE d   2       3.388   2.336  -2.035  0.00  0.00     0.026 H 
ATOM     51  HZ2 PHE d   2       2.503   0.804  -1.845  0.00  0.00     0.026 H 
ATOM     52  CD2 PHE d   2       4.648  -0.871  -2.001  0.00  0.00    -0.050 A 
ATOM     53 1HE2 PHE d   2       4.642   0.758  -0.591  0.00  0.00     0.026 H 
ATOM     54 2HE2 PHE d   2       5.531   1.092  -2.097  0.00  0.00     0.026 H 
ATOM     55 1HD2 PHE d   2       3.759  -1.339  -1.577  0.00  0.00     0.027 H 
ATOM     56 2HD2 PHE d   2       5.539  -1.334  -1.577  0.00  0.00     0.027 H 
ATOM     57  HG  PHE d   2       5.538  -0.592  -3.943  0.00  0.00     0.030 H 
ENDBRANCH  38  41
ENDBRANCH   1  38
TORSDOF 2
ENDMDL
MODEL 2
REMARK VINA RESULT:      -7.2      7.499     12.123
REMARK  2 active torsions:
REMARK  status: ('A' for Active; 'I' for Inactive)
REMARK    1  A    between atoms: CG_4  and  CB_7 
REMARK    2  A    between atoms: CB_7  and  CA_8 
REMARK       I    between atoms: N_15  and  C_22 
REMARK       I    between atoms: C_22  and  N_24 
ROOT
ATOM      1  CA  PHE d   2       8.541   0.677  -4.592  0.00  0.00     0.100 C 
ATOM      2  HA  PHE d   2       8.873  -0.337  -4.372  0.00  0.00     0.059 H 
ATOM      3  C   PHE d   2       9.187   1.150  -5.864  0.00  0.00     0.237 C 
ATOM      4  O   PHE d   2       9.590   0.333  -6.664  0.00  0.00    -0.274 OA
ATOM      5  N   PHE d   2       8.920   1.564  -3.492  0.00  0.00    -0.302 N 
ATOM      6  H   PHE d   2       8.980   1.213  -2.589  0.00  0.00     0.149 HD
ATOM      7  N   UNK d   1       9.327   2.467  -6.134  0.00  0.00    -0.285 N 
ATOM      8  C   UNK d   1       9.673   2.832  -7.506  0.00  0.00     0.031 C 
ATOM      9  C   UNK d   1      10.586   4.043  -7.594  0.00  0.00     0.032 C 
ATOM     10  N   UNK d   1      10.202   5.038  -6.589  0.00  0.00    -0.282 N 
ATOM     11  C   UNK d   1      10.106   4.603  -5.189  0.00  0.00     0.043 C 
ATOM     12  C   UNK d   1       9.085   3.463  -5.097  0.00  0.00     0.118 C 
ATOM     13  H   UNK d   1       8.088   3.884  -5.229  0.00  0.00     0.061 H 
ATOM     14  C   UNK d   1       9.188   2.856  -3.724  0.00  0.00     0.236 C 
ATOM     15  O   UNK d   1       9.524   3.562  -2.796  0.00  0.00    -0.274 OA
ATOM     16  C   UNK d   1       9.944   6.314  -6.937  0.00  0.00     0.305 C 
ATOM     17  O   UNK d   1       9.831   6.613  -8.110  0.00  0.00    -0.252 OA
ATOM     18  N   UNK d   1       9.812   7.260  -5.986  0.00  0.00    -0.281 N 
ATOM     19  C   UNK d   1      10.389   7.070  -4.645  0.00  0.00     0.040 C 
ATOM     20  C   UNK d   1      11.213   8.321  -4.297  0.00  0.00     0.064 C 
ATOM     21  O   UNK d   1      10.401   9.483  -4.480  0.00  0.00    -0.377 OA
ATOM     22  C   UNK d   1       9.964   9.686  -5.827  0.00  0.00     0.064 C 
ATOM     23  C   UNK d   1       9.082   8.509  -6.254  0.00  0.00     0.040 C 
ATOM     24  H   UNK d   1      10.170   1.985  -7.980  0.00  0.00     0.048 H 
ATOM     25  H   UNK d   1       8.755   3.046  -8.054  0.00  0.00     0.048 H 
ATOM     26  H   UNK d   1      11.616   3.732  -7.419  0.00  0.00     0.048 H 
ATOM     27  H   UNK d   1      10.505   4.486  -8.586  0.00  0.00     0.048 H 
ATOM     28  H   UNK d   1       9.781   5.437  -4.568  0.00  0.00     0.049 H 
ATOM     29  H   UNK d   1      11.080   4.249  -4.850  0.00  0.00     0.049 H 
ATOM     30  H   UNK d   1       9.589   6.940  -3.916  0.00  0.00     0.049 H 
ATOM     31  H   UNK d   1      11.034   6.192  -4.643  0.00  0.00     0.049 H 
ATOM     32  H   UNK d   1      12.084   8.379  -4.949  0.00  0.00     0.058 H 
ATOM     33  H   UNK d   1      11.538   8.264  -3.258  0.00  0.00     0.058 H 
ATOM     34  H   UNK d   1      10.832   9.749  -6.484  0.00  0.00     0.058 H 
ATOM     35  H   UNK d   1       9.392  10.612  -5.889  0.00  0.00     0.058 H 
ATOM     36  H   UNK d   1       8.862   8.582  -7.320  0.00  0.00     0.049 H 
ATOM     37  H   UNK d   1       8.152   8.520  -5.686  0.00  0.00     0.049 H 
ENDROOT
BRANCH   1  38
ATOM     38  CB  PHE d   2       7.020   0.692  -4.757  0.00  0.00    -0.023 C 
ATOM     39  HB1 PHE d   2       6.738   0.033  -5.578  0.00  0.00     0.029 H 
ATOM     40  HB2 PHE d   2       6.688   1.708  -4.975  0.00  0.00     0.029 H 
BRANCH  38  41
ATOM     41  CG  PHE d   2       6.363   0.207  -3.464  0.00  0.00    -0.039 A 
ATOM     42  CD1 PHE d   2       5.344   1.246  -2.988  0.00  0.00    -0.050 A 
ATOM     43  CE1 PHE d   2       4.687   0.760  -1.695  0.00  0.00    -0.053 A 
ATOM     44 1HD1 PHE d   2       4.581   1.384  -3.754  0.00  0.00     0.027 H 
ATOM     45 2HD1 PHE d   2       5.850   2.193  -2.806  0.00  0.00     0.027 H 
ATOM     46  CZ  PHE d   2       3.977  -0.570  -1.951  0.00  0.00    -0.053 A 
ATOM     47 1HE1 PHE d   2       5.450   0.623  -0.929  0.00  0.00     0.026 H 
ATOM     48 2HE1 PHE d   2       3.962   1.501  -1.356  0.00  0.00     0.026 H 
ATOM     49  CE2 PHE d   2       4.994  -1.608  -2.427  0.00  0.00    -0.053 A 
ATOM     50  HZ1 PHE d   2       3.509  -0.916  -1.030  0.00  0.00     0.026 H 
ATOM     51  HZ2 PHE d   2       3.214  -0.432  -2.718  0.00  0.00     0.026 H 
ATOM     52  CD2 PHE d   2       5.652  -1.123  -3.720  0.00  0.00    -0.050 A 
ATOM     53 1HE2 PHE d   2       4.489  -2.557  -2.610  0.00  0.00     0.026 H 
ATOM     54 2HE2 PHE d   2       5.758  -1.746  -1.660  0.00  0.00     0.026 H 
ATOM     55 1HD2 PHE d   2       4.889  -0.986  -4.486  0.00  0.00     0.027 H 
ATOM     56 2HD2 PHE d   2       6.378  -1.863  -4.059  0.00  0.00     0.027 H 
ATOM     57  HG  PHE d   2       7.126   0.069  -2.697  0.00  0.00     0.030 H 
ENDBRANCH  38  41
ENDBRANCH   1  38
TORSDOF 2
ENDMDL
MODEL 3
REMARK VINA RESULT:      -7.2      7.211     11.367
REMARK  2 active torsions:
REMARK  status: ('A' for Active; 'I' for Inactive)
REMARK    1  A    between atoms: CG_4  and  CB_7 
REMARK    2  A    between atoms: CB_7  and  CA_8 
REMARK       I    between atoms: N_15  and  C_22 
REMARK       I    between atoms: C_22  and  N_24 
ROOT
ATOM      1  CA  PHE d   2       8.242   0.666  -4.451  0.00  0.00     0.100 C 
ATOM      2  HA  PHE d   2       8.333  -0.370  -4.123  0.00  0.00     0.059 H 
ATOM      3  C   PHE d   2       7.877   0.699  -5.908  0.00  0.00     0.237 C 
ATOM      4  O   PHE d   2       7.337  -0.265  -6.407  0.00  0.00    -0.274 OA
ATOM      5  N   PHE d   2       9.517   1.354  -4.251  0.00  0.00    -0.302 N 
ATOM      6  H   PHE d   2      10.105   1.080  -3.529  0.00  0.00     0.149 HD
ATOM      7  N   UNK d   1       8.137   1.782  -6.675  0.00  0.00    -0.285 N 
ATOM      8  C   UNK d   1       7.477   1.850  -7.977  0.00  0.00     0.031 C 
ATOM      9  C   UNK d   1       8.335   2.498  -9.051  0.00  0.00     0.032 C 
ATOM     10  N   UNK d   1       9.082   3.625  -8.488  0.00  0.00    -0.282 N 
ATOM     11  C   UNK d   1       9.902   3.382  -7.295  0.00  0.00     0.043 C 
ATOM     12  C   UNK d   1       8.998   2.848  -6.177  0.00  0.00     0.118 C 
ATOM     13  H   UNK d   1       8.380   3.669  -5.814  0.00  0.00     0.061 H 
ATOM     14  C   UNK d   1       9.880   2.360  -5.059  0.00  0.00     0.236 C 
ATOM     15  O   UNK d   1      10.954   2.896  -4.884  0.00  0.00    -0.274 OA
ATOM     16  C   UNK d   1       9.019   4.850  -9.049  0.00  0.00     0.305 C 
ATOM     17  O   UNK d   1       8.189   5.083  -9.906  0.00  0.00    -0.252 OA
ATOM     18  N   UNK d   1       9.876   5.814  -8.660  0.00  0.00    -0.281 N 
ATOM     19  C   UNK d   1      11.153   5.476  -8.012  0.00  0.00     0.040 C 
ATOM     20  C   UNK d   1      12.276   6.230  -8.744  0.00  0.00     0.064 C 
ATOM     21  O   UNK d   1      11.945   7.619  -8.806  0.00  0.00    -0.377 OA
ATOM     22  C   UNK d   1      10.757   7.905  -9.550  0.00  0.00     0.064 C 
ATOM     23  C   UNK d   1       9.560   7.237  -8.865  0.00  0.00     0.040 C 
ATOM     24  H   UNK d   1       7.224   0.838  -8.295  0.00  0.00     0.048 H 
ATOM     25  H   UNK d   1       6.555   2.423  -7.873  0.00  0.00     0.048 H 
ATOM     26  H   UNK d   1       9.034   1.762  -9.447  0.00  0.00     0.048 H 
ATOM     27  H   UNK d   1       7.694   2.858  -9.856  0.00  0.00     0.048 H 
ATOM     28  H   UNK d   1      10.368   4.314  -6.974  0.00  0.00     0.049 H 
ATOM     29  H   UNK d   1      10.672   2.646  -7.525  0.00  0.00     0.049 H 
ATOM     30  H   UNK d   1      11.126   5.779  -6.965  0.00  0.00     0.049 H 
ATOM     31  H   UNK d   1      11.326   4.402  -8.079  0.00  0.00     0.049 H 
ATOM     32  H   UNK d   1      12.384   5.835  -9.753  0.00  0.00     0.058 H 
ATOM     33  H   UNK d   1      13.212   6.103  -8.200  0.00  0.00     0.058 H 
ATOM     34  H   UNK d   1      10.860   7.516 -10.562  0.00  0.00     0.058 H 
ATOM     35  H   UNK d   1      10.601   8.983  -9.587  0.00  0.00     0.058 H 
ATOM     36  H   UNK d   1       8.676   7.328  -9.497  0.00  0.00     0.049 H 
ATOM     37  H   UNK d   1       9.373   7.714  -7.903  0.00  0.00     0.049 H 
ENDROOT
BRANCH   1  38
ATOM     38  CB  PHE d   2       7.152   1.366  -3.637  0.00  0.00    -0.023 C 
ATOM     39  HB1 PHE d   2       6.849   2.280  -4.148  0.00  0.00     0.029 H 
ATOM     40  HB2 PHE d   2       7.539   1.613  -2.648  0.00  0.00     0.029 H 
BRANCH  38  41
ATOM     41  CG  PHE d   2       5.946   0.436  -3.496  0.00  0.00    -0.039 A 
ATOM     42  CD1 PHE d   2       6.426  -0.970  -3.127  0.00  0.00    -0.050 A 
ATOM     43  CE1 PHE d   2       5.220  -1.900  -2.985  0.00  0.00    -0.053 A 
ATOM     44 1HD1 PHE d   2       6.969  -0.932  -2.182  0.00  0.00     0.027 H 
ATOM     45 2HD1 PHE d   2       7.085  -1.345  -3.909  0.00  0.00     0.027 H 
ATOM     46  CZ  PHE d   2       4.295  -1.372  -1.887  0.00  0.00    -0.053 A 
ATOM     47 1HE1 PHE d   2       4.678  -1.937  -3.930  0.00  0.00     0.026 H 
ATOM     48 2HE1 PHE d   2       5.562  -2.901  -2.723  0.00  0.00     0.026 H 
ATOM     49  CE2 PHE d   2       3.815   0.033  -2.255  0.00  0.00    -0.053 A 
ATOM     50  HZ1 PHE d   2       3.436  -2.035  -1.786  0.00  0.00     0.026 H 
ATOM     51  HZ2 PHE d   2       4.838  -1.334  -0.942  0.00  0.00     0.026 H 
ATOM     52  CD2 PHE d   2       5.021   0.963  -2.397  0.00  0.00    -0.050 A 
ATOM     53 1HE2 PHE d   2       3.155   0.409  -1.473  0.00  0.00     0.026 H 
ATOM     54 2HE2 PHE d   2       3.272  -0.005  -3.200  0.00  0.00     0.026 H 
ATOM     55 1HD2 PHE d   2       5.563   1.001  -1.453  0.00  0.00     0.027 H 
ATOM     56 2HD2 PHE d   2       4.678   1.965  -2.660  0.00  0.00     0.027 H 
ATOM     57  HG  PHE d   2       5.403   0.398  -4.440  0.00  0.00     0.030 H 
ENDBRANCH  38  41
ENDBRANCH   1  38
TORSDOF 2
ENDMDL
MODEL 4
REMARK VINA RESULT:      -7.0      3.651      5.656
REMARK  2 active torsions:
REMARK  status: ('A' for Active; 'I' for Inactive)
REMARK    1  A    between atoms: CG_4  and  CB_7 
REMARK    2  A    between atoms: CB_7  and  CA_8 
REMARK       I    between atoms: N_15  and  C_22 
REMARK       I    between atoms: C_22  and  N_24 
ROOT
ATOM      1  CA  PHE d   2       5.764  -3.163  -5.215  0.00  0.00     0.100 C 
ATOM      2  HA  PHE d   2       6.766  -3.052  -4.798  0.00  0.00     0.059 H 
ATOM      3  C   PHE d   2       5.621  -4.532  -5.815  0.00  0.00     0.237 C 
ATOM      4  O   PHE d   2       6.347  -5.426  -5.436  0.00  0.00    -0.274 OA
ATOM      5  N   PHE d   2       5.552  -2.150  -6.249  0.00  0.00    -0.302 N 
ATOM      6  H   PHE d   2       6.004  -1.294  -6.185  0.00  0.00     0.149 HD
ATOM      7  N   UNK d   1       4.699  -4.789  -6.771  0.00  0.00    -0.285 N 
ATOM      8  C   UNK d   1       4.421  -6.192  -7.068  0.00  0.00     0.031 C 
ATOM      9  C   UNK d   1       4.115  -6.447  -8.534  0.00  0.00     0.032 C 
ATOM     10  N   UNK d   1       3.306  -5.353  -9.077  0.00  0.00    -0.282 N 
ATOM     11  C   UNK d   1       3.804  -3.981  -8.917  0.00  0.00     0.043 C 
ATOM     12  C   UNK d   1       3.987  -3.695  -7.421  0.00  0.00     0.118 C 
ATOM     13  H   UNK d   1       3.001  -3.589  -6.969  0.00  0.00     0.061 H 
ATOM     14  C   UNK d   1       4.737  -2.398  -7.284  0.00  0.00     0.236 C 
ATOM     15  O   UNK d   1       4.600  -1.549  -8.139  0.00  0.00    -0.274 OA
ATOM     16  C   UNK d   1       2.138  -5.597  -9.706  0.00  0.00     0.305 C 
ATOM     17  O   UNK d   1       1.642  -6.706  -9.656  0.00  0.00    -0.252 OA
ATOM     18  N   UNK d   1       1.522  -4.613 -10.390  0.00  0.00    -0.281 N 
ATOM     19  C   UNK d   1       2.271  -3.442 -10.872  0.00  0.00     0.040 C 
ATOM     20  C   UNK d   1       1.952  -3.251 -12.364  0.00  0.00     0.064 C 
ATOM     21  O   UNK d   1       0.534  -3.214 -12.540  0.00  0.00    -0.377 OA
ATOM     22  C   UNK d   1      -0.134  -4.422 -12.167  0.00  0.00     0.064 C 
ATOM     23  C   UNK d   1       0.079  -4.676 -10.671  0.00  0.00     0.040 C 
ATOM     24  H   UNK d   1       5.288  -6.790  -6.783  0.00  0.00     0.048 H 
ATOM     25  H   UNK d   1       3.566  -6.514  -6.471  0.00  0.00     0.048 H 
ATOM     26  H   UNK d   1       5.049  -6.516  -9.091  0.00  0.00     0.048 H 
ATOM     27  H   UNK d   1       3.565  -7.382  -8.631  0.00  0.00     0.048 H 
ATOM     28  H   UNK d   1       3.085  -3.278  -9.338  0.00  0.00     0.049 H 
ATOM     29  H   UNK d   1       4.762  -3.878  -9.428  0.00  0.00     0.049 H 
ATOM     30  H   UNK d   1       1.967  -2.556 -10.313  0.00  0.00     0.049 H 
ATOM     31  H   UNK d   1       3.340  -3.610 -10.742  0.00  0.00     0.049 H 
ATOM     32  H   UNK d   1       2.369  -4.079 -12.936  0.00  0.00     0.058 H 
ATOM     33  H   UNK d   1       2.387  -2.313 -12.710  0.00  0.00     0.058 H 
ATOM     34  H   UNK d   1       0.276  -5.255 -12.739  0.00  0.00     0.058 H 
ATOM     35  H   UNK d   1      -1.200  -4.328 -12.373  0.00  0.00     0.058 H 
ATOM     36  H   UNK d   1      -0.304  -5.662 -10.408  0.00  0.00     0.049 H 
ATOM     37  H   UNK d   1      -0.442  -3.913 -10.091  0.00  0.00     0.049 H 
ENDROOT
BRANCH   1  38
ATOM     38  CB  PHE d   2       4.727  -2.982  -4.105  0.00  0.00    -0.023 C 
ATOM     39  HB1 PHE d   2       5.050  -3.523  -3.215  0.00  0.00     0.029 H 
ATOM     40  HB2 PHE d   2       3.765  -3.373  -4.438  0.00  0.00     0.029 H 
BRANCH  38  41
ATOM     41  CG  PHE d   2       4.586  -1.495  -3.776  0.00  0.00    -0.039 A 
ATOM     42  CD1 PHE d   2       3.360  -1.283  -2.884  0.00  0.00    -0.050 A 
ATOM     43  CE1 PHE d   2       3.220   0.204  -2.555  0.00  0.00    -0.053 A 
ATOM     44 1HD1 PHE d   2       3.480  -1.851  -1.961  0.00  0.00     0.027 H 
ATOM     45 2HD1 PHE d   2       2.468  -1.626  -3.407  0.00  0.00     0.027 H 
ATOM     46  CZ  PHE d   2       4.473   0.685  -1.821  0.00  0.00    -0.053 A 
ATOM     47 1HE1 PHE d   2       3.100   0.770  -3.478  0.00  0.00     0.026 H 
ATOM     48 2HE1 PHE d   2       2.346   0.355  -1.920  0.00  0.00     0.026 H 
ATOM     49  CE2 PHE d   2       5.698   0.473  -2.711  0.00  0.00    -0.053 A 
ATOM     50  HZ1 PHE d   2       4.373   1.744  -1.586  0.00  0.00     0.026 H 
ATOM     51  HZ2 PHE d   2       4.592   0.117  -0.897  0.00  0.00     0.026 H 
ATOM     52  CD2 PHE d   2       5.839  -1.014  -3.041  0.00  0.00    -0.050 A 
ATOM     53 1HE2 PHE d   2       6.592   0.815  -2.189  0.00  0.00     0.026 H 
ATOM     54 2HE2 PHE d   2       5.579   1.040  -3.635  0.00  0.00     0.026 H 
ATOM     55 1HD2 PHE d   2       5.959  -1.581  -2.118  0.00  0.00     0.027 H 
ATOM     56 2HD2 PHE d   2       6.713  -1.165  -3.676  0.00  0.00     0.027 H 
ATOM     57  HG  PHE d   2       4.466  -0.928  -4.699  0.00  0.00     0.030 H 
ENDBRANCH  38  41
ENDBRANCH   1  38
TORSDOF 2
ENDMDL
MODEL 5
REMARK VINA RESULT:      -6.5      5.984      6.762
REMARK  2 active torsions:
REMARK  status: ('A' for Active; 'I' for Inactive)
REMARK    1  A    between atoms: CG_4  and  CB_7 
REMARK    2  A    between atoms: CB_7  and  CA_8 
REMARK       I    between atoms: N_15  and  C_22 
REMARK       I    between atoms: C_22  and  N_24 
ROOT
ATOM      1  CA  PHE d   2       3.882  -0.141  -6.359  0.00  0.00     0.100 C 
ATOM      2  HA  PHE d   2       3.879   0.771  -5.763  0.00  0.00     0.059 H 
ATOM      3  C   PHE d   2       5.116  -0.175  -7.216  0.00  0.00     0.237 C 
ATOM      4  O   PHE d   2       6.085   0.475  -6.887  0.00  0.00    -0.274 OA
ATOM      5  N   PHE d   2       2.693  -0.172  -7.211  0.00  0.00    -0.302 N 
ATOM      6  H   PHE d   2       1.877   0.261  -6.915  0.00  0.00     0.149 HD
ATOM      7  N   UNK d   1       5.168  -0.916  -8.346  0.00  0.00    -0.285 N 
ATOM      8  C   UNK d   1       6.486  -1.135  -8.938  0.00  0.00     0.031 C 
ATOM      9  C   UNK d   1       6.462  -1.179 -10.456  0.00  0.00     0.032 C 
ATOM     10  N   UNK d   1       5.264  -1.882 -10.922  0.00  0.00    -0.282 N 
ATOM     11  C   UNK d   1       3.959  -1.422 -10.430  0.00  0.00     0.043 C 
ATOM     12  C   UNK d   1       3.954  -1.504  -8.899  0.00  0.00     0.118 C 
ATOM     13  H   UNK d   1       3.901  -2.554  -8.611  0.00  0.00     0.061 H 
ATOM     14  C   UNK d   1       2.726  -0.792  -8.399  0.00  0.00     0.236 C 
ATOM     15  O   UNK d   1       1.733  -0.779  -9.095  0.00  0.00    -0.274 OA
ATOM     16  C   UNK d   1       5.356  -2.921 -11.776  0.00  0.00     0.305 C 
ATOM     17  O   UNK d   1       6.440  -3.417 -12.016  0.00  0.00    -0.252 OA
ATOM     18  N   UNK d   1       4.247  -3.411 -12.364  0.00  0.00    -0.281 N 
ATOM     19  C   UNK d   1       3.030  -2.591 -12.488  0.00  0.00     0.040 C 
ATOM     20  C   UNK d   1       2.564  -2.644 -13.952  0.00  0.00     0.064 C 
ATOM     21  O   UNK d   1       2.453  -4.009 -14.360  0.00  0.00    -0.377 OA
ATOM     22  C   UNK d   1       3.688  -4.730 -14.335  0.00  0.00     0.064 C 
ATOM     23  C   UNK d   1       4.213  -4.782 -12.897  0.00  0.00     0.040 C 
ATOM     24  H   UNK d   1       7.151  -0.330  -8.622  0.00  0.00     0.048 H 
ATOM     25  H   UNK d   1       6.884  -2.080  -8.567  0.00  0.00     0.048 H 
ATOM     26  H   UNK d   1       6.458  -0.162 -10.847  0.00  0.00     0.048 H 
ATOM     27  H   UNK d   1       7.348  -1.702 -10.816  0.00  0.00     0.048 H 
ATOM     28  H   UNK d   1       3.171  -2.058 -10.833  0.00  0.00     0.049 H 
ATOM     29  H   UNK d   1       3.795  -0.390 -10.741  0.00  0.00     0.049 H 
ATOM     30  H   UNK d   1       2.252  -2.989 -11.837  0.00  0.00     0.049 H 
ATOM     31  H   UNK d   1       3.252  -1.561 -12.208  0.00  0.00     0.049 H 
ATOM     32  H   UNK d   1       3.288  -2.132 -14.586  0.00  0.00     0.058 H 
ATOM     33  H   UNK d   1       1.593  -2.157 -14.041  0.00  0.00     0.058 H 
ATOM     34  H   UNK d   1       4.416  -4.225 -14.971  0.00  0.00     0.058 H 
ATOM     35  H   UNK d   1       3.526  -5.744 -14.701  0.00  0.00     0.058 H 
ATOM     36  H   UNK d   1       5.219  -5.203 -12.888  0.00  0.00     0.049 H 
ATOM     37  H   UNK d   1       3.553  -5.397 -12.286  0.00  0.00     0.049 H 
ENDROOT
BRANCH   1  38
ATOM     38  CB  PHE d   2       3.874  -1.358  -5.431  0.00  0.00    -0.023 C 
ATOM     39  HB1 PHE d   2       4.829  -1.877  -5.504  0.00  0.00     0.029 H 
ATOM     40  HB2 PHE d   2       3.069  -2.033  -5.723  0.00  0.00     0.029 H 
BRANCH  38  41
ATOM     41  CG  PHE d   2       3.654  -0.896  -3.989  0.00  0.00    -0.039 A 
ATOM     42  CD1 PHE d   2       4.760  -1.465  -3.097  0.00  0.00    -0.050 A 
ATOM     43  CE1 PHE d   2       4.541  -1.003  -1.655  0.00  0.00    -0.053 A 
ATOM     44 1HD1 PHE d   2       5.729  -1.110  -3.449  0.00  0.00     0.027 H 
ATOM     45 2HD1 PHE d   2       4.736  -2.553  -3.138  0.00  0.00     0.027 H 
ATOM     46  CZ  PHE d   2       4.575   0.526  -1.598  0.00  0.00    -0.053 A 
ATOM     47 1HE1 PHE d   2       3.572  -1.358  -1.304  0.00  0.00     0.026 H 
ATOM     48 2HE1 PHE d   2       5.329  -1.408  -1.020  0.00  0.00     0.026 H 
ATOM     49  CE2 PHE d   2       3.470   1.095  -2.489  0.00  0.00    -0.053 A 
ATOM     50  HZ1 PHE d   2       4.419   0.855  -0.571  0.00  0.00     0.026 H 
ATOM     51  HZ2 PHE d   2       5.544   0.880  -1.950  0.00  0.00     0.026 H 
ATOM     52  CD2 PHE d   2       3.689   0.633  -3.932  0.00  0.00    -0.050 A 
ATOM     53 1HE2 PHE d   2       3.494   2.184  -2.449  0.00  0.00     0.026 H 
ATOM     54 2HE2 PHE d   2       2.501   0.740  -2.137  0.00  0.00     0.026 H 
ATOM     55 1HD2 PHE d   2       4.657   0.988  -4.283  0.00  0.00     0.027 H 
ATOM     56 2HD2 PHE d   2       2.901   1.038  -4.567  0.00  0.00     0.027 H 
ATOM     57  HG  PHE d   2       2.685  -1.251  -3.637  0.00  0.00     0.030 H 
ENDBRANCH  38  41
ENDBRANCH   1  38
TORSDOF 2
ENDMDL
MODEL 6
REMARK VINA RESULT:      -6.3      8.152     12.959
REMARK  2 active torsions:
REMARK  status: ('A' for Active; 'I' for Inactive)
REMARK    1  A    between atoms: CG_4  and  CB_7 
REMARK    2  A    between atoms: CB_7  and  CA_8 
REMARK       I    between atoms: N_15  and  C_22 
REMARK       I    between atoms: C_22  and  N_24 
ROOT
ATOM      1  CA  PHE d   2       8.859   1.785  -4.856  0.00  0.00     0.100 C 
ATOM      2  HA  PHE d   2       8.995   0.944  -5.537  0.00  0.00     0.059 H 
ATOM      3  C   PHE d   2       9.189   3.064  -5.570  0.00  0.00     0.237 C 
ATOM      4  O   PHE d   2       9.134   3.100  -6.781  0.00  0.00    -0.274 OA
ATOM      5  N   PHE d   2       9.743   1.626  -3.702  0.00  0.00    -0.302 N 
ATOM      6  H   PHE d   2       9.984   0.737  -3.398  0.00  0.00     0.149 HD
ATOM      7  N   UNK d   1       9.545   4.178  -4.890  0.00  0.00    -0.285 N 
ATOM      8  C   UNK d   1       9.543   5.439  -5.630  0.00  0.00     0.031 C 
ATOM      9  C   UNK d   1      10.644   6.391  -5.196  0.00  0.00     0.032 C 
ATOM     10  N   UNK d   1      10.819   6.332  -3.743  0.00  0.00    -0.282 N 
ATOM     11  C   UNK d   1      11.044   5.017  -3.128  0.00  0.00     0.043 C 
ATOM     12  C   UNK d   1       9.861   4.105  -3.469  0.00  0.00     0.118 C 
ATOM     13  H   UNK d   1       8.996   4.434  -2.892  0.00  0.00     0.061 H 
ATOM     14  C   UNK d   1      10.222   2.702  -3.062  0.00  0.00     0.236 C 
ATOM     15  O   UNK d   1      10.974   2.540  -2.123  0.00  0.00    -0.274 OA
ATOM     16  C   UNK d   1      10.773   7.450  -2.991  0.00  0.00     0.305 C 
ATOM     17  O   UNK d   1      10.389   8.495  -3.480  0.00  0.00    -0.252 OA
ATOM     18  N   UNK d   1      11.154   7.410  -1.699  0.00  0.00    -0.281 N 
ATOM     19  C   UNK d   1      12.042   6.346  -1.203  0.00  0.00     0.040 C 
ATOM     20  C   UNK d   1      13.200   7.007  -0.437  0.00  0.00     0.064 C 
ATOM     21  O   UNK d   1      12.664   7.895   0.547  0.00  0.00    -0.377 OA
ATOM     22  C   UNK d   1      11.907   8.981   0.005  0.00  0.00     0.064 C 
ATOM     23  C   UNK d   1      10.689   8.425  -0.740  0.00  0.00     0.040 C 
ATOM     24  H   UNK d   1       9.665   5.223  -6.692  0.00  0.00     0.048 H 
ATOM     25  H   UNK d   1       8.580   5.929  -5.484  0.00  0.00     0.048 H 
ATOM     26  H   UNK d   1      11.577   6.109  -5.684  0.00  0.00     0.048 H 
ATOM     27  H   UNK d   1      10.377   7.407  -5.484  0.00  0.00     0.048 H 
ATOM     28  H   UNK d   1      11.122   5.127  -2.047  0.00  0.00     0.049 H 
ATOM     29  H   UNK d   1      11.965   4.584  -3.521  0.00  0.00     0.049 H 
ATOM     30  H   UNK d   1      11.487   5.685  -0.537  0.00  0.00     0.049 H 
ATOM     31  H   UNK d   1      12.436   5.775  -2.044  0.00  0.00     0.049 H 
ATOM     32  H   UNK d   1      13.826   7.567  -1.131  0.00  0.00     0.058 H 
ATOM     33  H   UNK d   1      13.796   6.238   0.054  0.00  0.00     0.058 H 
ATOM     34  H   UNK d   1      12.529   9.548  -0.688  0.00  0.00     0.058 H 
ATOM     35  H   UNK d   1      11.574   9.632   0.813  0.00  0.00     0.058 H 
ATOM     36  H   UNK d   1      10.186   9.231  -1.275  0.00  0.00     0.049 H 
ATOM     37  H   UNK d   1       9.999   7.970  -0.029  0.00  0.00     0.049 H 
ENDROOT
BRANCH   1  38
ATOM     38  CB  PHE d   2       7.404   1.827  -4.382  0.00  0.00    -0.023 C 
ATOM     39  HB1 PHE d   2       6.744   1.924  -5.244  0.00  0.00     0.029 H 
ATOM     40  HB2 PHE d   2       7.263   2.679  -3.717  0.00  0.00     0.029 H 
BRANCH  38  41
ATOM     41  CG  PHE d   2       7.076   0.534  -3.632  0.00  0.00    -0.039 A 
ATOM     42  CD1 PHE d   2       5.658   0.622  -3.062  0.00  0.00    -0.050 A 
ATOM     43  CE1 PHE d   2       5.330  -0.671  -2.312  0.00  0.00    -0.053 A 
ATOM     44 1HD1 PHE d   2       4.947   0.761  -3.876  0.00  0.00     0.027 H 
ATOM     45 2HD1 PHE d   2       5.594   1.466  -2.377  0.00  0.00     0.027 H 
ATOM     46  CZ  PHE d   2       5.420  -1.856  -3.275  0.00  0.00    -0.053 A 
ATOM     47 1HE1 PHE d   2       6.041  -0.808  -1.498  0.00  0.00     0.026 H 
ATOM     48 2HE1 PHE d   2       4.320  -0.608  -1.906  0.00  0.00     0.026 H 
ATOM     49  CE2 PHE d   2       6.837  -1.944  -3.845  0.00  0.00    -0.053 A 
ATOM     50  HZ1 PHE d   2       5.186  -2.777  -2.741  0.00  0.00     0.026 H 
ATOM     51  HZ2 PHE d   2       4.709  -1.717  -4.089  0.00  0.00     0.026 H 
ATOM     52  CD2 PHE d   2       7.166  -0.651  -4.595  0.00  0.00    -0.050 A 
ATOM     53 1HE2 PHE d   2       6.902  -2.788  -4.531  0.00  0.00     0.026 H 
ATOM     54 2HE2 PHE d   2       7.548  -2.083  -3.030  0.00  0.00     0.026 H 
ATOM     55 1HD2 PHE d   2       6.455  -0.513  -5.409  0.00  0.00     0.027 H 
ATOM     56 2HD2 PHE d   2       8.176  -0.714  -5.001  0.00  0.00     0.027 H 
ATOM     57  HG  PHE d   2       7.787   0.396  -2.818  0.00  0.00     0.030 H 
ENDBRANCH  38  41
ENDBRANCH   1  38
TORSDOF 2
ENDMDL
MODEL 7
REMARK VINA RESULT:      -6.3      5.167      7.586
REMARK  2 active torsions:
REMARK  status: ('A' for Active; 'I' for Inactive)
REMARK    1  A    between atoms: CG_4  and  CB_7 
REMARK    2  A    between atoms: CB_7  and  CA_8 
REMARK       I    between atoms: N_15  and  C_22 
REMARK       I    between atoms: C_22  and  N_24 
ROOT
ATOM      1  CA  PHE d   2       4.639  -0.556  -6.179  0.00  0.00     0.100 C 
ATOM      2  HA  PHE d   2       5.299  -0.499  -5.313  0.00  0.00     0.059 H 
ATOM      3  C   PHE d   2       4.708  -1.934  -6.771  0.00  0.00     0.237 C 
ATOM      4  O   PHE d   2       5.070  -2.861  -6.078  0.00  0.00    -0.274 OA
ATOM      5  N   PHE d   2       5.058   0.428  -7.177  0.00  0.00    -0.302 N 
ATOM      6  H   PHE d   2       5.483   1.252  -6.893  0.00  0.00     0.149 HD
ATOM      7  N   UNK d   1       4.375  -2.163  -8.061  0.00  0.00    -0.285 N 
ATOM      8  C   UNK d   1       4.173  -3.555  -8.460  0.00  0.00     0.031 C 
ATOM      9  C   UNK d   1       4.627  -3.845  -9.880  0.00  0.00     0.032 C 
ATOM     10  N   UNK d   1       4.293  -2.719 -10.757  0.00  0.00    -0.282 N 
ATOM     11  C   UNK d   1       4.751  -1.380 -10.365  0.00  0.00     0.043 C 
ATOM     12  C   UNK d   1       4.178  -1.050  -8.981  0.00  0.00     0.118 C 
ATOM     13  H   UNK d   1       3.111  -0.857  -9.089  0.00  0.00     0.061 H 
ATOM     14  C   UNK d   1       4.859   0.197  -8.482  0.00  0.00     0.236 C 
ATOM     15  O   UNK d   1       5.239   1.019  -9.289  0.00  0.00    -0.274 OA
ATOM     16  C   UNK d   1       3.585  -2.906 -11.889  0.00  0.00     0.305 C 
ATOM     17  O   UNK d   1       3.044  -3.975 -12.097  0.00  0.00    -0.252 OA
ATOM     18  N   UNK d   1       3.478  -1.910 -12.789  0.00  0.00    -0.281 N 
ATOM     19  C   UNK d   1       4.459  -0.813 -12.826  0.00  0.00     0.040 C 
ATOM     20  C   UNK d   1       4.952  -0.660 -14.274  0.00  0.00     0.064 C 
ATOM     21  O   UNK d   1       3.824  -0.531 -15.142  0.00  0.00    -0.377 OA
ATOM     22  C   UNK d   1       2.964  -1.674 -15.160  0.00  0.00     0.064 C 
ATOM     23  C   UNK d   1       2.373  -1.882 -13.761  0.00  0.00     0.040 C 
ATOM     24  H   UNK d   1       4.727  -4.199  -7.777  0.00  0.00     0.048 H 
ATOM     25  H   UNK d   1       3.112  -3.793  -8.377  0.00  0.00     0.048 H 
ATOM     26  H   UNK d   1       5.706  -4.002  -9.889  0.00  0.00     0.048 H 
ATOM     27  H   UNK d   1       4.128  -4.743 -10.243  0.00  0.00     0.048 H 
ATOM     28  H   UNK d   1       4.401  -0.646 -11.090  0.00  0.00     0.049 H 
ATOM     29  H   UNK d   1       5.840  -1.365 -10.322  0.00  0.00     0.049 H 
ATOM     30  H   UNK d   1       3.988   0.113 -12.496  0.00  0.00     0.049 H 
ATOM     31  H   UNK d   1       5.300  -1.050 -12.174  0.00  0.00     0.049 H 
ATOM     32  H   UNK d   1       5.532  -1.537 -14.559  0.00  0.00     0.058 H 
ATOM     33  H   UNK d   1       5.575   0.231 -14.353  0.00  0.00     0.058 H 
ATOM     34  H   UNK d   1       3.537  -2.555 -15.447  0.00  0.00     0.058 H 
ATOM     35  H   UNK d   1       2.158  -1.513 -15.875  0.00  0.00     0.058 H 
ATOM     36  H   UNK d   1       1.833  -2.828 -13.728  0.00  0.00     0.049 H 
ATOM     37  H   UNK d   1       1.695  -1.063 -13.523  0.00  0.00     0.049 H 
ENDROOT
BRANCH   1  38
ATOM     38  CB  PHE d   2       3.202  -0.260  -5.744  0.00  0.00    -0.023 C 
ATOM     39  HB1 PHE d   2       2.545  -1.055  -6.097  0.00  0.00     0.029 H 
ATOM     40  HB2 PHE d   2       2.882   0.692  -6.169  0.00  0.00     0.029 H 
BRANCH  38  41
ATOM     41  CG  PHE d   2       3.137  -0.185  -4.218  0.00  0.00    -0.039 A 
ATOM     42  CD1 PHE d   2       3.922  -1.352  -3.616  0.00  0.00    -0.050 A 
ATOM     43  CE1 PHE d   2       3.857  -1.277  -2.089  0.00  0.00    -0.053 A 
ATOM     44 1HD1 PHE d   2       4.962  -1.295  -3.939  0.00  0.00     0.027 H 
ATOM     45 2HD1 PHE d   2       3.489  -2.293  -3.953  0.00  0.00     0.027 H 
ATOM     46  CZ  PHE d   2       4.466   0.045  -1.617  0.00  0.00    -0.053 A 
ATOM     47 1HE1 PHE d   2       2.818  -1.335  -1.767  0.00  0.00     0.026 H 
ATOM     48 2HE1 PHE d   2       4.417  -2.109  -1.661  0.00  0.00     0.026 H 
ATOM     49  CE2 PHE d   2       3.681   1.212  -2.218  0.00  0.00    -0.053 A 
ATOM     50  HZ1 PHE d   2       4.420   0.098  -0.529  0.00  0.00     0.026 H 
ATOM     51  HZ2 PHE d   2       5.506   0.102  -1.940  0.00  0.00     0.026 H 
ATOM     52  CD2 PHE d   2       3.745   1.137  -3.745  0.00  0.00    -0.050 A 
ATOM     53 1HE2 PHE d   2       4.114   2.154  -1.882  0.00  0.00     0.026 H 
ATOM     54 2HE2 PHE d   2       2.641   1.154  -1.895  0.00  0.00     0.026 H 
ATOM     55 1HD2 PHE d   2       4.784   1.195  -4.068  0.00  0.00     0.027 H 
ATOM     56 2HD2 PHE d   2       3.185   1.969  -4.174  0.00  0.00     0.027 H 
ATOM     57  HG  PHE d   2       2.097  -0.242  -3.895  0.00  0.00     0.030 H 
ENDBRANCH  38  41
ENDBRANCH   1  38
TORSDOF 2
ENDMDL
MODEL 8
REMARK VINA RESULT:      -6.2      2.893      3.586
REMARK  2 active torsions:
REMARK  status: ('A' for Active; 'I' for Inactive)
REMARK    1  A    between atoms: CG_4  and  CB_7 
REMARK    2  A    between atoms: CB_7  and  CA_8 
REMARK       I    between atoms: N_15  and  C_22 
REMARK       I    between atoms: C_22  and  N_24 
ROOT
ATOM      1  CA  PHE d   2       4.714  -2.875  -4.858  0.00  0.00     0.100 C 
ATOM      2  HA  PHE d   2       3.952  -2.243  -4.402  0.00  0.00     0.059 H 
ATOM      3  C   PHE d   2       4.786  -2.587  -6.331  0.00  0.00     0.237 C 
ATOM      4  O   PHE d   2       4.389  -1.520  -6.748  0.00  0.00    -0.274 OA
ATOM      5  N   PHE d   2       4.371  -4.281  -4.650  0.00  0.00    -0.302 N 
ATOM      6  H   PHE d   2       3.873  -4.544  -3.860  0.00  0.00     0.149 HD
ATOM      7  N   UNK d   1       5.284  -3.494  -7.202  0.00  0.00    -0.285 N 
ATOM      8  C   UNK d   1       5.602  -3.020  -8.547  0.00  0.00     0.031 C 
ATOM      9  C   UNK d   1       5.338  -4.056  -9.627  0.00  0.00     0.032 C 
ATOM     10  N   UNK d   1       5.719  -5.388  -9.151  0.00  0.00    -0.282 N 
ATOM     11  C   UNK d   1       5.151  -5.856  -7.881  0.00  0.00     0.043 C 
ATOM     12  C   UNK d   1       5.535  -4.865  -6.775  0.00  0.00     0.118 C 
ATOM     13  H   UNK d   1       6.596  -4.986  -6.560  0.00  0.00     0.061 H 
ATOM     14  C   UNK d   1       4.738  -5.209  -5.546  0.00  0.00     0.236 C 
ATOM     15  O   UNK d   1       4.417  -6.364  -5.360  0.00  0.00    -0.274 OA
ATOM     16  C   UNK d   1       6.567  -6.162  -9.858  0.00  0.00     0.305 C 
ATOM     17  O   UNK d   1       7.182  -5.691 -10.795  0.00  0.00    -0.252 OA
ATOM     18  N   UNK d   1       6.733  -7.458  -9.527  0.00  0.00    -0.281 N 
ATOM     19  C   UNK d   1       5.710  -8.179  -8.753  0.00  0.00     0.040 C 
ATOM     20  C   UNK d   1       5.389  -9.491  -9.487  0.00  0.00     0.064 C 
ATOM     21  O   UNK d   1       6.607 -10.196  -9.740  0.00  0.00    -0.377 OA
ATOM     22  C   UNK d   1       7.518  -9.502 -10.597  0.00  0.00     0.064 C 
ATOM     23  C   UNK d   1       7.944  -8.193  -9.925  0.00  0.00     0.040 C 
ATOM     24  H   UNK d   1       5.002  -2.135  -8.758  0.00  0.00     0.048 H 
ATOM     25  H   UNK d   1       6.656  -2.741  -8.581  0.00  0.00     0.048 H 
ATOM     26  H   UNK d   1       4.278  -4.052  -9.879  0.00  0.00     0.048 H 
ATOM     27  H   UNK d   1       5.922  -3.811 -10.514  0.00  0.00     0.048 H 
ATOM     28  H   UNK d   1       5.549  -6.842  -7.642  0.00  0.00     0.049 H 
ATOM     29  H   UNK d   1       4.065  -5.908  -7.964  0.00  0.00     0.049 H 
ATOM     30  H   UNK d   1       6.091  -8.397  -7.755  0.00  0.00     0.049 H 
ATOM     31  H   UNK d   1       4.809  -7.569  -8.677  0.00  0.00     0.049 H 
ATOM     32  H   UNK d   1       4.893  -9.270 -10.431  0.00  0.00     0.058 H 
ATOM     33  H   UNK d   1       4.736 -10.104  -8.865  0.00  0.00     0.058 H 
ATOM     34  H   UNK d   1       7.028  -9.282 -11.545  0.00  0.00     0.058 H 
ATOM     35  H   UNK d   1       8.395 -10.123 -10.775  0.00  0.00     0.058 H 
ATOM     36  H   UNK d   1       8.524  -7.592 -10.626  0.00  0.00     0.049 H 
ATOM     37  H   UNK d   1       8.547  -8.411  -9.043  0.00  0.00     0.049 H 
ENDROOT
BRANCH   1  38
ATOM     38  CB  PHE d   2       6.072  -2.582  -4.216  0.00  0.00    -0.023 C 
ATOM     39  HB1 PHE d   2       6.793  -2.328  -4.992  0.00  0.00     0.029 H 
ATOM     40  HB2 PHE d   2       6.415  -3.463  -3.673  0.00  0.00     0.029 H 
BRANCH  38  41
ATOM     41  CG  PHE d   2       5.932  -1.407  -3.246  0.00  0.00    -0.039 A 
ATOM     42  CD1 PHE d   2       6.135  -0.093  -4.004  0.00  0.00    -0.050 A 
ATOM     43  CE1 PHE d   2       5.996   1.082  -3.034  0.00  0.00    -0.053 A 
ATOM     44 1HD1 PHE d   2       5.383  -0.007  -4.789  0.00  0.00     0.027 H 
ATOM     45 2HD1 PHE d   2       7.129  -0.081  -4.449  0.00  0.00     0.027 H 
ATOM     46  CZ  PHE d   2       4.600   1.064  -2.408  0.00  0.00    -0.053 A 
ATOM     47 1HE1 PHE d   2       6.747   0.996  -2.249  0.00  0.00     0.026 H 
ATOM     48 2HE1 PHE d   2       6.140   2.018  -3.574  0.00  0.00     0.026 H 
ATOM     49  CE2 PHE d   2       4.397  -0.249  -1.650  0.00  0.00    -0.053 A 
ATOM     50  HZ1 PHE d   2       4.501   1.901  -1.717  0.00  0.00     0.026 H 
ATOM     51  HZ2 PHE d   2       3.849   1.150  -3.193  0.00  0.00     0.026 H 
ATOM     52  CD2 PHE d   2       4.537  -1.425  -2.619  0.00  0.00    -0.050 A 
ATOM     53 1HE2 PHE d   2       3.403  -0.262  -1.203  0.00  0.00     0.026 H 
ATOM     54 2HE2 PHE d   2       5.149  -0.335  -0.864  0.00  0.00     0.026 H 
ATOM     55 1HD2 PHE d   2       3.785  -1.339  -3.404  0.00  0.00     0.027 H 
ATOM     56 2HD2 PHE d   2       4.392  -2.361  -2.079  0.00  0.00     0.027 H 
ATOM     57  HG  PHE d   2       6.684  -1.493  -2.460  0.00  0.00     0.030 H 
ENDBRANCH  38  41
ENDBRANCH   1  38
TORSDOF 2
ENDMDL
MODEL 9
REMARK VINA RESULT:      -6.0      6.737      9.255
REMARK  2 active torsions:
REMARK  status: ('A' for Active; 'I' for Inactive)
REMARK    1  A    between atoms: CG_4  and  CB_7 
REMARK    2  A    between atoms: CB_7  and  CA_8 
REMARK       I    between atoms: N_15  and  C_22 
REMARK       I    between atoms: C_22  and  N_24 
ROOT
ATOM      1  CA  PHE d   2       9.697   2.490  -8.385  0.00  0.00     0.100 C 
ATOM      2  HA  PHE d   2      10.700   2.590  -8.800  0.00  0.00     0.059 H 
ATOM      3  C   PHE d   2       9.738   2.754  -6.907  0.00  0.00     0.237 C 
ATOM      4  O   PHE d   2      10.647   3.412  -6.447  0.00  0.00    -0.274 OA
ATOM      5  N   PHE d   2       9.203   1.134  -8.627  0.00  0.00    -0.302 N 
ATOM      6  H   PHE d   2       9.500   0.646  -9.410  0.00  0.00     0.149 HD
ATOM      7  N   UNK d   1       8.783   2.273  -6.079  0.00  0.00    -0.285 N 
ATOM      8  C   UNK d   1       8.730   2.831  -4.729  0.00  0.00     0.031 C 
ATOM      9  C   UNK d   1       8.326   1.815  -3.675  0.00  0.00     0.032 C 
ATOM     10  N   UNK d   1       7.284   0.929  -4.201  0.00  0.00    -0.282 N 
ATOM     11  C   UNK d   1       7.545   0.236  -5.469  0.00  0.00     0.043 C 
ATOM     12  C   UNK d   1       7.826   1.282  -6.554  0.00  0.00     0.118 C 
ATOM     13  H   UNK d   1       6.888   1.779  -6.803  0.00  0.00     0.061 H 
ATOM     14  C   UNK d   1       8.344   0.563  -7.771  0.00  0.00     0.236 C 
ATOM     15  O   UNK d   1       7.971  -0.571  -7.983  0.00  0.00    -0.274 OA
ATOM     16  C   UNK d   1       6.121   0.756  -3.543  0.00  0.00     0.305 C 
ATOM     17  O   UNK d   1       5.837   1.482  -2.609  0.00  0.00    -0.252 OA
ATOM     18  N   UNK d   1       5.272  -0.221  -3.918  0.00  0.00    -0.281 N 
ATOM     19  C   UNK d   1       5.747  -1.384  -4.685  0.00  0.00     0.040 C 
ATOM     20  C   UNK d   1       5.249  -2.657  -3.983  0.00  0.00     0.064 C 
ATOM     21  O   UNK d   1       3.837  -2.562  -3.786  0.00  0.00    -0.377 OA
ATOM     22  C   UNK d   1       3.436  -1.485  -2.934  0.00  0.00     0.064 C 
ATOM     23  C   UNK d   1       3.842  -0.155  -3.578  0.00  0.00     0.040 C 
ATOM     24  H   UNK d   1       9.714   3.227  -4.474  0.00  0.00     0.048 H 
ATOM     25  H   UNK d   1       8.012   3.652  -4.717  0.00  0.00     0.048 H 
ATOM     26  H   UNK d   1       9.196   1.222  -3.393  0.00  0.00     0.048 H 
ATOM     27  H   UNK d   1       7.944   2.337  -2.798  0.00  0.00     0.048 H 
ATOM     28  H   UNK d   1       6.673  -0.356  -5.749  0.00  0.00     0.049 H 
ATOM     29  H   UNK d   1       8.411  -0.416  -5.357  0.00  0.00     0.049 H 
ATOM     30  H   UNK d   1       5.350  -1.341  -5.700  0.00  0.00     0.049 H 
ATOM     31  H   UNK d   1       6.837  -1.382  -4.717  0.00  0.00     0.049 H 
ATOM     32  H   UNK d   1       5.746  -2.762  -3.019  0.00  0.00     0.058 H 
ATOM     33  H   UNK d   1       5.472  -3.525  -4.604  0.00  0.00     0.058 H 
ATOM     34  H   UNK d   1       3.926  -1.586  -1.966  0.00  0.00     0.058 H 
ATOM     35  H   UNK d   1       2.355  -1.510  -2.800  0.00  0.00     0.058 H 
ATOM     36  H   UNK d   1       3.670   0.661  -2.875  0.00  0.00     0.049 H 
ATOM     37  H   UNK d   1       3.257   0.010  -4.482  0.00  0.00     0.049 H 
ENDROOT
BRANCH   1  38
ATOM     38  CB  PHE d   2       8.763   3.499  -9.057  0.00  0.00    -0.023 C 
ATOM     39  HB1 PHE d   2       8.043   3.869  -8.326  0.00  0.00     0.029 H 
ATOM     40  HB2 PHE d   2       8.232   3.014  -9.877  0.00  0.00     0.029 H 
BRANCH  38  41
ATOM     41  CG  PHE d   2       9.584   4.669  -9.601  0.00  0.00    -0.039 A 
ATOM     42  CD1 PHE d   2      10.018   4.364 -11.037  0.00  0.00    -0.050 A 
ATOM     43  CE1 PHE d   2      10.839   5.534 -11.581  0.00  0.00    -0.053 A 
ATOM     44 1HD1 PHE d   2       9.135   4.218 -11.660  0.00  0.00     0.027 H 
ATOM     45 2HD1 PHE d   2      10.623   3.458 -11.048  0.00  0.00     0.027 H 
ATOM     46  CZ  PHE d   2       9.989   6.806 -11.565  0.00  0.00    -0.053 A 
ATOM     47 1HE1 PHE d   2      11.722   5.678 -10.958  0.00  0.00     0.026 H 
ATOM     48 2HE1 PHE d   2      11.148   5.316 -12.604  0.00  0.00     0.026 H 
ATOM     49  CE2 PHE d   2       9.556   7.111 -10.130  0.00  0.00    -0.053 A 
ATOM     50  HZ1 PHE d   2      10.574   7.639 -11.953  0.00  0.00     0.026 H 
ATOM     51  HZ2 PHE d   2       9.106   6.660 -12.188  0.00  0.00     0.026 H 
ATOM     52  CD2 PHE d   2       8.734   5.941  -9.585  0.00  0.00    -0.050 A 
ATOM     53 1HE2 PHE d   2       8.950   8.017 -10.118  0.00  0.00     0.026 H 
ATOM     54 2HE2 PHE d   2      10.439   7.256  -9.507  0.00  0.00     0.026 H 
ATOM     55 1HD2 PHE d   2       7.852   5.796 -10.207  0.00  0.00     0.027 H 
ATOM     56 2HD2 PHE d   2       8.425   6.159  -8.562  0.00  0.00     0.027 H 
ATOM     57  HG  PHE d   2      10.467   4.814  -8.978  0.00  0.00     0.030 H 
ENDBRANCH  38  41
ENDBRANCH   1  38
TORSDOF 2
ENDMDL
MODEL 10
REMARK VINA RESULT:      -6.0      6.972      9.621
REMARK  2 active torsions:
REMARK  status: ('A' for Active; 'I' for Inactive)
REMARK    1  A    between atoms: CG_4  and  CB_7 
REMARK    2  A    between atoms: CB_7  and  CA_8 
REMARK       I    between atoms: N_15  and  C_22 
REMARK       I    between atoms: C_22  and  N_24 
ROOT
ATOM      1  CA  PHE d   2       7.620   1.370  -4.553  0.00  0.00     0.100 C 
ATOM      2  HA  PHE d   2       6.834   1.939  -4.057  0.00  0.00     0.059 H 
ATOM      3  C   PHE d   2       8.962   1.910  -4.147  0.00  0.00     0.237 C 
ATOM      4  O   PHE d   2       9.064   2.525  -3.107  0.00  0.00    -0.274 OA
ATOM      5  N   PHE d   2       7.464   1.486  -6.003  0.00  0.00    -0.302 N 
ATOM      6  H   PHE d   2       6.581   1.607  -6.385  0.00  0.00     0.149 HD
ATOM      7  N   UNK d   1      10.058   1.723  -4.917  0.00  0.00    -0.285 N 
ATOM      8  C   UNK d   1      11.356   2.003  -4.306  0.00  0.00     0.031 C 
ATOM      9  C   UNK d   1      12.365   2.586  -5.280  0.00  0.00     0.032 C 
ATOM     10  N   UNK d   1      12.235   1.939  -6.588  0.00  0.00    -0.282 N 
ATOM     11  C   UNK d   1      10.908   1.918  -7.218  0.00  0.00     0.043 C 
ATOM     12  C   UNK d   1       9.926   1.212  -6.275  0.00  0.00     0.118 C 
ATOM     13  H   UNK d   1      10.152   0.146  -6.281  0.00  0.00     0.061 H 
ATOM     14  C   UNK d   1       8.535   1.427  -6.807  0.00  0.00     0.236 C 
ATOM     15  O   UNK d   1       8.378   1.552  -8.003  0.00  0.00    -0.274 OA
ATOM     16  C   UNK d   1      13.300   1.379  -7.196  0.00  0.00     0.305 C 
ATOM     17  O   UNK d   1      14.338   1.226  -6.582  0.00  0.00    -0.252 OA
ATOM     18  N   UNK d   1      13.214   0.990  -8.483  0.00  0.00    -0.281 N 
ATOM     19  C   UNK d   1      12.197   1.560  -9.381  0.00  0.00     0.040 C 
ATOM     20  C   UNK d   1      12.901   2.035 -10.662  0.00  0.00     0.064 C 
ATOM     21  O   UNK d   1      13.685   0.963 -11.192  0.00  0.00    -0.377 OA
ATOM     22  C   UNK d   1      14.737   0.526 -10.328  0.00  0.00     0.064 C 
ATOM     23  C   UNK d   1      14.131  -0.022  -9.031  0.00  0.00     0.040 C 
ATOM     24  H   UNK d   1      11.213   2.709  -3.486  0.00  0.00     0.048 H 
ATOM     25  H   UNK d   1      11.759   1.075  -3.898  0.00  0.00     0.048 H 
ATOM     26  H   UNK d   1      12.187   3.656  -5.387  0.00  0.00     0.048 H 
ATOM     27  H   UNK d   1      13.372   2.423  -4.898  0.00  0.00     0.048 H 
ATOM     28  H   UNK d   1      10.960   1.378  -8.163  0.00  0.00     0.049 H 
ATOM     29  H   UNK d   1      10.573   2.940  -7.396  0.00  0.00     0.049 H 
ATOM     30  H   UNK d   1      11.456   0.799  -9.627  0.00  0.00     0.049 H 
ATOM     31  H   UNK d   1      11.708   2.404  -8.894  0.00  0.00     0.049 H 
ATOM     32  H   UNK d   1      13.548   2.881 -10.432  0.00  0.00     0.058 H 
ATOM     33  H   UNK d   1      12.154   2.336 -11.396  0.00  0.00     0.058 H 
ATOM     34  H   UNK d   1      15.391   1.367 -10.097  0.00  0.00     0.058 H 
ATOM     35  H   UNK d   1      15.311  -0.258 -10.821  0.00  0.00     0.058 H 
ATOM     36  H   UNK d   1      14.925  -0.225  -8.312  0.00  0.00     0.049 H 
ATOM     37  H   UNK d   1      13.582  -0.940  -9.241  0.00  0.00     0.049 H 
ENDROOT
BRANCH   1  38
ATOM     38  CB  PHE d   2       7.519  -0.102  -4.146  0.00  0.00    -0.023 C 
ATOM     39  HB1 PHE d   2       8.487  -0.444  -3.780  0.00  0.00     0.029 H 
ATOM     40  HB2 PHE d   2       7.226  -0.699  -5.010  0.00  0.00     0.029 H 
BRANCH  38  41
ATOM     41  CG  PHE d   2       6.472  -0.254  -3.042  0.00  0.00    -0.039 A 
ATOM     42  CD1 PHE d   2       5.628   1.020  -2.960  0.00  0.00    -0.050 A 
ATOM     43  CE1 PHE d   2       4.581   0.868  -1.855  0.00  0.00    -0.053 A 
ATOM     44 1HD1 PHE d   2       5.128   1.186  -3.915  0.00  0.00     0.027 H 
ATOM     45 2HD1 PHE d   2       6.272   1.869  -2.736  0.00  0.00     0.027 H 
ATOM     46  CZ  PHE d   2       3.676  -0.325  -2.170  0.00  0.00    -0.053 A 
ATOM     47 1HE1 PHE d   2       5.081   0.703  -0.902  0.00  0.00     0.026 H 
ATOM     48 2HE1 PHE d   2       3.979   1.776  -1.798  0.00  0.00     0.026 H 
ATOM     49  CE2 PHE d   2       4.519  -1.598  -2.252  0.00  0.00    -0.053 A 
ATOM     50  HZ1 PHE d   2       2.930  -0.433  -1.384  0.00  0.00     0.026 H 
ATOM     51  HZ2 PHE d   2       3.176  -0.159  -3.125  0.00  0.00     0.026 H 
ATOM     52  CD2 PHE d   2       5.567  -1.447  -3.356  0.00  0.00    -0.050 A 
ATOM     53 1HE2 PHE d   2       3.875  -2.448  -2.476  0.00  0.00     0.026 H 
ATOM     54 2HE2 PHE d   2       5.019  -1.764  -1.297  0.00  0.00     0.026 H 
ATOM     55 1HD2 PHE d   2       5.067  -1.281  -4.310  0.00  0.00     0.027 H 
ATOM     56 2HD2 PHE d   2       6.169  -2.354  -3.414  0.00  0.00     0.027 H 
ATOM     57  HG  PHE d   2       6.972  -0.420  -2.087  0.00  0.00     0.030 H 
ENDBRANCH  38  41
ENDBRANCH   1  38
TORSDOF 2
ENDMDL
