MODEL 1
REMARK VINA RESULT:      -7.5      0.000      0.000
REMARK  6 active torsions:
REMARK  status: ('A' for Active; 'I' for Inactive)
REMARK    1  A    between atoms: C_5  and  C_7 
REMARK    2  A    between atoms: C_7  and  N_8 
REMARK    3  A    between atoms: C_16  and  C_18 
REMARK    4  A    between atoms: C_20  and  C_23 
REMARK    5  A    between atoms: C_26  and  O_29 
REMARK    6  A    between atoms: O_29  and  C_30 
ROOT
ATOM      1  N   LIG d   1       5.874  -0.171  -6.371  0.00  0.00    -0.280 N 
ATOM      2  C   LIG d   1       4.946  -1.023  -7.135  0.00  0.00     0.044 C 
ATOM      3  C   LIG d   1       4.548  -0.283  -8.388  0.00  0.00     0.076 A 
ATOM      4  C   LIG d   1       5.225   0.786  -8.865  0.00  0.00     0.042 A 
ATOM      5  N   LIG d   1       4.586   1.195  -9.993  0.00  0.00    -0.348 N 
ATOM      6  C   LIG d   1       3.535   0.360 -10.175  0.00  0.00     0.094 A 
ATOM      7  N   LIG d   1       3.523  -0.520  -9.208  0.00  0.00    -0.239 NA
ATOM      8  C   LIG d   1       6.454   1.355  -8.205  0.00  0.00     0.014 C 
ATOM      9  C   LIG d   1       6.980   0.310  -7.210  0.00  0.00     0.096 C 
ATOM     10  H   LIG d   1       7.400  -0.560  -7.735  0.00  0.00     0.057 H 
ATOM     11  H   LIG d   1       5.447  -1.966  -7.397  0.00  0.00     0.049 H 
ATOM     12  H   LIG d   1       4.057  -1.236  -6.524  0.00  0.00     0.049 H 
ATOM     13  H   LIG d   1       2.833   0.332 -10.886  0.00  0.00     0.103 H 
ATOM     14  H   LIG d   1       7.215   1.570  -8.969  0.00  0.00     0.035 H 
ATOM     15  H   LIG d   1       6.191   2.284  -7.678  0.00  0.00     0.035 H 
ATOM     16  H   LIG d   1       4.964   2.060 -10.555  0.00  0.00     0.167 HD
ENDROOT
BRANCH   9  17
ATOM     17  C   LIG d   1       8.038   0.936  -6.337  0.00  0.00     0.245 A 
ATOM     18  O   LIG d   1       9.176   0.363  -5.936  0.00  0.00    -0.336 OA
ATOM     19  N   LIG d   1       9.808   1.135  -5.245  0.00  0.00    -0.056 NA
ATOM     20  C   LIG d   1       9.161   2.265  -5.127  0.00  0.00     0.202 A 
ATOM     21  N   LIG d   1       8.015   2.146  -5.836  0.00  0.00    -0.190 NA
BRANCH  20  22
ATOM     22  C   LIG d   1       9.603   3.457  -4.362  0.00  0.00     0.023 A 
ATOM     23  C   LIG d   1       9.492   4.728  -4.924  0.00  0.00    -0.048 A 
ATOM     24  C   LIG d   1       9.903   5.834  -4.210  0.00  0.00    -0.019 A 
ATOM     25  H   LIG d   1       9.083   4.847  -5.917  0.00  0.00     0.063 H 
ATOM     26  C   LIG d   1      10.429   5.682  -2.934  0.00  0.00     0.130 A 
ATOM     27  H   LIG d   1       9.817   6.819  -4.645  0.00  0.00     0.065 H 
ATOM     28  C   LIG d   1      10.541   4.418  -2.373  0.00  0.00    -0.019 A 
ATOM     29  C   LIG d   1      10.125   3.309  -3.078  0.00  0.00    -0.048 A 
ATOM     30  H   LIG d   1      10.950   4.303  -1.379  0.00  0.00     0.065 H 
ATOM     31  H   LIG d   1      10.208   2.326  -2.639  0.00  0.00     0.063 H 
BRANCH  26  32
ATOM     32  O   LIG d   1      10.834   6.774  -2.234  0.00  0.00    -0.406 OA
BRANCH  32  33
ATOM     33  C   LIG d   1       9.962   7.245  -1.206  0.00  0.00     0.575 C 
ATOM     34  F   LIG d   1       8.632   7.045  -1.594  0.00  0.00    -0.133 F 
ATOM     35  F   LIG d   1      10.213   6.542  -0.023  0.00  0.00    -0.133 F 
ATOM     36  F   LIG d   1      10.185   8.610  -0.993  0.00  0.00    -0.133 F 
ENDBRANCH  32  33
ENDBRANCH  26  32
ENDBRANCH  20  22
ENDBRANCH   9  17
BRANCH   1  37
ATOM     37  C   LIG d   1       6.380  -0.876  -5.186  0.00  0.00     0.042 C 
ATOM     38  H   LIG d   1       7.456  -0.675  -5.071  0.00  0.00     0.049 H 
ATOM     39  H   LIG d   1       6.221  -1.957  -5.306  0.00  0.00     0.049 H 
BRANCH  37  40
ATOM     40  C   LIG d   1       5.646  -0.392  -3.961  0.00  0.00     0.055 A 
ATOM     41  N   LIG d   1       5.538   0.902  -3.736  0.00  0.00    -0.259 NA
ATOM     42  C   LIG d   1       4.901   1.370  -2.680  0.00  0.00     0.028 A 
ATOM     43  C   LIG d   1       4.328   0.512  -1.761  0.00  0.00    -0.044 A 
ATOM     44  H   LIG d   1       4.829   2.437  -2.531  0.00  0.00     0.083 H 
ATOM     45  C   LIG d   1       4.427  -0.857  -1.962  0.00  0.00    -0.059 A 
ATOM     46  H   LIG d   1       3.811   0.902  -0.897  0.00  0.00     0.063 H 
ATOM     47  C   LIG d   1       5.099  -1.312  -3.086  0.00  0.00    -0.039 A 
ATOM     48  H   LIG d   1       3.988  -1.551  -1.262  0.00  0.00     0.062 H 
ATOM     49  H   LIG d   1       5.195  -2.371  -3.274  0.00  0.00     0.064 H 
ENDBRANCH  37  40
ENDBRANCH   1  37
TORSDOF 6
ENDMDL
MODEL 2
REMARK VINA RESULT:      -7.1      6.487      8.606
REMARK  6 active torsions:
REMARK  status: ('A' for Active; 'I' for Inactive)
REMARK    1  A    between atoms: C_5  and  C_7 
REMARK    2  A    between atoms: C_7  and  N_8 
REMARK    3  A    between atoms: C_16  and  C_18 
REMARK    4  A    between atoms: C_20  and  C_23 
REMARK    5  A    between atoms: C_26  and  O_29 
REMARK    6  A    between atoms: O_29  and  C_30 
ROOT
ATOM      1  N   LIG d   1       7.430  -7.871  -4.998  0.00  0.00    -0.280 N 
ATOM      2  C   LIG d   1       7.675  -9.323  -5.024  0.00  0.00     0.044 C 
ATOM      3  C   LIG d   1       6.359 -10.028  -4.810  0.00  0.00     0.076 A 
ATOM      4  C   LIG d   1       5.159  -9.420  -4.951  0.00  0.00     0.042 A 
ATOM      5  N   LIG d   1       4.205 -10.348  -4.678  0.00  0.00    -0.348 N 
ATOM      6  C   LIG d   1       4.850 -11.501  -4.380  0.00  0.00     0.094 A 
ATOM      7  N   LIG d   1       6.139 -11.298  -4.462  0.00  0.00    -0.239 NA
ATOM      8  C   LIG d   1       5.002  -7.974  -5.341  0.00  0.00     0.014 C 
ATOM      9  C   LIG d   1       6.343  -7.490  -5.910  0.00  0.00     0.096 C 
ATOM     10  H   LIG d   1       6.551  -7.955  -6.884  0.00  0.00     0.057 H 
ATOM     11  H   LIG d   1       8.100  -9.605  -5.998  0.00  0.00     0.049 H 
ATOM     12  H   LIG d   1       8.381  -9.590  -4.224  0.00  0.00     0.049 H 
ATOM     13  H   LIG d   1       4.501 -12.404  -4.128  0.00  0.00     0.103 H 
ATOM     14  H   LIG d   1       4.211  -7.883  -6.100  0.00  0.00     0.035 H 
ATOM     15  H   LIG d   1       4.728  -7.382  -4.455  0.00  0.00     0.035 H 
ATOM     16  H   LIG d   1       3.142 -10.074  -4.728  0.00  0.00     0.167 HD
ENDROOT
BRANCH   9  17
ATOM     17  C   LIG d   1       6.314  -5.991  -6.059  0.00  0.00     0.245 A 
ATOM     18  O   LIG d   1       6.728  -5.291  -7.119  0.00  0.00    -0.336 OA
ATOM     19  N   LIG d   1       6.568  -4.104  -6.922  0.00  0.00    -0.056 NA
ATOM     20  C   LIG d   1       6.042  -3.913  -5.739  0.00  0.00     0.202 A 
ATOM     21  N   LIG d   1       5.871  -5.130  -5.177  0.00  0.00    -0.190 NA
BRANCH  20  22
ATOM     22  C   LIG d   1       5.696  -2.605  -5.131  0.00  0.00     0.023 A 
ATOM     23  C   LIG d   1       6.341  -2.181  -3.970  0.00  0.00    -0.048 A 
ATOM     24  C   LIG d   1       6.017  -0.965  -3.408  0.00  0.00    -0.019 A 
ATOM     25  H   LIG d   1       7.094  -2.805  -3.512  0.00  0.00     0.063 H 
ATOM     26  C   LIG d   1       5.048  -0.162  -3.996  0.00  0.00     0.130 A 
ATOM     27  H   LIG d   1       6.517  -0.636  -2.508  0.00  0.00     0.065 H 
ATOM     28  C   LIG d   1       4.403  -0.582  -5.151  0.00  0.00    -0.019 A 
ATOM     29  C   LIG d   1       4.728  -1.794  -5.722  0.00  0.00    -0.048 A 
ATOM     30  H   LIG d   1       3.651   0.045  -5.607  0.00  0.00     0.065 H 
ATOM     31  H   LIG d   1       4.230  -2.118  -6.625  0.00  0.00     0.063 H 
BRANCH  26  32
ATOM     32  O   LIG d   1       4.731   1.035  -3.439  0.00  0.00    -0.406 OA
BRANCH  32  33
ATOM     33  C   LIG d   1       3.918   1.008  -2.264  0.00  0.00     0.575 C 
ATOM     34  F   LIG d   1       3.050   2.106  -2.272  0.00  0.00    -0.133 F 
ATOM     35  F   LIG d   1       3.173  -0.175  -2.240  0.00  0.00    -0.133 F 
ATOM     36  F   LIG d   1       4.734   1.069  -1.130  0.00  0.00    -0.133 F 
ENDBRANCH  32  33
ENDBRANCH  26  32
ENDBRANCH  20  22
ENDBRANCH   9  17
BRANCH   1  37
ATOM     37  C   LIG d   1       8.658  -7.124  -5.301  0.00  0.00     0.042 C 
ATOM     38  H   LIG d   1       8.482  -6.461  -6.161  0.00  0.00     0.049 H 
ATOM     39  H   LIG d   1       9.466  -7.830  -5.543  0.00  0.00     0.049 H 
BRANCH  37  40
ATOM     40  C   LIG d   1       9.054  -6.298  -4.104  0.00  0.00     0.055 A 
ATOM     41  N   LIG d   1       9.136  -4.987  -4.215  0.00  0.00    -0.259 NA
ATOM     42  C   LIG d   1       9.475  -4.225  -3.193  0.00  0.00     0.028 A 
ATOM     43  C   LIG d   1       9.766  -4.781  -1.962  0.00  0.00    -0.044 A 
ATOM     44  H   LIG d   1       9.527  -3.154  -3.321  0.00  0.00     0.083 H 
ATOM     45  C   LIG d   1       9.695  -6.157  -1.809  0.00  0.00    -0.059 A 
ATOM     46  H   LIG d   1      10.046  -4.152  -1.130  0.00  0.00     0.063 H 
ATOM     47  C   LIG d   1       9.331  -6.926  -2.904  0.00  0.00    -0.039 A 
ATOM     48  H   LIG d   1       9.916  -6.620  -0.859  0.00  0.00     0.062 H 
ATOM     49  H   LIG d   1       9.266  -8.000  -2.820  0.00  0.00     0.064 H 
ENDBRANCH  37  40
ENDBRANCH   1  37
TORSDOF 6
ENDMDL
MODEL 3
REMARK VINA RESULT:      -7.0      5.977      7.492
REMARK  6 active torsions:
REMARK  status: ('A' for Active; 'I' for Inactive)
REMARK    1  A    between atoms: C_5  and  C_7 
REMARK    2  A    between atoms: C_7  and  N_8 
REMARK    3  A    between atoms: C_16  and  C_18 
REMARK    4  A    between atoms: C_20  and  C_23 
REMARK    5  A    between atoms: C_26  and  O_29 
REMARK    6  A    between atoms: O_29  and  C_30 
ROOT
ATOM      1  N   LIG d   1       4.377  -0.414  -6.376  0.00  0.00    -0.280 N 
ATOM      2  C   LIG d   1       3.231  -0.187  -7.272  0.00  0.00     0.044 C 
ATOM      3  C   LIG d   1       3.703   0.640  -8.443  0.00  0.00     0.076 A 
ATOM      4  C   LIG d   1       5.008   0.798  -8.761  0.00  0.00     0.042 A 
ATOM      5  N   LIG d   1       5.058   1.602  -9.856  0.00  0.00    -0.348 N 
ATOM      6  C   LIG d   1       3.780   1.910 -10.178  0.00  0.00     0.094 A 
ATOM      7  N   LIG d   1       2.977   1.329  -9.325  0.00  0.00    -0.239 NA
ATOM      8  C   LIG d   1       6.135   0.164  -7.989  0.00  0.00     0.014 C 
ATOM      9  C   LIG d   1       5.538  -0.941  -7.106  0.00  0.00     0.096 C 
ATOM     10  H   LIG d   1       5.190  -1.789  -7.715  0.00  0.00     0.057 H 
ATOM     11  H   LIG d   1       2.845  -1.154  -7.625  0.00  0.00     0.049 H 
ATOM     12  H   LIG d   1       2.440   0.348  -6.727  0.00  0.00     0.049 H 
ATOM     13  H   LIG d   1       3.404   2.473 -10.915  0.00  0.00     0.103 H 
ATOM     14  H   LIG d   1       6.866  -0.262  -8.691  0.00  0.00     0.035 H 
ATOM     15  H   LIG d   1       6.627   0.926  -7.365  0.00  0.00     0.035 H 
ATOM     16  H   LIG d   1       6.029   1.871 -10.296  0.00  0.00     0.167 HD
ENDROOT
BRANCH   9  17
ATOM     17  C   LIG d   1       6.578  -1.415  -6.124  0.00  0.00     0.245 A 
ATOM     18  O   LIG d   1       7.273  -0.653  -5.275  0.00  0.00    -0.336 OA
ATOM     19  N   LIG d   1       8.029  -1.342  -4.621  0.00  0.00    -0.056 NA
ATOM     20  C   LIG d   1       7.905  -2.597  -4.968  0.00  0.00     0.202 A 
ATOM     21  N   LIG d   1       6.964  -2.653  -5.937  0.00  0.00    -0.190 NA
BRANCH  20  22
ATOM     22  C   LIG d   1       8.654  -3.745  -4.400  0.00  0.00     0.023 A 
ATOM     23  C   LIG d   1       9.215  -3.652  -3.127  0.00  0.00    -0.048 A 
ATOM     24  C   LIG d   1       9.910  -4.721  -2.602  0.00  0.00    -0.019 A 
ATOM     25  H   LIG d   1       9.104  -2.745  -2.552  0.00  0.00     0.063 H 
ATOM     26  C   LIG d   1      10.053  -5.888  -3.341  0.00  0.00     0.130 A 
ATOM     27  H   LIG d   1      10.344  -4.650  -1.616  0.00  0.00     0.065 H 
ATOM     28  C   LIG d   1       9.497  -5.983  -4.610  0.00  0.00    -0.019 A 
ATOM     29  C   LIG d   1       8.795  -4.920  -5.137  0.00  0.00    -0.048 A 
ATOM     30  H   LIG d   1       9.610  -6.892  -5.182  0.00  0.00     0.065 H 
ATOM     31  H   LIG d   1       8.357  -4.996  -6.122  0.00  0.00     0.063 H 
BRANCH  26  32
ATOM     32  O   LIG d   1      10.740  -6.939  -2.822  0.00  0.00    -0.406 OA
BRANCH  32  33
ATOM     33  C   LIG d   1      10.121  -7.651  -1.749  0.00  0.00     0.575 C 
ATOM     34  F   LIG d   1      10.561  -7.130  -0.527  0.00  0.00    -0.133 F 
ATOM     35  F   LIG d   1       8.732  -7.517  -1.841  0.00  0.00    -0.133 F 
ATOM     36  F   LIG d   1      10.465  -9.005  -1.828  0.00  0.00    -0.133 F 
ENDBRANCH  32  33
ENDBRANCH  26  32
ENDBRANCH  20  22
ENDBRANCH   9  17
BRANCH   1  37
ATOM     37  C   LIG d   1       4.008  -1.301  -5.264  0.00  0.00     0.042 C 
ATOM     38  H   LIG d   1       4.667  -2.182  -5.264  0.00  0.00     0.049 H 
ATOM     39  H   LIG d   1       2.964  -1.624  -5.384  0.00  0.00     0.049 H 
BRANCH  37  40
ATOM     40  C   LIG d   1       4.159  -0.561  -3.960  0.00  0.00     0.055 A 
ATOM     41  N   LIG d   1       4.046   0.752  -3.939  0.00  0.00    -0.259 NA
ATOM     42  C   LIG d   1       4.165   1.440  -2.820  0.00  0.00     0.028 A 
ATOM     43  C   LIG d   1       4.425   0.803  -1.622  0.00  0.00    -0.044 A 
ATOM     44  H   LIG d   1       4.062   2.515  -2.841  0.00  0.00     0.083 H 
ATOM     45  C   LIG d   1       4.556  -0.578  -1.606  0.00  0.00    -0.059 A 
ATOM     46  H   LIG d   1       4.526   1.372  -0.710  0.00  0.00     0.063 H 
ATOM     47  C   LIG d   1       4.419  -1.268  -2.800  0.00  0.00    -0.039 A 
ATOM     48  H   LIG d   1       4.759  -1.103  -0.685  0.00  0.00     0.062 H 
ATOM     49  H   LIG d   1       4.515  -2.343  -2.825  0.00  0.00     0.064 H 
ENDBRANCH  37  40
ENDBRANCH   1  37
TORSDOF 6
ENDMDL
MODEL 4
REMARK VINA RESULT:      -7.0      2.534      3.133
REMARK  6 active torsions:
REMARK  status: ('A' for Active; 'I' for Inactive)
REMARK    1  A    between atoms: C_5  and  C_7 
REMARK    2  A    between atoms: C_7  and  N_8 
REMARK    3  A    between atoms: C_16  and  C_18 
REMARK    4  A    between atoms: C_20  and  C_23 
REMARK    5  A    between atoms: C_26  and  O_29 
REMARK    6  A    between atoms: O_29  and  C_30 
ROOT
ATOM      1  N   LIG d   1       7.372  -1.530  -4.639  0.00  0.00    -0.280 N 
ATOM      2  C   LIG d   1       7.490  -2.983  -4.429  0.00  0.00     0.044 C 
ATOM      3  C   LIG d   1       8.060  -3.598  -5.684  0.00  0.00     0.076 A 
ATOM      4  C   LIG d   1       8.679  -2.879  -6.647  0.00  0.00     0.042 A 
ATOM      5  N   LIG d   1       9.053  -3.751  -7.620  0.00  0.00    -0.348 N 
ATOM      6  C   LIG d   1       8.653  -4.981  -7.222  0.00  0.00     0.094 A 
ATOM      7  N   LIG d   1       8.059  -4.877  -6.062  0.00  0.00    -0.239 NA
ATOM      8  C   LIG d   1       8.876  -1.387  -6.574  0.00  0.00     0.014 C 
ATOM      9  C   LIG d   1       8.632  -0.950  -5.123  0.00  0.00     0.096 C 
ATOM     10  H   LIG d   1       9.435  -1.306  -4.462  0.00  0.00     0.057 H 
ATOM     11  H   LIG d   1       8.159  -3.176  -3.578  0.00  0.00     0.049 H 
ATOM     12  H   LIG d   1       6.497  -3.406  -4.219  0.00  0.00     0.049 H 
ATOM     13  H   LIG d   1       8.743  -5.876  -7.659  0.00  0.00     0.103 H 
ATOM     14  H   LIG d   1       9.902  -1.137  -6.880  0.00  0.00     0.035 H 
ATOM     15  H   LIG d   1       8.162  -0.889  -7.247  0.00  0.00     0.035 H 
ATOM     16  H   LIG d   1       9.578  -3.384  -8.514  0.00  0.00     0.167 HD
ENDROOT
BRANCH   9  17
ATOM     17  C   LIG d   1       8.550   0.554  -5.058  0.00  0.00     0.245 A 
ATOM     18  O   LIG d   1       7.739   1.336  -5.775  0.00  0.00    -0.336 OA
ATOM     19  N   LIG d   1       7.920   2.500  -5.485  0.00  0.00    -0.056 NA
ATOM     20  C   LIG d   1       8.848   2.594  -4.568  0.00  0.00     0.202 A 
ATOM     21  N   LIG d   1       9.258   1.338  -4.284  0.00  0.00    -0.190 NA
BRANCH  20  22
ATOM     22  C   LIG d   1       9.354   3.846  -3.953  0.00  0.00     0.023 A 
ATOM     23  C   LIG d   1       9.182   5.065  -4.608  0.00  0.00    -0.048 A 
ATOM     24  C   LIG d   1       9.652   6.227  -4.033  0.00  0.00    -0.019 A 
ATOM     25  H   LIG d   1       8.680   5.099  -5.564  0.00  0.00     0.063 H 
ATOM     26  C   LIG d   1      10.298   6.184  -2.804  0.00  0.00     0.130 A 
ATOM     27  H   LIG d   1       9.519   7.171  -4.540  0.00  0.00     0.065 H 
ATOM     28  C   LIG d   1      10.471   4.971  -2.151  0.00  0.00    -0.019 A 
ATOM     29  C   LIG d   1       9.996   3.807  -2.717  0.00  0.00    -0.048 A 
ATOM     30  H   LIG d   1      10.973   4.941  -1.195  0.00  0.00     0.065 H 
ATOM     31  H   LIG d   1      10.127   2.865  -2.205  0.00  0.00     0.063 H 
BRANCH  26  32
ATOM     32  O   LIG d   1      10.761   7.330  -2.242  0.00  0.00    -0.406 OA
BRANCH  32  33
ATOM     33  C   LIG d   1       9.986   7.890  -1.180  0.00  0.00     0.575 C 
ATOM     34  F   LIG d   1       8.648   7.507  -1.327  0.00  0.00    -0.133 F 
ATOM     35  F   LIG d   1      10.472   7.427   0.046  0.00  0.00    -0.133 F 
ATOM     36  F   LIG d   1      10.078   9.285  -1.221  0.00  0.00    -0.133 F 
ENDBRANCH  32  33
ENDBRANCH  26  32
ENDBRANCH  20  22
ENDBRANCH   9  17
BRANCH   1  37
ATOM     37  C   LIG d   1       6.917  -0.857  -3.416  0.00  0.00     0.042 C 
ATOM     38  H   LIG d   1       7.334   0.161  -3.380  0.00  0.00     0.049 H 
ATOM     39  H   LIG d   1       7.259  -1.423  -2.537  0.00  0.00     0.049 H 
BRANCH  37  40
ATOM     40  C   LIG d   1       5.412  -0.783  -3.412  0.00  0.00     0.055 A 
ATOM     41  N   LIG d   1       4.799   0.063  -4.216  0.00  0.00    -0.259 NA
ATOM     42  C   LIG d   1       3.484   0.158  -4.250  0.00  0.00     0.028 A 
ATOM     43  C   LIG d   1       2.696  -0.625  -3.429  0.00  0.00    -0.044 A 
ATOM     44  H   LIG d   1       3.017   0.860  -4.925  0.00  0.00     0.083 H 
ATOM     45  C   LIG d   1       3.306  -1.523  -2.565  0.00  0.00    -0.059 A 
ATOM     46  H   LIG d   1       1.620  -0.540  -3.458  0.00  0.00     0.063 H 
ATOM     47  C   LIG d   1       4.690  -1.599  -2.561  0.00  0.00    -0.039 A 
ATOM     48  H   LIG d   1       2.716  -2.149  -1.912  0.00  0.00     0.062 H 
ATOM     49  H   LIG d   1       5.198  -2.287  -1.901  0.00  0.00     0.064 H 
ENDBRANCH  37  40
ENDBRANCH   1  37
TORSDOF 6
ENDMDL
MODEL 5
REMARK VINA RESULT:      -6.9      4.537      8.499
REMARK  6 active torsions:
REMARK  status: ('A' for Active; 'I' for Inactive)
REMARK    1  A    between atoms: C_5  and  C_7 
REMARK    2  A    between atoms: C_7  and  N_8 
REMARK    3  A    between atoms: C_16  and  C_18 
REMARK    4  A    between atoms: C_20  and  C_23 
REMARK    5  A    between atoms: C_26  and  O_29 
REMARK    6  A    between atoms: O_29  and  C_30 
ROOT
ATOM      1  N   LIG d   1      10.493   6.168  -4.072  0.00  0.00    -0.280 N 
ATOM      2  C   LIG d   1      10.660   7.530  -4.605  0.00  0.00     0.044 C 
ATOM      3  C   LIG d   1      11.611   7.466  -5.775  0.00  0.00     0.076 A 
ATOM      4  C   LIG d   1      11.927   6.316  -6.413  0.00  0.00     0.042 A 
ATOM      5  N   LIG d   1      12.806   6.634  -7.400  0.00  0.00    -0.348 N 
ATOM      6  C   LIG d   1      13.000   7.973  -7.339  0.00  0.00     0.094 A 
ATOM      7  N   LIG d   1      12.280   8.460  -6.363  0.00  0.00    -0.239 NA
ATOM      8  C   LIG d   1      11.362   4.973  -6.032  0.00  0.00     0.014 C 
ATOM      9  C   LIG d   1      10.142   5.212  -5.132  0.00  0.00     0.096 C 
ATOM     10  H   LIG d   1       9.307   5.644  -5.703  0.00  0.00     0.057 H 
ATOM     11  H   LIG d   1       9.685   7.918  -4.933  0.00  0.00     0.049 H 
ATOM     12  H   LIG d   1      11.070   8.183  -3.821  0.00  0.00     0.049 H 
ATOM     13  H   LIG d   1      13.570   8.581  -7.892  0.00  0.00     0.103 H 
ATOM     14  H   LIG d   1      11.065   4.430  -6.942  0.00  0.00     0.035 H 
ATOM     15  H   LIG d   1      12.126   4.393  -5.493  0.00  0.00     0.035 H 
ATOM     16  H   LIG d   1      13.204   5.846  -8.055  0.00  0.00     0.167 HD
ENDROOT
BRANCH   9  17
ATOM     17  C   LIG d   1       9.712   3.908  -4.512  0.00  0.00     0.245 A 
ATOM     18  O   LIG d   1      10.418   3.168  -3.652  0.00  0.00    -0.336 OA
ATOM     19  N   LIG d   1       9.788   2.178  -3.341  0.00  0.00    -0.056 NA
ATOM     20  C   LIG d   1       8.633   2.171  -3.954  0.00  0.00     0.202 A 
ATOM     21  N   LIG d   1       8.574   3.291  -4.710  0.00  0.00    -0.190 NA
BRANCH  20  22
ATOM     22  C   LIG d   1       7.581   1.131  -3.837  0.00  0.00     0.023 A 
ATOM     23  C   LIG d   1       6.308   1.473  -3.383  0.00  0.00    -0.048 A 
ATOM     24  C   LIG d   1       5.332   0.505  -3.276  0.00  0.00    -0.019 A 
ATOM     25  H   LIG d   1       6.086   2.496  -3.116  0.00  0.00     0.063 H 
ATOM     26  C   LIG d   1       5.617  -0.810  -3.619  0.00  0.00     0.130 A 
ATOM     27  H   LIG d   1       4.346   0.769  -2.924  0.00  0.00     0.065 H 
ATOM     28  C   LIG d   1       6.884  -1.154  -4.070  0.00  0.00    -0.019 A 
ATOM     29  C   LIG d   1       7.861  -0.189  -4.186  0.00  0.00    -0.048 A 
ATOM     30  H   LIG d   1       7.103  -2.178  -4.337  0.00  0.00     0.065 H 
ATOM     31  H   LIG d   1       8.846  -0.456  -4.543  0.00  0.00     0.063 H 
BRANCH  26  32
ATOM     32  O   LIG d   1       4.654  -1.763  -3.511  0.00  0.00    -0.406 OA
BRANCH  32  33
ATOM     33  C   LIG d   1       3.834  -1.726  -2.342  0.00  0.00     0.575 C 
ATOM     34  F   LIG d   1       2.674  -0.991  -2.608  0.00  0.00    -0.133 F 
ATOM     35  F   LIG d   1       3.486  -3.030  -1.976  0.00  0.00    -0.133 F 
ATOM     36  F   LIG d   1       4.540  -1.121  -1.297  0.00  0.00    -0.133 F 
ENDBRANCH  32  33
ENDBRANCH  26  32
ENDBRANCH  20  22
ENDBRANCH   9  17
BRANCH   1  37
ATOM     37  C   LIG d   1       9.497   6.144  -2.992  0.00  0.00     0.042 C 
ATOM     38  H   LIG d   1       8.966   5.181  -3.004  0.00  0.00     0.049 H 
ATOM     39  H   LIG d   1       8.777   6.961  -3.140  0.00  0.00     0.049 H 
BRANCH  37  40
ATOM     40  C   LIG d   1      10.191   6.319  -1.665  0.00  0.00     0.055 A 
ATOM     41  N   LIG d   1      10.956   5.352  -1.198  0.00  0.00    -0.259 NA
ATOM     42  C   LIG d   1      11.585   5.463  -0.044  0.00  0.00     0.028 A 
ATOM     43  C   LIG d   1      11.456   6.603   0.726  0.00  0.00    -0.044 A 
ATOM     44  H   LIG d   1      12.207   4.652   0.304  0.00  0.00     0.083 H 
ATOM     45  C   LIG d   1      10.654   7.639   0.269  0.00  0.00    -0.059 A 
ATOM     46  H   LIG d   1      11.970   6.687   1.671  0.00  0.00     0.063 H 
ATOM     47  C   LIG d   1      10.012   7.489  -0.951  0.00  0.00    -0.039 A 
ATOM     48  H   LIG d   1      10.535   8.542   0.848  0.00  0.00     0.062 H 
ATOM     49  H   LIG d   1       9.381   8.275  -1.337  0.00  0.00     0.064 H 
ENDBRANCH  37  40
ENDBRANCH   1  37
TORSDOF 6
ENDMDL
MODEL 6
REMARK VINA RESULT:      -6.9      1.904      2.600
REMARK  6 active torsions:
REMARK  status: ('A' for Active; 'I' for Inactive)
REMARK    1  A    between atoms: C_5  and  C_7 
REMARK    2  A    between atoms: C_7  and  N_8 
REMARK    3  A    between atoms: C_16  and  C_18 
REMARK    4  A    between atoms: C_20  and  C_23 
REMARK    5  A    between atoms: C_26  and  O_29 
REMARK    6  A    between atoms: O_29  and  C_30 
ROOT
ATOM      1  N   LIG d   1       7.531   0.863  -5.166  0.00  0.00    -0.280 N 
ATOM      2  C   LIG d   1       6.935  -0.102  -6.105  0.00  0.00     0.044 C 
ATOM      3  C   LIG d   1       6.893   0.534  -7.473  0.00  0.00     0.076 A 
ATOM      4  C   LIG d   1       7.615   1.628  -7.806  0.00  0.00     0.042 A 
ATOM      5  N   LIG d   1       7.325   1.921  -9.101  0.00  0.00    -0.348 N 
ATOM      6  C   LIG d   1       6.434   0.994  -9.525  0.00  0.00     0.094 A 
ATOM      7  N   LIG d   1       6.183   0.169  -8.542  0.00  0.00    -0.239 NA
ATOM      8  C   LIG d   1       8.546   2.331  -6.852  0.00  0.00     0.014 C 
ATOM      9  C   LIG d   1       8.808   1.388  -5.669  0.00  0.00     0.096 C 
ATOM     10  H   LIG d   1       9.421   0.529  -5.975  0.00  0.00     0.057 H 
ATOM     11  H   LIG d   1       7.549  -1.013  -6.132  0.00  0.00     0.049 H 
ATOM     12  H   LIG d   1       5.917  -0.354  -5.775  0.00  0.00     0.049 H 
ATOM     13  H   LIG d   1       5.985   0.869 -10.410  0.00  0.00     0.103 H 
ATOM     14  H   LIG d   1       9.488   2.566  -7.368  0.00  0.00     0.035 H 
ATOM     15  H   LIG d   1       8.077   3.262  -6.501  0.00  0.00     0.035 H 
ATOM     16  H   LIG d   1       7.802   2.782  -9.589  0.00  0.00     0.167 HD
ENDROOT
BRANCH   9  17
ATOM     17  C   LIG d   1       9.508   2.146  -4.570  0.00  0.00     0.245 A 
ATOM     18  O   LIG d   1      10.553   1.720  -3.854  0.00  0.00    -0.336 OA
ATOM     19  N   LIG d   1      10.878   2.568  -3.050  0.00  0.00    -0.056 NA
ATOM     20  C   LIG d   1      10.096   3.611  -3.156  0.00  0.00     0.202 A 
ATOM     21  N   LIG d   1       9.209   3.347  -4.142  0.00  0.00    -0.190 NA
BRANCH  20  22
ATOM     22  C   LIG d   1      10.172   4.854  -2.349  0.00  0.00     0.023 A 
ATOM     23  C   LIG d   1       9.500   6.002  -2.769  0.00  0.00    -0.048 A 
ATOM     24  C   LIG d   1       9.572   7.155  -2.016  0.00  0.00    -0.019 A 
ATOM     25  H   LIG d   1       8.924   5.987  -3.682  0.00  0.00     0.063 H 
ATOM     26  C   LIG d   1      10.314   7.174  -0.842  0.00  0.00     0.130 A 
ATOM     27  H   LIG d   1       9.052   8.044  -2.341  0.00  0.00     0.065 H 
ATOM     28  C   LIG d   1      10.984   6.034  -0.423  0.00  0.00    -0.019 A 
ATOM     29  C   LIG d   1      10.910   4.875  -1.167  0.00  0.00    -0.048 A 
ATOM     30  H   LIG d   1      11.560   6.051   0.492  0.00  0.00     0.065 H 
ATOM     31  H   LIG d   1      11.428   3.986  -0.837  0.00  0.00     0.063 H 
BRANCH  26  32
ATOM     32  O   LIG d   1      10.383   8.313  -0.104  0.00  0.00    -0.406 OA
BRANCH  32  33
ATOM     33  C   LIG d   1      11.233   9.351  -0.593  0.00  0.00     0.575 C 
ATOM     34  F   LIG d   1      10.494  10.213  -1.411  0.00  0.00    -0.133 F 
ATOM     35  F   LIG d   1      11.759  10.069   0.486  0.00  0.00    -0.133 F 
ATOM     36  F   LIG d   1      12.278   8.789  -1.333  0.00  0.00    -0.133 F 
ENDBRANCH  32  33
ENDBRANCH  26  32
ENDBRANCH  20  22
ENDBRANCH   9  17
BRANCH   1  37
ATOM     37  C   LIG d   1       7.694   0.268  -3.833  0.00  0.00     0.042 C 
ATOM     38  H   LIG d   1       8.312   0.931  -3.209  0.00  0.00     0.049 H 
ATOM     39  H   LIG d   1       8.187  -0.711  -3.926  0.00  0.00     0.049 H 
BRANCH  37  40
ATOM     40  C   LIG d   1       6.342   0.091  -3.192  0.00  0.00     0.055 A 
ATOM     41  N   LIG d   1       5.881  -1.123  -2.967  0.00  0.00    -0.259 NA
ATOM     42  C   LIG d   1       4.705  -1.325  -2.405  0.00  0.00     0.028 A 
ATOM     43  C   LIG d   1       3.905  -0.261  -2.036  0.00  0.00    -0.044 A 
ATOM     44  H   LIG d   1       4.363  -2.335  -2.234  0.00  0.00     0.083 H 
ATOM     45  C   LIG d   1       4.354   1.032  -2.262  0.00  0.00    -0.059 A 
ATOM     46  H   LIG d   1       2.942  -0.433  -1.580  0.00  0.00     0.063 H 
ATOM     47  C   LIG d   1       5.597   1.205  -2.850  0.00  0.00    -0.039 A 
ATOM     48  H   LIG d   1       3.751   1.883  -1.983  0.00  0.00     0.062 H 
ATOM     49  H   LIG d   1       5.979   2.197  -3.040  0.00  0.00     0.064 H 
ENDBRANCH  37  40
ENDBRANCH   1  37
TORSDOF 6
ENDMDL
MODEL 7
REMARK VINA RESULT:      -6.8      4.454      8.672
REMARK  6 active torsions:
REMARK  status: ('A' for Active; 'I' for Inactive)
REMARK    1  A    between atoms: C_5  and  C_7 
REMARK    2  A    between atoms: C_7  and  N_8 
REMARK    3  A    between atoms: C_16  and  C_18 
REMARK    4  A    between atoms: C_20  and  C_23 
REMARK    5  A    between atoms: C_26  and  O_29 
REMARK    6  A    between atoms: O_29  and  C_30 
ROOT
ATOM      1  N   LIG d   1      10.659   5.752  -4.852  0.00  0.00    -0.280 N 
ATOM      2  C   LIG d   1      11.378   7.036  -4.799  0.00  0.00     0.044 C 
ATOM      3  C   LIG d   1      10.751   7.886  -3.722  0.00  0.00     0.076 A 
ATOM      4  C   LIG d   1       9.939   7.387  -2.762  0.00  0.00     0.042 A 
ATOM      5  N   LIG d   1       9.559   8.430  -1.977  0.00  0.00    -0.348 N 
ATOM      6  C   LIG d   1      10.153   9.538  -2.479  0.00  0.00     0.094 A 
ATOM      7  N   LIG d   1      10.864   9.200  -3.523  0.00  0.00    -0.239 NA
ATOM      8  C   LIG d   1       9.574   5.929  -2.657  0.00  0.00     0.014 C 
ATOM      9  C   LIG d   1      10.561   5.133  -3.523  0.00  0.00     0.096 C 
ATOM     10  H   LIG d   1      11.568   5.136  -3.081  0.00  0.00     0.057 H 
ATOM     11  H   LIG d   1      12.437   6.853  -4.566  0.00  0.00     0.049 H 
ATOM     12  H   LIG d   1      11.298   7.541  -5.772  0.00  0.00     0.049 H 
ATOM     13  H   LIG d   1      10.122  10.493  -2.182  0.00  0.00     0.103 H 
ATOM     14  H   LIG d   1       9.645   5.609  -1.607  0.00  0.00     0.035 H 
ATOM     15  H   LIG d   1       8.545   5.781  -3.016  0.00  0.00     0.035 H 
ATOM     16  H   LIG d   1       8.888   8.258  -1.123  0.00  0.00     0.167 HD
ENDROOT
BRANCH   9  17
ATOM     17  C   LIG d   1      10.073   3.714  -3.664  0.00  0.00     0.245 A 
ATOM     18  O   LIG d   1      10.823   2.638  -3.915  0.00  0.00    -0.336 OA
ATOM     19  N   LIG d   1      10.125   1.647  -3.967  0.00  0.00    -0.056 NA
ATOM     20  C   LIG d   1       8.875   1.968  -3.758  0.00  0.00     0.202 A 
ATOM     21  N   LIG d   1       8.833   3.304  -3.556  0.00  0.00    -0.190 NA
BRANCH  20  22
ATOM     22  C   LIG d   1       7.718   1.039  -3.741  0.00  0.00     0.023 A 
ATOM     23  C   LIG d   1       7.891  -0.297  -4.101  0.00  0.00    -0.048 A 
ATOM     24  C   LIG d   1       6.814  -1.159  -4.083  0.00  0.00    -0.019 A 
ATOM     25  H   LIG d   1       8.867  -0.657  -4.393  0.00  0.00     0.063 H 
ATOM     26  C   LIG d   1       5.559  -0.697  -3.708  0.00  0.00     0.130 A 
ATOM     27  H   LIG d   1       6.947  -2.194  -4.362  0.00  0.00     0.065 H 
ATOM     28  C   LIG d   1       5.385   0.633  -3.350  0.00  0.00    -0.019 A 
ATOM     29  C   LIG d   1       6.459   1.497  -3.359  0.00  0.00    -0.048 A 
ATOM     30  H   LIG d   1       4.408   0.989  -3.059  0.00  0.00     0.065 H 
ATOM     31  H   LIG d   1       6.323   2.531  -3.075  0.00  0.00     0.063 H 
BRANCH  26  32
ATOM     32  O   LIG d   1       4.501  -1.548  -3.693  0.00  0.00    -0.406 OA
BRANCH  32  33
ATOM     33  C   LIG d   1       3.766  -1.647  -2.472  0.00  0.00     0.575 C 
ATOM     34  F   LIG d   1       4.480  -1.019  -1.446  0.00  0.00    -0.133 F 
ATOM     35  F   LIG d   1       2.523  -1.024  -2.625  0.00  0.00    -0.133 F 
ATOM     36  F   LIG d   1       3.575  -2.995  -2.150  0.00  0.00    -0.133 F 
ENDBRANCH  32  33
ENDBRANCH  26  32
ENDBRANCH  20  22
ENDBRANCH   9  17
BRANCH   1  37
ATOM     37  C   LIG d   1      11.286   4.837  -5.814  0.00  0.00     0.042 C 
ATOM     38  H   LIG d   1      11.446   3.858  -5.339  0.00  0.00     0.049 H 
ATOM     39  H   LIG d   1      12.253   5.249  -6.137  0.00  0.00     0.049 H 
BRANCH  37  40
ATOM     40  C   LIG d   1      10.385   4.672  -7.012  0.00  0.00     0.055 A 
ATOM     41  N   LIG d   1       9.887   3.484  -7.293  0.00  0.00    -0.259 NA
ATOM     42  C   LIG d   1       9.092   3.294  -8.328  0.00  0.00     0.028 A 
ATOM     43  C   LIG d   1       8.758   4.341  -9.166  0.00  0.00    -0.044 A 
ATOM     44  H   LIG d   1       8.699   2.308  -8.525  0.00  0.00     0.083 H 
ATOM     45  C   LIG d   1       9.268   5.604  -8.904  0.00  0.00    -0.059 A 
ATOM     46  H   LIG d   1       8.110   4.178 -10.014  0.00  0.00     0.063 H 
ATOM     47  C   LIG d   1      10.097   5.767  -7.805  0.00  0.00    -0.039 A 
ATOM     48  H   LIG d   1       9.024   6.441  -9.541  0.00  0.00     0.062 H 
ATOM     49  H   LIG d   1      10.512   6.736  -7.571  0.00  0.00     0.064 H 
ENDBRANCH  37  40
ENDBRANCH   1  37
TORSDOF 6
ENDMDL
MODEL 8
REMARK VINA RESULT:      -6.6      4.564      9.329
REMARK  6 active torsions:
REMARK  status: ('A' for Active; 'I' for Inactive)
REMARK    1  A    between atoms: C_5  and  C_7 
REMARK    2  A    between atoms: C_7  and  N_8 
REMARK    3  A    between atoms: C_16  and  C_18 
REMARK    4  A    between atoms: C_20  and  C_23 
REMARK    5  A    between atoms: C_26  and  O_29 
REMARK    6  A    between atoms: O_29  and  C_30 
ROOT
ATOM      1  N   LIG d   1       9.698   6.088  -3.405  0.00  0.00    -0.280 N 
ATOM      2  C   LIG d   1      10.345   7.391  -3.176  0.00  0.00     0.044 C 
ATOM      3  C   LIG d   1      10.967   7.374  -1.801  0.00  0.00     0.076 A 
ATOM      4  C   LIG d   1      11.192   6.239  -1.102  0.00  0.00     0.042 A 
ATOM      5  N   LIG d   1      11.751   6.601   0.082  0.00  0.00    -0.348 N 
ATOM      6  C   LIG d   1      11.856   7.951   0.072  0.00  0.00     0.094 A 
ATOM      7  N   LIG d   1      11.383   8.403  -1.060  0.00  0.00    -0.239 NA
ATOM      8  C   LIG d   1      10.852   4.864  -1.617  0.00  0.00     0.014 C 
ATOM      9  C   LIG d   1      10.615   4.973  -3.130  0.00  0.00     0.096 C 
ATOM     10  H   LIG d   1      11.555   5.178  -3.664  0.00  0.00     0.057 H 
ATOM     11  H   LIG d   1      11.120   7.554  -3.938  0.00  0.00     0.049 H 
ATOM     12  H   LIG d   1       9.593   8.190  -3.240  0.00  0.00     0.049 H 
ATOM     13  H   LIG d   1      12.214   8.589   0.754  0.00  0.00     0.103 H 
ATOM     14  H   LIG d   1      11.687   4.179  -1.410  0.00  0.00     0.035 H 
ATOM     15  H   LIG d   1       9.945   4.498  -1.114  0.00  0.00     0.035 H 
ATOM     16  H   LIG d   1      12.021   5.833   0.821  0.00  0.00     0.167 HD
ENDROOT
BRANCH   9  17
ATOM     17  C   LIG d   1      10.013   3.689  -3.637  0.00  0.00     0.245 A 
ATOM     18  O   LIG d   1      10.499   2.915  -4.611  0.00  0.00    -0.336 OA
ATOM     19  N   LIG d   1       9.778   1.953  -4.777  0.00  0.00    -0.056 NA
ATOM     20  C   LIG d   1       8.769   2.000  -3.946  0.00  0.00     0.202 A 
ATOM     21  N   LIG d   1       8.917   3.119  -3.201  0.00  0.00    -0.190 NA
BRANCH  20  22
ATOM     22  C   LIG d   1       7.671   1.008  -3.837  0.00  0.00     0.023 A 
ATOM     23  C   LIG d   1       6.401   1.414  -3.431  0.00  0.00    -0.048 A 
ATOM     24  C   LIG d   1       5.382   0.490  -3.332  0.00  0.00    -0.019 A 
ATOM     25  H   LIG d   1       6.214   2.452  -3.195  0.00  0.00     0.063 H 
ATOM     26  C   LIG d   1       5.621  -0.844  -3.634  0.00  0.00     0.130 A 
ATOM     27  H   LIG d   1       4.398   0.805  -3.018  0.00  0.00     0.065 H 
ATOM     28  C   LIG d   1       6.885  -1.251  -4.038  0.00  0.00    -0.019 A 
ATOM     29  C   LIG d   1       7.906  -0.331  -4.146  0.00  0.00    -0.048 A 
ATOM     30  H   LIG d   1       7.068  -2.290  -4.273  0.00  0.00     0.065 H 
ATOM     31  H   LIG d   1       8.888  -0.647  -4.465  0.00  0.00     0.063 H 
BRANCH  26  32
ATOM     32  O   LIG d   1       4.615  -1.752  -3.534  0.00  0.00    -0.406 OA
BRANCH  32  33
ATOM     33  C   LIG d   1       3.832  -1.722  -2.340  0.00  0.00     0.575 C 
ATOM     34  F   LIG d   1       4.565  -1.113  -1.316  0.00  0.00    -0.133 F 
ATOM     35  F   LIG d   1       2.660  -0.994  -2.570  0.00  0.00    -0.133 F 
ATOM     36  F   LIG d   1       3.503  -3.029  -1.965  0.00  0.00    -0.133 F 
ENDBRANCH  32  33
ENDBRANCH  26  32
ENDBRANCH  20  22
ENDBRANCH   9  17
BRANCH   1  37
ATOM     37  C   LIG d   1       9.158   6.001  -4.769  0.00  0.00     0.042 C 
ATOM     38  H   LIG d   1       8.074   6.184  -4.746  0.00  0.00     0.049 H 
ATOM     39  H   LIG d   1       9.352   4.998  -5.176  0.00  0.00     0.049 H 
BRANCH  37  40
ATOM     40  C   LIG d   1       9.824   7.035  -5.640  0.00  0.00     0.055 A 
ATOM     41  N   LIG d   1      11.029   6.802  -6.122  0.00  0.00    -0.259 NA
ATOM     42  C   LIG d   1      11.648   7.676  -6.892  0.00  0.00     0.028 A 
ATOM     43  C   LIG d   1      11.053   8.880  -7.215  0.00  0.00    -0.044 A 
ATOM     44  H   LIG d   1      12.633   7.448  -7.272  0.00  0.00     0.083 H 
ATOM     45  C   LIG d   1       9.788   9.163  -6.721  0.00  0.00    -0.059 A 
ATOM     46  H   LIG d   1      11.567   9.593  -7.843  0.00  0.00     0.063 H 
ATOM     47  C   LIG d   1       9.166   8.218  -5.919  0.00  0.00    -0.039 A 
ATOM     48  H   LIG d   1       9.298  10.095  -6.957  0.00  0.00     0.062 H 
ATOM     49  H   LIG d   1       8.182   8.405  -5.518  0.00  0.00     0.064 H 
ENDBRANCH  37  40
ENDBRANCH   1  37
TORSDOF 6
ENDMDL
MODEL 9
REMARK VINA RESULT:      -6.3      7.015      9.706
REMARK  6 active torsions:
REMARK  status: ('A' for Active; 'I' for Inactive)
REMARK    1  A    between atoms: C_5  and  C_7 
REMARK    2  A    between atoms: C_7  and  N_8 
REMARK    3  A    between atoms: C_16  and  C_18 
REMARK    4  A    between atoms: C_20  and  C_23 
REMARK    5  A    between atoms: C_26  and  O_29 
REMARK    6  A    between atoms: O_29  and  C_30 
ROOT
ATOM      1  N   LIG d   1       4.564  -1.143  -6.473  0.00  0.00    -0.280 N 
ATOM      2  C   LIG d   1       3.564  -0.108  -6.790  0.00  0.00     0.044 C 
ATOM      3  C   LIG d   1       3.826   0.390  -8.189  0.00  0.00     0.076 A 
ATOM      4  C   LIG d   1       4.596  -0.274  -9.081  0.00  0.00     0.042 A 
ATOM      5  N   LIG d   1       4.614   0.463 -10.222  0.00  0.00    -0.348 N 
ATOM      6  C   LIG d   1       3.851   1.559  -9.997  0.00  0.00     0.094 A 
ATOM      7  N   LIG d   1       3.384   1.504  -8.776  0.00  0.00    -0.239 NA
ATOM      8  C   LIG d   1       5.273  -1.586  -8.781  0.00  0.00     0.014 C 
ATOM      9  C   LIG d   1       4.625  -2.173  -7.519  0.00  0.00     0.096 C 
ATOM     10  H   LIG d   1       3.595  -2.502  -7.720  0.00  0.00     0.057 H 
ATOM     11  H   LIG d   1       2.556  -0.542  -6.727  0.00  0.00     0.049 H 
ATOM     12  H   LIG d   1       3.654   0.720  -6.072  0.00  0.00     0.049 H 
ATOM     13  H   LIG d   1       3.618   2.332 -10.586  0.00  0.00     0.103 H 
ATOM     14  H   LIG d   1       5.140  -2.270  -9.632  0.00  0.00     0.035 H 
ATOM     15  H   LIG d   1       6.347  -1.415  -8.614  0.00  0.00     0.035 H 
ATOM     16  H   LIG d   1       5.186   0.114 -11.094  0.00  0.00     0.167 HD
ENDROOT
BRANCH   9  17
ATOM     17  C   LIG d   1       5.445  -3.339  -7.029  0.00  0.00     0.245 A 
ATOM     18  O   LIG d   1       6.778  -3.416  -7.005  0.00  0.00    -0.336 OA
ATOM     19  N   LIG d   1       7.124  -4.488  -6.551  0.00  0.00    -0.056 NA
ATOM     20  C   LIG d   1       6.074  -5.203  -6.240  0.00  0.00     0.202 A 
ATOM     21  N   LIG d   1       4.983  -4.463  -6.542  0.00  0.00    -0.190 NA
BRANCH  20  22
ATOM     22  C   LIG d   1       6.079  -6.568  -5.658  0.00  0.00     0.023 A 
ATOM     23  C   LIG d   1       4.897  -7.303  -5.591  0.00  0.00    -0.048 A 
ATOM     24  C   LIG d   1       4.906  -8.572  -5.051  0.00  0.00    -0.019 A 
ATOM     25  H   LIG d   1       3.975  -6.880  -5.963  0.00  0.00     0.063 H 
ATOM     26  C   LIG d   1       6.090  -9.116  -4.573  0.00  0.00     0.130 A 
ATOM     27  H   LIG d   1       3.990  -9.142  -4.999  0.00  0.00     0.065 H 
ATOM     28  C   LIG d   1       7.269  -8.386  -4.637  0.00  0.00    -0.019 A 
ATOM     29  C   LIG d   1       7.268  -7.120  -5.183  0.00  0.00    -0.048 A 
ATOM     30  H   LIG d   1       8.189  -8.812  -4.265  0.00  0.00     0.065 H 
ATOM     31  H   LIG d   1       8.187  -6.553  -5.238  0.00  0.00     0.063 H 
BRANCH  26  32
ATOM     32  O   LIG d   1       6.095 -10.366  -4.040  0.00  0.00    -0.406 OA
BRANCH  32  33
ATOM     33  C   LIG d   1       5.745 -10.484  -2.661  0.00  0.00     0.575 C 
ATOM     34  F   LIG d   1       6.536  -9.614  -1.902  0.00  0.00    -0.133 F 
ATOM     35  F   LIG d   1       4.396 -10.154  -2.493  0.00  0.00    -0.133 F 
ATOM     36  F   LIG d   1       5.959 -11.799  -2.235  0.00  0.00    -0.133 F 
ENDBRANCH  32  33
ENDBRANCH  26  32
ENDBRANCH  20  22
ENDBRANCH   9  17
BRANCH   1  37
ATOM     37  C   LIG d   1       4.302  -1.743  -5.158  0.00  0.00     0.042 C 
ATOM     38  H   LIG d   1       5.040  -2.535  -4.963  0.00  0.00     0.049 H 
ATOM     39  H   LIG d   1       3.290  -2.174  -5.146  0.00  0.00     0.049 H 
BRANCH  37  40
ATOM     40  C   LIG d   1       4.409  -0.683  -4.091  0.00  0.00     0.055 A 
ATOM     41  N   LIG d   1       3.336  -0.333  -3.411  0.00  0.00    -0.259 NA
ATOM     42  C   LIG d   1       3.383   0.586  -2.466  0.00  0.00     0.028 A 
ATOM     43  C   LIG d   1       4.569   1.226  -2.161  0.00  0.00    -0.044 A 
ATOM     44  H   LIG d   1       2.484   0.843  -1.927  0.00  0.00     0.083 H 
ATOM     45  C   LIG d   1       5.719   0.887  -2.860  0.00  0.00    -0.059 A 
ATOM     46  H   LIG d   1       4.601   1.980  -1.389  0.00  0.00     0.063 H 
ATOM     47  C   LIG d   1       5.631  -0.086  -3.842  0.00  0.00    -0.039 A 
ATOM     48  H   LIG d   1       6.660   1.370  -2.643  0.00  0.00     0.062 H 
ATOM     49  H   LIG d   1       6.506  -0.375  -4.406  0.00  0.00     0.064 H 
ENDBRANCH  37  40
ENDBRANCH   1  37
TORSDOF 6
ENDMDL
MODEL 10
REMARK VINA RESULT:      -6.3      3.784      4.507
REMARK  6 active torsions:
REMARK  status: ('A' for Active; 'I' for Inactive)
REMARK    1  A    between atoms: C_5  and  C_7 
REMARK    2  A    between atoms: C_7  and  N_8 
REMARK    3  A    between atoms: C_16  and  C_18 
REMARK    4  A    between atoms: C_20  and  C_23 
REMARK    5  A    between atoms: C_26  and  O_29 
REMARK    6  A    between atoms: O_29  and  C_30 
ROOT
ATOM      1  N   LIG d   1       5.266  -0.492  -6.372  0.00  0.00    -0.280 N 
ATOM      2  C   LIG d   1       4.198  -1.337  -6.931  0.00  0.00     0.044 C 
ATOM      3  C   LIG d   1       3.656  -0.659  -8.165  0.00  0.00     0.076 A 
ATOM      4  C   LIG d   1       4.305   0.337  -8.811  0.00  0.00     0.042 A 
ATOM      5  N   LIG d   1       3.527   0.707  -9.862  0.00  0.00    -0.348 N 
ATOM      6  C   LIG d   1       2.423  -0.076  -9.831  0.00  0.00     0.094 A 
ATOM      7  N   LIG d   1       2.511  -0.890  -8.811  0.00  0.00    -0.239 NA
ATOM      8  C   LIG d   1       5.643   0.876  -8.376  0.00  0.00     0.014 C 
ATOM      9  C   LIG d   1       6.259  -0.130  -7.393  0.00  0.00     0.096 C 
ATOM     10  H   LIG d   1       6.556  -1.055  -7.908  0.00  0.00     0.057 H 
ATOM     11  H   LIG d   1       4.609  -2.322  -7.193  0.00  0.00     0.049 H 
ATOM     12  H   LIG d   1       3.399  -1.458  -6.186  0.00  0.00     0.049 H 
ATOM     13  H   LIG d   1       1.623  -0.110 -10.430  0.00  0.00     0.103 H 
ATOM     14  H   LIG d   1       6.292   0.997  -9.255  0.00  0.00     0.035 H 
ATOM     15  H   LIG d   1       5.504   1.851  -7.886  0.00  0.00     0.035 H 
ATOM     16  H   LIG d   1       3.859   1.511 -10.534  0.00  0.00     0.167 HD
ENDROOT
BRANCH   9  17
ATOM     17  C   LIG d   1       7.461   0.490  -6.729  0.00  0.00     0.245 A 
ATOM     18  O   LIG d   1       7.543   1.727  -6.231  0.00  0.00    -0.336 OA
ATOM     19  N   LIG d   1       8.647   1.915  -5.764  0.00  0.00    -0.056 NA
ATOM     20  C   LIG d   1       9.382   0.842  -5.905  0.00  0.00     0.202 A 
ATOM     21  N   LIG d   1       8.620  -0.086  -6.524  0.00  0.00    -0.190 NA
BRANCH  20  22
ATOM     22  C   LIG d   1      10.789   0.675  -5.463  0.00  0.00     0.023 A 
ATOM     23  C   LIG d   1      11.239   1.314  -4.309  0.00  0.00    -0.048 A 
ATOM     24  C   LIG d   1      12.547   1.156  -3.901  0.00  0.00    -0.019 A 
ATOM     25  H   LIG d   1      10.564   1.932  -3.734  0.00  0.00     0.063 H 
ATOM     26  C   LIG d   1      13.415   0.363  -4.639  0.00  0.00     0.130 A 
ATOM     27  H   LIG d   1      12.896   1.651  -3.006  0.00  0.00     0.065 H 
ATOM     28  C   LIG d   1      12.969  -0.274  -5.789  0.00  0.00    -0.019 A 
ATOM     29  C   LIG d   1      11.661  -0.126  -6.198  0.00  0.00    -0.048 A 
ATOM     30  H   LIG d   1      13.647  -0.891  -6.361  0.00  0.00     0.065 H 
ATOM     31  H   LIG d   1      11.314  -0.626  -7.091  0.00  0.00     0.063 H 
BRANCH  26  32
ATOM     32  O   LIG d   1      14.703   0.210  -4.234  0.00  0.00    -0.406 OA
BRANCH  32  33
ATOM     33  C   LIG d   1      14.941  -0.698  -3.158  0.00  0.00     0.575 C 
ATOM     34  F   LIG d   1      13.990  -1.725  -3.195  0.00  0.00    -0.133 F 
ATOM     35  F   LIG d   1      16.222  -1.245  -3.285  0.00  0.00    -0.133 F 
ATOM     36  F   LIG d   1      14.843  -0.016  -1.941  0.00  0.00    -0.133 F 
ENDBRANCH  32  33
ENDBRANCH  26  32
ENDBRANCH  20  22
ENDBRANCH   9  17
BRANCH   1  37
ATOM     37  C   LIG d   1       5.907  -1.145  -5.223  0.00  0.00     0.042 C 
ATOM     38  H   LIG d   1       6.996  -1.000  -5.279  0.00  0.00     0.049 H 
ATOM     39  H   LIG d   1       5.680  -2.221  -5.240  0.00  0.00     0.049 H 
BRANCH  37  40
ATOM     40  C   LIG d   1       5.385  -0.541  -3.945  0.00  0.00     0.055 A 
ATOM     41  N   LIG d   1       5.408   0.767  -3.786  0.00  0.00    -0.259 NA
ATOM     42  C   LIG d   1       4.958   1.340  -2.686  0.00  0.00     0.028 A 
ATOM     43  C   LIG d   1       4.450   0.580  -1.650  0.00  0.00    -0.044 A 
ATOM     44  H   LIG d   1       4.990   2.415  -2.593  0.00  0.00     0.083 H 
ATOM     45  C   LIG d   1       4.414  -0.800  -1.779  0.00  0.00    -0.059 A 
ATOM     46  H   LIG d   1       4.086   1.054  -0.751  0.00  0.00     0.063 H 
ATOM     47  C   LIG d   1       4.892  -1.366  -2.951  0.00  0.00    -0.039 A 
ATOM     48  H   LIG d   1       4.022  -1.420  -0.987  0.00  0.00     0.062 H 
ATOM     49  H   LIG d   1       4.879  -2.438  -3.086  0.00  0.00     0.064 H 
ENDBRANCH  37  40
ENDBRANCH   1  37
TORSDOF 6
ENDMDL
