MODEL 1
REMARK VINA RESULT:      -7.1      0.000      0.000
REMARK  6 active torsions:
REMARK  status: ('A' for Active; 'I' for Inactive)
REMARK    1  A    between atoms: C_1  and  O_2 
REMARK    2  A    between atoms: O_2  and  C_3 
REMARK    3  A    between atoms: C_3  and  C_5 
REMARK    4  A    between atoms: C_9  and  C_11 
REMARK       I    between atoms: C_11  and  N_13 
REMARK    5  A    between atoms: CA_23  and  CB_27 
REMARK    6  A    between atoms: CB_27  and  CG_28 
ROOT
ATOM      1  C   UNK d   1       5.240  -9.591  -5.591  0.00  0.00     0.247 C 
ATOM      2  O   UNK d   1       4.064  -9.875  -5.703  0.00  0.00    -0.270 OA
ATOM      3  N   UNK d   1       5.676  -8.367  -5.949  0.00  0.00    -0.294 N 
ATOM      4  C   UNK d   1       7.062  -7.958  -5.707  0.00  0.00     0.031 C 
ATOM      5  C   UNK d   1       7.095  -6.649  -4.937  0.00  0.00     0.031 C 
ATOM      6  N   UNK d   1       6.061  -5.706  -5.358  0.00  0.00    -0.285 N 
ATOM      7  C   UNK d   1       4.718  -6.133  -5.738  0.00  0.00     0.118 C 
ATOM      8  H   UNK d   1       4.144  -6.351  -4.838  0.00  0.00     0.061 H 
ATOM      9  C   UNK d   1       4.798  -7.396  -6.604  0.00  0.00     0.042 C 
ATOM     10  C   UNK d   1       4.011  -5.068  -6.532  0.00  0.00     0.236 C 
ATOM     11  O   UNK d   1       3.176  -5.402  -7.345  0.00  0.00    -0.274 OA
ATOM     12  H   UNK d   1       7.573  -7.828  -6.661  0.00  0.00     0.048 H 
ATOM     13  H   UNK d   1       7.570  -8.729  -5.128  0.00  0.00     0.048 H 
ATOM     14  H   UNK d   1       8.070  -6.184  -5.078  0.00  0.00     0.048 H 
ATOM     15  H   UNK d   1       6.962  -6.863  -3.876  0.00  0.00     0.048 H 
ATOM     16  H   UNK d   1       3.805  -7.834  -6.702  0.00  0.00     0.049 H 
ATOM     17  H   UNK d   1       5.186  -7.139  -7.590  0.00  0.00     0.049 H 
ATOM     18  N   PHE d   2       4.273  -3.763  -6.369  0.00  0.00    -0.302 N 
ATOM     19  CA  PHE d   2       5.294  -3.327  -5.417  0.00  0.00     0.100 C 
ATOM     20  HA  PHE d   2       5.741  -2.396  -5.766  0.00  0.00     0.059 H 
ATOM     21  C   PHE d   2       6.358  -4.380  -5.303  0.00  0.00     0.237 C 
ATOM     22  O   PHE d   2       7.516  -4.044  -5.174  0.00  0.00    -0.274 OA
ATOM     23  H   PHE d   2       3.782  -3.105  -6.885  0.00  0.00     0.149 HD
ENDROOT
BRANCH  19  24
ATOM     24  CB  PHE d   2       4.650  -3.100  -4.047  0.00  0.00    -0.023 C 
ATOM     25  HB1 PHE d   2       5.266  -3.563  -3.276  0.00  0.00     0.029 H 
ATOM     26  HB2 PHE d   2       3.656  -3.547  -4.035  0.00  0.00     0.029 H 
BRANCH  24  27
ATOM     27  CG  PHE d   2       4.538  -1.599  -3.777  0.00  0.00    -0.039 A 
ATOM     28  CD1 PHE d   2       5.836  -1.097  -3.140  0.00  0.00    -0.050 A 
ATOM     29  CE1 PHE d   2       5.724   0.405  -2.870  0.00  0.00    -0.053 A 
ATOM     30 1HD1 PHE d   2       6.005  -1.623  -2.200  0.00  0.00     0.027 H 
ATOM     31 2HD1 PHE d   2       6.669  -1.283  -3.817  0.00  0.00     0.027 H 
ATOM     32  CZ  PHE d   2       4.553   0.667  -1.919  0.00  0.00    -0.053 A 
ATOM     33 1HE1 PHE d   2       6.648   0.762  -2.416  0.00  0.00     0.026 H 
ATOM     34 2HE1 PHE d   2       5.553   0.931  -3.809  0.00  0.00     0.026 H 
ATOM     35  CE2 PHE d   2       3.256   0.164  -2.558  0.00  0.00    -0.053 A 
ATOM     36  HZ1 PHE d   2       4.474   1.736  -1.728  0.00  0.00     0.026 H 
ATOM     37  HZ2 PHE d   2       4.724   0.140  -0.980  0.00  0.00     0.026 H 
ATOM     38  CD2 PHE d   2       3.368  -1.337  -2.828  0.00  0.00    -0.050 A 
ATOM     39 1HE2 PHE d   2       3.086   0.691  -3.497  0.00  0.00     0.026 H 
ATOM     40 2HE2 PHE d   2       2.423   0.351  -1.881  0.00  0.00     0.026 H 
ATOM     41 1HD2 PHE d   2       3.538  -1.863  -1.888  0.00  0.00     0.027 H 
ATOM     42 2HD2 PHE d   2       2.445  -1.695  -3.282  0.00  0.00     0.027 H 
ATOM     43  HG  PHE d   2       4.369  -1.073  -4.717  0.00  0.00     0.030 H 
ENDBRANCH  24  27
ENDBRANCH  19  24
BRANCH   1  44
ATOM     44  C   UNK d   1       6.194 -10.589  -5.061  0.00  0.00     0.038 A 
ATOM     45  C   UNK d   1       6.996 -11.324  -5.937  0.00  0.00    -0.050 A 
ATOM     46  C   UNK d   1       7.892 -12.253  -5.443  0.00  0.00    -0.060 A 
ATOM     47  H   UNK d   1       6.919 -11.164  -7.002  0.00  0.00     0.062 H 
ATOM     48  C   UNK d   1       7.993 -12.469  -4.084  0.00  0.00    -0.048 A 
ATOM     49  H   UNK d   1       8.512 -12.816  -6.125  0.00  0.00     0.062 H 
ATOM     50  C   UNK d   1       7.192 -11.744  -3.196  0.00  0.00     0.060 A 
ATOM     51  H   UNK d   1       8.692 -13.200  -3.704  0.00  0.00     0.063 H 
ATOM     52  C   UNK d   1       6.290 -10.802  -3.688  0.00  0.00    -0.036 A 
ATOM     53  H   UNK d   1       5.669 -10.239  -3.006  0.00  0.00     0.063 H 
BRANCH  50  54
ATOM     54  C   UNK d   1       7.302 -11.977  -1.742  0.00  0.00     0.339 C 
ATOM     55  O   UNK d   1       7.349 -13.112  -1.310  0.00  0.00    -0.245 OA
BRANCH  54  56
ATOM     56  O   UNK d   1       7.348 -10.932  -0.894  0.00  0.00    -0.465 OA
BRANCH  56  57
ATOM     57  C   UNK d   1       8.637 -10.292  -0.704  0.00  0.00     0.082 C 
ATOM     58  H   UNK d   1       8.541  -9.488   0.025  0.00  0.00     0.066 H 
ATOM     59  H   UNK d   1       9.357 -11.027  -0.342  0.00  0.00     0.066 H 
ATOM     60  H   UNK d   1       8.983  -9.882  -1.653  0.00  0.00     0.066 H 
ENDBRANCH  56  57
ENDBRANCH  54  56
ENDBRANCH  50  54
ENDBRANCH   1  44
TORSDOF 6
ENDMDL
MODEL 2
REMARK VINA RESULT:      -7.0      7.221      8.731
REMARK  6 active torsions:
REMARK  status: ('A' for Active; 'I' for Inactive)
REMARK    1  A    between atoms: C_1  and  O_2 
REMARK    2  A    between atoms: O_2  and  C_3 
REMARK    3  A    between atoms: C_3  and  C_5 
REMARK    4  A    between atoms: C_9  and  C_11 
REMARK       I    between atoms: C_11  and  N_13 
REMARK    5  A    between atoms: CA_23  and  CB_27 
REMARK    6  A    between atoms: CB_27  and  CG_28 
ROOT
ATOM      1  C   UNK d   1       1.436  -2.123 -11.710  0.00  0.00     0.247 C 
ATOM      2  O   UNK d   1       0.588  -1.325 -12.059  0.00  0.00    -0.270 OA
ATOM      3  N   UNK d   1       2.386  -1.755 -10.828  0.00  0.00    -0.294 N 
ATOM      4  C   UNK d   1       3.341  -2.731 -10.296  0.00  0.00     0.031 C 
ATOM      5  C   UNK d   1       3.330  -2.702  -8.777  0.00  0.00     0.031 C 
ATOM      6  N   UNK d   1       3.197  -1.354  -8.227  0.00  0.00    -0.285 N 
ATOM      7  C   UNK d   1       2.352  -0.336  -8.843  0.00  0.00     0.118 C 
ATOM      8  H   UNK d   1       1.311  -0.535  -8.592  0.00  0.00     0.061 H 
ATOM      9  C   UNK d   1       2.518  -0.372 -10.367  0.00  0.00     0.042 C 
ATOM     10  C   UNK d   1       2.723   1.042  -8.367  0.00  0.00     0.236 C 
ATOM     11  O   UNK d   1       2.537   1.987  -9.105  0.00  0.00    -0.274 OA
ATOM     12  H   UNK d   1       4.342  -2.489 -10.654  0.00  0.00     0.048 H 
ATOM     13  H   UNK d   1       3.068  -3.729 -10.639  0.00  0.00     0.048 H 
ATOM     14  H   UNK d   1       4.258  -3.138  -8.412  0.00  0.00     0.048 H 
ATOM     15  H   UNK d   1       2.497  -3.308  -8.422  0.00  0.00     0.048 H 
ATOM     16  H   UNK d   1       1.736   0.227 -10.834  0.00  0.00     0.049 H 
ATOM     17  H   UNK d   1       3.497   0.025 -10.638  0.00  0.00     0.049 H 
ATOM     18  N   PHE d   2       3.251   1.261  -7.154  0.00  0.00    -0.302 N 
ATOM     19  CA  PHE d   2       3.516   0.142  -6.250  0.00  0.00     0.100 C 
ATOM     20  HA  PHE d   2       4.366   0.384  -5.613  0.00  0.00     0.059 H 
ATOM     21  C   PHE d   2       3.824  -1.090  -7.051  0.00  0.00     0.237 C 
ATOM     22  O   PHE d   2       4.667  -1.864  -6.649  0.00  0.00    -0.274 OA
ATOM     23  H   PHE d   2       3.459   2.167  -6.875  0.00  0.00     0.149 HD
ENDROOT
BRANCH  19  24
ATOM     24  CB  PHE d   2       2.283  -0.111  -5.378  0.00  0.00    -0.023 C 
ATOM     25  HB1 PHE d   2       1.869  -1.092  -5.611  0.00  0.00     0.029 H 
ATOM     26  HB2 PHE d   2       1.534   0.656  -5.578  0.00  0.00     0.029 H 
BRANCH  24  27
ATOM     27  CG  PHE d   2       2.682  -0.062  -3.902  0.00  0.00    -0.039 A 
ATOM     28  CD1 PHE d   2       3.477   1.217  -3.632  0.00  0.00    -0.050 A 
ATOM     29  CE1 PHE d   2       3.876   1.266  -2.156  0.00  0.00    -0.053 A 
ATOM     30 1HD1 PHE d   2       4.374   1.225  -4.251  0.00  0.00     0.027 H 
ATOM     31 2HD1 PHE d   2       2.862   2.085  -3.871  0.00  0.00     0.027 H 
ATOM     32  CZ  PHE d   2       4.740   0.048  -1.820  0.00  0.00    -0.053 A 
ATOM     33 1HE1 PHE d   2       4.443   2.177  -1.963  0.00  0.00     0.026 H 
ATOM     34 2HE1 PHE d   2       2.980   1.258  -1.536  0.00  0.00     0.026 H 
ATOM     35  CE2 PHE d   2       3.944  -1.231  -2.091  0.00  0.00    -0.053 A 
ATOM     36  HZ1 PHE d   2       5.024   0.083  -0.768  0.00  0.00     0.026 H 
ATOM     37  HZ2 PHE d   2       5.637   0.056  -2.440  0.00  0.00     0.026 H 
ATOM     38  CD2 PHE d   2       3.544  -1.280  -3.567  0.00  0.00    -0.050 A 
ATOM     39 1HE2 PHE d   2       3.048  -1.239  -1.471  0.00  0.00     0.026 H 
ATOM     40 2HE2 PHE d   2       4.558  -2.098  -1.852  0.00  0.00     0.026 H 
ATOM     41 1HD2 PHE d   2       4.441  -1.272  -4.186  0.00  0.00     0.027 H 
ATOM     42 2HD2 PHE d   2       2.977  -2.190  -3.760  0.00  0.00     0.027 H 
ATOM     43  HG  PHE d   2       1.785  -0.070  -3.283  0.00  0.00     0.030 H 
ENDBRANCH  24  27
ENDBRANCH  19  24
BRANCH   1  44
ATOM     44  C   UNK d   1       1.426  -3.498 -12.255  0.00  0.00     0.038 A 
ATOM     45  C   UNK d   1       1.948  -3.751 -13.526  0.00  0.00    -0.050 A 
ATOM     46  C   UNK d   1       1.944  -5.036 -14.033  0.00  0.00    -0.060 A 
ATOM     47  H   UNK d   1       2.359  -2.942 -14.111  0.00  0.00     0.062 H 
ATOM     48  C   UNK d   1       1.416  -6.075 -13.295  0.00  0.00    -0.048 A 
ATOM     49  H   UNK d   1       2.353  -5.226 -15.015  0.00  0.00     0.062 H 
ATOM     50  C   UNK d   1       0.886  -5.835 -12.024  0.00  0.00     0.060 A 
ATOM     51  H   UNK d   1       1.412  -7.077 -13.699  0.00  0.00     0.063 H 
ATOM     52  C   UNK d   1       0.891  -4.542 -11.504  0.00  0.00    -0.036 A 
ATOM     53  H   UNK d   1       0.482  -4.351 -10.523  0.00  0.00     0.063 H 
BRANCH  50  54
ATOM     54  C   UNK d   1       0.320  -6.948 -11.236  0.00  0.00     0.339 C 
ATOM     55  O   UNK d   1       0.114  -8.023 -11.763  0.00  0.00    -0.245 OA
BRANCH  54  56
ATOM     56  O   UNK d   1       0.032  -6.772  -9.932  0.00  0.00    -0.465 OA
BRANCH  56  57
ATOM     57  C   UNK d   1      -1.365  -6.869  -9.546  0.00  0.00     0.082 C 
ATOM     58  H   UNK d   1      -1.454  -6.736  -8.468  0.00  0.00     0.066 H 
ATOM     59  H   UNK d   1      -1.936  -6.093 -10.056  0.00  0.00     0.066 H 
ATOM     60  H   UNK d   1      -1.752  -7.849  -9.826  0.00  0.00     0.066 H 
ENDBRANCH  56  57
ENDBRANCH  54  56
ENDBRANCH  50  54
ENDBRANCH   1  44
TORSDOF 6
ENDMDL
MODEL 3
REMARK VINA RESULT:      -6.9      5.097      8.283
REMARK  6 active torsions:
REMARK  status: ('A' for Active; 'I' for Inactive)
REMARK    1  A    between atoms: C_1  and  O_2 
REMARK    2  A    between atoms: O_2  and  C_3 
REMARK    3  A    between atoms: C_3  and  C_5 
REMARK    4  A    between atoms: C_9  and  C_11 
REMARK       I    between atoms: C_11  and  N_13 
REMARK    5  A    between atoms: CA_23  and  CB_27 
REMARK    6  A    between atoms: CB_27  and  CG_28 
ROOT
ATOM      1  C   UNK d   1       2.505  -2.804 -10.009  0.00  0.00     0.247 C 
ATOM      2  O   UNK d   1       2.353  -1.611 -10.186  0.00  0.00    -0.270 OA
ATOM      3  N   UNK d   1       3.472  -3.245  -9.181  0.00  0.00    -0.294 N 
ATOM      4  C   UNK d   1       3.595  -4.667  -8.852  0.00  0.00     0.031 C 
ATOM      5  C   UNK d   1       3.603  -4.860  -7.346  0.00  0.00     0.031 C 
ATOM      6  N   UNK d   1       4.352  -3.824  -6.636  0.00  0.00    -0.285 N 
ATOM      7  C   UNK d   1       4.341  -2.425  -7.053  0.00  0.00     0.118 C 
ATOM      8  H   UNK d   1       3.408  -1.963  -6.731  0.00  0.00     0.061 H 
ATOM      9  C   UNK d   1       4.449  -2.335  -8.580  0.00  0.00     0.042 C 
ATOM     10  C   UNK d   1       5.500  -1.671  -6.459  0.00  0.00     0.236 C 
ATOM     11  O   UNK d   1       5.953  -0.723  -7.065  0.00  0.00    -0.274 OA
ATOM     12  H   UNK d   1       4.524  -5.057  -9.271  0.00  0.00     0.048 H 
ATOM     13  H   UNK d   1       2.752  -5.211  -9.280  0.00  0.00     0.048 H 
ATOM     14  H   UNK d   1       4.046  -5.829  -7.119  0.00  0.00     0.048 H 
ATOM     15  H   UNK d   1       2.574  -4.855  -6.987  0.00  0.00     0.048 H 
ATOM     16  H   UNK d   1       4.222  -1.318  -8.902  0.00  0.00     0.049 H 
ATOM     17  H   UNK d   1       5.459  -2.603  -8.892  0.00  0.00     0.049 H 
ATOM     18  N   PHE d   2       6.046  -2.010  -5.283  0.00  0.00    -0.302 N 
ATOM     19  CA  PHE d   2       5.543  -3.165  -4.539  0.00  0.00     0.100 C 
ATOM     20  HA  PHE d   2       6.354  -3.605  -3.959  0.00  0.00     0.059 H 
ATOM     21  C   PHE d   2       5.003  -4.186  -5.500  0.00  0.00     0.237 C 
ATOM     22  O   PHE d   2       5.167  -5.365  -5.268  0.00  0.00    -0.274 OA
ATOM     23  H   PHE d   2       6.780  -1.487  -4.923  0.00  0.00     0.149 HD
ENDROOT
BRANCH  19  24
ATOM     24  CB  PHE d   2       4.427  -2.715  -3.593  0.00  0.00    -0.023 C 
ATOM     25  HB1 PHE d   2       4.550  -3.205  -2.628  0.00  0.00     0.029 H 
ATOM     26  HB2 PHE d   2       3.460  -2.986  -4.018  0.00  0.00     0.029 H 
BRANCH  24  27
ATOM     27  CG  PHE d   2       4.495  -1.198  -3.408  0.00  0.00    -0.039 A 
ATOM     28  CD1 PHE d   2       4.674  -0.873  -1.923  0.00  0.00    -0.050 A 
ATOM     29  CE1 PHE d   2       4.742   0.644  -1.739  0.00  0.00    -0.053 A 
ATOM     30 1HD1 PHE d   2       3.829  -1.270  -1.361  0.00  0.00     0.027 H 
ATOM     31 2HD1 PHE d   2       5.597  -1.325  -1.561  0.00  0.00     0.027 H 
ATOM     32  CZ  PHE d   2       3.446   1.279  -2.247  0.00  0.00    -0.053 A 
ATOM     33 1HE1 PHE d   2       4.870   0.875  -0.681  0.00  0.00     0.026 H 
ATOM     34 2HE1 PHE d   2       5.586   1.041  -2.301  0.00  0.00     0.026 H 
ATOM     35  CE2 PHE d   2       3.268   0.953  -3.732  0.00  0.00    -0.053 A 
ATOM     36  HZ1 PHE d   2       3.495   2.359  -2.115  0.00  0.00     0.026 H 
ATOM     37  HZ2 PHE d   2       2.601   0.881  -1.684  0.00  0.00     0.026 H 
ATOM     38  CD2 PHE d   2       3.199  -0.564  -3.917  0.00  0.00    -0.050 A 
ATOM     39 1HE2 PHE d   2       4.112   1.351  -4.294  0.00  0.00     0.026 H 
ATOM     40 2HE2 PHE d   2       2.345   1.405  -4.094  0.00  0.00     0.026 H 
ATOM     41 1HD2 PHE d   2       2.355  -0.960  -3.354  0.00  0.00     0.027 H 
ATOM     42 2HD2 PHE d   2       3.072  -0.796  -4.974  0.00  0.00     0.027 H 
ATOM     43  HG  PHE d   2       5.340  -0.801  -3.971  0.00  0.00     0.030 H 
ENDBRANCH  24  27
ENDBRANCH  19  24
BRANCH   1  44
ATOM     44  C   UNK d   1       1.628  -3.772 -10.703  0.00  0.00     0.038 A 
ATOM     45  C   UNK d   1       2.058  -4.383 -11.883  0.00  0.00    -0.050 A 
ATOM     46  C   UNK d   1       1.242  -5.292 -12.529  0.00  0.00    -0.060 A 
ATOM     47  H   UNK d   1       3.031  -4.149 -12.288  0.00  0.00     0.062 H 
ATOM     48  C   UNK d   1      -0.005  -5.593 -12.021  0.00  0.00    -0.048 A 
ATOM     49  H   UNK d   1       1.581  -5.765 -13.439  0.00  0.00     0.062 H 
ATOM     50  C   UNK d   1      -0.449  -4.984 -10.844  0.00  0.00     0.060 A 
ATOM     51  H   UNK d   1      -0.640  -6.301 -12.533  0.00  0.00     0.063 H 
ATOM     52  C   UNK d   1       0.371  -4.070 -10.184  0.00  0.00    -0.036 A 
ATOM     53  H   UNK d   1       0.032  -3.596  -9.275  0.00  0.00     0.063 H 
BRANCH  50  54
ATOM     54  C   UNK d   1      -1.785  -5.307 -10.302  0.00  0.00     0.339 C 
ATOM     55  O   UNK d   1      -1.892  -5.749  -9.175  0.00  0.00    -0.245 OA
BRANCH  54  56
ATOM     56  O   UNK d   1      -2.883  -5.113 -11.056  0.00  0.00    -0.465 OA
BRANCH  56  57
ATOM     57  C   UNK d   1      -4.016  -4.466 -10.418  0.00  0.00     0.082 C 
ATOM     58  H   UNK d   1      -4.822  -4.347 -11.142  0.00  0.00     0.066 H 
ATOM     59  H   UNK d   1      -4.363  -5.080  -9.586  0.00  0.00     0.066 H 
ATOM     60  H   UNK d   1      -3.714  -3.487 -10.046  0.00  0.00     0.066 H 
ENDBRANCH  56  57
ENDBRANCH  54  56
ENDBRANCH  50  54
ENDBRANCH   1  44
TORSDOF 6
ENDMDL
MODEL 4
REMARK VINA RESULT:      -6.7      7.521     11.606
REMARK  6 active torsions:
REMARK  status: ('A' for Active; 'I' for Inactive)
REMARK    1  A    between atoms: C_1  and  O_2 
REMARK    2  A    between atoms: O_2  and  C_3 
REMARK    3  A    between atoms: C_3  and  C_5 
REMARK    4  A    between atoms: C_9  and  C_11 
REMARK       I    between atoms: C_11  and  N_13 
REMARK    5  A    between atoms: CA_23  and  CB_27 
REMARK    6  A    between atoms: CB_27  and  CG_28 
ROOT
ATOM      1  C   UNK d   1       8.057   1.518  -5.568  0.00  0.00     0.247 C 
ATOM      2  O   UNK d   1       7.544   1.781  -6.637  0.00  0.00    -0.270 OA
ATOM      3  N   UNK d   1       9.146   2.198  -5.156  0.00  0.00    -0.294 N 
ATOM      4  C   UNK d   1       9.707   1.989  -3.819  0.00  0.00     0.031 C 
ATOM      5  C   UNK d   1       9.834   3.316  -3.090  0.00  0.00     0.031 C 
ATOM      6  N   UNK d   1      10.261   4.412  -3.958  0.00  0.00    -0.285 N 
ATOM      7  C   UNK d   1       9.811   4.539  -5.339  0.00  0.00     0.118 C 
ATOM      8  H   UNK d   1       8.795   4.934  -5.350  0.00  0.00     0.061 H 
ATOM      9  C   UNK d   1       9.824   3.166  -6.021  0.00  0.00     0.042 C 
ATOM     10  C   UNK d   1      10.709   5.457  -6.124  0.00  0.00     0.236 C 
ATOM     11  O   UNK d   1      10.829   5.279  -7.318  0.00  0.00    -0.274 OA
ATOM     12  H   UNK d   1      10.692   1.531  -3.908  0.00  0.00     0.048 H 
ATOM     13  H   UNK d   1       9.052   1.328  -3.252  0.00  0.00     0.048 H 
ATOM     14  H   UNK d   1      10.559   3.204  -2.284  0.00  0.00     0.048 H 
ATOM     15  H   UNK d   1       8.867   3.570  -2.656  0.00  0.00     0.048 H 
ATOM     16  H   UNK d   1       9.287   3.223  -6.968  0.00  0.00     0.049 H 
ATOM     17  H   UNK d   1      10.854   2.856  -6.200  0.00  0.00     0.049 H 
ATOM     18  N   PHE d   2      11.379   6.464  -5.547  0.00  0.00    -0.302 N 
ATOM     19  CA  PHE d   2      11.281   6.690  -4.106  0.00  0.00     0.100 C 
ATOM     20  HA  PHE d   2      12.210   7.129  -3.742  0.00  0.00     0.059 H 
ATOM     21  C   PHE d   2      11.038   5.383  -3.408  0.00  0.00     0.237 C 
ATOM     22  O   PHE d   2      11.560   5.177  -2.333  0.00  0.00    -0.274 OA
ATOM     23  H   PHE d   2      11.934   7.048  -6.090  0.00  0.00     0.149 HD
ENDROOT
BRANCH  19  24
ATOM     24  CB  PHE d   2      10.120   7.646  -3.818  0.00  0.00    -0.023 C 
ATOM     25  HB1 PHE d   2       9.235   7.070  -3.546  0.00  0.00     0.029 H 
ATOM     26  HB2 PHE d   2       9.909   8.238  -4.708  0.00  0.00     0.029 H 
BRANCH  24  27
ATOM     27  CG  PHE d   2      10.499   8.576  -2.664  0.00  0.00    -0.039 A 
ATOM     28  CD1 PHE d   2       9.754   8.146  -1.398  0.00  0.00    -0.050 A 
ATOM     29  CE1 PHE d   2      10.133   9.077  -0.244  0.00  0.00    -0.053 A 
ATOM     30 1HD1 PHE d   2       8.680   8.203  -1.572  0.00  0.00     0.027 H 
ATOM     31 2HD1 PHE d   2      10.029   7.123  -1.144  0.00  0.00     0.027 H 
ATOM     32  CZ  PHE d   2       9.747  10.515  -0.600  0.00  0.00    -0.053 A 
ATOM     33 1HE1 PHE d   2       9.603   8.771   0.658  0.00  0.00     0.026 H 
ATOM     34 2HE1 PHE d   2      11.207   9.022  -0.070  0.00  0.00     0.026 H 
ATOM     35  CE2 PHE d   2      10.492  10.943  -1.866  0.00  0.00    -0.053 A 
ATOM     36  HZ1 PHE d   2      10.017  11.177   0.222  0.00  0.00     0.026 H 
ATOM     37  HZ2 PHE d   2       8.672  10.570  -0.774  0.00  0.00     0.026 H 
ATOM     38  CD2 PHE d   2      10.114  10.013  -3.020  0.00  0.00    -0.050 A 
ATOM     39 1HE2 PHE d   2      11.566  10.888  -1.692  0.00  0.00     0.026 H 
ATOM     40 2HE2 PHE d   2      10.217  11.966  -2.120  0.00  0.00     0.026 H 
ATOM     41 1HD2 PHE d   2       9.039  10.069  -3.194  0.00  0.00     0.027 H 
ATOM     42 2HD2 PHE d   2      10.644  10.318  -3.922  0.00  0.00     0.027 H 
ATOM     43  HG  PHE d   2      11.573   8.520  -2.490  0.00  0.00     0.030 H 
ENDBRANCH  24  27
ENDBRANCH  19  24
BRANCH   1  44
ATOM     44  C   UNK d   1       7.488   0.451  -4.716  0.00  0.00     0.038 A 
ATOM     45  C   UNK d   1       7.991  -0.850  -4.796  0.00  0.00    -0.050 A 
ATOM     46  C   UNK d   1       7.464  -1.847  -3.997  0.00  0.00    -0.060 A 
ATOM     47  H   UNK d   1       8.795  -1.076  -5.479  0.00  0.00     0.062 H 
ATOM     48  C   UNK d   1       6.431  -1.567  -3.125  0.00  0.00    -0.048 A 
ATOM     49  H   UNK d   1       7.859  -2.850  -4.060  0.00  0.00     0.062 H 
ATOM     50  C   UNK d   1       5.915  -0.271  -3.040  0.00  0.00     0.060 A 
ATOM     51  H   UNK d   1       6.021  -2.352  -2.506  0.00  0.00     0.063 H 
ATOM     52  C   UNK d   1       6.446   0.740  -3.839  0.00  0.00    -0.036 A 
ATOM     53  H   UNK d   1       6.051   1.743  -3.777  0.00  0.00     0.063 H 
BRANCH  50  54
ATOM     54  C   UNK d   1       4.810   0.026  -2.106  0.00  0.00     0.339 C 
ATOM     55  O   UNK d   1       4.848   1.027  -1.419  0.00  0.00    -0.245 OA
BRANCH  54  56
ATOM     56  O   UNK d   1       3.761  -0.814  -2.015  0.00  0.00    -0.465 OA
BRANCH  56  57
ATOM     57  C   UNK d   1       2.761  -0.737  -3.064  0.00  0.00     0.082 C 
ATOM     58  H   UNK d   1       2.775   0.258  -3.508  0.00  0.00     0.066 H 
ATOM     59  H   UNK d   1       2.982  -1.480  -3.831  0.00  0.00     0.066 H 
ATOM     60  H   UNK d   1       1.775  -0.933  -2.642  0.00  0.00     0.066 H 
ENDBRANCH  56  57
ENDBRANCH  54  56
ENDBRANCH  50  54
ENDBRANCH   1  44
TORSDOF 6
ENDMDL
MODEL 5
REMARK VINA RESULT:      -6.6      7.416     12.680
REMARK  6 active torsions:
REMARK  status: ('A' for Active; 'I' for Inactive)
REMARK    1  A    between atoms: C_1  and  O_2 
REMARK    2  A    between atoms: O_2  and  C_3 
REMARK    3  A    between atoms: C_3  and  C_5 
REMARK    4  A    between atoms: C_9  and  C_11 
REMARK       I    between atoms: C_11  and  N_13 
REMARK    5  A    between atoms: CA_23  and  CB_27 
REMARK    6  A    between atoms: CB_27  and  CG_28 
ROOT
ATOM      1  C   UNK d   1      10.778   3.094  -8.220  0.00  0.00     0.247 C 
ATOM      2  O   UNK d   1      11.840   3.138  -7.631  0.00  0.00    -0.270 OA
ATOM      3  N   UNK d   1       9.928   2.070  -8.004  0.00  0.00    -0.294 N 
ATOM      4  C   UNK d   1       8.592   2.058  -8.605  0.00  0.00     0.031 C 
ATOM      5  C   UNK d   1       7.536   1.851  -7.532  0.00  0.00     0.031 C 
ATOM      6  N   UNK d   1       7.941   0.898  -6.501  0.00  0.00    -0.285 N 
ATOM      7  C   UNK d   1       9.311   0.815  -6.005  0.00  0.00     0.118 C 
ATOM      8  H   UNK d   1       9.490   1.634  -5.309  0.00  0.00     0.061 H 
ATOM      9  C   UNK d   1      10.297   0.922  -7.174  0.00  0.00     0.042 C 
ATOM     10  C   UNK d   1       9.560  -0.494  -5.305  0.00  0.00     0.236 C 
ATOM     11  O   UNK d   1      10.681  -0.956  -5.308  0.00  0.00    -0.274 OA
ATOM     12  H   UNK d   1       8.529   1.249  -9.333  0.00  0.00     0.048 H 
ATOM     13  H   UNK d   1       8.413   3.009  -9.107  0.00  0.00     0.048 H 
ATOM     14  H   UNK d   1       6.623   1.489  -8.004  0.00  0.00     0.048 H 
ATOM     15  H   UNK d   1       7.326   2.810  -7.058  0.00  0.00     0.048 H 
ATOM     16  H   UNK d   1      11.304   1.080  -6.789  0.00  0.00     0.049 H 
ATOM     17  H   UNK d   1      10.267   0.004  -7.762  0.00  0.00     0.049 H 
ATOM     18  N   PHE d   2       8.583  -1.165  -4.678  0.00  0.00    -0.302 N 
ATOM     19  CA  PHE d   2       7.213  -0.652  -4.679  0.00  0.00     0.100 C 
ATOM     20  HA  PHE d   2       6.513  -1.485  -4.629  0.00  0.00     0.059 H 
ATOM     21  C   PHE d   2       6.971   0.131  -5.937  0.00  0.00     0.237 C 
ATOM     22  O   PHE d   2       5.887   0.066  -6.477  0.00  0.00    -0.274 OA
ATOM     23  H   PHE d   2       8.786  -1.997  -4.220  0.00  0.00     0.149 HD
ENDROOT
BRANCH  19  24
ATOM     24  CB  PHE d   2       7.009   0.258  -3.465  0.00  0.00    -0.023 C 
ATOM     25  HB1 PHE d   2       6.947   1.295  -3.794  0.00  0.00     0.029 H 
ATOM     26  HB2 PHE d   2       7.850   0.143  -2.780  0.00  0.00     0.029 H 
BRANCH  24  27
ATOM     27  CG  PHE d   2       5.713  -0.128  -2.749  0.00  0.00    -0.039 A 
ATOM     28  CD1 PHE d   2       5.349  -1.573  -3.100  0.00  0.00    -0.050 A 
ATOM     29  CE1 PHE d   2       4.053  -1.959  -2.385  0.00  0.00    -0.053 A 
ATOM     30 1HD1 PHE d   2       5.209  -1.661  -4.177  0.00  0.00     0.027 H 
ATOM     31 2HD1 PHE d   2       6.152  -2.238  -2.782  0.00  0.00     0.027 H 
ATOM     32  CZ  PHE d   2       2.926  -1.026  -2.831  0.00  0.00    -0.053 A 
ATOM     33 1HE1 PHE d   2       3.793  -2.988  -2.635  0.00  0.00     0.026 H 
ATOM     34 2HE1 PHE d   2       4.192  -1.871  -1.308  0.00  0.00     0.026 H 
ATOM     35  CE2 PHE d   2       3.291   0.418  -2.481  0.00  0.00    -0.053 A 
ATOM     36  HZ1 PHE d   2       2.003  -1.302  -2.322  0.00  0.00     0.026 H 
ATOM     37  HZ2 PHE d   2       2.786  -1.114  -3.909  0.00  0.00     0.026 H 
ATOM     38  CD2 PHE d   2       4.587   0.805  -3.196  0.00  0.00    -0.050 A 
ATOM     39 1HE2 PHE d   2       3.429   0.506  -1.404  0.00  0.00     0.026 H 
ATOM     40 2HE2 PHE d   2       2.488   1.083  -2.799  0.00  0.00     0.026 H 
ATOM     41 1HD2 PHE d   2       4.447   0.717  -4.273  0.00  0.00     0.027 H 
ATOM     42 2HD2 PHE d   2       4.847   1.833  -2.946  0.00  0.00     0.027 H 
ATOM     43  HG  PHE d   2       5.853  -0.041  -1.672  0.00  0.00     0.030 H 
ENDBRANCH  24  27
ENDBRANCH  19  24
BRANCH   1  44
ATOM     44  C   UNK d   1      10.418   4.163  -9.176  0.00  0.00     0.038 A 
ATOM     45  C   UNK d   1      10.366   3.890 -10.545  0.00  0.00    -0.050 A 
ATOM     46  C   UNK d   1      10.025   4.887 -11.439  0.00  0.00    -0.060 A 
ATOM     47  H   UNK d   1      10.588   2.896 -10.905  0.00  0.00     0.062 H 
ATOM     48  C   UNK d   1       9.744   6.161 -10.987  0.00  0.00    -0.048 A 
ATOM     49  H   UNK d   1       9.982   4.669 -12.496  0.00  0.00     0.062 H 
ATOM     50  C   UNK d   1       9.798   6.449  -9.621  0.00  0.00     0.060 A 
ATOM     51  H   UNK d   1       9.482   6.937 -11.691  0.00  0.00     0.063 H 
ATOM     52  C   UNK d   1      10.137   5.446  -8.713  0.00  0.00    -0.036 A 
ATOM     53  H   UNK d   1      10.181   5.664  -7.657  0.00  0.00     0.063 H 
BRANCH  50  54
ATOM     54  C   UNK d   1       9.498   7.813  -9.140  0.00  0.00     0.339 C 
ATOM     55  O   UNK d   1       9.918   8.777  -9.748  0.00  0.00    -0.245 OA
BRANCH  54  56
ATOM     56  O   UNK d   1       8.761   7.988  -8.027  0.00  0.00    -0.465 OA
BRANCH  56  57
ATOM     57  C   UNK d   1       9.350   8.781  -6.962  0.00  0.00     0.082 C 
ATOM     58  H   UNK d   1       9.252   9.840  -7.200  0.00  0.00     0.066 H 
ATOM     59  H   UNK d   1       8.834   8.570  -6.025  0.00  0.00     0.066 H 
ATOM     60  H   UNK d   1      10.405   8.527  -6.861  0.00  0.00     0.066 H 
ENDBRANCH  56  57
ENDBRANCH  54  56
ENDBRANCH  50  54
ENDBRANCH   1  44
TORSDOF 6
ENDMDL
MODEL 6
REMARK VINA RESULT:      -6.6      8.245     14.114
REMARK  6 active torsions:
REMARK  status: ('A' for Active; 'I' for Inactive)
REMARK    1  A    between atoms: C_1  and  O_2 
REMARK    2  A    between atoms: O_2  and  C_3 
REMARK    3  A    between atoms: C_3  and  C_5 
REMARK    4  A    between atoms: C_9  and  C_11 
REMARK       I    between atoms: C_11  and  N_13 
REMARK    5  A    between atoms: CA_23  and  CB_27 
REMARK    6  A    between atoms: CB_27  and  CG_28 
ROOT
ATOM      1  C   UNK d   1       9.864   6.631  -6.733  0.00  0.00     0.247 C 
ATOM      2  O   UNK d   1       9.391   7.361  -5.884  0.00  0.00    -0.270 OA
ATOM      3  N   UNK d   1      10.183   5.358  -6.427  0.00  0.00    -0.294 N 
ATOM      4  C   UNK d   1      10.635   4.423  -7.460  0.00  0.00     0.031 C 
ATOM      5  C   UNK d   1       9.787   3.164  -7.436  0.00  0.00     0.031 C 
ATOM      6  N   UNK d   1       9.437   2.730  -6.084  0.00  0.00    -0.285 N 
ATOM      7  C   UNK d   1       9.125   3.672  -5.015  0.00  0.00     0.118 C 
ATOM      8  H   UNK d   1       8.111   4.045  -5.151  0.00  0.00     0.061 H 
ATOM      9  C   UNK d   1      10.105   4.851  -5.056  0.00  0.00     0.042 C 
ATOM     10  C   UNK d   1       9.237   3.021  -3.663  0.00  0.00     0.236 C 
ATOM     11  O   UNK d   1       9.537   3.704  -2.707  0.00  0.00    -0.274 OA
ATOM     12  H   UNK d   1      11.678   4.159  -7.279  0.00  0.00     0.048 H 
ATOM     13  H   UNK d   1      10.549   4.897  -8.438  0.00  0.00     0.048 H 
ATOM     14  H   UNK d   1      10.335   2.362  -7.930  0.00  0.00     0.048 H 
ATOM     15  H   UNK d   1       8.868   3.350  -7.992  0.00  0.00     0.048 H 
ATOM     16  H   UNK d   1       9.743   5.650  -4.409  0.00  0.00     0.049 H 
ATOM     17  H   UNK d   1      11.088   4.521  -4.718  0.00  0.00     0.049 H 
ATOM     18  N   PHE d   2       9.015   1.711  -3.482  0.00  0.00    -0.302 N 
ATOM     19  CA  PHE d   2       8.680   0.852  -4.617  0.00  0.00     0.100 C 
ATOM     20  HA  PHE d   2       9.047  -0.157  -4.430  0.00  0.00     0.059 H 
ATOM     21  C   PHE d   2       9.320   1.394  -5.863  0.00  0.00     0.237 C 
ATOM     22  O   PHE d   2       9.761   0.622  -6.688  0.00  0.00    -0.274 OA
ATOM     23  H   PHE d   2       9.078   1.330  -2.591  0.00  0.00     0.149 HD
ENDROOT
BRANCH  19  24
ATOM     24  CB  PHE d   2       7.161   0.817  -4.798  0.00  0.00    -0.023 C 
ATOM     25  HB1 PHE d   2       6.911   0.176  -5.643  0.00  0.00     0.029 H 
ATOM     26  HB2 PHE d   2       6.794   1.826  -4.986  0.00  0.00     0.029 H 
BRANCH  24  27
ATOM     27  CG  PHE d   2       6.508   0.265  -3.529  0.00  0.00    -0.039 A 
ATOM     28  CD1 PHE d   2       5.831  -1.071  -3.844  0.00  0.00    -0.050 A 
ATOM     29  CE1 PHE d   2       5.178  -1.622  -2.575  0.00  0.00    -0.053 A 
ATOM     30 1HD1 PHE d   2       5.068  -0.920  -4.608  0.00  0.00     0.027 H 
ATOM     31 2HD1 PHE d   2       6.575  -1.779  -4.207  0.00  0.00     0.027 H 
ATOM     32  CZ  PHE d   2       4.133  -0.627  -2.064  0.00  0.00    -0.053 A 
ATOM     33 1HE1 PHE d   2       4.695  -2.573  -2.798  0.00  0.00     0.026 H 
ATOM     34 2HE1 PHE d   2       5.940  -1.772  -1.810  0.00  0.00     0.026 H 
ATOM     35  CE2 PHE d   2       4.812   0.708  -1.751  0.00  0.00    -0.053 A 
ATOM     36  HZ1 PHE d   2       3.668  -1.020  -1.161  0.00  0.00     0.026 H 
ATOM     37  HZ2 PHE d   2       3.371  -0.476  -2.830  0.00  0.00     0.026 H 
ATOM     38  CD2 PHE d   2       5.464   1.260  -3.019  0.00  0.00    -0.050 A 
ATOM     39 1HE2 PHE d   2       5.573   0.558  -0.986  0.00  0.00     0.026 H 
ATOM     40 2HE2 PHE d   2       4.067   1.417  -1.388  0.00  0.00     0.026 H 
ATOM     41 1HD2 PHE d   2       4.702   1.410  -3.784  0.00  0.00     0.027 H 
ATOM     42 2HD2 PHE d   2       5.947   2.211  -2.796  0.00  0.00     0.027 H 
ATOM     43  HG  PHE d   2       7.271   0.114  -2.765  0.00  0.00     0.030 H 
ENDBRANCH  24  27
ENDBRANCH  19  24
BRANCH   1  44
ATOM     44  C   UNK d   1      10.090   7.141  -8.103  0.00  0.00     0.038 A 
ATOM     45  C   UNK d   1      10.855   8.292  -8.304  0.00  0.00    -0.050 A 
ATOM     46  C   UNK d   1      11.072   8.766  -9.583  0.00  0.00    -0.060 A 
ATOM     47  H   UNK d   1      11.282   8.810  -7.458  0.00  0.00     0.062 H 
ATOM     48  C   UNK d   1      10.526   8.113 -10.670  0.00  0.00    -0.048 A 
ATOM     49  H   UNK d   1      11.668   9.654  -9.733  0.00  0.00     0.062 H 
ATOM     50  C   UNK d   1       9.754   6.963 -10.482  0.00  0.00     0.060 A 
ATOM     51  H   UNK d   1      10.696   8.491 -11.667  0.00  0.00     0.063 H 
ATOM     52  C   UNK d   1       9.536   6.477  -9.194  0.00  0.00    -0.036 A 
ATOM     53  H   UNK d   1       8.939   5.589  -9.044  0.00  0.00     0.063 H 
BRANCH  50  54
ATOM     54  C   UNK d   1       9.170   6.266 -11.646  0.00  0.00     0.339 C 
ATOM     55  O   UNK d   1       9.045   5.057 -11.630  0.00  0.00    -0.245 OA
BRANCH  54  56
ATOM     56  O   UNK d   1       8.777   6.969 -12.725  0.00  0.00    -0.465 OA
BRANCH  56  57
ATOM     57  C   UNK d   1       9.469   6.705 -13.974  0.00  0.00     0.082 C 
ATOM     58  H   UNK d   1      10.544   6.693 -13.798  0.00  0.00     0.066 H 
ATOM     59  H   UNK d   1       9.154   5.736 -14.365  0.00  0.00     0.066 H 
ATOM     60  H   UNK d   1       9.227   7.484 -14.696  0.00  0.00     0.066 H 
ENDBRANCH  56  57
ENDBRANCH  54  56
ENDBRANCH  50  54
ENDBRANCH   1  44
TORSDOF 6
ENDMDL
MODEL 7
REMARK VINA RESULT:      -6.6      5.666      9.878
REMARK  6 active torsions:
REMARK  status: ('A' for Active; 'I' for Inactive)
REMARK    1  A    between atoms: C_1  and  O_2 
REMARK    2  A    between atoms: O_2  and  C_3 
REMARK    3  A    between atoms: C_3  and  C_5 
REMARK    4  A    between atoms: C_9  and  C_11 
REMARK       I    between atoms: C_11  and  N_13 
REMARK    5  A    between atoms: CA_23  and  CB_27 
REMARK    6  A    between atoms: CB_27  and  CG_28 
ROOT
ATOM      1  C   UNK d   1       3.653  -0.459 -10.290  0.00  0.00     0.247 C 
ATOM      2  O   UNK d   1       3.749   0.740 -10.118  0.00  0.00    -0.270 OA
ATOM      3  N   UNK d   1       4.350  -1.310  -9.512  0.00  0.00    -0.294 N 
ATOM      4  C   UNK d   1       4.157  -2.758  -9.614  0.00  0.00     0.031 C 
ATOM      5  C   UNK d   1       3.840  -3.343  -8.249  0.00  0.00     0.031 C 
ATOM      6  N   UNK d   1       4.607  -2.729  -7.166  0.00  0.00    -0.285 N 
ATOM      7  C   UNK d   1       4.922  -1.305  -7.139  0.00  0.00     0.118 C 
ATOM      8  H   UNK d   1       4.039  -0.749  -6.822  0.00  0.00     0.061 H 
ATOM      9  C   UNK d   1       5.336  -0.835  -8.539  0.00  0.00     0.042 C 
ATOM     10  C   UNK d   1       6.057  -1.014  -6.196  0.00  0.00     0.236 C 
ATOM     11  O   UNK d   1       6.778  -0.065  -6.421  0.00  0.00    -0.274 OA
ATOM     12  H   UNK d   1       5.067  -3.218 -10.002  0.00  0.00     0.048 H 
ATOM     13  H   UNK d   1       3.331  -2.965 -10.295  0.00  0.00     0.048 H 
ATOM     14  H   UNK d   1       4.055  -4.411  -8.267  0.00  0.00     0.048 H 
ATOM     15  H   UNK d   1       2.778  -3.206  -8.047  0.00  0.00     0.048 H 
ATOM     16  H   UNK d   1       5.357   0.254  -8.567  0.00  0.00     0.049 H 
ATOM     17  H   UNK d   1       6.324  -1.229  -8.779  0.00  0.00     0.049 H 
ATOM     18  N   PHE d   2       6.298  -1.769  -5.114  0.00  0.00    -0.302 N 
ATOM     19  CA  PHE d   2       5.467  -2.939  -4.828  0.00  0.00     0.100 C 
ATOM     20  HA  PHE d   2       6.061  -3.687  -4.304  0.00  0.00     0.059 H 
ATOM     21  C   PHE d   2       4.954  -3.518  -6.115  0.00  0.00     0.237 C 
ATOM     22  O   PHE d   2       4.861  -4.722  -6.229  0.00  0.00    -0.274 OA
ATOM     23  H   PHE d   2       7.028  -1.539  -4.518  0.00  0.00     0.149 HD
ENDROOT
BRANCH  19  24
ATOM     24  CB  PHE d   2       4.285  -2.521  -3.949  0.00  0.00    -0.023 C 
ATOM     25  HB1 PHE d   2       4.277  -3.124  -3.042  0.00  0.00     0.029 H 
ATOM     26  HB2 PHE d   2       3.355  -2.674  -4.496  0.00  0.00     0.029 H 
BRANCH  24  27
ATOM     27  CG  PHE d   2       4.421  -1.043  -3.579  0.00  0.00    -0.039 A 
ATOM     28  CD1 PHE d   2       4.545  -0.908  -2.060  0.00  0.00    -0.050 A 
ATOM     29  CE1 PHE d   2       4.681   0.570  -1.689  0.00  0.00    -0.053 A 
ATOM     30 1HD1 PHE d   2       3.655  -1.320  -1.585  0.00  0.00     0.027 H 
ATOM     31 2HD1 PHE d   2       5.425  -1.451  -1.717  0.00  0.00     0.027 H 
ATOM     32  CZ  PHE d   2       3.445   1.333  -2.171  0.00  0.00    -0.053 A 
ATOM     33 1HE1 PHE d   2       4.769   0.667  -0.607  0.00  0.00     0.026 H 
ATOM     34 2HE1 PHE d   2       5.571   0.984  -2.164  0.00  0.00     0.026 H 
ATOM     35  CE2 PHE d   2       3.322   1.197  -3.690  0.00  0.00    -0.053 A 
ATOM     36  HZ1 PHE d   2       3.542   2.386  -1.907  0.00  0.00     0.026 H 
ATOM     37  HZ2 PHE d   2       2.555   0.920  -1.696  0.00  0.00     0.026 H 
ATOM     38  CD2 PHE d   2       3.186  -0.281  -4.061  0.00  0.00    -0.050 A 
ATOM     39 1HE2 PHE d   2       4.212   1.611  -4.165  0.00  0.00     0.026 H 
ATOM     40 2HE2 PHE d   2       2.442   1.740  -4.033  0.00  0.00     0.026 H 
ATOM     41 1HD2 PHE d   2       2.296  -0.693  -3.586  0.00  0.00     0.027 H 
ATOM     42 2HD2 PHE d   2       3.099  -0.378  -5.143  0.00  0.00     0.027 H 
ATOM     43  HG  PHE d   2       5.312  -0.631  -4.053  0.00  0.00     0.030 H 
ENDBRANCH  24  27
ENDBRANCH  19  24
BRANCH   1  44
ATOM     44  C   UNK d   1       2.772  -0.985 -11.355  0.00  0.00     0.038 A 
ATOM     45  C   UNK d   1       1.410  -1.170 -11.108  0.00  0.00    -0.050 A 
ATOM     46  C   UNK d   1       0.584  -1.656 -12.103  0.00  0.00    -0.060 A 
ATOM     47  H   UNK d   1       1.000  -0.928 -10.138  0.00  0.00     0.062 H 
ATOM     48  C   UNK d   1       1.100  -1.972 -13.344  0.00  0.00    -0.048 A 
ATOM     49  H   UNK d   1      -0.469  -1.793 -11.908  0.00  0.00     0.062 H 
ATOM     50  C   UNK d   1       2.462  -1.797 -13.602  0.00  0.00     0.060 A 
ATOM     51  H   UNK d   1       0.450  -2.356 -14.116  0.00  0.00     0.063 H 
ATOM     52  C   UNK d   1       3.300  -1.302 -12.604  0.00  0.00    -0.036 A 
ATOM     53  H   UNK d   1       4.353  -1.165 -12.799  0.00  0.00     0.063 H 
BRANCH  50  54
ATOM     54  C   UNK d   1       3.013  -2.136 -14.930  0.00  0.00     0.339 C 
ATOM     55  O   UNK d   1       2.409  -2.894 -15.663  0.00  0.00    -0.245 OA
BRANCH  54  56
ATOM     56  O   UNK d   1       4.186  -1.608 -15.329  0.00  0.00    -0.465 OA
BRANCH  56  57
ATOM     57  C   UNK d   1       4.126  -0.418 -16.158  0.00  0.00     0.082 C 
ATOM     58  H   UNK d   1       3.663  -0.663 -17.113  0.00  0.00     0.066 H 
ATOM     59  H   UNK d   1       3.534   0.347 -15.653  0.00  0.00     0.066 H 
ATOM     60  H   UNK d   1       5.135  -0.042 -16.329  0.00  0.00     0.066 H 
ENDBRANCH  56  57
ENDBRANCH  54  56
ENDBRANCH  50  54
ENDBRANCH   1  44
TORSDOF 6
ENDMDL
MODEL 8
REMARK VINA RESULT:      -6.6      2.497      2.863
REMARK  6 active torsions:
REMARK  status: ('A' for Active; 'I' for Inactive)
REMARK    1  A    between atoms: C_1  and  O_2 
REMARK    2  A    between atoms: O_2  and  C_3 
REMARK    3  A    between atoms: C_3  and  C_5 
REMARK    4  A    between atoms: C_9  and  C_11 
REMARK       I    between atoms: C_11  and  N_13 
REMARK    5  A    between atoms: CA_23  and  CB_27 
REMARK    6  A    between atoms: CB_27  and  CG_28 
ROOT
ATOM      1  C   UNK d   1       7.550  -8.224  -5.333  0.00  0.00     0.247 C 
ATOM      2  O   UNK d   1       6.631  -9.017  -5.278  0.00  0.00    -0.270 OA
ATOM      3  N   UNK d   1       7.318  -6.946  -5.691  0.00  0.00    -0.294 N 
ATOM      4  C   UNK d   1       8.384  -5.942  -5.644  0.00  0.00     0.031 C 
ATOM      5  C   UNK d   1       7.942  -4.745  -4.821  0.00  0.00     0.031 C 
ATOM      6  N   UNK d   1       6.539  -4.389  -5.028  0.00  0.00    -0.285 N 
ATOM      7  C   UNK d   1       5.497  -5.392  -5.219  0.00  0.00     0.118 C 
ATOM      8  H   UNK d   1       5.238  -5.826  -4.253  0.00  0.00     0.061 H 
ATOM      9  C   UNK d   1       6.002  -6.499  -6.151  0.00  0.00     0.042 C 
ATOM     10  C   UNK d   1       4.265  -4.788  -5.837  0.00  0.00     0.236 C 
ATOM     11  O   UNK d   1       3.554  -5.487  -6.528  0.00  0.00    -0.274 OA
ATOM     12  H   UNK d   1       8.620  -5.617  -6.658  0.00  0.00     0.048 H 
ATOM     13  H   UNK d   1       9.274  -6.381  -5.192  0.00  0.00     0.048 H 
ATOM     14  H   UNK d   1       8.563  -3.889  -5.087  0.00  0.00     0.048 H 
ATOM     15  H   UNK d   1       8.094  -4.970  -3.766  0.00  0.00     0.048 H 
ATOM     16  H   UNK d   1       5.315  -7.346  -6.117  0.00  0.00     0.049 H 
ATOM     17  H   UNK d   1       6.066  -6.118  -7.170  0.00  0.00     0.049 H 
ATOM     18  N   PHE d   2       3.927  -3.504  -5.648  0.00  0.00    -0.302 N 
ATOM     19  CA  PHE d   2       4.777  -2.626  -4.845  0.00  0.00     0.100 C 
ATOM     20  HA  PHE d   2       4.689  -1.602  -5.209  0.00  0.00     0.059 H 
ATOM     21  C   PHE d   2       6.206  -3.074  -4.951  0.00  0.00     0.237 C 
ATOM     22  O   PHE d   2       7.088  -2.242  -4.985  0.00  0.00    -0.274 OA
ATOM     23  H   PHE d   2       3.115  -3.155  -6.048  0.00  0.00     0.149 HD
ENDROOT
BRANCH  19  24
ATOM     24  CB  PHE d   2       4.331  -2.685  -3.381  0.00  0.00    -0.023 C 
ATOM     25  HB1 PHE d   2       5.174  -2.976  -2.756  0.00  0.00     0.029 H 
ATOM     26  HB2 PHE d   2       3.530  -3.417  -3.276  0.00  0.00     0.029 H 
BRANCH  24  27
ATOM     27  CG  PHE d   2       3.824  -1.309  -2.946  0.00  0.00    -0.039 A 
ATOM     28  CD1 PHE d   2       3.533  -0.458  -4.185  0.00  0.00    -0.050 A 
ATOM     29  CE1 PHE d   2       3.026   0.918  -3.749  0.00  0.00    -0.053 A 
ATOM     30 1HD1 PHE d   2       4.446  -0.341  -4.767  0.00  0.00     0.027 H 
ATOM     31 2HD1 PHE d   2       2.773  -0.949  -4.793  0.00  0.00     0.027 H 
ATOM     32  CZ  PHE d   2       4.092   1.608  -2.895  0.00  0.00    -0.053 A 
ATOM     33 1HE1 PHE d   2       2.819   1.525  -4.631  0.00  0.00     0.026 H 
ATOM     34 2HE1 PHE d   2       2.113   0.802  -3.166  0.00  0.00     0.026 H 
ATOM     35  CE2 PHE d   2       4.382   0.757  -1.657  0.00  0.00    -0.053 A 
ATOM     36  HZ1 PHE d   2       3.731   2.589  -2.585  0.00  0.00     0.026 H 
ATOM     37  HZ2 PHE d   2       5.006   1.725  -3.478  0.00  0.00     0.026 H 
ATOM     38  CD2 PHE d   2       4.889  -0.620  -2.092  0.00  0.00    -0.050 A 
ATOM     39 1HE2 PHE d   2       3.469   0.640  -1.074  0.00  0.00     0.026 H 
ATOM     40 2HE2 PHE d   2       5.142   1.248  -1.049  0.00  0.00     0.026 H 
ATOM     41 1HD2 PHE d   2       5.803  -0.502  -2.675  0.00  0.00     0.027 H 
ATOM     42 2HD2 PHE d   2       5.096  -1.226  -1.211  0.00  0.00     0.027 H 
ATOM     43  HG  PHE d   2       2.910  -1.426  -2.364  0.00  0.00     0.030 H 
ENDBRANCH  24  27
ENDBRANCH  19  24
BRANCH   1  44
ATOM     44  C   UNK d   1       8.925  -8.663  -5.010  0.00  0.00     0.038 A 
ATOM     45  C   UNK d   1       9.776  -9.105  -6.026  0.00  0.00    -0.050 A 
ATOM     46  C   UNK d   1      11.062  -9.509  -5.726  0.00  0.00    -0.060 A 
ATOM     47  H   UNK d   1       9.429  -9.126  -7.048  0.00  0.00     0.062 H 
ATOM     48  C   UNK d   1      11.512  -9.490  -4.421  0.00  0.00    -0.048 A 
ATOM     49  H   UNK d   1      11.717  -9.846  -6.516  0.00  0.00     0.062 H 
ATOM     50  C   UNK d   1      10.669  -9.056  -3.394  0.00  0.00     0.060 A 
ATOM     51  H   UNK d   1      12.517  -9.812  -4.192  0.00  0.00     0.063 H 
ATOM     52  C   UNK d   1       9.371  -8.641  -3.691  0.00  0.00    -0.036 A 
ATOM     53  H   UNK d   1       8.716  -8.305  -2.901  0.00  0.00     0.063 H 
BRANCH  50  54
ATOM     54  C   UNK d   1      11.151  -9.037  -1.998  0.00  0.00     0.339 C 
ATOM     55  O   UNK d   1      11.516 -10.067  -1.468  0.00  0.00    -0.245 OA
BRANCH  54  56
ATOM     56  O   UNK d   1      11.186  -7.878  -1.313  0.00  0.00    -0.465 OA
BRANCH  56  57
ATOM     57  C   UNK d   1      11.449  -7.962   0.113  0.00  0.00     0.082 C 
ATOM     58  H   UNK d   1      12.353  -8.546   0.282  0.00  0.00     0.066 H 
ATOM     59  H   UNK d   1      11.584  -6.958   0.516  0.00  0.00     0.066 H 
ATOM     60  H   UNK d   1      10.607  -8.443   0.610  0.00  0.00     0.066 H 
ENDBRANCH  56  57
ENDBRANCH  54  56
ENDBRANCH  50  54
ENDBRANCH   1  44
TORSDOF 6
ENDMDL
MODEL 9
REMARK VINA RESULT:      -6.6      6.986     12.721
REMARK  6 active torsions:
REMARK  status: ('A' for Active; 'I' for Inactive)
REMARK    1  A    between atoms: C_1  and  O_2 
REMARK    2  A    between atoms: O_2  and  C_3 
REMARK    3  A    between atoms: C_3  and  C_5 
REMARK    4  A    between atoms: C_9  and  C_11 
REMARK       I    between atoms: C_11  and  N_13 
REMARK    5  A    between atoms: CA_23  and  CB_27 
REMARK    6  A    between atoms: CB_27  and  CG_28 
ROOT
ATOM      1  C   UNK d   1      11.782   3.893  -4.087  0.00  0.00     0.247 C 
ATOM      2  O   UNK d   1      12.789   3.365  -3.660  0.00  0.00    -0.270 OA
ATOM      3  N   UNK d   1      10.954   3.209  -4.902  0.00  0.00    -0.294 N 
ATOM      4  C   UNK d   1       9.673   3.778  -5.328  0.00  0.00     0.031 C 
ATOM      5  C   UNK d   1       8.541   2.814  -5.015  0.00  0.00     0.031 C 
ATOM      6  N   UNK d   1       8.895   1.415  -5.247  0.00  0.00    -0.285 N 
ATOM      7  C   UNK d   1      10.221   0.883  -4.954  0.00  0.00     0.118 C 
ATOM      8  H   UNK d   1      10.313   0.721  -3.880  0.00  0.00     0.061 H 
ATOM      9  C   UNK d   1      11.295   1.879  -5.408  0.00  0.00     0.042 C 
ATOM     10  C   UNK d   1      10.458  -0.418  -5.674  0.00  0.00     0.236 C 
ATOM     11  O   UNK d   1      11.593  -0.717  -5.983  0.00  0.00    -0.274 OA
ATOM     12  H   UNK d   1       9.700   3.966  -6.402  0.00  0.00     0.048 H 
ATOM     13  H   UNK d   1       9.502   4.717  -4.802  0.00  0.00     0.048 H 
ATOM     14  H   UNK d   1       7.684   3.066  -5.637  0.00  0.00     0.048 H 
ATOM     15  H   UNK d   1       8.259   2.934  -3.969  0.00  0.00     0.048 H 
ATOM     16  H   UNK d   1      12.261   1.586  -4.997  0.00  0.00     0.049 H 
ATOM     17  H   UNK d   1      11.347   1.889  -6.497  0.00  0.00     0.049 H 
ATOM     18  N   PHE d   2       9.459  -1.256  -5.983  0.00  0.00    -0.302 N 
ATOM     19  CA  PHE d   2       8.076  -0.913  -5.650  0.00  0.00     0.100 C 
ATOM     20  HA  PHE d   2       7.405  -1.363  -6.381  0.00  0.00     0.059 H 
ATOM     21  C   PHE d   2       7.909   0.580  -5.670  0.00  0.00     0.237 C 
ATOM     22  O   PHE d   2       6.876   1.056  -6.091  0.00  0.00    -0.274 OA
ATOM     23  H   PHE d   2       9.653  -2.095  -6.430  0.00  0.00     0.149 HD
ENDROOT
BRANCH  19  24
ATOM     24  CB  PHE d   2       7.740  -1.445  -4.255  0.00  0.00    -0.023 C 
ATOM     25  HB1 PHE d   2       8.258  -0.848  -3.505  0.00  0.00     0.029 H 
ATOM     26  HB2 PHE d   2       8.060  -2.484  -4.177  0.00  0.00     0.029 H 
BRANCH  24  27
ATOM     27  CG  PHE d   2       6.230  -1.358  -4.025  0.00  0.00    -0.039 A 
ATOM     28  CD1 PHE d   2       5.956  -0.580  -2.735  0.00  0.00    -0.050 A 
ATOM     29  CE1 PHE d   2       4.446  -0.493  -2.505  0.00  0.00    -0.053 A 
ATOM     30 1HD1 PHE d   2       6.422  -1.095  -1.895  0.00  0.00     0.027 H 
ATOM     31 2HD1 PHE d   2       6.369   0.424  -2.822  0.00  0.00     0.027 H 
ATOM     32  CZ  PHE d   2       3.866  -1.904  -2.384  0.00  0.00    -0.053 A 
ATOM     33 1HE1 PHE d   2       4.250   0.060  -1.587  0.00  0.00     0.026 H 
ATOM     34 2HE1 PHE d   2       3.979   0.020  -3.345  0.00  0.00     0.026 H 
ATOM     35  CE2 PHE d   2       4.141  -2.680  -3.674  0.00  0.00    -0.053 A 
ATOM     36  HZ1 PHE d   2       2.790  -1.841  -2.220  0.00  0.00     0.026 H 
ATOM     37  HZ2 PHE d   2       4.333  -2.418  -1.544  0.00  0.00     0.026 H 
ATOM     38  CD2 PHE d   2       5.651  -2.768  -3.905  0.00  0.00    -0.050 A 
ATOM     39 1HE2 PHE d   2       3.674  -2.167  -4.514  0.00  0.00     0.026 H 
ATOM     40 2HE2 PHE d   2       3.728  -3.685  -3.588  0.00  0.00     0.026 H 
ATOM     41 1HD2 PHE d   2       6.117  -3.282  -3.064  0.00  0.00     0.027 H 
ATOM     42 2HD2 PHE d   2       5.847  -3.321  -4.823  0.00  0.00     0.027 H 
ATOM     43  HG  PHE d   2       5.765  -0.843  -4.865  0.00  0.00     0.030 H 
ENDBRANCH  24  27
ENDBRANCH  19  24
BRANCH   1  44
ATOM     44  C   UNK d   1      11.463   5.289  -3.713  0.00  0.00     0.038 A 
ATOM     45  C   UNK d   1      11.839   6.341  -4.552  0.00  0.00    -0.050 A 
ATOM     46  C   UNK d   1      11.537   7.644  -4.206  0.00  0.00    -0.060 A 
ATOM     47  H   UNK d   1      12.362   6.135  -5.474  0.00  0.00     0.062 H 
ATOM     48  C   UNK d   1      10.873   7.916  -3.027  0.00  0.00    -0.048 A 
ATOM     49  H   UNK d   1      11.827   8.453  -4.860  0.00  0.00     0.062 H 
ATOM     50  C   UNK d   1      10.497   6.873  -2.177  0.00  0.00     0.060 A 
ATOM     51  H   UNK d   1      10.644   8.938  -2.761  0.00  0.00     0.063 H 
ATOM     52  C   UNK d   1      10.793   5.556  -2.522  0.00  0.00    -0.036 A 
ATOM     53  H   UNK d   1      10.505   4.746  -1.868  0.00  0.00     0.063 H 
BRANCH  50  54
ATOM     54  C   UNK d   1       9.787   7.167  -0.915  0.00  0.00     0.339 C 
ATOM     55  O   UNK d   1       8.784   7.853  -0.928  0.00  0.00    -0.245 OA
BRANCH  54  56
ATOM     56  O   UNK d   1      10.251   6.675   0.249  0.00  0.00    -0.465 OA
BRANCH  56  57
ATOM     57  C   UNK d   1      11.261   7.457   0.941  0.00  0.00     0.082 C 
ATOM     58  H   UNK d   1      10.783   8.280   1.472  0.00  0.00     0.066 H 
ATOM     59  H   UNK d   1      11.787   6.821   1.653  0.00  0.00     0.066 H 
ATOM     60  H   UNK d   1      11.971   7.855   0.216  0.00  0.00     0.066 H 
ENDBRANCH  56  57
ENDBRANCH  54  56
ENDBRANCH  50  54
ENDBRANCH   1  44
TORSDOF 6
ENDMDL
MODEL 10
REMARK VINA RESULT:      -6.4      7.450     12.680
REMARK  6 active torsions:
REMARK  status: ('A' for Active; 'I' for Inactive)
REMARK    1  A    between atoms: C_1  and  O_2 
REMARK    2  A    between atoms: O_2  and  C_3 
REMARK    3  A    between atoms: C_3  and  C_5 
REMARK    4  A    between atoms: C_9  and  C_11 
REMARK       I    between atoms: C_11  and  N_13 
REMARK    5  A    between atoms: CA_23  and  CB_27 
REMARK    6  A    between atoms: CB_27  and  CG_28 
ROOT
ATOM      1  C   UNK d   1      10.456   3.207  -8.414  0.00  0.00     0.247 C 
ATOM      2  O   UNK d   1      11.518   3.362  -7.845  0.00  0.00    -0.270 OA
ATOM      3  N   UNK d   1       9.692   2.132  -8.135  0.00  0.00    -0.294 N 
ATOM      4  C   UNK d   1       8.352   1.987  -8.711  0.00  0.00     0.031 C 
ATOM      5  C   UNK d   1       7.331   1.751  -7.612  0.00  0.00     0.031 C 
ATOM      6  N   UNK d   1       7.824   0.883  -6.544  0.00  0.00    -0.285 N 
ATOM      7  C   UNK d   1       9.202   0.930  -6.069  0.00  0.00     0.118 C 
ATOM      8  H   UNK d   1       9.326   1.794  -5.415  0.00  0.00     0.061 H 
ATOM      9  C   UNK d   1      10.161   1.057  -7.258  0.00  0.00     0.042 C 
ATOM     10  C   UNK d   1       9.562  -0.320  -5.312  0.00  0.00     0.236 C 
ATOM     11  O   UNK d   1      10.717  -0.692  -5.313  0.00  0.00    -0.274 OA
ATOM     12  H   UNK d   1       8.344   1.141  -9.399  0.00  0.00     0.048 H 
ATOM     13  H   UNK d   1       8.093   2.896  -9.255  0.00  0.00     0.048 H 
ATOM     14  H   UNK d   1       6.443   1.297  -8.050  0.00  0.00     0.048 H 
ATOM     15  H   UNK d   1       7.053   2.712  -7.180  0.00  0.00     0.048 H 
ATOM     16  H   UNK d   1      11.158   1.311  -6.899  0.00  0.00     0.049 H 
ATOM     17  H   UNK d   1      10.196   0.113  -7.802  0.00  0.00     0.049 H 
ATOM     18  N   PHE d   2       8.650  -1.034  -4.637  0.00  0.00    -0.302 N 
ATOM     19  CA  PHE d   2       7.244  -0.629  -4.639  0.00  0.00     0.100 C 
ATOM     20  HA  PHE d   2       6.613  -1.511  -4.538  0.00  0.00     0.059 H 
ATOM     21  C   PHE d   2       6.924   0.071  -5.929  0.00  0.00     0.237 C 
ATOM     22  O   PHE d   2       5.841  -0.104  -6.446  0.00  0.00    -0.274 OA
ATOM     23  H   PHE d   2       8.924  -1.824  -4.145  0.00  0.00     0.149 HD
ENDROOT
BRANCH  19  24
ATOM     24  CB  PHE d   2       6.986   0.319  -3.466  0.00  0.00    -0.023 C 
ATOM     25  HB1 PHE d   2       6.884   1.338  -3.838  0.00  0.00     0.029 H 
ATOM     26  HB2 PHE d   2       7.821   0.269  -2.768  0.00  0.00     0.029 H 
BRANCH  24  27
ATOM     27  CG  PHE d   2       5.698  -0.093  -2.750  0.00  0.00    -0.039 A 
ATOM     28  CD1 PHE d   2       5.369  -1.548  -3.092  0.00  0.00    -0.050 A 
ATOM     29  CE1 PHE d   2       4.081  -1.961  -2.377  0.00  0.00    -0.053 A 
ATOM     30 1HD1 PHE d   2       5.232  -1.645  -4.169  0.00  0.00     0.027 H 
ATOM     31 2HD1 PHE d   2       6.186  -2.192  -2.769  0.00  0.00     0.027 H 
ATOM     32  CZ  PHE d   2       2.933  -1.057  -2.830  0.00  0.00    -0.053 A 
ATOM     33 1HE1 PHE d   2       3.846  -2.997  -2.621  0.00  0.00     0.026 H 
ATOM     34 2HE1 PHE d   2       4.216  -1.863  -1.300  0.00  0.00     0.026 H 
ATOM     35  CE2 PHE d   2       3.263   0.397  -2.487  0.00  0.00    -0.053 A 
ATOM     36  HZ1 PHE d   2       2.016  -1.351  -2.320  0.00  0.00     0.026 H 
ATOM     37  HZ2 PHE d   2       2.797  -1.154  -3.908  0.00  0.00     0.026 H 
ATOM     38  CD2 PHE d   2       4.551   0.811  -3.203  0.00  0.00    -0.050 A 
ATOM     39 1HE2 PHE d   2       3.398   0.495  -1.410  0.00  0.00     0.026 H 
ATOM     40 2HE2 PHE d   2       2.446   1.041  -2.810  0.00  0.00     0.026 H 
ATOM     41 1HD2 PHE d   2       4.414   0.713  -4.280  0.00  0.00     0.027 H 
ATOM     42 2HD2 PHE d   2       4.786   1.846  -2.959  0.00  0.00     0.027 H 
ATOM     43  HG  PHE d   2       5.835   0.004  -1.673  0.00  0.00     0.030 H 
ENDBRANCH  24  27
ENDBRANCH  19  24
BRANCH   1  44
ATOM     44  C   UNK d   1      10.000   4.198  -9.412  0.00  0.00     0.038 A 
ATOM     45  C   UNK d   1       9.184   5.262  -9.021  0.00  0.00    -0.050 A 
ATOM     46  C   UNK d   1       8.763   6.192  -9.952  0.00  0.00    -0.060 A 
ATOM     47  H   UNK d   1       8.886   5.360  -7.988  0.00  0.00     0.062 H 
ATOM     48  C   UNK d   1       9.135   6.070 -11.275  0.00  0.00    -0.048 A 
ATOM     49  H   UNK d   1       8.135   7.014  -9.642  0.00  0.00     0.062 H 
ATOM     50  C   UNK d   1       9.947   5.008 -11.681  0.00  0.00     0.060 A 
ATOM     51  H   UNK d   1       8.799   6.798 -11.999  0.00  0.00     0.063 H 
ATOM     52  C   UNK d   1      10.380   4.069 -10.746  0.00  0.00    -0.036 A 
ATOM     53  H   UNK d   1      11.007   3.245 -11.055  0.00  0.00     0.063 H 
BRANCH  50  54
ATOM     54  C   UNK d   1      10.344   4.879 -13.098  0.00  0.00     0.339 C 
ATOM     55  O   UNK d   1      11.520   4.806 -13.396  0.00  0.00    -0.245 OA
BRANCH  54  56
ATOM     56  O   UNK d   1       9.403   4.844 -14.061  0.00  0.00    -0.465 OA
BRANCH  56  57
ATOM     57  C   UNK d   1       9.384   5.947 -15.006  0.00  0.00     0.082 C 
ATOM     58  H   UNK d   1       8.458   5.917 -15.580  0.00  0.00     0.066 H 
ATOM     59  H   UNK d   1       9.444   6.891 -14.462  0.00  0.00     0.066 H 
ATOM     60  H   UNK d   1      10.235   5.862 -15.681  0.00  0.00     0.066 H 
ENDBRANCH  56  57
ENDBRANCH  54  56
ENDBRANCH  50  54
ENDBRANCH   1  44
TORSDOF 6
ENDMDL
