MODEL 1
REMARK VINA RESULT:      -6.5      0.000      0.000
REMARK  10 active torsions:
REMARK  status: ('A' for Active; 'I' for Inactive)
REMARK    1  A    between atoms: C_1  and  C_2 
REMARK    2  A    between atoms: C_2  and  O_3 
REMARK    3  A    between atoms: O_3  and  C_4 
REMARK    4  A    between atoms: C_4  and  C_6 
REMARK    5  A    between atoms: C_6  and  C_8 
REMARK    6  A    between atoms: C_6  and  N_16 
REMARK    7  A    between atoms: C_8  and  C_9 
REMARK    8  A    between atoms: C_9  and  C_10 
REMARK       I    between atoms: N_16  and  CA_17 
REMARK    9  A    between atoms: CA_17  and  CB_19 
REMARK       I    between atoms: CA_17  and  C_20 
REMARK       I    between atoms: C_20  and  N_22 
REMARK   10  A    between atoms: C_26  and  C_28 
ROOT
ATOM      1  N   ALA d   1       6.733  -1.334  -6.019  0.00  0.00    -0.294 N 
ATOM      2  CA  ALA d   1       5.613  -1.349  -6.968  0.00  0.00     0.083 C 
ATOM      3  HA  ALA d   1       5.687  -2.232  -7.604  0.00  0.00     0.055 H 
ATOM      4  C   ALA d   1       5.662  -0.108  -7.823  0.00  0.00     0.233 C 
ATOM      5  O   ALA d   1       6.172   0.904  -7.393  0.00  0.00    -0.274 OA
ATOM      6  H   ALA d   1       6.524  -0.754  -5.221  0.00  0.00     0.123 HD
ATOM      7  N   UNK d   2       5.138  -0.126  -9.065  0.00  0.00    -0.290 N 
ATOM      8  C   UNK d   2       4.415  -1.255  -9.679  0.00  0.00     0.039 C 
ATOM      9  C   UNK d   2       3.960  -0.784 -11.053  0.00  0.00     0.080 C 
ATOM     10  C   UNK d   2       3.994   0.745 -10.994  0.00  0.00    -0.004 C 
ATOM     11  C   UNK d   2       5.189   0.987 -10.035  0.00  0.00     0.068 C 
ATOM     12  H   UNK d   2       6.127   0.964 -10.589  0.00  0.00     0.056 H 
ATOM     13  S   UNK d   2       2.299  -1.406 -11.480  0.00  0.00    -0.141 SA
ATOM     14  C   UNK d   2       2.455  -1.746 -13.279  0.00  0.00     0.004 C 
ATOM     15  C   UNK d   2       3.856  -2.388 -13.453  0.00  0.00     0.004 C 
ATOM     16  S   UNK d   2       5.007  -1.436 -12.391  0.00  0.00    -0.141 SA
ATOM     17  H   UNK d   2       5.079  -2.114  -9.779  0.00  0.00     0.049 H 
ATOM     18  H   UNK d   2       3.550  -1.520  -9.070  0.00  0.00     0.049 H 
ATOM     19  H   UNK d   2       4.187   1.171 -11.978  0.00  0.00     0.031 H 
ATOM     20  H   UNK d   2       3.071   1.141 -10.571  0.00  0.00     0.031 H 
ATOM     21  H   UNK d   2       1.679  -2.441 -13.602  0.00  0.00     0.038 H 
ATOM     22  H   UNK d   2       2.391  -0.817 -13.846  0.00  0.00     0.038 H 
ATOM     23  H   UNK d   2       3.831  -3.429 -13.134  0.00  0.00     0.038 H 
ATOM     24  H   UNK d   2       4.170  -2.322 -14.494  0.00  0.00     0.038 H 
ENDROOT
BRANCH   1  25
ATOM     25  C   UNK d   0       7.087  -2.697  -5.601  0.00  0.00     0.107 C 
ATOM     26  H   UNK d   0       6.640  -3.416  -6.286  0.00  0.00     0.058 H 
BRANCH  25  27
ATOM     27  C   UNK d   0       8.586  -2.853  -5.615  0.00  0.00     0.324 C 
ATOM     28  O   UNK d   0       9.279  -1.992  -6.105  0.00  0.00    -0.249 OA
BRANCH  27  29
ATOM     29  O   UNK d   0       9.152  -3.950  -5.087  0.00  0.00    -0.464 OA
BRANCH  29  30
ATOM     30  C   UNK d   0      10.240  -3.747  -4.183  0.00  0.00     0.090 C 
ATOM     31  H   UNK d   0      10.496  -2.689  -4.153  0.00  0.00     0.069 H 
ATOM     32  H   UNK d   0      11.104  -4.320  -4.521  0.00  0.00     0.069 H 
BRANCH  30  33
ATOM     33  C   UNK d   0       9.835  -4.213  -2.784  0.00  0.00    -0.031 C 
ATOM     34  H   UNK d   0       9.450  -3.366  -2.216  0.00  0.00     0.026 H 
ATOM     35  H   UNK d   0       9.062  -4.977  -2.865  0.00  0.00     0.026 H 
ATOM     36  H   UNK d   0      10.704  -4.628  -2.273  0.00  0.00     0.026 H 
ENDBRANCH  30  33
ENDBRANCH  29  30
ENDBRANCH  27  29
ENDBRANCH  25  27
BRANCH  25  37
ATOM     37  C   UNK d   0       6.563  -2.949  -4.185  0.00  0.00    -0.023 C 
ATOM     38  H   UNK d   0       5.474  -2.982  -4.202  0.00  0.00     0.029 H 
ATOM     39  H   UNK d   0       6.950  -3.901  -3.819  0.00  0.00     0.029 H 
BRANCH  37  40
ATOM     40  C   UNK d   0       7.026  -1.821  -3.262  0.00  0.00    -0.026 C 
ATOM     41  H   UNK d   0       7.436  -2.246  -2.345  0.00  0.00     0.031 H 
ATOM     42  H   UNK d   0       7.794  -1.232  -3.764  0.00  0.00     0.031 H 
BRANCH  40  43
ATOM     43  C   UNK d   0       5.854  -0.935  -2.924  0.00  0.00    -0.047 A 
ATOM     44  C   UNK d   0       5.992   0.440  -2.972  0.00  0.00    -0.059 A 
ATOM     45  C   UNK d   0       4.916   1.253  -2.667  0.00  0.00    -0.061 A 
ATOM     46  H   UNK d   0       6.938   0.878  -3.251  0.00  0.00     0.062 H 
ATOM     47  C   UNK d   0       3.706   0.691  -2.305  0.00  0.00    -0.062 A 
ATOM     48  H   UNK d   0       5.022   2.327  -2.708  0.00  0.00     0.062 H 
ATOM     49  C   UNK d   0       3.570  -0.684  -2.252  0.00  0.00    -0.061 A 
ATOM     50  H   UNK d   0       2.866   1.326  -2.063  0.00  0.00     0.062 H 
ATOM     51  C   UNK d   0       4.645  -1.497  -2.562  0.00  0.00    -0.059 A 
ATOM     52  H   UNK d   0       2.624  -1.123  -1.970  0.00  0.00     0.062 H 
ATOM     53  H   UNK d   0       4.538  -2.570  -2.520  0.00  0.00     0.062 H 
ENDBRANCH  40  43
ENDBRANCH  37  40
ENDBRANCH  25  37
ENDBRANCH   1  25
BRANCH   2  54
ATOM     54  CB  ALA d   1       4.292  -1.385  -6.197  0.00  0.00    -0.041 C 
ATOM     55  HB1 ALA d   1       4.249  -2.291  -5.594  0.00  0.00     0.025 H 
ATOM     56  HB2 ALA d   1       4.226  -0.512  -5.548  0.00  0.00     0.025 H 
ATOM     57  HB3 ALA d   1       3.460  -1.378  -6.902  0.00  0.00     0.025 H 
ENDBRANCH   2  54
BRANCH  11  58
ATOM     58  C   UNK d   2       5.032   2.308  -9.325  0.00  0.00     0.062 C 
ATOM     59  O   UNK d   2       3.963   2.604  -8.818  0.00  0.00    -0.548 OA
ATOM     60  O   UNK d   2       5.973   3.079  -9.258  0.00  0.00    -0.548 OA
ENDBRANCH  11  58
TORSDOF 12
ENDMDL
MODEL 2
REMARK VINA RESULT:      -6.2      4.233      7.314
REMARK  10 active torsions:
REMARK  status: ('A' for Active; 'I' for Inactive)
REMARK    1  A    between atoms: C_1  and  C_2 
REMARK    2  A    between atoms: C_2  and  O_3 
REMARK    3  A    between atoms: O_3  and  C_4 
REMARK    4  A    between atoms: C_4  and  C_6 
REMARK    5  A    between atoms: C_6  and  C_8 
REMARK    6  A    between atoms: C_6  and  N_16 
REMARK    7  A    between atoms: C_8  and  C_9 
REMARK    8  A    between atoms: C_9  and  C_10 
REMARK       I    between atoms: N_16  and  CA_17 
REMARK    9  A    between atoms: CA_17  and  CB_19 
REMARK       I    between atoms: CA_17  and  C_20 
REMARK       I    between atoms: C_20  and  N_22 
REMARK   10  A    between atoms: C_26  and  C_28 
ROOT
ATOM      1  N   ALA d   1       5.842   0.224  -5.097  0.00  0.00    -0.294 N 
ATOM      2  CA  ALA d   1       7.165   0.276  -5.731  0.00  0.00     0.083 C 
ATOM      3  HA  ALA d   1       7.602  -0.722  -5.743  0.00  0.00     0.055 H 
ATOM      4  C   ALA d   1       8.059   1.207  -4.951  0.00  0.00     0.233 C 
ATOM      5  O   ALA d   1       7.576   2.119  -4.314  0.00  0.00    -0.274 OA
ATOM      6  H   ALA d   1       5.280   1.018  -5.366  0.00  0.00     0.123 HD
ATOM      7  N   UNK d   2       9.395   1.025  -4.963  0.00  0.00    -0.290 N 
ATOM      8  C   UNK d   2      10.119   0.016  -5.759  0.00  0.00     0.039 C 
ATOM      9  C   UNK d   2      11.602   0.237  -5.495  0.00  0.00     0.080 C 
ATOM     10  C   UNK d   2      11.713   1.666  -4.959  0.00  0.00    -0.004 C 
ATOM     11  C   UNK d   2      10.376   1.808  -4.186  0.00  0.00     0.068 C 
ATOM     12  H   UNK d   2      10.477   1.397  -3.181  0.00  0.00     0.056 H 
ATOM     13  S   UNK d   2      12.612  -0.001  -6.996  0.00  0.00    -0.141 SA
ATOM     14  C   UNK d   2      14.124  -0.804  -6.330  0.00  0.00     0.004 C 
ATOM     15  C   UNK d   2      13.615  -1.821  -5.275  0.00  0.00     0.004 C 
ATOM     16  S   UNK d   2      12.288  -0.982  -4.332  0.00  0.00    -0.141 SA
ATOM     17  H   UNK d   2       9.829  -0.987  -5.445  0.00  0.00     0.049 H 
ATOM     18  H   UNK d   2       9.904   0.152  -6.819  0.00  0.00     0.049 H 
ATOM     19  H   UNK d   2      12.567   1.768  -4.289  0.00  0.00     0.031 H 
ATOM     20  H   UNK d   2      11.768   2.388  -5.774  0.00  0.00     0.031 H 
ATOM     21  H   UNK d   2      14.660  -1.323  -7.126  0.00  0.00     0.038 H 
ATOM     22  H   UNK d   2      14.771  -0.063  -5.859  0.00  0.00     0.038 H 
ATOM     23  H   UNK d   2      13.217  -2.706  -5.771  0.00  0.00     0.038 H 
ATOM     24  H   UNK d   2      14.427  -2.102  -4.605  0.00  0.00     0.038 H 
ENDROOT
BRANCH   1  25
ATOM     25  C   UNK d   0       5.156  -1.036  -5.413  0.00  0.00     0.107 C 
ATOM     26  H   UNK d   0       5.776  -1.629  -6.085  0.00  0.00     0.058 H 
BRANCH  25  27
ATOM     27  C   UNK d   0       4.914  -1.808  -4.141  0.00  0.00     0.324 C 
ATOM     28  O   UNK d   0       4.286  -2.840  -4.170  0.00  0.00    -0.249 OA
BRANCH  27  29
ATOM     29  O   UNK d   0       5.394  -1.348  -2.974  0.00  0.00    -0.464 OA
BRANCH  29  30
ATOM     30  C   UNK d   0       4.438  -0.975  -1.981  0.00  0.00     0.090 C 
ATOM     31  H   UNK d   0       4.675  -1.475  -1.042  0.00  0.00     0.069 H 
ATOM     32  H   UNK d   0       3.441  -1.270  -2.308  0.00  0.00     0.069 H 
BRANCH  30  33
ATOM     33  C   UNK d   0       4.480   0.540  -1.776  0.00  0.00    -0.031 C 
ATOM     34  H   UNK d   0       4.855   0.761  -0.777  0.00  0.00     0.026 H 
ATOM     35  H   UNK d   0       5.138   0.989  -2.520  0.00  0.00     0.026 H 
ATOM     36  H   UNK d   0       3.475   0.949  -1.885  0.00  0.00     0.026 H 
ENDBRANCH  30  33
ENDBRANCH  29  30
ENDBRANCH  27  29
ENDBRANCH  25  27
BRANCH  25  37
ATOM     37  C   UNK d   0       3.817  -0.734  -6.088  0.00  0.00    -0.023 C 
ATOM     38  H   UNK d   0       3.025  -1.293  -5.591  0.00  0.00     0.029 H 
ATOM     39  H   UNK d   0       3.608   0.334  -6.018  0.00  0.00     0.029 H 
BRANCH  37  40
ATOM     40  C   UNK d   0       3.884  -1.144  -7.560  0.00  0.00    -0.026 C 
ATOM     41  H   UNK d   0       4.837  -1.638  -7.757  0.00  0.00     0.031 H 
ATOM     42  H   UNK d   0       3.067  -1.831  -7.784  0.00  0.00     0.031 H 
BRANCH  40  43
ATOM     43  C   UNK d   0       3.763   0.081  -8.429  0.00  0.00    -0.047 A 
ATOM     44  C   UNK d   0       3.066   1.185  -7.974  0.00  0.00    -0.059 A 
ATOM     45  C   UNK d   0       2.959   2.311  -8.769  0.00  0.00    -0.061 A 
ATOM     46  H   UNK d   0       2.609   1.168  -6.996  0.00  0.00     0.062 H 
ATOM     47  C   UNK d   0       3.541   2.329 -10.023  0.00  0.00    -0.062 A 
ATOM     48  H   UNK d   0       2.418   3.174  -8.412  0.00  0.00     0.062 H 
ATOM     49  C   UNK d   0       4.233   1.223 -10.480  0.00  0.00    -0.061 A 
ATOM     50  H   UNK d   0       3.454   3.208 -10.645  0.00  0.00     0.062 H 
ATOM     51  C   UNK d   0       4.344   0.099  -9.683  0.00  0.00    -0.059 A 
ATOM     52  H   UNK d   0       4.687   1.238 -11.460  0.00  0.00     0.062 H 
ATOM     53  H   UNK d   0       4.885  -0.764 -10.041  0.00  0.00     0.062 H 
ENDBRANCH  40  43
ENDBRANCH  37  40
ENDBRANCH  25  37
ENDBRANCH   1  25
BRANCH   2  54
ATOM     54  CB  ALA d   1       7.024   0.789  -7.166  0.00  0.00    -0.041 C 
ATOM     55  HB1 ALA d   1       7.573   1.724  -7.272  0.00  0.00     0.025 H 
ATOM     56  HB2 ALA d   1       7.427   0.050  -7.858  0.00  0.00     0.025 H 
ATOM     57  HB3 ALA d   1       5.970   0.959  -7.388  0.00  0.00     0.025 H 
ENDBRANCH   2  54
BRANCH  11  58
ATOM     58  C   UNK d   2       9.959   3.255  -4.121  0.00  0.00     0.062 C 
ATOM     59  O   UNK d   2       9.952   3.932  -5.134  0.00  0.00    -0.548 OA
ATOM     60  O   UNK d   2       9.628   3.746  -3.056  0.00  0.00    -0.548 OA
ENDBRANCH  11  58
TORSDOF 12
ENDMDL
MODEL 3
REMARK VINA RESULT:      -6.1      4.828      7.773
REMARK  10 active torsions:
REMARK  status: ('A' for Active; 'I' for Inactive)
REMARK    1  A    between atoms: C_1  and  C_2 
REMARK    2  A    between atoms: C_2  and  O_3 
REMARK    3  A    between atoms: O_3  and  C_4 
REMARK    4  A    between atoms: C_4  and  C_6 
REMARK    5  A    between atoms: C_6  and  C_8 
REMARK    6  A    between atoms: C_6  and  N_16 
REMARK    7  A    between atoms: C_8  and  C_9 
REMARK    8  A    between atoms: C_9  and  C_10 
REMARK       I    between atoms: N_16  and  CA_17 
REMARK    9  A    between atoms: CA_17  and  CB_19 
REMARK       I    between atoms: CA_17  and  C_20 
REMARK       I    between atoms: C_20  and  N_22 
REMARK   10  A    between atoms: C_26  and  C_28 
ROOT
ATOM      1  N   ALA d   1       7.299   0.054  -6.394  0.00  0.00    -0.294 N 
ATOM      2  CA  ALA d   1       7.757   1.037  -5.404  0.00  0.00     0.083 C 
ATOM      3  HA  ALA d   1       7.284   1.998  -5.599  0.00  0.00     0.055 H 
ATOM      4  C   ALA d   1       9.255   1.184  -5.500  0.00  0.00     0.233 C 
ATOM      5  O   ALA d   1       9.931   0.262  -5.903  0.00  0.00    -0.274 OA
ATOM      6  H   ALA d   1       7.431  -0.888  -6.058  0.00  0.00     0.123 HD
ATOM      7  N   UNK d   2       9.841   2.343  -5.137  0.00  0.00    -0.290 N 
ATOM      8  C   UNK d   2       9.154   3.509  -4.552  0.00  0.00     0.039 C 
ATOM      9  C   UNK d   2      10.232   4.542  -4.251  0.00  0.00     0.080 C 
ATOM     10  C   UNK d   2      11.546   3.760  -4.203  0.00  0.00    -0.004 C 
ATOM     11  C   UNK d   2      11.281   2.651  -5.255  0.00  0.00     0.068 C 
ATOM     12  H   UNK d   2      11.508   3.020  -6.255  0.00  0.00     0.056 H 
ATOM     13  S   UNK d   2       9.918   5.430  -2.688  0.00  0.00    -0.141 SA
ATOM     14  C   UNK d   2      10.474   7.135  -3.085  0.00  0.00     0.004 C 
ATOM     15  C   UNK d   2       9.968   7.404  -4.526  0.00  0.00     0.004 C 
ATOM     16  S   UNK d   2      10.278   5.876  -5.487  0.00  0.00    -0.141 SA
ATOM     17  H   UNK d   2       8.435   3.916  -5.264  0.00  0.00     0.049 H 
ATOM     18  H   UNK d   2       8.646   3.220  -3.632  0.00  0.00     0.049 H 
ATOM     19  H   UNK d   2      12.386   4.387  -4.497  0.00  0.00     0.031 H 
ATOM     20  H   UNK d   2      11.709   3.327  -3.216  0.00  0.00     0.031 H 
ATOM     21  H   UNK d   2      10.031   7.850  -2.390  0.00  0.00     0.038 H 
ATOM     22  H   UNK d   2      11.562   7.197  -3.048  0.00  0.00     0.038 H 
ATOM     23  H   UNK d   2       8.901   7.625  -4.512  0.00  0.00     0.038 H 
ATOM     24  H   UNK d   2      10.517   8.237  -4.964  0.00  0.00     0.038 H 
ENDROOT
BRANCH   1  25
ATOM     25  C   UNK d   0       5.895   0.290  -6.758  0.00  0.00     0.107 C 
ATOM     26  H   UNK d   0       5.496   1.106  -6.158  0.00  0.00     0.058 H 
BRANCH  25  27
ATOM     27  C   UNK d   0       5.809   0.652  -8.219  0.00  0.00     0.324 C 
ATOM     28  O   UNK d   0       5.946  -0.203  -9.062  0.00  0.00    -0.249 OA
BRANCH  27  29
ATOM     29  O   UNK d   0       5.582   1.924  -8.583  0.00  0.00    -0.464 OA
BRANCH  29  30
ATOM     30  C   UNK d   0       4.463   2.165  -9.437  0.00  0.00     0.090 C 
ATOM     31  H   UNK d   0       4.467   1.445 -10.255  0.00  0.00     0.069 H 
ATOM     32  H   UNK d   0       4.526   3.175  -9.842  0.00  0.00     0.069 H 
BRANCH  30  33
ATOM     33  C   UNK d   0       3.168   2.018  -8.635  0.00  0.00    -0.031 C 
ATOM     34  H   UNK d   0       3.407   1.915  -7.577  0.00  0.00     0.026 H 
ATOM     35  H   UNK d   0       2.547   2.902  -8.783  0.00  0.00     0.026 H 
ATOM     36  H   UNK d   0       2.629   1.134  -8.974  0.00  0.00     0.026 H 
ENDBRANCH  30  33
ENDBRANCH  29  30
ENDBRANCH  27  29
ENDBRANCH  25  27
BRANCH  25  37
ATOM     37  C   UNK d   0       5.080  -0.979  -6.499  0.00  0.00    -0.023 C 
ATOM     38  H   UNK d   0       4.885  -1.485  -7.444  0.00  0.00     0.029 H 
ATOM     39  H   UNK d   0       5.642  -1.643  -5.840  0.00  0.00     0.029 H 
BRANCH  37  40
ATOM     40  C   UNK d   0       3.753  -0.606  -5.836  0.00  0.00    -0.026 C 
ATOM     41  H   UNK d   0       3.415   0.359  -6.215  0.00  0.00     0.031 H 
ATOM     42  H   UNK d   0       3.006  -1.367  -6.064  0.00  0.00     0.031 H 
BRANCH  40  43
ATOM     43  C   UNK d   0       3.943  -0.522  -4.343  0.00  0.00    -0.047 A 
ATOM     44  C   UNK d   0       4.362  -1.634  -3.636  0.00  0.00    -0.059 A 
ATOM     45  C   UNK d   0       4.541  -1.555  -2.268  0.00  0.00    -0.061 A 
ATOM     46  H   UNK d   0       4.552  -2.562  -4.154  0.00  0.00     0.062 H 
ATOM     47  C   UNK d   0       4.293  -0.368  -1.605  0.00  0.00    -0.062 A 
ATOM     48  H   UNK d   0       4.872  -2.422  -1.716  0.00  0.00     0.062 H 
ATOM     49  C   UNK d   0       3.869   0.743  -2.312  0.00  0.00    -0.061 A 
ATOM     50  H   UNK d   0       4.429  -0.308  -0.535  0.00  0.00     0.062 H 
ATOM     51  C   UNK d   0       3.694   0.665  -3.681  0.00  0.00    -0.059 A 
ATOM     52  H   UNK d   0       3.675   1.671  -1.794  0.00  0.00     0.062 H 
ATOM     53  H   UNK d   0       3.363   1.532  -4.232  0.00  0.00     0.062 H 
ENDBRANCH  40  43
ENDBRANCH  37  40
ENDBRANCH  25  37
ENDBRANCH   1  25
BRANCH   2  54
ATOM     54  CB  ALA d   1       7.382   0.559  -4.000  0.00  0.00    -0.041 C 
ATOM     55  HB1 ALA d   1       6.337   0.797  -3.803  0.00  0.00     0.025 H 
ATOM     56  HB2 ALA d   1       7.528  -0.519  -3.931  0.00  0.00     0.025 H 
ATOM     57  HB3 ALA d   1       8.013   1.059  -3.265  0.00  0.00     0.025 H 
ENDBRANCH   2  54
BRANCH  11  58
ATOM     58  C   UNK d   2      12.105   1.428  -4.947  0.00  0.00     0.062 C 
ATOM     59  O   UNK d   2      12.746   0.887  -5.831  0.00  0.00    -0.548 OA
ATOM     60  O   UNK d   2      12.131   0.980  -3.813  0.00  0.00    -0.548 OA
ENDBRANCH  11  58
TORSDOF 12
ENDMDL
MODEL 4
REMARK VINA RESULT:      -6.0      4.095      6.277
REMARK  10 active torsions:
REMARK  status: ('A' for Active; 'I' for Inactive)
REMARK    1  A    between atoms: C_1  and  C_2 
REMARK    2  A    between atoms: C_2  and  O_3 
REMARK    3  A    between atoms: O_3  and  C_4 
REMARK    4  A    between atoms: C_4  and  C_6 
REMARK    5  A    between atoms: C_6  and  C_8 
REMARK    6  A    between atoms: C_6  and  N_16 
REMARK    7  A    between atoms: C_8  and  C_9 
REMARK    8  A    between atoms: C_9  and  C_10 
REMARK       I    between atoms: N_16  and  CA_17 
REMARK    9  A    between atoms: CA_17  and  CB_19 
REMARK       I    between atoms: CA_17  and  C_20 
REMARK       I    between atoms: C_20  and  N_22 
REMARK   10  A    between atoms: C_26  and  C_28 
ROOT
ATOM      1  N   ALA d   1       4.489   0.681  -8.691  0.00  0.00    -0.294 N 
ATOM      2  CA  ALA d   1       5.800   0.464  -8.068  0.00  0.00     0.083 C 
ATOM      3  HA  ALA d   1       5.695   0.488  -6.983  0.00  0.00     0.055 H 
ATOM      4  C   ALA d   1       6.750   1.549  -8.506  0.00  0.00     0.233 C 
ATOM      5  O   ALA d   1       6.591   2.100  -9.574  0.00  0.00    -0.274 OA
ATOM      6  H   ALA d   1       4.476   0.335  -9.639  0.00  0.00     0.123 HD
ATOM      7  N   UNK d   2       7.777   1.906  -7.708  0.00  0.00    -0.290 N 
ATOM      8  C   UNK d   2       8.138   1.265  -6.430  0.00  0.00     0.039 C 
ATOM      9  C   UNK d   2       9.396   1.965  -5.933  0.00  0.00     0.080 C 
ATOM     10  C   UNK d   2      10.004   2.637  -7.165  0.00  0.00    -0.004 C 
ATOM     11  C   UNK d   2       8.731   3.002  -7.974  0.00  0.00     0.068 C 
ATOM     12  H   UNK d   2       8.323   3.951  -7.627  0.00  0.00     0.056 H 
ATOM     13  S   UNK d   2      10.567   0.804  -5.151  0.00  0.00    -0.141 SA
ATOM     14  C   UNK d   2      11.246   1.802  -3.766  0.00  0.00     0.004 C 
ATOM     15  C   UNK d   2      10.031   2.568  -3.182  0.00  0.00     0.004 C 
ATOM     16  S   UNK d   2       9.046   3.161  -4.608  0.00  0.00    -0.141 SA
ATOM     17  H   UNK d   2       7.331   1.390  -5.708  0.00  0.00     0.049 H 
ATOM     18  H   UNK d   2       8.338   0.205  -6.587  0.00  0.00     0.049 H 
ATOM     19  H   UNK d   2      10.562   3.531  -6.889  0.00  0.00     0.031 H 
ATOM     20  H   UNK d   2      10.631   1.942  -7.723  0.00  0.00     0.031 H 
ATOM     21  H   UNK d   2      11.683   1.151  -3.008  0.00  0.00     0.038 H 
ATOM     22  H   UNK d   2      11.993   2.505  -4.137  0.00  0.00     0.038 H 
ATOM     23  H   UNK d   2       9.430   1.900  -2.565  0.00  0.00     0.038 H 
ATOM     24  H   UNK d   2      10.375   3.416  -2.589  0.00  0.00     0.038 H 
ENDROOT
BRANCH   1  25
ATOM     25  C   UNK d   0       3.418   0.068  -7.894  0.00  0.00     0.107 C 
ATOM     26  H   UNK d   0       2.573   0.753  -7.832  0.00  0.00     0.058 H 
BRANCH  25  27
ATOM     27  C   UNK d   0       2.977  -1.216  -8.548  0.00  0.00     0.324 C 
ATOM     28  O   UNK d   0       2.166  -1.191  -9.444  0.00  0.00    -0.249 OA
BRANCH  27  29
ATOM     29  O   UNK d   0       3.484  -2.388  -8.136  0.00  0.00    -0.464 OA
BRANCH  29  30
ATOM     30  C   UNK d   0       3.366  -3.497  -9.029  0.00  0.00     0.090 C 
ATOM     31  H   UNK d   0       4.082  -3.386  -9.843  0.00  0.00     0.069 H 
ATOM     32  H   UNK d   0       2.356  -3.529  -9.436  0.00  0.00     0.069 H 
BRANCH  30  33
ATOM     33  C   UNK d   0       3.653  -4.795  -8.272  0.00  0.00    -0.031 C 
ATOM     34  H   UNK d   0       2.995  -4.863  -7.406  0.00  0.00     0.026 H 
ATOM     35  H   UNK d   0       3.475  -5.646  -8.930  0.00  0.00     0.026 H 
ATOM     36  H   UNK d   0       4.691  -4.802  -7.942  0.00  0.00     0.026 H 
ENDBRANCH  30  33
ENDBRANCH  29  30
ENDBRANCH  27  29
ENDBRANCH  25  27
BRANCH  25  37
ATOM     37  C   UNK d   0       3.937  -0.230  -6.485  0.00  0.00    -0.023 C 
ATOM     38  H   UNK d   0       4.095  -1.302  -6.376  0.00  0.00     0.029 H 
ATOM     39  H   UNK d   0       4.881   0.294  -6.328  0.00  0.00     0.029 H 
BRANCH  37  40
ATOM     40  C   UNK d   0       2.912   0.243  -5.453  0.00  0.00    -0.026 C 
ATOM     41  H   UNK d   0       2.725   1.309  -5.588  0.00  0.00     0.031 H 
ATOM     42  H   UNK d   0       1.981  -0.308  -5.587  0.00  0.00     0.031 H 
BRANCH  40  43
ATOM     43  C   UNK d   0       3.447  -0.002  -4.066  0.00  0.00    -0.047 A 
ATOM     44  C   UNK d   0       3.835   1.065  -3.277  0.00  0.00    -0.059 A 
ATOM     45  C   UNK d   0       4.320   0.841  -2.002  0.00  0.00    -0.061 A 
ATOM     46  H   UNK d   0       3.755   2.074  -3.655  0.00  0.00     0.062 H 
ATOM     47  C   UNK d   0       4.427  -0.450  -1.520  0.00  0.00    -0.062 A 
ATOM     48  H   UNK d   0       4.620   1.675  -1.384  0.00  0.00     0.062 H 
ATOM     49  C   UNK d   0       4.043  -1.517  -2.311  0.00  0.00    -0.061 A 
ATOM     50  H   UNK d   0       4.809  -0.625  -0.525  0.00  0.00     0.062 H 
ATOM     51  C   UNK d   0       3.553  -1.293  -3.584  0.00  0.00    -0.059 A 
ATOM     52  H   UNK d   0       4.126  -2.526  -1.934  0.00  0.00     0.062 H 
ATOM     53  H   UNK d   0       3.254  -2.126  -4.202  0.00  0.00     0.062 H 
ENDBRANCH  40  43
ENDBRANCH  37  40
ENDBRANCH  25  37
ENDBRANCH   1  25
BRANCH   2  54
ATOM     54  CB  ALA d   1       6.349  -0.898  -8.498  0.00  0.00    -0.041 C 
ATOM     55  HB1 ALA d   1       7.411  -0.952  -8.258  0.00  0.00     0.025 H 
ATOM     56  HB2 ALA d   1       5.817  -1.689  -7.969  0.00  0.00     0.025 H 
ATOM     57  HB3 ALA d   1       6.212  -1.022  -9.572  0.00  0.00     0.025 H 
ENDBRANCH   2  54
BRANCH  11  58
ATOM     58  C   UNK d   2       9.048   3.075  -9.446  0.00  0.00     0.062 C 
ATOM     59  O   UNK d   2       8.722   4.056 -10.092  0.00  0.00    -0.548 OA
ATOM     60  O   UNK d   2       9.631   2.152  -9.990  0.00  0.00    -0.548 OA
ENDBRANCH  11  58
TORSDOF 12
ENDMDL
MODEL 5
REMARK VINA RESULT:      -6.0      3.310      4.495
REMARK  10 active torsions:
REMARK  status: ('A' for Active; 'I' for Inactive)
REMARK    1  A    between atoms: C_1  and  C_2 
REMARK    2  A    between atoms: C_2  and  O_3 
REMARK    3  A    between atoms: O_3  and  C_4 
REMARK    4  A    between atoms: C_4  and  C_6 
REMARK    5  A    between atoms: C_6  and  C_8 
REMARK    6  A    between atoms: C_6  and  N_16 
REMARK    7  A    between atoms: C_8  and  C_9 
REMARK    8  A    between atoms: C_9  and  C_10 
REMARK       I    between atoms: N_16  and  CA_17 
REMARK    9  A    between atoms: CA_17  and  CB_19 
REMARK       I    between atoms: CA_17  and  C_20 
REMARK       I    between atoms: C_20  and  N_22 
REMARK   10  A    between atoms: C_26  and  C_28 
ROOT
ATOM      1  N   ALA d   1       4.054  -0.467  -8.308  0.00  0.00    -0.294 N 
ATOM      2  CA  ALA d   1       3.019  -1.319  -8.908  0.00  0.00     0.083 C 
ATOM      3  HA  ALA d   1       2.877  -2.207  -8.293  0.00  0.00     0.055 H 
ATOM      4  C   ALA d   1       3.448  -1.730 -10.294  0.00  0.00     0.233 C 
ATOM      5  O   ALA d   1       4.196  -1.021 -10.932  0.00  0.00    -0.274 OA
ATOM      6  H   ALA d   1       3.974   0.484  -8.635  0.00  0.00     0.123 HD
ATOM      7  N   UNK d   2       2.999  -2.886 -10.822  0.00  0.00    -0.290 N 
ATOM      8  C   UNK d   2       2.023  -3.797 -10.196  0.00  0.00     0.039 C 
ATOM      9  C   UNK d   2       1.781  -4.925 -11.190  0.00  0.00     0.080 C 
ATOM     10  C   UNK d   2       2.231  -4.378 -12.546  0.00  0.00    -0.004 C 
ATOM     11  C   UNK d   2       3.400  -3.447 -12.128  0.00  0.00     0.068 C 
ATOM     12  H   UNK d   2       4.320  -4.021 -12.027  0.00  0.00     0.056 H 
ATOM     13  S   UNK d   2       0.035  -5.453 -11.221  0.00  0.00    -0.141 SA
ATOM     14  C   UNK d   2       0.177  -7.271 -11.448  0.00  0.00     0.004 C 
ATOM     15  C   UNK d   2       1.354  -7.705 -10.537  0.00  0.00     0.004 C 
ATOM     16  S   UNK d   2       2.671  -6.447 -10.741  0.00  0.00    -0.141 SA
ATOM     17  H   UNK d   2       2.429  -4.199  -9.267  0.00  0.00     0.049 H 
ATOM     18  H   UNK d   2       1.091  -3.267  -9.998  0.00  0.00     0.049 H 
ATOM     19  H   UNK d   2       2.581  -5.179 -13.196  0.00  0.00     0.031 H 
ATOM     20  H   UNK d   2       1.434  -3.808 -13.024  0.00  0.00     0.031 H 
ATOM     21  H   UNK d   2      -0.744  -7.765 -11.137  0.00  0.00     0.038 H 
ATOM     22  H   UNK d   2       0.399  -7.505 -12.490  0.00  0.00     0.038 H 
ATOM     23  H   UNK d   2       1.029  -7.738  -9.498  0.00  0.00     0.038 H 
ATOM     24  H   UNK d   2       1.723  -8.683 -10.845  0.00  0.00     0.038 H 
ENDROOT
BRANCH   1  25
ATOM     25  C   UNK d   0       3.999  -0.526  -6.842  0.00  0.00     0.107 C 
ATOM     26  H   UNK d   0       3.553  -1.470  -6.532  0.00  0.00     0.058 H 
BRANCH  25  27
ATOM     27  C   UNK d   0       5.395  -0.422  -6.282  0.00  0.00     0.324 C 
ATOM     28  O   UNK d   0       6.095   0.519  -6.575  0.00  0.00    -0.249 OA
BRANCH  27  29
ATOM     29  O   UNK d   0       5.861  -1.375  -5.460  0.00  0.00    -0.464 OA
BRANCH  29  30
ATOM     30  C   UNK d   0       6.800  -0.969  -4.462  0.00  0.00     0.090 C 
ATOM     31  H   UNK d   0       6.346  -0.213  -3.822  0.00  0.00     0.069 H 
ATOM     32  H   UNK d   0       7.685  -0.554  -4.944  0.00  0.00     0.069 H 
BRANCH  30  33
ATOM     33  C   UNK d   0       7.201  -2.179  -3.617  0.00  0.00    -0.031 C 
ATOM     34  H   UNK d   0       7.023  -3.093  -4.184  0.00  0.00     0.026 H 
ATOM     35  H   UNK d   0       8.259  -2.109  -3.362  0.00  0.00     0.026 H 
ATOM     36  H   UNK d   0       6.607  -2.197  -2.703  0.00  0.00     0.026 H 
ENDBRANCH  30  33
ENDBRANCH  29  30
ENDBRANCH  27  29
ENDBRANCH  25  27
BRANCH  25  37
ATOM     37  C   UNK d   0       3.151   0.634  -6.315  0.00  0.00    -0.023 C 
ATOM     38  H   UNK d   0       3.805   1.410  -5.917  0.00  0.00     0.029 H 
ATOM     39  H   UNK d   0       2.554   1.046  -7.130  0.00  0.00     0.029 H 
BRANCH  37  40
ATOM     40  C   UNK d   0       2.225   0.129  -5.208  0.00  0.00    -0.026 C 
ATOM     41  H   UNK d   0       1.415   0.843  -5.056  0.00  0.00     0.031 H 
ATOM     42  H   UNK d   0       1.808  -0.837  -5.496  0.00  0.00     0.031 H 
BRANCH  40  43
ATOM     43  C   UNK d   0       3.008  -0.023  -3.929  0.00  0.00    -0.047 A 
ATOM     44  C   UNK d   0       3.576   1.086  -3.331  0.00  0.00    -0.059 A 
ATOM     45  C   UNK d   0       4.290   0.948  -2.155  0.00  0.00    -0.061 A 
ATOM     46  H   UNK d   0       3.459   2.061  -3.781  0.00  0.00     0.062 H 
ATOM     47  C   UNK d   0       4.443  -0.301  -1.583  0.00  0.00    -0.062 A 
ATOM     48  H   UNK d   0       4.731   1.815  -1.686  0.00  0.00     0.062 H 
ATOM     49  C   UNK d   0       3.879  -1.411  -2.184  0.00  0.00    -0.061 A 
ATOM     50  H   UNK d   0       5.004  -0.410  -0.666  0.00  0.00     0.062 H 
ATOM     51  C   UNK d   0       3.162  -1.272  -3.357  0.00  0.00    -0.059 A 
ATOM     52  H   UNK d   0       3.999  -2.387  -1.736  0.00  0.00     0.062 H 
ATOM     53  H   UNK d   0       2.722  -2.139  -3.826  0.00  0.00     0.062 H 
ENDBRANCH  40  43
ENDBRANCH  37  40
ENDBRANCH  25  37
ENDBRANCH   1  25
BRANCH   2  54
ATOM     54  CB  ALA d   1       1.704  -0.541  -8.992  0.00  0.00    -0.041 C 
ATOM     55  HB1 ALA d   1       1.615   0.114  -8.126  0.00  0.00     0.025 H 
ATOM     56  HB2 ALA d   1       1.692   0.057  -9.903  0.00  0.00     0.025 H 
ATOM     57  HB3 ALA d   1       0.868  -1.241  -9.005  0.00  0.00     0.025 H 
ENDBRANCH   2  54
BRANCH  11  58
ATOM     58  C   UNK d   2       3.579  -2.344 -13.139  0.00  0.00     0.062 C 
ATOM     59  O   UNK d   2       2.618  -1.686 -13.500  0.00  0.00    -0.548 OA
ATOM     60  O   UNK d   2       4.684  -2.109 -13.596  0.00  0.00    -0.548 OA
ENDBRANCH  11  58
TORSDOF 12
ENDMDL
MODEL 6
REMARK VINA RESULT:      -5.9      2.422      3.203
REMARK  10 active torsions:
REMARK  status: ('A' for Active; 'I' for Inactive)
REMARK    1  A    between atoms: C_1  and  C_2 
REMARK    2  A    between atoms: C_2  and  O_3 
REMARK    3  A    between atoms: O_3  and  C_4 
REMARK    4  A    between atoms: C_4  and  C_6 
REMARK    5  A    between atoms: C_6  and  C_8 
REMARK    6  A    between atoms: C_6  and  N_16 
REMARK    7  A    between atoms: C_8  and  C_9 
REMARK    8  A    between atoms: C_9  and  C_10 
REMARK       I    between atoms: N_16  and  CA_17 
REMARK    9  A    between atoms: CA_17  and  CB_19 
REMARK       I    between atoms: CA_17  and  C_20 
REMARK       I    between atoms: C_20  and  N_22 
REMARK   10  A    between atoms: C_26  and  C_28 
ROOT
ATOM      1  N   ALA d   1       6.641   0.797  -6.158  0.00  0.00    -0.294 N 
ATOM      2  CA  ALA d   1       6.341  -0.215  -7.179  0.00  0.00     0.083 C 
ATOM      3  HA  ALA d   1       7.271  -0.653  -7.540  0.00  0.00     0.055 H 
ATOM      4  C   ALA d   1       5.609   0.432  -8.327  0.00  0.00     0.233 C 
ATOM      5  O   ALA d   1       4.936   1.422  -8.137  0.00  0.00    -0.274 OA
ATOM      6  H   ALA d   1       5.837   0.970  -5.573  0.00  0.00     0.123 HD
ATOM      7  N   UNK d   2       5.705  -0.092  -9.566  0.00  0.00    -0.290 N 
ATOM      8  C   UNK d   2       6.413  -1.335  -9.923  0.00  0.00     0.039 C 
ATOM      9  C   UNK d   2       6.188  -1.551 -11.413  0.00  0.00     0.080 C 
ATOM     10  C   UNK d   2       4.957  -0.714 -11.766  0.00  0.00    -0.004 C 
ATOM     11  C   UNK d   2       5.109   0.481 -10.790  0.00  0.00     0.068 C 
ATOM     12  H   UNK d   2       5.773   1.233 -11.216  0.00  0.00     0.056 H 
ATOM     13  S   UNK d   2       5.948  -3.312 -11.826  0.00  0.00    -0.141 SA
ATOM     14  C   UNK d   2       6.815  -3.461 -13.439  0.00  0.00     0.004 C 
ATOM     15  C   UNK d   2       8.109  -2.620 -13.286  0.00  0.00     0.004 C 
ATOM     16  S   UNK d   2       7.638  -1.083 -12.408  0.00  0.00    -0.141 SA
ATOM     17  H   UNK d   2       7.479  -1.231  -9.717  0.00  0.00     0.049 H 
ATOM     18  H   UNK d   2       6.005  -2.174  -9.358  0.00  0.00     0.049 H 
ATOM     19  H   UNK d   2       4.994  -0.382 -12.803  0.00  0.00     0.031 H 
ATOM     20  H   UNK d   2       4.038  -1.265 -11.565  0.00  0.00     0.031 H 
ATOM     21  H   UNK d   2       7.064  -4.504 -13.641  0.00  0.00     0.038 H 
ATOM     22  H   UNK d   2       6.195  -3.058 -14.240  0.00  0.00     0.038 H 
ATOM     23  H   UNK d   2       8.845  -3.171 -12.702  0.00  0.00     0.038 H 
ATOM     24  H   UNK d   2       8.516  -2.378 -14.268  0.00  0.00     0.038 H 
ENDROOT
BRANCH   1  25
ATOM     25  C   UNK d   0       7.803   0.403  -5.352  0.00  0.00     0.107 C 
ATOM     26  H   UNK d   0       8.034  -0.645  -5.534  0.00  0.00     0.058 H 
BRANCH  25  27
ATOM     27  C   UNK d   0       8.989   1.253  -5.732  0.00  0.00     0.324 C 
ATOM     28  O   UNK d   0       8.982   1.870  -6.772  0.00  0.00    -0.249 OA
BRANCH  27  29
ATOM     29  O   UNK d   0      10.054   1.323  -4.918  0.00  0.00    -0.464 OA
BRANCH  29  30
ATOM     30  C   UNK d   0      10.491   2.627  -4.532  0.00  0.00     0.090 C 
ATOM     31  H   UNK d   0       9.805   3.373  -4.929  0.00  0.00     0.069 H 
ATOM     32  H   UNK d   0      11.491   2.806  -4.926  0.00  0.00     0.069 H 
BRANCH  30  33
ATOM     33  C   UNK d   0      10.521   2.723  -3.005  0.00  0.00    -0.031 C 
ATOM     34  H   UNK d   0       9.783   2.041  -2.584  0.00  0.00     0.026 H 
ATOM     35  H   UNK d   0      11.514   2.453  -2.644  0.00  0.00     0.026 H 
ATOM     36  H   UNK d   0      10.289   3.744  -2.701  0.00  0.00     0.026 H 
ENDBRANCH  30  33
ENDBRANCH  29  30
ENDBRANCH  27  29
ENDBRANCH  25  27
BRANCH  25  37
ATOM     37  C   UNK d   0       7.488   0.605  -3.868  0.00  0.00    -0.023 C 
ATOM     38  H   UNK d   0       8.382   0.951  -3.350  0.00  0.00     0.029 H 
ATOM     39  H   UNK d   0       6.697   1.349  -3.763  0.00  0.00     0.029 H 
BRANCH  37  40
ATOM     40  C   UNK d   0       7.026  -0.720  -3.260  0.00  0.00    -0.026 C 
ATOM     41  H   UNK d   0       7.253  -1.535  -3.948  0.00  0.00     0.031 H 
ATOM     42  H   UNK d   0       7.545  -0.888  -2.316  0.00  0.00     0.031 H 
BRANCH  40  43
ATOM     43  C   UNK d   0       5.540  -0.669  -3.013  0.00  0.00    -0.047 A 
ATOM     44  C   UNK d   0       4.815  -1.842  -2.922  0.00  0.00    -0.059 A 
ATOM     45  C   UNK d   0       3.453  -1.796  -2.691  0.00  0.00    -0.061 A 
ATOM     46  H   UNK d   0       5.313  -2.795  -3.027  0.00  0.00     0.062 H 
ATOM     47  C   UNK d   0       2.815  -0.577  -2.561  0.00  0.00    -0.062 A 
ATOM     48  H   UNK d   0       2.886  -2.712  -2.616  0.00  0.00     0.062 H 
ATOM     49  C   UNK d   0       3.540   0.597  -2.658  0.00  0.00    -0.061 A 
ATOM     50  H   UNK d   0       1.750  -0.540  -2.384  0.00  0.00     0.062 H 
ATOM     51  C   UNK d   0       4.903   0.550  -2.884  0.00  0.00    -0.059 A 
ATOM     52  H   UNK d   0       3.041   1.550  -2.557  0.00  0.00     0.062 H 
ATOM     53  H   UNK d   0       5.468   1.466  -2.960  0.00  0.00     0.062 H 
ENDBRANCH  40  43
ENDBRANCH  37  40
ENDBRANCH  25  37
ENDBRANCH   1  25
BRANCH   2  54
ATOM     54  CB  ALA d   1       5.464  -1.310  -6.569  0.00  0.00    -0.041 C 
ATOM     55  HB1 ALA d   1       4.417  -1.097  -6.782  0.00  0.00     0.025 H 
ATOM     56  HB2 ALA d   1       5.734  -2.275  -6.999  0.00  0.00     0.025 H 
ATOM     57  HB3 ALA d   1       5.616  -1.338  -5.489  0.00  0.00     0.025 H 
ENDBRANCH   2  54
BRANCH  11  58
ATOM     58  C   UNK d   2       3.762   1.084 -10.484  0.00  0.00     0.062 C 
ATOM     59  O   UNK d   2       3.621   2.294 -10.488  0.00  0.00    -0.548 OA
ATOM     60  O   UNK d   2       2.814   0.360 -10.234  0.00  0.00    -0.548 OA
ENDBRANCH  11  58
TORSDOF 12
ENDMDL
MODEL 7
REMARK VINA RESULT:      -5.9      4.038      5.588
REMARK  10 active torsions:
REMARK  status: ('A' for Active; 'I' for Inactive)
REMARK    1  A    between atoms: C_1  and  C_2 
REMARK    2  A    between atoms: C_2  and  O_3 
REMARK    3  A    between atoms: O_3  and  C_4 
REMARK    4  A    between atoms: C_4  and  C_6 
REMARK    5  A    between atoms: C_6  and  C_8 
REMARK    6  A    between atoms: C_6  and  N_16 
REMARK    7  A    between atoms: C_8  and  C_9 
REMARK    8  A    between atoms: C_9  and  C_10 
REMARK       I    between atoms: N_16  and  CA_17 
REMARK    9  A    between atoms: CA_17  and  CB_19 
REMARK       I    between atoms: CA_17  and  C_20 
REMARK       I    between atoms: C_20  and  N_22 
REMARK   10  A    between atoms: C_26  and  C_28 
ROOT
ATOM      1  N   ALA d   1       5.007  -2.287  -6.829  0.00  0.00    -0.294 N 
ATOM      2  CA  ALA d   1       6.383  -1.825  -6.605  0.00  0.00     0.083 C 
ATOM      3  HA  ALA d   1       6.563  -1.726  -5.535  0.00  0.00     0.055 H 
ATOM      4  C   ALA d   1       6.579  -0.489  -7.275  0.00  0.00     0.233 C 
ATOM      5  O   ALA d   1       5.916  -0.193  -8.245  0.00  0.00    -0.274 OA
ATOM      6  H   ALA d   1       4.911  -2.709  -7.741  0.00  0.00     0.123 HD
ATOM      7  N   UNK d   2       7.494   0.377  -6.794  0.00  0.00    -0.290 N 
ATOM      8  C   UNK d   2       8.426   0.115  -5.681  0.00  0.00     0.039 C 
ATOM      9  C   UNK d   2       9.302   1.353  -5.547  0.00  0.00     0.080 C 
ATOM     10  C   UNK d   2       9.192   2.079  -6.889  0.00  0.00    -0.004 C 
ATOM     11  C   UNK d   2       7.734   1.743  -7.300  0.00  0.00     0.068 C 
ATOM     12  H   UNK d   2       7.041   2.445  -6.836  0.00  0.00     0.056 H 
ATOM     13  S   UNK d   2      11.031   0.933  -5.147  0.00  0.00    -0.141 SA
ATOM     14  C   UNK d   2      11.508   2.281  -3.993  0.00  0.00     0.004 C 
ATOM     15  C   UNK d   2      10.275   2.489  -3.077  0.00  0.00     0.004 C 
ATOM     16  S   UNK d   2       8.797   2.413  -4.156  0.00  0.00    -0.141 SA
ATOM     17  H   UNK d   2       7.868  -0.050  -4.758  0.00  0.00     0.049 H 
ATOM     18  H   UNK d   2       9.041  -0.756  -5.905  0.00  0.00     0.049 H 
ATOM     19  H   UNK d   2       9.327   3.153  -6.766  0.00  0.00     0.031 H 
ATOM     20  H   UNK d   2       9.901   1.676  -7.612  0.00  0.00     0.031 H 
ATOM     21  H   UNK d   2      12.374   1.984  -3.400  0.00  0.00     0.038 H 
ATOM     22  H   UNK d   2      11.725   3.194  -4.548  0.00  0.00     0.038 H 
ATOM     23  H   UNK d   2      10.229   1.699  -2.327  0.00  0.00     0.038 H 
ATOM     24  H   UNK d   2      10.331   3.463  -2.591  0.00  0.00     0.038 H 
ENDROOT
BRANCH   1  25
ATOM     25  C   UNK d   0       4.584  -3.215  -5.772  0.00  0.00     0.107 C 
ATOM     26  H   UNK d   0       3.507  -3.138  -5.630  0.00  0.00     0.058 H 
BRANCH  25  27
ATOM     27  C   UNK d   0       4.939  -4.625  -6.172  0.00  0.00     0.324 C 
ATOM     28  O   UNK d   0       4.565  -5.065  -7.233  0.00  0.00    -0.249 OA
BRANCH  27  29
ATOM     29  O   UNK d   0       5.670  -5.392  -5.347  0.00  0.00    -0.464 OA
BRANCH  29  30
ATOM     30  C   UNK d   0       6.053  -6.681  -5.830  0.00  0.00     0.090 C 
ATOM     31  H   UNK d   0       7.061  -6.913  -5.487  0.00  0.00     0.069 H 
ATOM     32  H   UNK d   0       6.031  -6.682  -6.920  0.00  0.00     0.069 H 
BRANCH  30  33
ATOM     33  C   UNK d   0       5.079  -7.735  -5.300  0.00  0.00    -0.031 C 
ATOM     34  H   UNK d   0       4.058  -7.439  -5.540  0.00  0.00     0.026 H 
ATOM     35  H   UNK d   0       5.297  -8.697  -5.765  0.00  0.00     0.026 H 
ATOM     36  H   UNK d   0       5.189  -7.820  -4.219  0.00  0.00     0.026 H 
ENDBRANCH  30  33
ENDBRANCH  29  30
ENDBRANCH  27  29
ENDBRANCH  25  27
BRANCH  25  37
ATOM     37  C   UNK d   0       5.298  -2.861  -4.466  0.00  0.00    -0.023 C 
ATOM     38  H   UNK d   0       5.998  -3.655  -4.207  0.00  0.00     0.029 H 
ATOM     39  H   UNK d   0       5.841  -1.924  -4.592  0.00  0.00     0.029 H 
BRANCH  37  40
ATOM     40  C   UNK d   0       4.266  -2.705  -3.347  0.00  0.00    -0.026 C 
ATOM     41  H   UNK d   0       3.317  -3.139  -3.665  0.00  0.00     0.031 H 
ATOM     42  H   UNK d   0       4.618  -3.221  -2.453  0.00  0.00     0.031 H 
BRANCH  40  43
ATOM     43  C   UNK d   0       4.073  -1.243  -3.041  0.00  0.00    -0.047 A 
ATOM     44  C   UNK d   0       3.271  -0.466  -3.856  0.00  0.00    -0.059 A 
ATOM     45  C   UNK d   0       3.090   0.875  -3.573  0.00  0.00    -0.061 A 
ATOM     46  H   UNK d   0       2.782  -0.908  -4.712  0.00  0.00     0.062 H 
ATOM     47  C   UNK d   0       3.720   1.441  -2.480  0.00  0.00    -0.062 A 
ATOM     48  H   UNK d   0       2.460   1.481  -4.207  0.00  0.00     0.062 H 
ATOM     49  C   UNK d   0       4.527   0.666  -1.669  0.00  0.00    -0.061 A 
ATOM     50  H   UNK d   0       3.582   2.490  -2.261  0.00  0.00     0.062 H 
ATOM     51  C   UNK d   0       4.704  -0.676  -1.949  0.00  0.00    -0.059 A 
ATOM     52  H   UNK d   0       5.019   1.108  -0.815  0.00  0.00     0.062 H 
ATOM     53  H   UNK d   0       5.334  -1.281  -1.316  0.00  0.00     0.062 H 
ENDBRANCH  40  43
ENDBRANCH  37  40
ENDBRANCH  25  37
ENDBRANCH   1  25
BRANCH   2  54
ATOM     54  CB  ALA d   1       7.364  -2.840  -7.195  0.00  0.00    -0.041 C 
ATOM     55  HB1 ALA d   1       7.082  -3.844  -6.877  0.00  0.00     0.025 H 
ATOM     56  HB2 ALA d   1       7.337  -2.782  -8.283  0.00  0.00     0.025 H 
ATOM     57  HB3 ALA d   1       8.371  -2.618  -6.843  0.00  0.00     0.025 H 
ENDBRANCH   2  54
BRANCH  11  58
ATOM     58  C   UNK d   2       7.590   1.779  -8.800  0.00  0.00     0.062 C 
ATOM     59  O   UNK d   2       8.398   1.197  -9.503  0.00  0.00    -0.548 OA
ATOM     60  O   UNK d   2       6.666   2.390  -9.309  0.00  0.00    -0.548 OA
ENDBRANCH  11  58
TORSDOF 12
ENDMDL
MODEL 8
REMARK VINA RESULT:      -5.8      3.471      6.893
REMARK  10 active torsions:
REMARK  status: ('A' for Active; 'I' for Inactive)
REMARK    1  A    between atoms: C_1  and  C_2 
REMARK    2  A    between atoms: C_2  and  O_3 
REMARK    3  A    between atoms: O_3  and  C_4 
REMARK    4  A    between atoms: C_4  and  C_6 
REMARK    5  A    between atoms: C_6  and  C_8 
REMARK    6  A    between atoms: C_6  and  N_16 
REMARK    7  A    between atoms: C_8  and  C_9 
REMARK    8  A    between atoms: C_9  and  C_10 
REMARK       I    between atoms: N_16  and  CA_17 
REMARK    9  A    between atoms: CA_17  and  CB_19 
REMARK       I    between atoms: CA_17  and  C_20 
REMARK       I    between atoms: C_20  and  N_22 
REMARK   10  A    between atoms: C_26  and  C_28 
ROOT
ATOM      1  N   ALA d   1       5.450   0.228  -5.548  0.00  0.00    -0.294 N 
ATOM      2  CA  ALA d   1       6.562  -0.374  -6.297  0.00  0.00     0.083 C 
ATOM      3  HA  ALA d   1       6.512  -1.459  -6.211  0.00  0.00     0.055 H 
ATOM      4  C   ALA d   1       7.871   0.116  -5.731  0.00  0.00     0.233 C 
ATOM      5  O   ALA d   1       7.929   1.197  -5.184  0.00  0.00    -0.274 OA
ATOM      6  H   ALA d   1       5.261   1.165  -5.872  0.00  0.00     0.123 HD
ATOM      7  N   UNK d   2       8.976  -0.648  -5.835  0.00  0.00    -0.290 N 
ATOM      8  C   UNK d   2       9.069  -1.936  -6.547  0.00  0.00     0.039 C 
ATOM      9  C   UNK d   2      10.520  -2.385  -6.446  0.00  0.00     0.080 C 
ATOM     10  C   UNK d   2      11.318  -1.121  -6.121  0.00  0.00    -0.004 C 
ATOM     11  C   UNK d   2      10.299  -0.329  -5.260  0.00  0.00     0.068 C 
ATOM     12  H   UNK d   2      10.348  -0.657  -4.222  0.00  0.00     0.056 H 
ATOM     13  S   UNK d   2      11.105  -3.175  -7.983  0.00  0.00    -0.141 SA
ATOM     14  C   UNK d   2      12.191  -4.515  -7.349  0.00  0.00     0.004 C 
ATOM     15  C   UNK d   2      11.441  -5.103  -6.126  0.00  0.00     0.004 C 
ATOM     16  S   UNK d   2      10.759  -3.682  -5.192  0.00  0.00    -0.141 SA
ATOM     17  H   UNK d   2       8.416  -2.672  -6.076  0.00  0.00     0.049 H 
ATOM     18  H   UNK d   2       8.790  -1.806  -7.593  0.00  0.00     0.049 H 
ATOM     19  H   UNK d   2      12.214  -1.359  -5.548  0.00  0.00     0.031 H 
ATOM     20  H   UNK d   2      11.569  -0.571  -7.028  0.00  0.00     0.031 H 
ATOM     21  H   UNK d   2      12.330  -5.283  -8.111  0.00  0.00     0.038 H 
ATOM     22  H   UNK d   2      13.155  -4.108  -7.041  0.00  0.00     0.038 H 
ATOM     23  H   UNK d   2      10.632  -5.752  -6.460  0.00  0.00     0.038 H 
ATOM     24  H   UNK d   2      12.133  -5.663  -5.497  0.00  0.00     0.038 H 
ENDROOT
BRANCH   1  25
ATOM     25  C   UNK d   0       4.247  -0.610  -5.629  0.00  0.00     0.107 C 
ATOM     26  H   UNK d   0       4.349  -1.316  -6.452  0.00  0.00     0.058 H 
BRANCH  25  27
ATOM     27  C   UNK d   0       4.076  -1.368  -4.337  0.00  0.00     0.324 C 
ATOM     28  O   UNK d   0       4.468  -2.507  -4.247  0.00  0.00    -0.249 OA
BRANCH  27  29
ATOM     29  O   UNK d   0       3.485  -0.778  -3.285  0.00  0.00    -0.464 OA
BRANCH  29  30
ATOM     30  C   UNK d   0       4.260  -0.652  -2.091  0.00  0.00     0.090 C 
ATOM     31  H   UNK d   0       5.218  -1.154  -2.225  0.00  0.00     0.069 H 
ATOM     32  H   UNK d   0       3.723  -1.111  -1.261  0.00  0.00     0.069 H 
BRANCH  30  33
ATOM     33  C   UNK d   0       4.497   0.828  -1.790  0.00  0.00    -0.031 C 
ATOM     34  H   UNK d   0       5.569   1.025  -1.755  0.00  0.00     0.026 H 
ATOM     35  H   UNK d   0       4.041   1.436  -2.572  0.00  0.00     0.026 H 
ATOM     36  H   UNK d   0       4.050   1.079  -0.828  0.00  0.00     0.026 H 
ENDBRANCH  30  33
ENDBRANCH  29  30
ENDBRANCH  27  29
ENDBRANCH  25  27
BRANCH  25  37
ATOM     37  C   UNK d   0       3.022   0.276  -5.866  0.00  0.00    -0.023 C 
ATOM     38  H   UNK d   0       2.346   0.197  -5.014  0.00  0.00     0.029 H 
ATOM     39  H   UNK d   0       3.341   1.312  -5.981  0.00  0.00     0.029 H 
BRANCH  37  40
ATOM     40  C   UNK d   0       2.300  -0.181  -7.135  0.00  0.00    -0.026 C 
ATOM     41  H   UNK d   0       2.448  -1.252  -7.272  0.00  0.00     0.031 H 
ATOM     42  H   UNK d   0       1.234   0.029  -7.042  0.00  0.00     0.031 H 
BRANCH  40  43
ATOM     43  C   UNK d   0       2.857   0.560  -8.323  0.00  0.00    -0.047 A 
ATOM     44  C   UNK d   0       3.153   1.907  -8.221  0.00  0.00    -0.059 A 
ATOM     45  C   UNK d   0       3.668   2.585  -9.310  0.00  0.00    -0.061 A 
ATOM     46  H   UNK d   0       2.985   2.427  -7.290  0.00  0.00     0.062 H 
ATOM     47  C   UNK d   0       3.878   1.920 -10.503  0.00  0.00    -0.062 A 
ATOM     48  H   UNK d   0       3.903   3.636  -9.229  0.00  0.00     0.062 H 
ATOM     49  C   UNK d   0       3.577   0.574 -10.606  0.00  0.00    -0.061 A 
ATOM     50  H   UNK d   0       4.277   2.451 -11.354  0.00  0.00     0.062 H 
ATOM     51  C   UNK d   0       3.066  -0.105  -9.516  0.00  0.00    -0.059 A 
ATOM     52  H   UNK d   0       3.742   0.054 -11.539  0.00  0.00     0.062 H 
ATOM     53  H   UNK d   0       2.831  -1.156  -9.597  0.00  0.00     0.062 H 
ENDBRANCH  40  43
ENDBRANCH  37  40
ENDBRANCH  25  37
ENDBRANCH   1  25
BRANCH   2  54
ATOM     54  CB  ALA d   1       6.461   0.027  -7.769  0.00  0.00    -0.041 C 
ATOM     55  HB1 ALA d   1       7.438  -0.075  -8.241  0.00  0.00     0.025 H 
ATOM     56  HB2 ALA d   1       5.744  -0.620  -8.275  0.00  0.00     0.025 H 
ATOM     57  HB3 ALA d   1       6.130   1.064  -7.841  0.00  0.00     0.025 H 
ENDBRANCH   2  54
BRANCH  11  58
ATOM     58  C   UNK d   2      10.569   1.151  -5.356  0.00  0.00     0.062 C 
ATOM     59  O   UNK d   2      10.710   1.674  -6.448  0.00  0.00    -0.548 OA
ATOM     60  O   UNK d   2      10.646   1.823  -4.342  0.00  0.00    -0.548 OA
ENDBRANCH  11  58
TORSDOF 12
ENDMDL
MODEL 9
REMARK VINA RESULT:      -5.8      3.211      7.344
REMARK  10 active torsions:
REMARK  status: ('A' for Active; 'I' for Inactive)
REMARK    1  A    between atoms: C_1  and  C_2 
REMARK    2  A    between atoms: C_2  and  O_3 
REMARK    3  A    between atoms: O_3  and  C_4 
REMARK    4  A    between atoms: C_4  and  C_6 
REMARK    5  A    between atoms: C_6  and  C_8 
REMARK    6  A    between atoms: C_6  and  N_16 
REMARK    7  A    between atoms: C_8  and  C_9 
REMARK    8  A    between atoms: C_9  and  C_10 
REMARK       I    between atoms: N_16  and  CA_17 
REMARK    9  A    between atoms: CA_17  and  CB_19 
REMARK       I    between atoms: CA_17  and  C_20 
REMARK       I    between atoms: C_20  and  N_22 
REMARK   10  A    between atoms: C_26  and  C_28 
ROOT
ATOM      1  N   ALA d   1       4.871   0.049  -6.351  0.00  0.00    -0.294 N 
ATOM      2  CA  ALA d   1       5.740  -1.123  -6.512  0.00  0.00     0.083 C 
ATOM      3  HA  ALA d   1       5.467  -1.881  -5.779  0.00  0.00     0.055 H 
ATOM      4  C   ALA d   1       7.177  -0.715  -6.303  0.00  0.00     0.233 C 
ATOM      5  O   ALA d   1       7.524   0.423  -6.536  0.00  0.00    -0.274 OA
ATOM      6  H   ALA d   1       4.854   0.606  -7.192  0.00  0.00     0.123 HD
ATOM      7  N   UNK d   2       8.074  -1.617  -5.858  0.00  0.00    -0.290 N 
ATOM      8  C   UNK d   2       7.811  -3.048  -5.620  0.00  0.00     0.039 C 
ATOM      9  C   UNK d   2       9.134  -3.668  -5.190  0.00  0.00     0.080 C 
ATOM     10  C   UNK d   2      10.215  -2.699  -5.672  0.00  0.00    -0.004 C 
ATOM     11  C   UNK d   2       9.488  -1.335  -5.535  0.00  0.00     0.068 C 
ATOM     12  H   UNK d   2       9.575  -0.964  -4.515  0.00  0.00     0.056 H 
ATOM     13  S   UNK d   2       9.368  -5.340  -5.881  0.00  0.00    -0.141 SA
ATOM     14  C   UNK d   2      10.201  -6.224  -4.502  0.00  0.00     0.004 C 
ATOM     15  C   UNK d   2       9.476  -5.748  -3.216  0.00  0.00     0.004 C 
ATOM     16  S   UNK d   2       9.219  -3.943  -3.393  0.00  0.00    -0.141 SA
ATOM     17  H   UNK d   2       7.069  -3.165  -4.829  0.00  0.00     0.049 H 
ATOM     18  H   UNK d   2       7.457  -3.521  -6.536  0.00  0.00     0.049 H 
ATOM     19  H   UNK d   2      11.094  -2.741  -5.030  0.00  0.00     0.031 H 
ATOM     20  H   UNK d   2      10.481  -2.894  -6.711  0.00  0.00     0.031 H 
ATOM     21  H   UNK d   2      10.090  -7.302  -4.621  0.00  0.00     0.038 H 
ATOM     22  H   UNK d   2      11.256  -5.954  -4.462  0.00  0.00     0.038 H 
ATOM     23  H   UNK d   2       8.515  -6.253  -3.121  0.00  0.00     0.038 H 
ATOM     24  H   UNK d   2      10.094  -5.952  -2.342  0.00  0.00     0.038 H 
ENDROOT
BRANCH   1  25
ATOM     25  C   UNK d   0       3.514  -0.352  -5.958  0.00  0.00     0.107 C 
ATOM     26  H   UNK d   0       3.414  -1.433  -6.048  0.00  0.00     0.058 H 
BRANCH  25  27
ATOM     27  C   UNK d   0       3.261   0.060  -4.531  0.00  0.00     0.324 C 
ATOM     28  O   UNK d   0       2.359  -0.447  -3.906  0.00  0.00    -0.249 OA
BRANCH  27  29
ATOM     29  O   UNK d   0       4.037   0.991  -3.953  0.00  0.00    -0.464 OA
BRANCH  29  30
ATOM     30  C   UNK d   0       4.995   0.536  -2.997  0.00  0.00     0.090 C 
ATOM     31  H   UNK d   0       5.969   0.970  -3.223  0.00  0.00     0.069 H 
ATOM     32  H   UNK d   0       5.063  -0.551  -3.041  0.00  0.00     0.069 H 
BRANCH  30  33
ATOM     33  C   UNK d   0       4.560   0.964  -1.594  0.00  0.00    -0.031 C 
ATOM     34  H   UNK d   0       3.527   1.308  -1.624  0.00  0.00     0.026 H 
ATOM     35  H   UNK d   0       4.641   0.115  -0.915  0.00  0.00     0.026 H 
ATOM     36  H   UNK d   0       5.203   1.772  -1.245  0.00  0.00     0.026 H 
ENDBRANCH  30  33
ENDBRANCH  29  30
ENDBRANCH  27  29
ENDBRANCH  25  27
BRANCH  25  37
ATOM     37  C   UNK d   0       2.494   0.331  -6.873  0.00  0.00    -0.023 C 
ATOM     38  H   UNK d   0       1.933  -0.426  -7.420  0.00  0.00     0.029 H 
ATOM     39  H   UNK d   0       1.808   0.927  -6.270  0.00  0.00     0.029 H 
BRANCH  37  40
ATOM     40  C   UNK d   0       3.226   1.239  -7.863  0.00  0.00    -0.026 C 
ATOM     41  H   UNK d   0       2.765   2.228  -7.858  0.00  0.00     0.031 H 
ATOM     42  H   UNK d   0       4.273   1.326  -7.571  0.00  0.00     0.031 H 
BRANCH  40  43
ATOM     43  C   UNK d   0       3.137   0.650  -9.247  0.00  0.00    -0.047 A 
ATOM     44  C   UNK d   0       2.135  -0.253  -9.550  0.00  0.00    -0.059 A 
ATOM     45  C   UNK d   0       2.050  -0.791 -10.821  0.00  0.00    -0.061 A 
ATOM     46  H   UNK d   0       1.416  -0.535  -8.795  0.00  0.00     0.062 H 
ATOM     47  C   UNK d   0       2.973  -0.433 -11.785  0.00  0.00    -0.062 A 
ATOM     48  H   UNK d   0       1.265  -1.493 -11.059  0.00  0.00     0.062 H 
ATOM     49  C   UNK d   0       3.979   0.465 -11.480  0.00  0.00    -0.061 A 
ATOM     50  H   UNK d   0       2.909  -0.856 -12.777  0.00  0.00     0.062 H 
ATOM     51  C   UNK d   0       4.061   1.007 -10.211  0.00  0.00    -0.059 A 
ATOM     52  H   UNK d   0       4.700   0.745 -12.234  0.00  0.00     0.062 H 
ATOM     53  H   UNK d   0       4.846   1.708  -9.973  0.00  0.00     0.062 H 
ENDBRANCH  40  43
ENDBRANCH  37  40
ENDBRANCH  25  37
ENDBRANCH   1  25
BRANCH   2  54
ATOM     54  CB  ALA d   1       5.572  -1.692  -7.922  0.00  0.00    -0.041 C 
ATOM     55  HB1 ALA d   1       5.861  -2.743  -7.925  0.00  0.00     0.025 H 
ATOM     56  HB2 ALA d   1       4.531  -1.601  -8.230  0.00  0.00     0.025 H 
ATOM     57  HB3 ALA d   1       6.207  -1.139  -8.615  0.00  0.00     0.025 H 
ENDBRANCH   2  54
BRANCH  11  58
ATOM     58  C   UNK d   2      10.059  -0.336  -6.509  0.00  0.00     0.062 C 
ATOM     59  O   UNK d   2      10.206  -0.643  -7.679  0.00  0.00    -0.548 OA
ATOM     60  O   UNK d   2      10.373   0.777  -6.125  0.00  0.00    -0.548 OA
ENDBRANCH  11  58
TORSDOF 12
ENDMDL
MODEL 10
REMARK VINA RESULT:      -5.7      1.473      2.053
REMARK  10 active torsions:
REMARK  status: ('A' for Active; 'I' for Inactive)
REMARK    1  A    between atoms: C_1  and  C_2 
REMARK    2  A    between atoms: C_2  and  O_3 
REMARK    3  A    between atoms: O_3  and  C_4 
REMARK    4  A    between atoms: C_4  and  C_6 
REMARK    5  A    between atoms: C_6  and  C_8 
REMARK    6  A    between atoms: C_6  and  N_16 
REMARK    7  A    between atoms: C_8  and  C_9 
REMARK    8  A    between atoms: C_9  and  C_10 
REMARK       I    between atoms: N_16  and  CA_17 
REMARK    9  A    between atoms: CA_17  and  CB_19 
REMARK       I    between atoms: CA_17  and  C_20 
REMARK       I    between atoms: C_20  and  N_22 
REMARK   10  A    between atoms: C_26  and  C_28 
ROOT
ATOM      1  N   ALA d   1       6.446  -0.718  -6.115  0.00  0.00    -0.294 N 
ATOM      2  CA  ALA d   1       5.707  -1.215  -7.282  0.00  0.00     0.083 C 
ATOM      3  HA  ALA d   1       6.354  -1.862  -7.874  0.00  0.00     0.055 H 
ATOM      4  C   ALA d   1       5.257  -0.048  -8.125  0.00  0.00     0.233 C 
ATOM      5  O   ALA d   1       5.064   1.033  -7.611  0.00  0.00    -0.274 OA
ATOM      6  H   ALA d   1       5.815  -0.414  -5.389  0.00  0.00     0.123 HD
ATOM      7  N   UNK d   2       5.068  -0.209  -9.450  0.00  0.00    -0.290 N 
ATOM      8  C   UNK d   2       5.180  -1.480 -10.188  0.00  0.00     0.039 C 
ATOM      9  C   UNK d   2       4.818  -1.177 -11.635  0.00  0.00     0.080 C 
ATOM     10  C   UNK d   2       4.029   0.134 -11.593  0.00  0.00    -0.004 C 
ATOM     11  C   UNK d   2       4.709   0.861 -10.403  0.00  0.00     0.068 C 
ATOM     12  H   UNK d   2       5.603   1.382 -10.742  0.00  0.00     0.056 H 
ATOM     13  S   UNK d   2       3.850  -2.522 -12.400  0.00  0.00    -0.141 SA
ATOM     14  C   UNK d   2       4.501  -2.548 -14.118  0.00  0.00     0.004 C 
ATOM     15  C   UNK d   2       6.033  -2.351 -13.977  0.00  0.00     0.004 C 
ATOM     16  S   UNK d   2       6.283  -1.054 -12.707  0.00  0.00    -0.141 SA
ATOM     17  H   UNK d   2       6.202  -1.857 -10.130  0.00  0.00     0.049 H 
ATOM     18  H   UNK d   2       4.488  -2.215  -9.775  0.00  0.00     0.049 H 
ATOM     19  H   UNK d   2       4.152   0.696 -12.518  0.00  0.00     0.031 H 
ATOM     20  H   UNK d   2       2.975  -0.049 -11.384  0.00  0.00     0.031 H 
ATOM     21  H   UNK d   2       4.286  -3.508 -14.590  0.00  0.00     0.038 H 
ATOM     22  H   UNK d   2       4.068  -1.734 -14.700  0.00  0.00     0.038 H 
ATOM     23  H   UNK d   2       6.501  -3.282 -13.656  0.00  0.00     0.038 H 
ATOM     24  H   UNK d   2       6.457  -2.028 -14.927  0.00  0.00     0.038 H 
ENDROOT
BRANCH   1  25
ATOM     25  C   UNK d   0       7.377  -1.736  -5.610  0.00  0.00     0.107 C 
ATOM     26  H   UNK d   0       7.026  -2.726  -5.899  0.00  0.00     0.058 H 
BRANCH  25  27
ATOM     27  C   UNK d   0       8.746  -1.497  -6.193  0.00  0.00     0.324 C 
ATOM     28  O   UNK d   0       9.474  -0.664  -5.707  0.00  0.00    -0.249 OA
BRANCH  27  29
ATOM     29  O   UNK d   0       9.157  -2.209  -7.255  0.00  0.00    -0.464 OA
BRANCH  29  30
ATOM     30  C   UNK d   0       8.686  -3.554  -7.357  0.00  0.00     0.090 C 
ATOM     31  H   UNK d   0       7.963  -3.747  -6.565  0.00  0.00     0.069 H 
ATOM     32  H   UNK d   0       9.526  -4.241  -7.257  0.00  0.00     0.069 H 
BRANCH  30  33
ATOM     33  C   UNK d   0       8.019  -3.759  -8.717  0.00  0.00    -0.031 C 
ATOM     34  H   UNK d   0       7.471  -2.858  -8.993  0.00  0.00     0.026 H 
ATOM     35  H   UNK d   0       8.782  -3.964  -9.469  0.00  0.00     0.026 H 
ATOM     36  H   UNK d   0       7.329  -4.601  -8.660  0.00  0.00     0.026 H 
ENDBRANCH  30  33
ENDBRANCH  29  30
ENDBRANCH  27  29
ENDBRANCH  25  27
BRANCH  25  37
ATOM     37  C   UNK d   0       7.452  -1.648  -4.084  0.00  0.00    -0.023 C 
ATOM     38  H   UNK d   0       8.335  -2.180  -3.732  0.00  0.00     0.029 H 
ATOM     39  H   UNK d   0       7.515  -0.601  -3.784  0.00  0.00     0.029 H 
BRANCH  37  40
ATOM     40  C   UNK d   0       6.198  -2.278  -3.475  0.00  0.00    -0.026 C 
ATOM     41  H   UNK d   0       5.728  -2.935  -4.208  0.00  0.00     0.031 H 
ATOM     42  H   UNK d   0       6.475  -2.858  -2.594  0.00  0.00     0.031 H 
BRANCH  40  43
ATOM     43  C   UNK d   0       5.231  -1.193  -3.078  0.00  0.00    -0.047 A 
ATOM     44  C   UNK d   0       3.871  -1.434  -3.113  0.00  0.00    -0.059 A 
ATOM     45  C   UNK d   0       2.983  -0.440  -2.745  0.00  0.00    -0.061 A 
ATOM     46  H   UNK d   0       3.501  -2.400  -3.424  0.00  0.00     0.062 H 
ATOM     47  C   UNK d   0       3.456   0.798  -2.351  0.00  0.00    -0.062 A 
ATOM     48  H   UNK d   0       1.920  -0.629  -2.768  0.00  0.00     0.062 H 
ATOM     49  C   UNK d   0       4.817   1.041  -2.322  0.00  0.00    -0.061 A 
ATOM     50  H   UNK d   0       2.763   1.576  -2.067  0.00  0.00     0.062 H 
ATOM     51  C   UNK d   0       5.705   0.045  -2.686  0.00  0.00    -0.059 A 
ATOM     52  H   UNK d   0       5.187   2.008  -2.015  0.00  0.00     0.062 H 
ATOM     53  H   UNK d   0       6.767   0.234  -2.663  0.00  0.00     0.062 H 
ENDBRANCH  40  43
ENDBRANCH  37  40
ENDBRANCH  25  37
ENDBRANCH   1  25
BRANCH   2  54
ATOM     54  CB  ALA d   1       4.484  -2.006  -6.813  0.00  0.00    -0.041 C 
ATOM     55  HB1 ALA d   1       4.062  -1.530  -5.928  0.00  0.00     0.025 H 
ATOM     56  HB2 ALA d   1       3.737  -2.026  -7.606  0.00  0.00     0.025 H 
ATOM     57  HB3 ALA d   1       4.784  -3.025  -6.569  0.00  0.00     0.025 H 
ENDBRANCH   2  54
BRANCH  11  58
ATOM     58  C   UNK d   2       3.748   1.831  -9.763  0.00  0.00     0.062 C 
ATOM     59  O   UNK d   2       4.106   2.969  -9.514  0.00  0.00    -0.548 OA
ATOM     60  O   UNK d   2       2.613   1.476  -9.495  0.00  0.00    -0.548 OA
ENDBRANCH  11  58
TORSDOF 12
ENDMDL
