MODEL 1
REMARK VINA RESULT:      -5.9      0.000      0.000
REMARK  9 active torsions:
REMARK  status: ('A' for Active; 'I' for Inactive)
REMARK    1  A    between atoms: C_1  and  O_2 
REMARK    2  A    between atoms: O_2  and  C_3 
REMARK    3  A    between atoms: C_3  and  C_4 
REMARK    4  A    between atoms: C_4  and  O_5 
REMARK    5  A    between atoms: O_5  and  C_6 
REMARK    6  A    between atoms: C_7  and  C_12 
REMARK    7  A    between atoms: C_14  and  C_17 
REMARK    8  A    between atoms: N_22  and  C_23 
REMARK    9  A    between atoms: C_23  and  C_24 
ROOT
ATOM      1  C   LIG d   1       3.064  -0.378  -8.484  0.00  0.00     0.207 A 
ATOM      2  N   LIG d   1       3.745  -1.178  -7.644  0.00  0.00    -0.186 NA
ATOM      3  C   LIG d   1       3.937  -0.571  -6.508  0.00  0.00     0.276 A 
ATOM      4  O   LIG d   1       3.384   0.648  -6.578  0.00  0.00    -0.332 OA
ATOM      5  N   LIG d   1       2.823   0.758  -7.878  0.00  0.00    -0.056 NA
ENDROOT
BRANCH   3   6
ATOM      6  C   LIG d   1       4.660  -1.141  -5.315  0.00  0.00     0.059 C 
ATOM      7  H   LIG d   1       5.217  -0.362  -4.795  0.00  0.00     0.095 H 
ATOM      8  N   LIG d   1       3.706  -1.808  -4.393  0.00  0.00     0.244 N 
ATOM      9  C   LIG d   1       4.512  -2.769  -3.606  0.00  0.00    -0.031 C 
ATOM     10  H   LIG d   1       2.998  -2.300  -4.920  0.00  0.00     0.204 HD
ATOM     11  C   LIG d   1       5.747  -3.126  -4.454  0.00  0.00    -0.007 C 
ATOM     12  H   LIG d   1       3.928  -3.667  -3.404  0.00  0.00     0.082 H 
ATOM     13  H   LIG d   1       4.826  -2.308  -2.670  0.00  0.00     0.082 H 
ATOM     14  C   LIG d   1       5.603  -2.292  -5.748  0.00  0.00     0.004 C 
ATOM     15  H   LIG d   1       5.750  -4.191  -4.689  0.00  0.00     0.032 H 
ATOM     16  H   LIG d   1       6.660  -2.852  -3.926  0.00  0.00     0.032 H 
ATOM     17  H   LIG d   1       5.149  -2.885  -6.541  0.00  0.00     0.033 H 
ATOM     18  H   LIG d   1       6.571  -1.900  -6.063  0.00  0.00     0.033 H 
BRANCH   8  19
ATOM     19  C   LIG d   1       3.083  -0.817  -3.505  0.00  0.00    -0.028 C 
ATOM     20  H   LIG d   1       2.232  -0.360  -4.012  0.00  0.00     0.082 H 
ATOM     21  H   LIG d   1       2.743  -1.308  -2.594  0.00  0.00     0.082 H 
BRANCH  19  22
ATOM     22  C   LIG d   1       4.106   0.264  -3.152  0.00  0.00    -0.001 A 
ATOM     23  C   LIG d   1       3.616   1.460  -2.333  0.00  0.00    -0.045 A 
ATOM     24  C   LIG d   1       4.508   0.402  -1.682  0.00  0.00    -0.045 A 
ATOM     25  H   LIG d   1       4.060   2.432  -2.546  0.00  0.00     0.027 H 
ATOM     26  H   LIG d   1       2.564   1.477  -2.047  0.00  0.00     0.027 H 
ATOM     27  H   LIG d   1       4.044  -0.278  -0.967  0.00  0.00     0.027 H 
ATOM     28  H   LIG d   1       5.541   0.678  -1.466  0.00  0.00     0.027 H 
ATOM     29  H   LIG d   1       4.873   0.450  -3.903  0.00  0.00     0.035 H 
ENDBRANCH  19  22
ENDBRANCH   8  19
ENDBRANCH   3   6
BRANCH   1  30
ATOM     30  C   LIG d   1       2.659  -0.722  -9.868  0.00  0.00     0.084 A 
ATOM     31  C   LIG d   1       3.428  -0.305 -10.960  0.00  0.00     0.226 A 
ATOM     32  N   LIG d   1       3.063  -0.609 -12.193  0.00  0.00    -0.221 NA
ATOM     33  C   LIG d   1       1.977  -1.317 -12.442  0.00  0.00     0.031 A 
ATOM     34  C   LIG d   1       1.166  -1.764 -11.416  0.00  0.00    -0.043 A 
ATOM     35  H   LIG d   1       1.716  -1.548 -13.464  0.00  0.00     0.083 H 
ATOM     36  C   LIG d   1       1.502  -1.467 -10.105  0.00  0.00    -0.044 A 
ATOM     37  H   LIG d   1       0.278  -2.339 -11.635  0.00  0.00     0.063 H 
ATOM     38  H   LIG d   1       0.885  -1.806  -9.285  0.00  0.00     0.063 H 
BRANCH  31  39
ATOM     39  O   LIG d   1       4.555   0.419 -10.752  0.00  0.00    -0.474 OA
BRANCH  39  40
ATOM     40  C   LIG d   1       5.802  -0.250 -10.942  0.00  0.00     0.115 C 
ATOM     41  H   LIG d   1       6.363   0.244 -11.735  0.00  0.00     0.072 H 
ATOM     42  H   LIG d   1       5.618  -1.289 -11.221  0.00  0.00     0.072 H 
BRANCH  40  43
ATOM     43  C   LIG d   1       6.609  -0.207  -9.643  0.00  0.00     0.081 C 
ATOM     44  H   LIG d   1       7.672  -0.159  -9.878  0.00  0.00     0.059 H 
ATOM     45  H   LIG d   1       6.406  -1.105  -9.059  0.00  0.00     0.059 H 
BRANCH  43  46
ATOM     46  O   LIG d   1       6.235   0.947  -8.888  0.00  0.00    -0.380 OA
BRANCH  46  47
ATOM     47  C   LIG d   1       7.233   1.970  -8.857  0.00  0.00     0.037 C 
ATOM     48  H   LIG d   1       7.186   2.551  -9.778  0.00  0.00     0.052 H 
ATOM     49  H   LIG d   1       7.054   2.625  -8.005  0.00  0.00     0.052 H 
ATOM     50  H   LIG d   1       8.218   1.513  -8.765  0.00  0.00     0.052 H 
ENDBRANCH  46  47
ENDBRANCH  43  46
ENDBRANCH  40  43
ENDBRANCH  39  40
ENDBRANCH  31  39
ENDBRANCH   1  30
TORSDOF 9
ENDMDL
MODEL 2
REMARK VINA RESULT:      -5.8      1.295      2.588
REMARK  9 active torsions:
REMARK  status: ('A' for Active; 'I' for Inactive)
REMARK    1  A    between atoms: C_1  and  O_2 
REMARK    2  A    between atoms: O_2  and  C_3 
REMARK    3  A    between atoms: C_3  and  C_4 
REMARK    4  A    between atoms: C_4  and  O_5 
REMARK    5  A    between atoms: O_5  and  C_6 
REMARK    6  A    between atoms: C_7  and  C_12 
REMARK    7  A    between atoms: C_14  and  C_17 
REMARK    8  A    between atoms: N_22  and  C_23 
REMARK    9  A    between atoms: C_23  and  C_24 
ROOT
ATOM      1  C   LIG d   1       2.910   0.380  -7.765  0.00  0.00     0.207 A 
ATOM      2  N   LIG d   1       3.424  -0.392  -6.790  0.00  0.00    -0.186 NA
ATOM      3  C   LIG d   1       3.409   0.251  -5.657  0.00  0.00     0.276 A 
ATOM      4  O   LIG d   1       2.883   1.465  -5.865  0.00  0.00    -0.332 OA
ATOM      5  N   LIG d   1       2.568   1.534  -7.248  0.00  0.00    -0.056 NA
ENDROOT
BRANCH   3   6
ATOM      6  C   LIG d   1       3.900  -0.282  -4.336  0.00  0.00     0.059 C 
ATOM      7  H   LIG d   1       3.781  -1.364  -4.290  0.00  0.00     0.095 H 
ATOM      8  N   LIG d   1       5.318   0.099  -4.112  0.00  0.00     0.244 N 
ATOM      9  C   LIG d   1       5.524   0.037  -2.647  0.00  0.00    -0.031 C 
ATOM     10  H   LIG d   1       5.483   1.038  -4.445  0.00  0.00     0.204 HD
ATOM     11  C   LIG d   1       4.148   0.246  -1.986  0.00  0.00    -0.007 C 
ATOM     12  H   LIG d   1       6.209   0.824  -2.333  0.00  0.00     0.082 H 
ATOM     13  H   LIG d   1       5.923  -0.939  -2.371  0.00  0.00     0.082 H 
ATOM     14  C   LIG d   1       3.156   0.400  -3.161  0.00  0.00     0.004 C 
ATOM     15  H   LIG d   1       4.155   1.148  -1.374  0.00  0.00     0.032 H 
ATOM     16  H   LIG d   1       3.885  -0.621  -1.380  0.00  0.00     0.032 H 
ATOM     17  H   LIG d   1       2.975   1.453  -3.378  0.00  0.00     0.033 H 
ATOM     18  H   LIG d   1       2.220  -0.115  -2.945  0.00  0.00     0.033 H 
BRANCH   8  19
ATOM     19  C   LIG d   1       6.211  -0.848  -4.793  0.00  0.00    -0.028 C 
ATOM     20  H   LIG d   1       5.828  -1.052  -5.794  0.00  0.00     0.082 H 
ATOM     21  H   LIG d   1       7.209  -0.417  -4.867  0.00  0.00     0.082 H 
BRANCH  19  22
ATOM     22  C   LIG d   1       6.275  -2.152  -3.996  0.00  0.00    -0.001 A 
ATOM     23  C   LIG d   1       5.980  -3.453  -4.745  0.00  0.00    -0.045 A 
ATOM     24  C   LIG d   1       7.412  -3.122  -4.320  0.00  0.00    -0.045 A 
ATOM     25  H   LIG d   1       5.463  -4.242  -4.200  0.00  0.00     0.027 H 
ATOM     26  H   LIG d   1       5.740  -3.380  -5.806  0.00  0.00     0.027 H 
ATOM     27  H   LIG d   1       8.115  -2.832  -5.102  0.00  0.00     0.027 H 
ATOM     28  H   LIG d   1       7.837  -3.694  -3.495  0.00  0.00     0.027 H 
ATOM     29  H   LIG d   1       5.951  -2.085  -2.958  0.00  0.00     0.035 H 
ENDBRANCH  19  22
ENDBRANCH   8  19
ENDBRANCH   3   6
BRANCH   1  30
ATOM     30  C   LIG d   1       2.763  -0.008  -9.188  0.00  0.00     0.084 A 
ATOM     31  C   LIG d   1       3.697   0.413 -10.142  0.00  0.00     0.226 A 
ATOM     32  N   LIG d   1       3.560   0.070 -11.411  0.00  0.00    -0.221 NA
ATOM     33  C   LIG d   1       2.557  -0.681 -11.823  0.00  0.00     0.031 A 
ATOM     34  C   LIG d   1       1.595  -1.134 -10.941  0.00  0.00    -0.043 A 
ATOM     35  H   LIG d   1       2.485  -0.943 -12.869  0.00  0.00     0.083 H 
ATOM     36  C   LIG d   1       1.688  -0.798  -9.600  0.00  0.00    -0.044 A 
ATOM     37  H   LIG d   1       0.776  -1.745 -11.295  0.00  0.00     0.063 H 
ATOM     38  H   LIG d   1       0.949  -1.140  -8.891  0.00  0.00     0.063 H 
BRANCH  31  39
ATOM     39  O   LIG d   1       4.748   1.180  -9.762  0.00  0.00    -0.474 OA
BRANCH  39  40
ATOM     40  C   LIG d   1       6.050   0.607  -9.887  0.00  0.00     0.115 C 
ATOM     41  H   LIG d   1       6.743   1.357 -10.266  0.00  0.00     0.072 H 
ATOM     42  H   LIG d   1       6.011  -0.235 -10.580  0.00  0.00     0.072 H 
BRANCH  40  43
ATOM     43  C   LIG d   1       6.527   0.118  -8.518  0.00  0.00     0.081 C 
ATOM     44  H   LIG d   1       7.537  -0.281  -8.608  0.00  0.00     0.059 H 
ATOM     45  H   LIG d   1       5.858  -0.664  -8.158  0.00  0.00     0.059 H 
BRANCH  43  46
ATOM     46  O   LIG d   1       6.525   1.209  -7.595  0.00  0.00    -0.380 OA
BRANCH  46  47
ATOM     47  C   LIG d   1       7.828   1.610  -7.167  0.00  0.00     0.037 C 
ATOM     48  H   LIG d   1       7.882   2.698  -7.138  0.00  0.00     0.052 H 
ATOM     49  H   LIG d   1       8.023   1.211  -6.172  0.00  0.00     0.052 H 
ATOM     50  H   LIG d   1       8.573   1.228  -7.865  0.00  0.00     0.052 H 
ENDBRANCH  46  47
ENDBRANCH  43  46
ENDBRANCH  40  43
ENDBRANCH  39  40
ENDBRANCH  31  39
ENDBRANCH   1  30
TORSDOF 9
ENDMDL
MODEL 3
REMARK VINA RESULT:      -5.7      2.161      6.576
REMARK  9 active torsions:
REMARK  status: ('A' for Active; 'I' for Inactive)
REMARK    1  A    between atoms: C_1  and  O_2 
REMARK    2  A    between atoms: O_2  and  C_3 
REMARK    3  A    between atoms: C_3  and  C_4 
REMARK    4  A    between atoms: C_4  and  O_5 
REMARK    5  A    between atoms: O_5  and  C_6 
REMARK    6  A    between atoms: C_7  and  C_12 
REMARK    7  A    between atoms: C_14  and  C_17 
REMARK    8  A    between atoms: N_22  and  C_23 
REMARK    9  A    between atoms: C_23  and  C_24 
ROOT
ATOM      1  C   LIG d   1       3.692  -0.027  -5.619  0.00  0.00     0.207 A 
ATOM      2  N   LIG d   1       4.089  -0.628  -6.756  0.00  0.00    -0.186 NA
ATOM      3  C   LIG d   1       3.634   0.024  -7.788  0.00  0.00     0.276 A 
ATOM      4  O   LIG d   1       2.924   1.072  -7.350  0.00  0.00    -0.332 OA
ATOM      5  N   LIG d   1       2.968   1.020  -5.931  0.00  0.00    -0.056 NA
ENDROOT
BRANCH   3   6
ATOM      6  C   LIG d   1       3.866  -0.340  -9.231  0.00  0.00     0.059 C 
ATOM      7  H   LIG d   1       4.488  -1.233  -9.307  0.00  0.00     0.095 H 
ATOM      8  N   LIG d   1       2.575  -0.540  -9.937  0.00  0.00     0.244 N 
ATOM      9  C   LIG d   1       2.867  -0.338 -11.374  0.00  0.00    -0.031 C 
ATOM     10  H   LIG d   1       1.898   0.140  -9.623  0.00  0.00     0.204 HD
ATOM     11  C   LIG d   1       4.109   0.569 -11.462  0.00  0.00    -0.007 C 
ATOM     12  H   LIG d   1       2.020   0.144 -11.863  0.00  0.00     0.082 H 
ATOM     13  H   LIG d   1       3.074  -1.298 -11.847  0.00  0.00     0.082 H 
ATOM     14  C   LIG d   1       4.513   0.842  -9.996  0.00  0.00     0.004 C 
ATOM     15  H   LIG d   1       3.860   1.503 -11.967  0.00  0.00     0.032 H 
ATOM     16  H   LIG d   1       4.914   0.057 -11.988  0.00  0.00     0.032 H 
ATOM     17  H   LIG d   1       4.105   1.792  -9.653  0.00  0.00     0.033 H 
ATOM     18  H   LIG d   1       5.598   0.826  -9.886  0.00  0.00     0.033 H 
BRANCH   8  19
ATOM     19  C   LIG d   1       2.076  -1.901  -9.703  0.00  0.00    -0.028 C 
ATOM     20  H   LIG d   1       1.680  -1.974  -8.690  0.00  0.00     0.082 H 
ATOM     21  H   LIG d   1       1.285  -2.126 -10.419  0.00  0.00     0.082 H 
BRANCH  19  22
ATOM     22  C   LIG d   1       3.221  -2.901  -9.877  0.00  0.00    -0.001 A 
ATOM     23  C   LIG d   1       3.464  -3.900  -8.744  0.00  0.00    -0.045 A 
ATOM     24  C   LIG d   1       2.850  -4.373 -10.062  0.00  0.00    -0.045 A 
ATOM     25  H   LIG d   1       4.495  -4.186  -8.537  0.00  0.00     0.027 H 
ATOM     26  H   LIG d   1       2.808  -3.844  -7.874  0.00  0.00     0.027 H 
ATOM     27  H   LIG d   1       1.790  -4.631 -10.061  0.00  0.00     0.027 H 
ATOM     28  H   LIG d   1       3.478  -4.971 -10.724  0.00  0.00     0.027 H 
ATOM     29  H   LIG d   1       4.092  -2.530 -10.415  0.00  0.00     0.035 H 
ENDBRANCH  19  22
ENDBRANCH   8  19
ENDBRANCH   3   6
BRANCH   1  30
ATOM     30  C   LIG d   1       4.014  -0.477  -4.244  0.00  0.00     0.084 A 
ATOM     31  C   LIG d   1       5.084   0.089  -3.541  0.00  0.00     0.226 A 
ATOM     32  N   LIG d   1       5.372  -0.318  -2.318  0.00  0.00    -0.221 NA
ATOM     33  C   LIG d   1       4.666  -1.254  -1.712  0.00  0.00     0.031 A 
ATOM     34  C   LIG d   1       3.595  -1.860  -2.342  0.00  0.00    -0.043 A 
ATOM     35  H   LIG d   1       4.931  -1.554  -0.709  0.00  0.00     0.083 H 
ATOM     36  C   LIG d   1       3.255  -1.474  -3.628  0.00  0.00    -0.044 A 
ATOM     37  H   LIG d   1       3.029  -2.628  -1.835  0.00  0.00     0.063 H 
ATOM     38  H   LIG d   1       2.423  -1.932  -4.142  0.00  0.00     0.063 H 
BRANCH  31  39
ATOM     39  O   LIG d   1       5.832   1.059  -4.121  0.00  0.00    -0.474 OA
BRANCH  39  40
ATOM     40  C   LIG d   1       7.230   1.065  -3.825  0.00  0.00     0.115 C 
ATOM     41  H   LIG d   1       7.516   0.104  -3.400  0.00  0.00     0.072 H 
ATOM     42  H   LIG d   1       7.445   1.858  -3.107  0.00  0.00     0.072 H 
BRANCH  40  43
ATOM     43  C   LIG d   1       8.023   1.312  -5.109  0.00  0.00     0.081 C 
ATOM     44  H   LIG d   1       8.742   0.505  -5.253  0.00  0.00     0.059 H 
ATOM     45  H   LIG d   1       8.554   2.261  -5.032  0.00  0.00     0.059 H 
BRANCH  43  46
ATOM     46  O   LIG d   1       7.128   1.357  -6.222  0.00  0.00    -0.380 OA
BRANCH  46  47
ATOM     47  C   LIG d   1       7.473   0.463  -7.282  0.00  0.00     0.037 C 
ATOM     48  H   LIG d   1       8.417   0.776  -7.728  0.00  0.00     0.052 H 
ATOM     49  H   LIG d   1       7.576  -0.547  -6.887  0.00  0.00     0.052 H 
ATOM     50  H   LIG d   1       6.690   0.480  -8.040  0.00  0.00     0.052 H 
ENDBRANCH  46  47
ENDBRANCH  43  46
ENDBRANCH  40  43
ENDBRANCH  39  40
ENDBRANCH  31  39
ENDBRANCH   1  30
TORSDOF 9
ENDMDL
MODEL 4
REMARK VINA RESULT:      -5.7      4.491      7.131
REMARK  9 active torsions:
REMARK  status: ('A' for Active; 'I' for Inactive)
REMARK    1  A    between atoms: C_1  and  O_2 
REMARK    2  A    between atoms: O_2  and  C_3 
REMARK    3  A    between atoms: C_3  and  C_4 
REMARK    4  A    between atoms: C_4  and  O_5 
REMARK    5  A    between atoms: O_5  and  C_6 
REMARK    6  A    between atoms: C_7  and  C_12 
REMARK    7  A    between atoms: C_14  and  C_17 
REMARK    8  A    between atoms: N_22  and  C_23 
REMARK    9  A    between atoms: C_23  and  C_24 
ROOT
ATOM      1  C   LIG d   1       6.828   0.457  -4.167  0.00  0.00     0.207 A 
ATOM      2  N   LIG d   1       7.089   1.769  -4.317  0.00  0.00    -0.186 NA
ATOM      3  C   LIG d   1       8.308   1.936  -4.745  0.00  0.00     0.276 A 
ATOM      4  O   LIG d   1       8.878   0.732  -4.885  0.00  0.00    -0.332 OA
ATOM      5  N   LIG d   1       7.899  -0.222  -4.498  0.00  0.00    -0.056 NA
ENDROOT
BRANCH   3   6
ATOM      6  C   LIG d   1       8.966   3.260  -5.033  0.00  0.00     0.059 C 
ATOM      7  H   LIG d   1       8.275   4.082  -4.842  0.00  0.00     0.095 H 
ATOM      8  N   LIG d   1      10.203   3.418  -4.225  0.00  0.00     0.244 N 
ATOM      9  C   LIG d   1      11.029   4.414  -4.946  0.00  0.00    -0.031 C 
ATOM     10  H   LIG d   1      10.694   2.538  -4.166  0.00  0.00     0.204 HD
ATOM     11  C   LIG d   1      10.609   4.365  -6.427  0.00  0.00    -0.007 C 
ATOM     12  H   LIG d   1      12.085   4.160  -4.851  0.00  0.00     0.082 H 
ATOM     13  H   LIG d   1      10.845   5.408  -4.540  0.00  0.00     0.082 H 
ATOM     14  C   LIG d   1       9.483   3.308  -6.493  0.00  0.00     0.004 C 
ATOM     15  H   LIG d   1      11.451   4.061  -7.049  0.00  0.00     0.032 H 
ATOM     16  H   LIG d   1      10.234   5.337  -6.746  0.00  0.00     0.032 H 
ATOM     17  H   LIG d   1       9.881   2.338  -6.792  0.00  0.00     0.033 H 
ATOM     18  H   LIG d   1       8.693   3.628  -7.172  0.00  0.00     0.033 H 
BRANCH   8  19
ATOM     19  C   LIG d   1       9.871   3.908  -2.881  0.00  0.00    -0.028 C 
ATOM     20  H   LIG d   1       8.788   3.993  -2.783  0.00  0.00     0.082 H 
ATOM     21  H   LIG d   1      10.249   3.208  -2.136  0.00  0.00     0.082 H 
BRANCH  19  22
ATOM     22  C   LIG d   1      10.512   5.280  -2.665  0.00  0.00    -0.001 A 
ATOM     23  C   LIG d   1       9.584   6.448  -2.326  0.00  0.00    -0.045 A 
ATOM     24  C   LIG d   1      10.491   5.853  -1.247  0.00  0.00    -0.045 A 
ATOM     25  H   LIG d   1       9.845   7.430  -2.719  0.00  0.00     0.027 H 
ATOM     26  H   LIG d   1       8.516   6.239  -2.257  0.00  0.00     0.027 H 
ATOM     27  H   LIG d   1      10.020   5.254  -0.467  0.00  0.00     0.027 H 
ATOM     28  H   LIG d   1      11.351   6.445  -0.930  0.00  0.00     0.027 H 
ATOM     29  H   LIG d   1      11.384   5.494  -3.282  0.00  0.00     0.035 H 
ENDBRANCH  19  22
ENDBRANCH   8  19
ENDBRANCH   3   6
BRANCH   1  30
ATOM     30  C   LIG d   1       5.547  -0.122  -3.699  0.00  0.00     0.084 A 
ATOM     31  C   LIG d   1       4.464  -0.258  -4.576  0.00  0.00     0.226 A 
ATOM     32  N   LIG d   1       3.321  -0.771  -4.156  0.00  0.00    -0.221 NA
ATOM     33  C   LIG d   1       3.159  -1.179  -2.911  0.00  0.00     0.031 A 
ATOM     34  C   LIG d   1       4.181  -1.077  -1.987  0.00  0.00    -0.043 A 
ATOM     35  H   LIG d   1       2.210  -1.597  -2.609  0.00  0.00     0.083 H 
ATOM     36  C   LIG d   1       5.398  -0.541  -2.376  0.00  0.00    -0.044 A 
ATOM     37  H   LIG d   1       4.032  -1.412  -0.971  0.00  0.00     0.063 H 
ATOM     38  H   LIG d   1       6.213  -0.451  -1.673  0.00  0.00     0.063 H 
BRANCH  31  39
ATOM     39  O   LIG d   1       4.588   0.142  -5.865  0.00  0.00    -0.474 OA
BRANCH  39  40
ATOM     40  C   LIG d   1       4.012  -0.700  -6.865  0.00  0.00     0.115 C 
ATOM     41  H   LIG d   1       3.629  -1.608  -6.400  0.00  0.00     0.072 H 
ATOM     42  H   LIG d   1       4.773  -0.963  -7.601  0.00  0.00     0.072 H 
BRANCH  40  43
ATOM     43  C   LIG d   1       2.867   0.040  -7.559  0.00  0.00     0.081 C 
ATOM     44  H   LIG d   1       1.921  -0.239  -7.095  0.00  0.00     0.059 H 
ATOM     45  H   LIG d   1       2.847  -0.231  -8.615  0.00  0.00     0.059 H 
BRANCH  43  46
ATOM     46  O   LIG d   1       3.063   1.449  -7.432  0.00  0.00    -0.380 OA
BRANCH  46  47
ATOM     47  C   LIG d   1       3.089   2.148  -8.679  0.00  0.00     0.037 C 
ATOM     48  H   LIG d   1       2.516   3.070  -8.590  0.00  0.00     0.052 H 
ATOM     49  H   LIG d   1       4.119   2.385  -8.941  0.00  0.00     0.052 H 
ATOM     50  H   LIG d   1       2.650   1.521  -9.455  0.00  0.00     0.052 H 
ENDBRANCH  46  47
ENDBRANCH  43  46
ENDBRANCH  40  43
ENDBRANCH  39  40
ENDBRANCH  31  39
ENDBRANCH   1  30
TORSDOF 9
ENDMDL
MODEL 5
REMARK VINA RESULT:      -5.5      3.040      6.554
REMARK  9 active torsions:
REMARK  status: ('A' for Active; 'I' for Inactive)
REMARK    1  A    between atoms: C_1  and  O_2 
REMARK    2  A    between atoms: O_2  and  C_3 
REMARK    3  A    between atoms: C_3  and  C_4 
REMARK    4  A    between atoms: C_4  and  O_5 
REMARK    5  A    between atoms: O_5  and  C_6 
REMARK    6  A    between atoms: C_7  and  C_12 
REMARK    7  A    between atoms: C_14  and  C_17 
REMARK    8  A    between atoms: N_22  and  C_23 
REMARK    9  A    between atoms: C_23  and  C_24 
ROOT
ATOM      1  C   LIG d   1       5.196  -2.359  -4.281  0.00  0.00     0.207 A 
ATOM      2  N   LIG d   1       4.415  -3.217  -4.963  0.00  0.00    -0.186 NA
ATOM      3  C   LIG d   1       5.131  -4.201  -5.427  0.00  0.00     0.276 A 
ATOM      4  O   LIG d   1       6.405  -4.009  -5.059  0.00  0.00    -0.332 OA
ATOM      5  N   LIG d   1       6.430  -2.799  -4.316  0.00  0.00    -0.056 NA
ENDROOT
BRANCH   3   6
ATOM      6  C   LIG d   1       4.614  -5.358  -6.241  0.00  0.00     0.059 C 
ATOM      7  H   LIG d   1       3.574  -5.194  -6.524  0.00  0.00     0.095 H 
ATOM      8  N   LIG d   1       5.457  -5.571  -7.445  0.00  0.00     0.244 N 
ATOM      9  C   LIG d   1       5.238  -6.980  -7.845  0.00  0.00    -0.031 C 
ATOM     10  H   LIG d   1       6.430  -5.422  -7.219  0.00  0.00     0.204 HD
ATOM     11  C   LIG d   1       4.804  -7.748  -6.582  0.00  0.00    -0.007 C 
ATOM     12  H   LIG d   1       6.163  -7.404  -8.238  0.00  0.00     0.082 H 
ATOM     13  H   LIG d   1       4.453  -7.032  -8.599  0.00  0.00     0.082 H 
ATOM     14  C   LIG d   1       4.765  -6.687  -5.459  0.00  0.00     0.004 C 
ATOM     15  H   LIG d   1       5.531  -8.525  -6.344  0.00  0.00     0.032 H 
ATOM     16  H   LIG d   1       3.816  -8.184  -6.726  0.00  0.00     0.032 H 
ATOM     17  H   LIG d   1       5.693  -6.695  -4.888  0.00  0.00     0.033 H 
ATOM     18  H   LIG d   1       3.908  -6.850  -4.805  0.00  0.00     0.033 H 
BRANCH   8  19
ATOM     19  C   LIG d   1       5.040  -4.664  -8.522  0.00  0.00    -0.028 C 
ATOM     20  H   LIG d   1       5.472  -3.677  -8.354  0.00  0.00     0.082 H 
ATOM     21  H   LIG d   1       5.386  -5.053  -9.480  0.00  0.00     0.082 H 
BRANCH  19  22
ATOM     22  C   LIG d   1       3.514  -4.557  -8.536  0.00  0.00    -0.001 A 
ATOM     23  C   LIG d   1       2.888  -3.497  -9.445  0.00  0.00    -0.045 A 
ATOM     24  C   LIG d   1       2.788  -4.978  -9.815  0.00  0.00    -0.045 A 
ATOM     25  H   LIG d   1       1.982  -3.004  -9.093  0.00  0.00     0.027 H 
ATOM     26  H   LIG d   1       3.563  -2.876 -10.033  0.00  0.00     0.027 H 
ATOM     27  H   LIG d   1       3.397  -5.331 -10.648  0.00  0.00     0.027 H 
ATOM     28  H   LIG d   1       1.815  -5.459  -9.707  0.00  0.00     0.027 H 
ATOM     29  H   LIG d   1       3.019  -4.760  -7.587  0.00  0.00     0.035 H 
ENDBRANCH  19  22
ENDBRANCH   8  19
ENDBRANCH   3   6
BRANCH   1  30
ATOM     30  C   LIG d   1       4.739  -1.120  -3.608  0.00  0.00     0.084 A 
ATOM     31  C   LIG d   1       4.256  -0.040  -4.355  0.00  0.00     0.226 A 
ATOM     32  N   LIG d   1       3.853   1.065  -3.754  0.00  0.00    -0.221 NA
ATOM     33  C   LIG d   1       3.881   1.191  -2.440  0.00  0.00     0.031 A 
ATOM     34  C   LIG d   1       4.345   0.168  -1.635  0.00  0.00    -0.043 A 
ATOM     35  H   LIG d   1       3.538   2.110  -1.988  0.00  0.00     0.083 H 
ATOM     36  C   LIG d   1       4.784  -1.010  -2.217  0.00  0.00    -0.044 A 
ATOM     37  H   LIG d   1       4.366   0.287  -0.561  0.00  0.00     0.063 H 
ATOM     38  H   LIG d   1       5.151  -1.824  -1.609  0.00  0.00     0.063 H 
BRANCH  31  39
ATOM     39  O   LIG d   1       4.203  -0.127  -5.707  0.00  0.00    -0.474 OA
BRANCH  39  40
ATOM     40  C   LIG d   1       2.980   0.258  -6.336  0.00  0.00     0.115 C 
ATOM     41  H   LIG d   1       2.572   1.134  -5.833  0.00  0.00     0.072 H 
ATOM     42  H   LIG d   1       2.264  -0.563  -6.272  0.00  0.00     0.072 H 
BRANCH  40  43
ATOM     43  C   LIG d   1       3.243   0.591  -7.806  0.00  0.00     0.081 C 
ATOM     44  H   LIG d   1       2.502   0.089  -8.429  0.00  0.00     0.059 H 
ATOM     45  H   LIG d   1       4.241   0.250  -8.083  0.00  0.00     0.059 H 
BRANCH  43  46
ATOM     46  O   LIG d   1       3.151   2.003  -7.999  0.00  0.00    -0.380 OA
BRANCH  46  47
ATOM     47  C   LIG d   1       3.705   2.458  -9.236  0.00  0.00     0.037 C 
ATOM     48  H   LIG d   1       3.143   2.030 -10.065  0.00  0.00     0.052 H 
ATOM     49  H   LIG d   1       3.647   3.545  -9.281  0.00  0.00     0.052 H 
ATOM     50  H   LIG d   1       4.747   2.146  -9.304  0.00  0.00     0.052 H 
ENDBRANCH  46  47
ENDBRANCH  43  46
ENDBRANCH  40  43
ENDBRANCH  39  40
ENDBRANCH  31  39
ENDBRANCH   1  30
TORSDOF 9
ENDMDL
MODEL 6
REMARK VINA RESULT:      -5.5      5.035      8.099
REMARK  9 active torsions:
REMARK  status: ('A' for Active; 'I' for Inactive)
REMARK    1  A    between atoms: C_1  and  O_2 
REMARK    2  A    between atoms: O_2  and  C_3 
REMARK    3  A    between atoms: C_3  and  C_4 
REMARK    4  A    between atoms: C_4  and  O_5 
REMARK    5  A    between atoms: O_5  and  C_6 
REMARK    6  A    between atoms: C_7  and  C_12 
REMARK    7  A    between atoms: C_14  and  C_17 
REMARK    8  A    between atoms: N_22  and  C_23 
REMARK    9  A    between atoms: C_23  and  C_24 
ROOT
ATOM      1  C   LIG d   1       7.206   1.316  -3.980  0.00  0.00     0.207 A 
ATOM      2  N   LIG d   1       8.175   2.057  -3.413  0.00  0.00    -0.186 NA
ATOM      3  C   LIG d   1       8.916   2.602  -4.335  0.00  0.00     0.276 A 
ATOM      4  O   LIG d   1       8.448   2.229  -5.533  0.00  0.00    -0.332 OA
ATOM      5  N   LIG d   1       7.333   1.384  -5.282  0.00  0.00    -0.056 NA
ENDROOT
BRANCH   3   6
ATOM      6  C   LIG d   1      10.101   3.501  -4.095  0.00  0.00     0.059 C 
ATOM      7  H   LIG d   1      10.812   3.428  -4.918  0.00  0.00     0.095 H 
ATOM      8  N   LIG d   1       9.663   4.907  -3.904  0.00  0.00     0.244 N 
ATOM      9  C   LIG d   1      10.754   5.570  -3.155  0.00  0.00    -0.031 C 
ATOM     10  H   LIG d   1       8.808   4.936  -3.368  0.00  0.00     0.204 HD
ATOM     11  C   LIG d   1      11.501   4.473  -2.374  0.00  0.00    -0.007 C 
ATOM     12  H   LIG d   1      10.339   6.302  -2.461  0.00  0.00     0.082 H 
ATOM     13  H   LIG d   1      11.436   6.060  -3.850  0.00  0.00     0.082 H 
ATOM     14  C   LIG d   1      10.787   3.154  -2.749  0.00  0.00     0.004 C 
ATOM     15  H   LIG d   1      11.426   4.653  -1.302  0.00  0.00     0.032 H 
ATOM     16  H   LIG d   1      12.547   4.436  -2.680  0.00  0.00     0.032 H 
ATOM     17  H   LIG d   1      10.045   2.890  -1.996  0.00  0.00     0.033 H 
ATOM     18  H   LIG d   1      11.509   2.348  -2.880  0.00  0.00     0.033 H 
BRANCH   8  19
ATOM     19  C   LIG d   1       9.469   5.558  -5.206  0.00  0.00    -0.028 C 
ATOM     20  H   LIG d   1      10.000   4.996  -5.976  0.00  0.00     0.082 H 
ATOM     21  H   LIG d   1       8.406   5.586  -5.444  0.00  0.00     0.082 H 
BRANCH  19  22
ATOM     22  C   LIG d   1      10.017   6.986  -5.149  0.00  0.00    -0.001 A 
ATOM     23  C   LIG d   1      10.555   7.589  -6.448  0.00  0.00    -0.045 A 
ATOM     24  C   LIG d   1       9.223   8.075  -5.873  0.00  0.00    -0.045 A 
ATOM     25  H   LIG d   1      11.410   8.260  -6.375  0.00  0.00     0.027 H 
ATOM     26  H   LIG d   1      10.520   6.968  -7.344  0.00  0.00     0.027 H 
ATOM     27  H   LIG d   1       8.312   7.776  -6.391  0.00  0.00     0.027 H 
ATOM     28  H   LIG d   1       9.203   9.068  -5.422  0.00  0.00     0.027 H 
ATOM     29  H   LIG d   1      10.518   7.261  -4.222  0.00  0.00     0.035 H 
ENDBRANCH  19  22
ENDBRANCH   8  19
ENDBRANCH   3   6
BRANCH   1  30
ATOM     30  C   LIG d   1       6.169   0.545  -3.252  0.00  0.00     0.084 A 
ATOM     31  C   LIG d   1       6.212  -0.854  -3.221  0.00  0.00     0.226 A 
ATOM     32  N   LIG d   1       5.285  -1.539  -2.576  0.00  0.00    -0.221 NA
ATOM     33  C   LIG d   1       4.299  -0.941  -1.935  0.00  0.00     0.031 A 
ATOM     34  C   LIG d   1       4.188   0.436  -1.921  0.00  0.00    -0.043 A 
ATOM     35  H   LIG d   1       3.564  -1.538  -1.416  0.00  0.00     0.083 H 
ATOM     36  C   LIG d   1       5.132   1.201  -2.587  0.00  0.00    -0.044 A 
ATOM     37  H   LIG d   1       3.373   0.912  -1.395  0.00  0.00     0.063 H 
ATOM     38  H   LIG d   1       5.069   2.280  -2.590  0.00  0.00     0.063 H 
BRANCH  31  39
ATOM     39  O   LIG d   1       7.211  -1.511  -3.860  0.00  0.00    -0.474 OA
BRANCH  39  40
ATOM     40  C   LIG d   1       6.836  -2.595  -4.711  0.00  0.00     0.115 C 
ATOM     41  H   LIG d   1       6.029  -3.160  -4.246  0.00  0.00     0.072 H 
ATOM     42  H   LIG d   1       7.695  -3.249  -4.865  0.00  0.00     0.072 H 
BRANCH  40  43
ATOM     43  C   LIG d   1       6.365  -2.047  -6.059  0.00  0.00     0.081 C 
ATOM     44  H   LIG d   1       6.799  -2.641  -6.864  0.00  0.00     0.059 H 
ATOM     45  H   LIG d   1       6.683  -1.010  -6.161  0.00  0.00     0.059 H 
BRANCH  43  46
ATOM     46  O   LIG d   1       4.940  -2.118  -6.131  0.00  0.00    -0.380 OA
BRANCH  46  47
ATOM     47  C   LIG d   1       4.304  -0.853  -6.325  0.00  0.00     0.037 C 
ATOM     48  H   LIG d   1       4.762  -0.111  -5.672  0.00  0.00     0.052 H 
ATOM     49  H   LIG d   1       4.421  -0.543  -7.364  0.00  0.00     0.052 H 
ATOM     50  H   LIG d   1       3.243  -0.939  -6.089  0.00  0.00     0.052 H 
ENDBRANCH  46  47
ENDBRANCH  43  46
ENDBRANCH  40  43
ENDBRANCH  39  40
ENDBRANCH  31  39
ENDBRANCH   1  30
TORSDOF 9
ENDMDL
MODEL 7
REMARK VINA RESULT:      -5.4      0.931      1.011
REMARK  9 active torsions:
REMARK  status: ('A' for Active; 'I' for Inactive)
REMARK    1  A    between atoms: C_1  and  O_2 
REMARK    2  A    between atoms: O_2  and  C_3 
REMARK    3  A    between atoms: C_3  and  C_4 
REMARK    4  A    between atoms: C_4  and  O_5 
REMARK    5  A    between atoms: O_5  and  C_6 
REMARK    6  A    between atoms: C_7  and  C_12 
REMARK    7  A    between atoms: C_14  and  C_17 
REMARK    8  A    between atoms: N_22  and  C_23 
REMARK    9  A    between atoms: C_23  and  C_24 
ROOT
ATOM      1  C   LIG d   1       3.143  -0.354  -8.475  0.00  0.00     0.207 A 
ATOM      2  N   LIG d   1       3.706  -1.196  -7.588  0.00  0.00    -0.186 NA
ATOM      3  C   LIG d   1       3.982  -0.562  -6.484  0.00  0.00     0.276 A 
ATOM      4  O   LIG d   1       3.606   0.717  -6.623  0.00  0.00    -0.332 OA
ATOM      5  N   LIG d   1       3.065   0.835  -7.931  0.00  0.00    -0.056 NA
ENDROOT
BRANCH   3   6
ATOM      6  C   LIG d   1       4.617  -1.164  -5.258  0.00  0.00     0.059 C 
ATOM      7  H   LIG d   1       5.188  -0.413  -4.713  0.00  0.00     0.095 H 
ATOM      8  N   LIG d   1       3.587  -1.778  -4.381  0.00  0.00     0.244 N 
ATOM      9  C   LIG d   1       4.306  -2.776  -3.556  0.00  0.00    -0.031 C 
ATOM     10  H   LIG d   1       2.882  -2.235  -4.940  0.00  0.00     0.204 HD
ATOM     11  C   LIG d   1       5.560  -3.199  -4.344  0.00  0.00    -0.007 C 
ATOM     12  H   LIG d   1       3.668  -3.642  -3.380  0.00  0.00     0.082 H 
ATOM     13  H   LIG d   1       4.598  -2.328  -2.606  0.00  0.00     0.082 H 
ATOM     14  C   LIG d   1       5.520  -2.363  -5.644  0.00  0.00     0.004 C 
ATOM     15  H   LIG d   1       5.519  -4.263  -4.576  0.00  0.00     0.032 H 
ATOM     16  H   LIG d   1       6.459  -2.969  -3.774  0.00  0.00     0.032 H 
ATOM     17  H   LIG d   1       5.074  -2.935  -6.457  0.00  0.00     0.033 H 
ATOM     18  H   LIG d   1       6.520  -2.023  -5.913  0.00  0.00     0.033 H 
BRANCH   8  19
ATOM     19  C   LIG d   1       2.975  -0.753  -3.526  0.00  0.00    -0.028 C 
ATOM     20  H   LIG d   1       2.142  -0.289  -4.055  0.00  0.00     0.082 H 
ATOM     21  H   LIG d   1       2.611  -1.216  -2.609  0.00  0.00     0.082 H 
BRANCH  19  22
ATOM     22  C   LIG d   1       4.017   0.313  -3.182  0.00  0.00    -0.001 A 
ATOM     23  C   LIG d   1       3.608   1.409  -2.196  0.00  0.00    -0.045 A 
ATOM     24  C   LIG d   1       4.583   0.313  -1.760  0.00  0.00    -0.045 A 
ATOM     25  H   LIG d   1       4.012   2.407  -2.357  0.00  0.00     0.027 H 
ATOM     26  H   LIG d   1       2.596   1.370  -1.792  0.00  0.00     0.027 H 
ATOM     27  H   LIG d   1       4.213  -0.446  -1.070  0.00  0.00     0.027 H 
ATOM     28  H   LIG d   1       5.630   0.592  -1.635  0.00  0.00     0.027 H 
ATOM     29  H   LIG d   1       4.691   0.591  -3.992  0.00  0.00     0.035 H 
ENDBRANCH  19  22
ENDBRANCH   8  19
ENDBRANCH   3   6
BRANCH   1  30
ATOM     30  C   LIG d   1       2.693  -0.712  -9.841  0.00  0.00     0.084 A 
ATOM     31  C   LIG d   1       3.589  -0.681 -10.917  0.00  0.00     0.226 A 
ATOM     32  N   LIG d   1       3.184  -0.995 -12.135  0.00  0.00    -0.221 NA
ATOM     33  C   LIG d   1       1.939  -1.355 -12.382  0.00  0.00     0.031 A 
ATOM     34  C   LIG d   1       0.997  -1.408 -11.373  0.00  0.00    -0.043 A 
ATOM     35  H   LIG d   1       1.650  -1.609 -13.392  0.00  0.00     0.083 H 
ATOM     36  C   LIG d   1       1.369  -1.083 -10.078  0.00  0.00    -0.044 A 
ATOM     37  H   LIG d   1      -0.020  -1.700 -11.591  0.00  0.00     0.063 H 
ATOM     38  H   LIG d   1       0.652  -1.117  -9.271  0.00  0.00     0.063 H 
BRANCH  31  39
ATOM     39  O   LIG d   1       4.880  -0.324 -10.708  0.00  0.00    -0.474 OA
BRANCH  39  40
ATOM     40  C   LIG d   1       5.867  -1.348 -10.842  0.00  0.00     0.115 C 
ATOM     41  H   LIG d   1       6.502  -1.130 -11.701  0.00  0.00     0.072 H 
ATOM     42  H   LIG d   1       5.375  -2.310 -10.989  0.00  0.00     0.072 H 
BRANCH  40  43
ATOM     43  C   LIG d   1       6.723  -1.401  -9.576  0.00  0.00     0.081 C 
ATOM     44  H   LIG d   1       6.429  -2.262  -8.975  0.00  0.00     0.059 H 
ATOM     45  H   LIG d   1       6.575  -0.488  -8.998  0.00  0.00     0.059 H 
BRANCH  43  46
ATOM     46  O   LIG d   1       8.101  -1.520  -9.935  0.00  0.00    -0.380 OA
BRANCH  46  47
ATOM     47  C   LIG d   1       8.624  -0.379 -10.619  0.00  0.00     0.037 C 
ATOM     48  H   LIG d   1       7.961  -0.113 -11.442  0.00  0.00     0.052 H 
ATOM     49  H   LIG d   1       8.695   0.459  -9.926  0.00  0.00     0.052 H 
ATOM     50  H   LIG d   1       9.613  -0.613 -11.011  0.00  0.00     0.052 H 
ENDBRANCH  46  47
ENDBRANCH  43  46
ENDBRANCH  40  43
ENDBRANCH  39  40
ENDBRANCH  31  39
ENDBRANCH   1  30
TORSDOF 9
ENDMDL
MODEL 8
REMARK VINA RESULT:      -5.4      1.959      2.525
REMARK  9 active torsions:
REMARK  status: ('A' for Active; 'I' for Inactive)
REMARK    1  A    between atoms: C_1  and  O_2 
REMARK    2  A    between atoms: O_2  and  C_3 
REMARK    3  A    between atoms: C_3  and  C_4 
REMARK    4  A    between atoms: C_4  and  O_5 
REMARK    5  A    between atoms: O_5  and  C_6 
REMARK    6  A    between atoms: C_7  and  C_12 
REMARK    7  A    between atoms: C_14  and  C_17 
REMARK    8  A    between atoms: N_22  and  C_23 
REMARK    9  A    between atoms: C_23  and  C_24 
ROOT
ATOM      1  C   LIG d   1       3.052   0.047  -7.803  0.00  0.00     0.207 A 
ATOM      2  N   LIG d   1       3.711  -0.740  -6.933  0.00  0.00    -0.186 NA
ATOM      3  C   LIG d   1       3.756  -0.171  -5.762  0.00  0.00     0.276 A 
ATOM      4  O   LIG d   1       3.125   1.009  -5.838  0.00  0.00    -0.332 OA
ATOM      5  N   LIG d   1       2.677   1.137  -7.180  0.00  0.00    -0.056 NA
ENDROOT
BRANCH   3   6
ATOM      6  C   LIG d   1       4.408  -0.743  -4.530  0.00  0.00     0.059 C 
ATOM      7  H   LIG d   1       5.010  -1.615  -4.784  0.00  0.00     0.095 H 
ATOM      8  N   LIG d   1       5.237   0.285  -3.850  0.00  0.00     0.244 N 
ATOM      9  C   LIG d   1       5.361  -0.165  -2.445  0.00  0.00    -0.031 C 
ATOM     10  H   LIG d   1       4.777   1.183  -3.887  0.00  0.00     0.204 HD
ATOM     11  C   LIG d   1       4.142  -1.056  -2.144  0.00  0.00    -0.007 C 
ATOM     12  H   LIG d   1       5.365   0.697  -1.777  0.00  0.00     0.082 H 
ATOM     13  H   LIG d   1       6.280  -0.737  -2.321  0.00  0.00     0.082 H 
ATOM     14  C   LIG d   1       3.342  -1.105  -3.465  0.00  0.00     0.004 C 
ATOM     15  H   LIG d   1       3.537  -0.615  -1.351  0.00  0.00     0.032 H 
ATOM     16  H   LIG d   1       4.467  -2.057  -1.861  0.00  0.00     0.032 H 
ATOM     17  H   LIG d   1       2.539  -0.368  -3.458  0.00  0.00     0.033 H 
ATOM     18  H   LIG d   1       2.946  -2.106  -3.640  0.00  0.00     0.033 H 
BRANCH   8  19
ATOM     19  C   LIG d   1       6.561   0.365  -4.480  0.00  0.00    -0.028 C 
ATOM     20  H   LIG d   1       7.074  -0.592  -4.370  0.00  0.00     0.082 H 
ATOM     21  H   LIG d   1       6.448   0.596  -5.538  0.00  0.00     0.082 H 
BRANCH  19  22
ATOM     22  C   LIG d   1       7.382   1.464  -3.802  0.00  0.00    -0.001 A 
ATOM     23  C   LIG d   1       8.905   1.388  -3.928  0.00  0.00    -0.045 A 
ATOM     24  C   LIG d   1       8.125   2.449  -4.707  0.00  0.00    -0.045 A 
ATOM     25  H   LIG d   1       9.498   1.722  -3.078  0.00  0.00     0.027 H 
ATOM     26  H   LIG d   1       9.322   0.554  -4.493  0.00  0.00     0.027 H 
ATOM     27  H   LIG d   1       8.030   2.314  -5.785  0.00  0.00     0.027 H 
ATOM     28  H   LIG d   1       8.205   3.482  -4.368  0.00  0.00     0.027 H 
ATOM     29  H   LIG d   1       6.974   1.849  -2.869  0.00  0.00     0.035 H 
ENDBRANCH  19  22
ENDBRANCH   8  19
ENDBRANCH   3   6
BRANCH   1  30
ATOM     30  C   LIG d   1       2.798  -0.263  -9.230  0.00  0.00     0.084 A 
ATOM     31  C   LIG d   1       3.693   0.157 -10.221  0.00  0.00     0.226 A 
ATOM     32  N   LIG d   1       3.462  -0.116 -11.493  0.00  0.00    -0.221 NA
ATOM     33  C   LIG d   1       2.398  -0.797 -11.875  0.00  0.00     0.031 A 
ATOM     34  C   LIG d   1       1.469  -1.246 -10.956  0.00  0.00    -0.043 A 
ATOM     35  H   LIG d   1       2.250  -1.004 -12.925  0.00  0.00     0.083 H 
ATOM     36  C   LIG d   1       1.662  -0.980  -9.609  0.00  0.00    -0.044 A 
ATOM     37  H   LIG d   1       0.601  -1.798 -11.284  0.00  0.00     0.063 H 
ATOM     38  H   LIG d   1       0.950  -1.320  -8.871  0.00  0.00     0.063 H 
BRANCH  31  39
ATOM     39  O   LIG d   1       4.803   0.854  -9.873  0.00  0.00    -0.474 OA
BRANCH  39  40
ATOM     40  C   LIG d   1       6.065   0.248 -10.157  0.00  0.00     0.115 C 
ATOM     41  H   LIG d   1       6.697   0.958 -10.690  0.00  0.00     0.072 H 
ATOM     42  H   LIG d   1       5.912  -0.638 -10.774  0.00  0.00     0.072 H 
BRANCH  40  43
ATOM     43  C   LIG d   1       6.744  -0.156  -8.847  0.00  0.00     0.081 C 
ATOM     44  H   LIG d   1       6.327   0.430  -8.027  0.00  0.00     0.059 H 
ATOM     45  H   LIG d   1       7.815   0.032  -8.919  0.00  0.00     0.059 H 
BRANCH  43  46
ATOM     46  O   LIG d   1       6.519  -1.545  -8.602  0.00  0.00    -0.380 OA
BRANCH  46  47
ATOM     47  C   LIG d   1       7.095  -2.022  -7.384  0.00  0.00     0.037 C 
ATOM     48  H   LIG d   1       7.013  -1.252  -6.617  0.00  0.00     0.052 H 
ATOM     49  H   LIG d   1       6.565  -2.916  -7.057  0.00  0.00     0.052 H 
ATOM     50  H   LIG d   1       8.145  -2.261  -7.548  0.00  0.00     0.052 H 
ENDBRANCH  46  47
ENDBRANCH  43  46
ENDBRANCH  40  43
ENDBRANCH  39  40
ENDBRANCH  31  39
ENDBRANCH   1  30
TORSDOF 9
ENDMDL
MODEL 9
REMARK VINA RESULT:      -5.4      2.438      6.591
REMARK  9 active torsions:
REMARK  status: ('A' for Active; 'I' for Inactive)
REMARK    1  A    between atoms: C_1  and  O_2 
REMARK    2  A    between atoms: O_2  and  C_3 
REMARK    3  A    between atoms: C_3  and  C_4 
REMARK    4  A    between atoms: C_4  and  O_5 
REMARK    5  A    between atoms: O_5  and  C_6 
REMARK    6  A    between atoms: C_7  and  C_12 
REMARK    7  A    between atoms: C_14  and  C_17 
REMARK    8  A    between atoms: N_22  and  C_23 
REMARK    9  A    between atoms: C_23  and  C_24 
ROOT
ATOM      1  C   LIG d   1       4.032  -0.483  -5.630  0.00  0.00     0.207 A 
ATOM      2  N   LIG d   1       3.478   0.225  -6.631  0.00  0.00    -0.186 NA
ATOM      3  C   LIG d   1       3.420  -0.501  -7.711  0.00  0.00     0.276 A 
ATOM      4  O   LIG d   1       3.938  -1.706  -7.442  0.00  0.00    -0.332 OA
ATOM      5  N   LIG d   1       4.337  -1.675  -6.079  0.00  0.00    -0.056 NA
ENDROOT
BRANCH   3   6
ATOM      6  C   LIG d   1       2.866  -0.058  -9.040  0.00  0.00     0.059 C 
ATOM      7  H   LIG d   1       2.373   0.910  -8.948  0.00  0.00     0.095 H 
ATOM      8  N   LIG d   1       3.939  -0.003 -10.065  0.00  0.00     0.244 N 
ATOM      9  C   LIG d   1       3.253  -0.113 -11.373  0.00  0.00    -0.031 C 
ATOM     10  H   LIG d   1       4.577  -0.776  -9.943  0.00  0.00     0.204 HD
ATOM     11  C   LIG d   1       1.922  -0.848 -11.126  0.00  0.00    -0.007 C 
ATOM     12  H   LIG d   1       3.868  -0.684 -12.069  0.00  0.00     0.082 H 
ATOM     13  H   LIG d   1       3.059   0.881 -11.773  0.00  0.00     0.082 H 
ATOM     14  C   LIG d   1       1.886  -1.119  -9.604  0.00  0.00     0.004 C 
ATOM     15  H   LIG d   1       1.900  -1.788 -11.678  0.00  0.00     0.032 H 
ATOM     16  H   LIG d   1       1.082  -0.217 -11.418  0.00  0.00     0.032 H 
ATOM     17  H   LIG d   1       2.239  -2.125  -9.383  0.00  0.00     0.033 H 
ATOM     18  H   LIG d   1       0.882  -0.965  -9.209  0.00  0.00     0.033 H 
BRANCH   8  19
ATOM     19  C   LIG d   1       4.661   1.273  -9.974  0.00  0.00    -0.028 C 
ATOM     20  H   LIG d   1       4.521   1.837 -10.897  0.00  0.00     0.082 H 
ATOM     21  H   LIG d   1       4.276   1.849  -9.134  0.00  0.00     0.082 H 
BRANCH  19  22
ATOM     22  C   LIG d   1       6.152   1.001  -9.765  0.00  0.00    -0.001 A 
ATOM     23  C   LIG d   1       6.936   1.986  -8.896  0.00  0.00    -0.045 A 
ATOM     24  C   LIG d   1       6.605   0.591  -8.362  0.00  0.00    -0.045 A 
ATOM     25  H   LIG d   1       7.970   2.188  -9.171  0.00  0.00     0.027 H 
ATOM     26  H   LIG d   1       6.389   2.830  -8.474  0.00  0.00     0.027 H 
ATOM     27  H   LIG d   1       5.842   0.516  -7.588  0.00  0.00     0.027 H 
ATOM     28  H   LIG d   1       7.424  -0.125  -8.286  0.00  0.00     0.027 H 
ATOM     29  H   LIG d   1       6.672   0.554 -10.612  0.00  0.00     0.035 H 
ENDBRANCH  19  22
ENDBRANCH   8  19
ENDBRANCH   3   6
BRANCH   1  30
ATOM     30  C   LIG d   1       4.264   0.007  -4.250  0.00  0.00     0.084 A 
ATOM     31  C   LIG d   1       5.504   0.540  -3.882  0.00  0.00     0.226 A 
ATOM     32  N   LIG d   1       5.710   0.972  -2.650  0.00  0.00    -0.221 NA
ATOM     33  C   LIG d   1       4.764   0.926  -1.731  0.00  0.00     0.031 A 
ATOM     34  C   LIG d   1       3.514   0.413  -2.018  0.00  0.00    -0.043 A 
ATOM     35  H   LIG d   1       4.972   1.294  -0.737  0.00  0.00     0.083 H 
ATOM     36  C   LIG d   1       3.248  -0.058  -3.294  0.00  0.00    -0.044 A 
ATOM     37  H   LIG d   1       2.751   0.379  -1.254  0.00  0.00     0.063 H 
ATOM     38  H   LIG d   1       2.279  -0.463  -3.543  0.00  0.00     0.063 H 
BRANCH  31  39
ATOM     39  O   LIG d   1       6.503   0.612  -4.795  0.00  0.00    -0.474 OA
BRANCH  39  40
ATOM     40  C   LIG d   1       7.659  -0.193  -4.560  0.00  0.00     0.115 C 
ATOM     41  H   LIG d   1       7.607  -1.092  -5.173  0.00  0.00     0.072 H 
ATOM     42  H   LIG d   1       7.697  -0.474  -3.506  0.00  0.00     0.072 H 
BRANCH  40  43
ATOM     43  C   LIG d   1       8.917   0.599  -4.921  0.00  0.00     0.081 C 
ATOM     44  H   LIG d   1       9.179   0.408  -5.962  0.00  0.00     0.059 H 
ATOM     45  H   LIG d   1       9.740   0.288  -4.276  0.00  0.00     0.059 H 
BRANCH  43  46
ATOM     46  O   LIG d   1       8.670   1.994  -4.740  0.00  0.00    -0.380 OA
BRANCH  46  47
ATOM     47  C   LIG d   1       9.227   2.532  -3.538  0.00  0.00     0.037 C 
ATOM     48  H   LIG d   1      10.217   2.109  -3.375  0.00  0.00     0.052 H 
ATOM     49  H   LIG d   1       9.306   3.616  -3.629  0.00  0.00     0.052 H 
ATOM     50  H   LIG d   1       8.582   2.283  -2.696  0.00  0.00     0.052 H 
ENDBRANCH  46  47
ENDBRANCH  43  46
ENDBRANCH  40  43
ENDBRANCH  39  40
ENDBRANCH  31  39
ENDBRANCH   1  30
TORSDOF 9
ENDMDL
