MODEL 1
REMARK VINA RESULT:      -7.7      0.000      0.000
REMARK  7 active torsions:
REMARK  status: ('A' for Active; 'I' for Inactive)
REMARK    1  A    between atoms: C_1  and  C_2 
REMARK    2  A    between atoms: C_6  and  C_8 
REMARK    3  A    between atoms: C_10  and  C_13 
REMARK    4  A    between atoms: C_23  and  C_24 
REMARK    5  A    between atoms: C_23  and  N_53 
REMARK    6  A    between atoms: C_28  and  O_30 
REMARK    7  A    between atoms: O_30  and  C_31 
ROOT
ATOM      1  C   LIG d   1       8.960   1.875  -7.290  0.00  0.00     0.066 C 
ATOM      2  H   LIG d   1       9.782   1.330  -7.754  0.00  0.00     0.096 H 
ATOM      3  C   LIG d   1       9.494   3.176  -6.672  0.00  0.00     0.043 C 
ATOM      4  C   LIG d   1       9.852   4.109  -7.800  0.00  0.00     0.073 A 
ATOM      5  C   LIG d   1       9.434   3.935  -9.075  0.00  0.00     0.084 A 
ATOM      6  N   LIG d   1       9.934   4.929  -9.810  0.00  0.00    -0.344 N 
ATOM      7  C   LIG d   1      10.644   5.716  -9.043  0.00  0.00     0.094 A 
ATOM      8  N   LIG d   1      10.614   5.233  -7.778  0.00  0.00    -0.240 NA
ATOM      9  H   LIG d   1       9.789   5.054 -10.792  0.00  0.00     0.167 HD
ATOM     10  C   LIG d   1       8.556   2.788  -9.508  0.00  0.00     0.012 C 
ATOM     11  H   LIG d   1       8.723   3.630  -6.048  0.00  0.00     0.039 H 
ATOM     12  H   LIG d   1      10.379   2.965  -6.073  0.00  0.00     0.039 H 
ATOM     13  H   LIG d   1      11.167   6.604  -9.365  0.00  0.00     0.103 H 
ATOM     14  H   LIG d   1       9.157   2.039 -10.024  0.00  0.00     0.088 H 
ATOM     15  H   LIG d   1       7.774   3.155 -10.173  0.00  0.00     0.088 H 
ATOM     16  N   LIG d   1       7.926   2.213  -8.294  0.00  0.00     0.252 N 
ATOM     17  H   LIG d   1       7.286   2.906  -7.891  0.00  0.00     0.205 HD
ENDROOT
BRANCH   1  18
ATOM     18  C   LIG d   1       8.340   1.025  -6.211  0.00  0.00     0.276 A 
ATOM     19  N   LIG d   1       7.314   1.344  -5.463  0.00  0.00    -0.186 NA
ATOM     20  C   LIG d   1       7.115   0.285  -4.646  0.00  0.00     0.202 A 
ATOM     21  N   LIG d   1       8.027  -0.606  -4.941  0.00  0.00    -0.056 NA
ATOM     22  O   LIG d   1       8.732  -0.198  -5.840  0.00  0.00    -0.332 OA
BRANCH  20  23
ATOM     23  C   LIG d   1       6.064   0.158  -3.607  0.00  0.00     0.023 A 
ATOM     24  C   LIG d   1       5.668   1.274  -2.874  0.00  0.00    -0.051 A 
ATOM     25  C   LIG d   1       4.689   1.150  -1.907  0.00  0.00    -0.061 A 
ATOM     26  H   LIG d   1       6.125   2.234  -3.061  0.00  0.00     0.062 H 
ATOM     27  C   LIG d   1       4.104  -0.080  -1.667  0.00  0.00    -0.059 A 
ATOM     28  H   LIG d   1       4.381   2.015  -1.338  0.00  0.00     0.062 H 
ATOM     29  C   LIG d   1       4.489  -1.190  -2.396  0.00  0.00    -0.050 A 
ATOM     30  H   LIG d   1       3.339  -0.172  -0.910  0.00  0.00     0.062 H 
ATOM     31  C   LIG d   1       5.470  -1.079  -3.360  0.00  0.00    -0.048 A 
ATOM     32  H   LIG d   1       5.774  -1.947  -3.926  0.00  0.00     0.063 H 
BRANCH  29  33
ATOM     33  C   LIG d   1       3.842  -2.525  -2.132  0.00  0.00    -0.040 C 
ATOM     34  H   LIG d   1       3.325  -2.862  -3.030  0.00  0.00     0.028 H 
ATOM     35  H   LIG d   1       4.606  -3.252  -1.858  0.00  0.00     0.028 H 
ATOM     36  H   LIG d   1       3.125  -2.426  -1.316  0.00  0.00     0.028 H 
ENDBRANCH  29  33
ENDBRANCH  20  23
ENDBRANCH   1  18
BRANCH  16  37
ATOM     37  C   LIG d   1       7.158   1.002  -8.651  0.00  0.00    -0.005 C 
ATOM     38  H   LIG d   1       7.428   0.655  -9.648  0.00  0.00     0.087 H 
ATOM     39  H   LIG d   1       7.371   0.219  -7.924  0.00  0.00     0.087 H 
BRANCH  37  40
ATOM     40  C   LIG d   1       5.688   1.333  -8.616  0.00  0.00     0.001 A 
ATOM     41  C   LIG d   1       4.815   0.523  -7.917  0.00  0.00    -0.011 A 
ATOM     42  C   LIG d   1       3.462   0.832  -7.881  0.00  0.00     0.130 A 
ATOM     43  H   LIG d   1       5.184  -0.347  -7.396  0.00  0.00     0.066 H 
ATOM     44  C   LIG d   1       2.990   1.947  -8.556  0.00  0.00    -0.020 A 
ATOM     45  C   LIG d   1       3.867   2.751  -9.258  0.00  0.00    -0.058 A 
ATOM     46  H   LIG d   1       1.937   2.186  -8.534  0.00  0.00     0.065 H 
ATOM     47  C   LIG d   1       5.215   2.446  -9.288  0.00  0.00    -0.053 A 
ATOM     48  H   LIG d   1       3.499   3.620  -9.784  0.00  0.00     0.062 H 
ATOM     49  H   LIG d   1       5.898   3.075  -9.838  0.00  0.00     0.062 H 
BRANCH  42  50
ATOM     50  O   LIG d   1       2.601   0.039  -7.190  0.00  0.00    -0.406 OA
BRANCH  50  51
ATOM     51  C   LIG d   1       2.743   0.010  -5.769  0.00  0.00     0.575 C 
ATOM     52  F   LIG d   1       3.537  -1.082  -5.401  0.00  0.00    -0.133 F 
ATOM     53  F   LIG d   1       3.350   1.194  -5.336  0.00  0.00    -0.133 F 
ATOM     54  F   LIG d   1       1.481  -0.111  -5.177  0.00  0.00    -0.133 F 
ENDBRANCH  50  51
ENDBRANCH  42  50
ENDBRANCH  37  40
ENDBRANCH  16  37
TORSDOF 7
ENDMDL
MODEL 2
REMARK VINA RESULT:      -7.5      5.467      7.300
REMARK  7 active torsions:
REMARK  status: ('A' for Active; 'I' for Inactive)
REMARK    1  A    between atoms: C_1  and  C_2 
REMARK    2  A    between atoms: C_6  and  C_8 
REMARK    3  A    between atoms: C_10  and  C_13 
REMARK    4  A    between atoms: C_23  and  C_24 
REMARK    5  A    between atoms: C_23  and  N_53 
REMARK    6  A    between atoms: C_28  and  O_30 
REMARK    7  A    between atoms: O_30  and  C_31 
ROOT
ATOM      1  C   LIG d   1      10.753   2.209  -4.788  0.00  0.00     0.066 C 
ATOM      2  H   LIG d   1      11.091   2.351  -5.814  0.00  0.00     0.096 H 
ATOM      3  C   LIG d   1      11.590   1.106  -4.122  0.00  0.00     0.043 C 
ATOM      4  C   LIG d   1      12.975   1.654  -3.892  0.00  0.00     0.073 A 
ATOM      5  C   LIG d   1      13.275   2.972  -3.944  0.00  0.00     0.084 A 
ATOM      6  N   LIG d   1      14.579   3.106  -3.700  0.00  0.00    -0.344 N 
ATOM      7  C   LIG d   1      15.102   1.924  -3.497  0.00  0.00     0.094 A 
ATOM      8  N   LIG d   1      14.126   0.992  -3.609  0.00  0.00    -0.240 NA
ATOM      9  H   LIG d   1      15.079   3.973  -3.677  0.00  0.00     0.167 HD
ATOM     10  C   LIG d   1      12.252   4.042  -4.233  0.00  0.00     0.012 C 
ATOM     11  H   LIG d   1      11.140   0.827  -3.169  0.00  0.00     0.039 H 
ATOM     12  H   LIG d   1      11.642   0.236  -4.777  0.00  0.00     0.039 H 
ATOM     13  H   LIG d   1      16.140   1.725  -3.276  0.00  0.00     0.103 H 
ATOM     14  H   LIG d   1      12.360   4.385  -5.262  0.00  0.00     0.088 H 
ATOM     15  H   LIG d   1      12.394   4.879  -3.549  0.00  0.00     0.088 H 
ATOM     16  N   LIG d   1      10.907   3.459  -4.009  0.00  0.00     0.252 N 
ATOM     17  H   LIG d   1      10.799   3.244  -3.012  0.00  0.00     0.205 HD
ENDROOT
BRANCH   1  18
ATOM     18  C   LIG d   1       9.301   1.805  -4.789  0.00  0.00     0.276 A 
ATOM     19  N   LIG d   1       8.622   1.340  -3.770  0.00  0.00    -0.186 NA
ATOM     20  C   LIG d   1       7.372   1.119  -4.236  0.00  0.00     0.202 A 
ATOM     21  N   LIG d   1       7.367   1.455  -5.500  0.00  0.00    -0.056 NA
ATOM     22  O   LIG d   1       8.464   1.855  -5.829  0.00  0.00    -0.332 OA
BRANCH  20  23
ATOM     23  C   LIG d   1       6.223   0.589  -3.461  0.00  0.00     0.023 A 
ATOM     24  C   LIG d   1       5.552   1.411  -2.557  0.00  0.00    -0.051 A 
ATOM     25  C   LIG d   1       4.484   0.912  -1.837  0.00  0.00    -0.061 A 
ATOM     26  H   LIG d   1       5.867   2.434  -2.420  0.00  0.00     0.062 H 
ATOM     27  C   LIG d   1       4.082  -0.399  -2.012  0.00  0.00    -0.059 A 
ATOM     28  H   LIG d   1       3.964   1.548  -1.137  0.00  0.00     0.062 H 
ATOM     29  C   LIG d   1       4.740  -1.216  -2.912  0.00  0.00    -0.050 A 
ATOM     30  H   LIG d   1       3.246  -0.784  -1.448  0.00  0.00     0.062 H 
ATOM     31  C   LIG d   1       5.812  -0.731  -3.632  0.00  0.00    -0.048 A 
ATOM     32  H   LIG d   1       6.329  -1.372  -4.331  0.00  0.00     0.063 H 
BRANCH  29  33
ATOM     33  C   LIG d   1       4.291  -2.642  -3.101  0.00  0.00    -0.040 C 
ATOM     34  H   LIG d   1       3.863  -3.015  -2.171  0.00  0.00     0.028 H 
ATOM     35  H   LIG d   1       3.540  -2.685  -3.890  0.00  0.00     0.028 H 
ATOM     36  H   LIG d   1       5.146  -3.259  -3.380  0.00  0.00     0.028 H 
ENDBRANCH  29  33
ENDBRANCH  20  23
ENDBRANCH   1  18
BRANCH  16  37
ATOM     37  C   LIG d   1       9.865   4.429  -4.407  0.00  0.00    -0.005 C 
ATOM     38  H   LIG d   1       9.998   4.733  -5.444  0.00  0.00     0.087 H 
ATOM     39  H   LIG d   1       8.885   3.968  -4.286  0.00  0.00     0.087 H 
BRANCH  37  40
ATOM     40  C   LIG d   1       9.964   5.639  -3.512  0.00  0.00     0.001 A 
ATOM     41  C   LIG d   1       9.934   5.486  -2.140  0.00  0.00    -0.011 A 
ATOM     42  C   LIG d   1      10.030   6.599  -1.317  0.00  0.00     0.130 A 
ATOM     43  H   LIG d   1       9.839   4.501  -1.707  0.00  0.00     0.066 H 
ATOM     44  C   LIG d   1      10.146   7.863  -1.875  0.00  0.00    -0.020 A 
ATOM     45  C   LIG d   1      10.171   8.011  -3.249  0.00  0.00    -0.058 A 
ATOM     46  H   LIG d   1      10.216   8.732  -1.238  0.00  0.00     0.065 H 
ATOM     47  C   LIG d   1      10.081   6.900  -4.067  0.00  0.00    -0.053 A 
ATOM     48  H   LIG d   1      10.262   8.995  -3.684  0.00  0.00     0.062 H 
ATOM     49  H   LIG d   1      10.100   7.017  -5.140  0.00  0.00     0.062 H 
BRANCH  42  50
ATOM     50  O   LIG d   1      10.004   6.452   0.034  0.00  0.00    -0.406 OA
BRANCH  50  51
ATOM     51  C   LIG d   1      11.265   6.412   0.707  0.00  0.00     0.575 C 
ATOM     52  F   LIG d   1      12.273   6.094  -0.210  0.00  0.00    -0.133 F 
ATOM     53  F   LIG d   1      11.529   7.662   1.277  0.00  0.00    -0.133 F 
ATOM     54  F   LIG d   1      11.225   5.440   1.712  0.00  0.00    -0.133 F 
ENDBRANCH  50  51
ENDBRANCH  42  50
ENDBRANCH  37  40
ENDBRANCH  16  37
TORSDOF 7
ENDMDL
MODEL 3
REMARK VINA RESULT:      -7.5      1.540      1.708
REMARK  7 active torsions:
REMARK  status: ('A' for Active; 'I' for Inactive)
REMARK    1  A    between atoms: C_1  and  C_2 
REMARK    2  A    between atoms: C_6  and  C_8 
REMARK    3  A    between atoms: C_10  and  C_13 
REMARK    4  A    between atoms: C_23  and  C_24 
REMARK    5  A    between atoms: C_23  and  N_53 
REMARK    6  A    between atoms: C_28  and  O_30 
REMARK    7  A    between atoms: O_30  and  C_31 
ROOT
ATOM      1  C   LIG d   1       9.113   2.230  -7.087  0.00  0.00     0.066 C 
ATOM      2  H   LIG d   1      10.036   1.783  -7.455  0.00  0.00     0.096 H 
ATOM      3  C   LIG d   1       9.430   3.569  -6.405  0.00  0.00     0.043 C 
ATOM      4  C   LIG d   1       9.813   4.554  -7.480  0.00  0.00     0.073 A 
ATOM      5  C   LIG d   1       9.565   4.359  -8.795  0.00  0.00     0.084 A 
ATOM      6  N   LIG d   1      10.036   5.412  -9.462  0.00  0.00    -0.344 N 
ATOM      7  C   LIG d   1      10.566   6.257  -8.615  0.00  0.00     0.094 A 
ATOM      8  N   LIG d   1      10.443   5.752  -7.364  0.00  0.00    -0.240 NA
ATOM      9  H   LIG d   1       9.992   5.538 -10.454  0.00  0.00     0.167 HD
ATOM     10  C   LIG d   1       8.870   3.133  -9.332  0.00  0.00     0.012 C 
ATOM     11  H   LIG d   1       8.549   3.929  -5.872  0.00  0.00     0.039 H 
ATOM     12  H   LIG d   1      10.258   3.442  -5.709  0.00  0.00     0.039 H 
ATOM     13  H   LIG d   1      11.025   7.200  -8.869  0.00  0.00     0.103 H 
ATOM     14  H   LIG d   1       9.602   2.461  -9.779  0.00  0.00     0.088 H 
ATOM     15  H   LIG d   1       8.134   3.427 -10.081  0.00  0.00     0.088 H 
ATOM     16  N   LIG d   1       8.170   2.474  -8.202  0.00  0.00     0.252 N 
ATOM     17  H   LIG d   1       7.418   3.089  -7.872  0.00  0.00     0.205 HD
ENDROOT
BRANCH   1  18
ATOM     18  C   LIG d   1       8.467   1.300  -6.091  0.00  0.00     0.276 A 
ATOM     19  N   LIG d   1       7.408   1.553  -5.364  0.00  0.00    -0.186 NA
ATOM     20  C   LIG d   1       7.198   0.439  -4.627  0.00  0.00     0.202 A 
ATOM     21  N   LIG d   1       8.136  -0.415  -4.945  0.00  0.00    -0.056 NA
ATOM     22  O   LIG d   1       8.867   0.062  -5.786  0.00  0.00    -0.332 OA
BRANCH  20  23
ATOM     23  C   LIG d   1       6.111   0.228  -3.640  0.00  0.00     0.023 A 
ATOM     24  C   LIG d   1       5.684   1.281  -2.834  0.00  0.00    -0.051 A 
ATOM     25  C   LIG d   1       4.673   1.078  -1.916  0.00  0.00    -0.061 A 
ATOM     26  H   LIG d   1       6.144   2.253  -2.926  0.00  0.00     0.062 H 
ATOM     27  C   LIG d   1       4.084  -0.168  -1.796  0.00  0.00    -0.059 A 
ATOM     28  H   LIG d   1       4.341   1.894  -1.290  0.00  0.00     0.062 H 
ATOM     29  C   LIG d   1       4.500  -1.215  -2.598  0.00  0.00    -0.050 A 
ATOM     30  H   LIG d   1       3.293  -0.322  -1.078  0.00  0.00     0.062 H 
ATOM     31  C   LIG d   1       5.514  -1.025  -3.514  0.00  0.00    -0.048 A 
ATOM     32  H   LIG d   1       5.841  -1.845  -4.137  0.00  0.00     0.063 H 
BRANCH  29  33
ATOM     33  C   LIG d   1       3.849  -2.568  -2.466  0.00  0.00    -0.040 C 
ATOM     34  H   LIG d   1       3.666  -2.981  -3.458  0.00  0.00     0.028 H 
ATOM     35  H   LIG d   1       4.507  -3.235  -1.910  0.00  0.00     0.028 H 
ATOM     36  H   LIG d   1       2.902  -2.465  -1.935  0.00  0.00     0.028 H 
ENDBRANCH  29  33
ENDBRANCH  20  23
ENDBRANCH   1  18
BRANCH  16  37
ATOM     37  C   LIG d   1       7.582   1.195  -8.652  0.00  0.00    -0.005 C 
ATOM     38  H   LIG d   1       7.978   0.910  -9.626  0.00  0.00     0.087 H 
ATOM     39  H   LIG d   1       7.818   0.420  -7.923  0.00  0.00     0.087 H 
BRANCH  37  40
ATOM     40  C   LIG d   1       6.086   1.357  -8.746  0.00  0.00     0.001 A 
ATOM     41  C   LIG d   1       5.257   0.297  -8.437  0.00  0.00    -0.011 A 
ATOM     42  C   LIG d   1       3.880   0.448  -8.519  0.00  0.00     0.130 A 
ATOM     43  H   LIG d   1       5.679  -0.648  -8.128  0.00  0.00     0.066 H 
ATOM     44  C   LIG d   1       3.341   1.660  -8.923  0.00  0.00    -0.020 A 
ATOM     45  C   LIG d   1       4.175   2.716  -9.235  0.00  0.00    -0.058 A 
ATOM     46  H   LIG d   1       2.270   1.779  -8.992  0.00  0.00     0.065 H 
ATOM     47  C   LIG d   1       5.547   2.565  -9.147  0.00  0.00    -0.053 A 
ATOM     48  H   LIG d   1       3.755   3.661  -9.549  0.00  0.00     0.062 H 
ATOM     49  H   LIG d   1       6.197   3.391  -9.393  0.00  0.00     0.062 H 
BRANCH  42  50
ATOM     50  O   LIG d   1       3.061  -0.592  -8.212  0.00  0.00    -0.406 OA
BRANCH  50  51
ATOM     51  C   LIG d   1       2.464  -1.294  -9.305  0.00  0.00     0.575 C 
ATOM     52  F   LIG d   1       2.508  -2.670  -9.055  0.00  0.00    -0.133 F 
ATOM     53  F   LIG d   1       1.133  -0.887  -9.449  0.00  0.00    -0.133 F 
ATOM     54  F   LIG d   1       3.169  -1.011 -10.480  0.00  0.00    -0.133 F 
ENDBRANCH  50  51
ENDBRANCH  42  50
ENDBRANCH  37  40
ENDBRANCH  16  37
TORSDOF 7
ENDMDL
MODEL 4
REMARK VINA RESULT:      -7.2      4.988      8.851
REMARK  7 active torsions:
REMARK  status: ('A' for Active; 'I' for Inactive)
REMARK    1  A    between atoms: C_1  and  C_2 
REMARK    2  A    between atoms: C_6  and  C_8 
REMARK    3  A    between atoms: C_10  and  C_13 
REMARK    4  A    between atoms: C_23  and  C_24 
REMARK    5  A    between atoms: C_23  and  N_53 
REMARK    6  A    between atoms: C_28  and  O_30 
REMARK    7  A    between atoms: O_30  and  C_31 
ROOT
ATOM      1  C   LIG d   1       5.701  -6.285  -7.277  0.00  0.00     0.066 C 
ATOM      2  H   LIG d   1       6.463  -6.870  -7.791  0.00  0.00     0.096 H 
ATOM      3  C   LIG d   1       4.471  -7.166  -7.014  0.00  0.00     0.043 C 
ATOM      4  C   LIG d   1       4.836  -8.161  -5.943  0.00  0.00     0.073 A 
ATOM      5  C   LIG d   1       5.921  -8.035  -5.145  0.00  0.00     0.084 A 
ATOM      6  N   LIG d   1       5.948  -9.082  -4.321  0.00  0.00    -0.344 N 
ATOM      7  C   LIG d   1       4.922  -9.854  -4.572  0.00  0.00     0.094 A 
ATOM      8  N   LIG d   1       4.204  -9.307  -5.582  0.00  0.00    -0.240 NA
ATOM      9  H   LIG d   1       6.643  -9.252  -3.621  0.00  0.00     0.167 HD
ATOM     10  C   LIG d   1       6.885  -6.878  -5.236  0.00  0.00     0.012 C 
ATOM     11  H   LIG d   1       3.640  -6.546  -6.675  0.00  0.00     0.039 H 
ATOM     12  H   LIG d   1       4.192  -7.692  -7.927  0.00  0.00     0.039 H 
ATOM     13  H   LIG d   1       4.686 -10.775  -4.060  0.00  0.00     0.103 H 
ATOM     14  H   LIG d   1       7.793  -7.196  -5.748  0.00  0.00     0.088 H 
ATOM     15  H   LIG d   1       7.130  -6.525  -4.234  0.00  0.00     0.088 H 
ATOM     16  N   LIG d   1       6.214  -5.784  -5.981  0.00  0.00     0.252 N 
ATOM     17  H   LIG d   1       5.426  -5.436  -5.424  0.00  0.00     0.205 HD
ENDROOT
BRANCH   1  18
ATOM     18  C   LIG d   1       5.305  -5.111  -8.136  0.00  0.00     0.276 A 
ATOM     19  N   LIG d   1       4.242  -4.362  -7.986  0.00  0.00    -0.186 NA
ATOM     20  C   LIG d   1       4.301  -3.444  -8.977  0.00  0.00     0.202 A 
ATOM     21  N   LIG d   1       5.385  -3.690  -9.666  0.00  0.00    -0.056 NA
ATOM     22  O   LIG d   1       5.973  -4.640  -9.193  0.00  0.00    -0.332 OA
BRANCH  20  23
ATOM     23  C   LIG d   1       3.320  -2.362  -9.236  0.00  0.00     0.023 A 
ATOM     24  C   LIG d   1       2.186  -2.617 -10.004  0.00  0.00    -0.051 A 
ATOM     25  C   LIG d   1       1.276  -1.606 -10.244  0.00  0.00    -0.061 A 
ATOM     26  H   LIG d   1       2.020  -3.602 -10.412  0.00  0.00     0.062 H 
ATOM     27  C   LIG d   1       1.489  -0.343  -9.723  0.00  0.00    -0.059 A 
ATOM     28  H   LIG d   1       0.396  -1.803 -10.839  0.00  0.00     0.062 H 
ATOM     29  C   LIG d   1       2.610  -0.086  -8.954  0.00  0.00    -0.050 A 
ATOM     30  H   LIG d   1       0.774   0.444  -9.912  0.00  0.00     0.062 H 
ATOM     31  C   LIG d   1       3.529  -1.087  -8.714  0.00  0.00    -0.048 A 
ATOM     32  H   LIG d   1       4.406  -0.884  -8.118  0.00  0.00     0.063 H 
BRANCH  29  33
ATOM     33  C   LIG d   1       2.832   1.291  -8.385  0.00  0.00    -0.040 C 
ATOM     34  H   LIG d   1       1.950   1.906  -8.566  0.00  0.00     0.028 H 
ATOM     35  H   LIG d   1       3.008   1.217  -7.312  0.00  0.00     0.028 H 
ATOM     36  H   LIG d   1       3.698   1.748  -8.864  0.00  0.00     0.028 H 
ENDBRANCH  29  33
ENDBRANCH  20  23
ENDBRANCH   1  18
BRANCH  16  37
ATOM     37  C   LIG d   1       7.165  -4.676  -6.212  0.00  0.00    -0.005 C 
ATOM     38  H   LIG d   1       8.191  -5.040  -6.198  0.00  0.00     0.087 H 
ATOM     39  H   LIG d   1       6.953  -4.222  -7.180  0.00  0.00     0.087 H 
BRANCH  37  40
ATOM     40  C   LIG d   1       6.982  -3.648  -5.124  0.00  0.00     0.001 A 
ATOM     41  C   LIG d   1       5.774  -2.992  -4.992  0.00  0.00    -0.011 A 
ATOM     42  C   LIG d   1       5.605  -2.049  -3.988  0.00  0.00     0.130 A 
ATOM     43  H   LIG d   1       4.961  -3.213  -5.667  0.00  0.00     0.066 H 
ATOM     44  C   LIG d   1       6.653  -1.761  -3.127  0.00  0.00    -0.020 A 
ATOM     45  C   LIG d   1       7.861  -2.418  -3.267  0.00  0.00    -0.058 A 
ATOM     46  H   LIG d   1       6.526  -1.024  -2.348  0.00  0.00     0.065 H 
ATOM     47  C   LIG d   1       8.026  -3.361  -4.264  0.00  0.00    -0.053 A 
ATOM     48  H   LIG d   1       8.677  -2.194  -2.595  0.00  0.00     0.062 H 
ATOM     49  H   LIG d   1       8.970  -3.872  -4.372  0.00  0.00     0.062 H 
BRANCH  42  50
ATOM     50  O   LIG d   1       4.417  -1.403  -3.853  0.00  0.00    -0.406 OA
BRANCH  50  51
ATOM     51  C   LIG d   1       3.696  -1.618  -2.638  0.00  0.00     0.575 C 
ATOM     52  F   LIG d   1       4.290  -0.881  -1.607  0.00  0.00    -0.133 F 
ATOM     53  F   LIG d   1       2.370  -1.204  -2.803  0.00  0.00    -0.133 F 
ATOM     54  F   LIG d   1       3.723  -2.978  -2.314  0.00  0.00    -0.133 F 
ENDBRANCH  50  51
ENDBRANCH  42  50
ENDBRANCH  37  40
ENDBRANCH  16  37
TORSDOF 7
ENDMDL
MODEL 5
REMARK VINA RESULT:      -7.2      2.960      6.225
REMARK  7 active torsions:
REMARK  status: ('A' for Active; 'I' for Inactive)
REMARK    1  A    between atoms: C_1  and  C_2 
REMARK    2  A    between atoms: C_6  and  C_8 
REMARK    3  A    between atoms: C_10  and  C_13 
REMARK    4  A    between atoms: C_23  and  C_24 
REMARK    5  A    between atoms: C_23  and  N_53 
REMARK    6  A    between atoms: C_28  and  O_30 
REMARK    7  A    between atoms: O_30  and  C_31 
ROOT
ATOM      1  C   LIG d   1       5.524  -1.077  -8.719  0.00  0.00     0.066 C 
ATOM      2  H   LIG d   1       5.866  -1.867  -9.388  0.00  0.00     0.096 H 
ATOM      3  C   LIG d   1       4.794   0.002  -9.534  0.00  0.00     0.043 C 
ATOM      4  C   LIG d   1       3.479  -0.575  -9.990  0.00  0.00     0.073 A 
ATOM      5  C   LIG d   1       2.931  -1.694  -9.462  0.00  0.00     0.084 A 
ATOM      6  N   LIG d   1       1.780  -1.924 -10.094  0.00  0.00    -0.344 N 
ATOM      7  C   LIG d   1       1.588  -0.993 -10.992  0.00  0.00     0.094 A 
ATOM      8  N   LIG d   1       2.632  -0.131 -10.954  0.00  0.00    -0.240 NA
ATOM      9  H   LIG d   1       1.160  -2.688  -9.911  0.00  0.00     0.167 HD
ATOM     10  C   LIG d   1       3.576  -2.486  -8.352  0.00  0.00     0.012 C 
ATOM     11  H   LIG d   1       4.617   0.877  -8.909  0.00  0.00     0.039 H 
ATOM     12  H   LIG d   1       5.395   0.280 -10.400  0.00  0.00     0.039 H 
ATOM     13  H   LIG d   1       0.738  -0.921 -11.654  0.00  0.00     0.103 H 
ATOM     14  H   LIG d   1       4.036  -3.385  -8.762  0.00  0.00     0.088 H 
ATOM     15  H   LIG d   1       2.823  -2.762  -7.613  0.00  0.00     0.088 H 
ATOM     16  N   LIG d   1       4.592  -1.621  -7.705  0.00  0.00     0.252 N 
ATOM     17  H   LIG d   1       4.116  -0.839  -7.240  0.00  0.00     0.205 HD
ENDROOT
BRANCH   1  18
ATOM     18  C   LIG d   1       6.709  -0.463  -8.020  0.00  0.00     0.276 A 
ATOM     19  N   LIG d   1       6.686   0.562  -7.206  0.00  0.00    -0.186 NA
ATOM     20  C   LIG d   1       7.969   0.754  -6.826  0.00  0.00     0.202 A 
ATOM     21  N   LIG d   1       8.690  -0.155  -7.429  0.00  0.00    -0.056 NA
ATOM     22  O   LIG d   1       7.981  -0.862  -8.113  0.00  0.00    -0.332 OA
BRANCH  20  23
ATOM     23  C   LIG d   1       8.467   1.802  -5.901  0.00  0.00     0.023 A 
ATOM     24  C   LIG d   1       8.332   1.640  -4.524  0.00  0.00    -0.051 A 
ATOM     25  C   LIG d   1       8.797   2.619  -3.668  0.00  0.00    -0.061 A 
ATOM     26  H   LIG d   1       7.865   0.752  -4.127  0.00  0.00     0.062 H 
ATOM     27  C   LIG d   1       9.393   3.759  -4.175  0.00  0.00    -0.059 A 
ATOM     28  H   LIG d   1       8.693   2.494  -2.600  0.00  0.00     0.062 H 
ATOM     29  C   LIG d   1       9.535   3.922  -5.542  0.00  0.00    -0.050 A 
ATOM     30  H   LIG d   1       9.756   4.521  -3.502  0.00  0.00     0.062 H 
ATOM     31  C   LIG d   1       9.069   2.953  -6.406  0.00  0.00    -0.048 A 
ATOM     32  H   LIG d   1       9.176   3.083  -7.473  0.00  0.00     0.063 H 
BRANCH  29  33
ATOM     33  C   LIG d   1      10.193   5.163  -6.087  0.00  0.00    -0.040 C 
ATOM     34  H   LIG d   1      11.264   5.123  -5.890  0.00  0.00     0.028 H 
ATOM     35  H   LIG d   1      10.022   5.223  -7.161  0.00  0.00     0.028 H 
ATOM     36  H   LIG d   1       9.767   6.042  -5.602  0.00  0.00     0.028 H 
ENDBRANCH  29  33
ENDBRANCH  20  23
ENDBRANCH   1  18
BRANCH  16  37
ATOM     37  C   LIG d   1       5.343  -2.395  -6.696  0.00  0.00    -0.005 C 
ATOM     38  H   LIG d   1       5.281  -3.463  -6.905  0.00  0.00     0.087 H 
ATOM     39  H   LIG d   1       6.387  -2.082  -6.713  0.00  0.00     0.087 H 
BRANCH  37  40
ATOM     40  C   LIG d   1       4.757  -2.115  -5.336  0.00  0.00     0.001 A 
ATOM     41  C   LIG d   1       4.160  -0.896  -5.081  0.00  0.00    -0.011 A 
ATOM     42  C   LIG d   1       3.616  -0.640  -3.830  0.00  0.00     0.130 A 
ATOM     43  H   LIG d   1       4.112  -0.144  -5.854  0.00  0.00     0.066 H 
ATOM     44  C   LIG d   1       3.684  -1.605  -2.836  0.00  0.00    -0.020 A 
ATOM     45  C   LIG d   1       4.287  -2.821  -3.096  0.00  0.00    -0.058 A 
ATOM     46  H   LIG d   1       3.266  -1.407  -1.860  0.00  0.00     0.065 H 
ATOM     47  C   LIG d   1       4.823  -3.076  -4.344  0.00  0.00    -0.053 A 
ATOM     48  H   LIG d   1       4.339  -3.573  -2.322  0.00  0.00     0.062 H 
ATOM     49  H   LIG d   1       5.294  -4.026  -4.545  0.00  0.00     0.062 H 
BRANCH  42  50
ATOM     50  O   LIG d   1       3.024   0.557  -3.576  0.00  0.00    -0.406 OA
BRANCH  50  51
ATOM     51  C   LIG d   1       3.822   1.552  -2.931  0.00  0.00     0.575 C 
ATOM     52  F   LIG d   1       5.163   1.380  -3.290  0.00  0.00    -0.133 F 
ATOM     53  F   LIG d   1       3.392   2.823  -3.327  0.00  0.00    -0.133 F 
ATOM     54  F   LIG d   1       3.690   1.426  -1.544  0.00  0.00    -0.133 F 
ENDBRANCH  50  51
ENDBRANCH  42  50
ENDBRANCH  37  40
ENDBRANCH  16  37
TORSDOF 7
ENDMDL
MODEL 6
REMARK VINA RESULT:      -7.0      3.642      6.176
REMARK  7 active torsions:
REMARK  status: ('A' for Active; 'I' for Inactive)
REMARK    1  A    between atoms: C_1  and  C_2 
REMARK    2  A    between atoms: C_6  and  C_8 
REMARK    3  A    between atoms: C_10  and  C_13 
REMARK    4  A    between atoms: C_23  and  C_24 
REMARK    5  A    between atoms: C_23  and  N_53 
REMARK    6  A    between atoms: C_28  and  O_30 
REMARK    7  A    between atoms: O_30  and  C_31 
ROOT
ATOM      1  C   LIG d   1       2.886  -0.298  -9.816  0.00  0.00     0.066 C 
ATOM      2  H   LIG d   1       2.115   0.344 -10.242  0.00  0.00     0.096 H 
ATOM      3  C   LIG d   1       2.473  -1.769  -9.979  0.00  0.00     0.043 C 
ATOM      4  C   LIG d   1       2.588  -2.120 -11.441  0.00  0.00     0.073 A 
ATOM      5  C   LIG d   1       3.267  -1.369 -12.338  0.00  0.00     0.084 A 
ATOM      6  N   LIG d   1       3.162  -1.959 -13.529  0.00  0.00    -0.344 N 
ATOM      7  C   LIG d   1       2.447  -3.048 -13.408  0.00  0.00     0.094 A 
ATOM      8  N   LIG d   1       2.072  -3.181 -12.114  0.00  0.00    -0.240 NA
ATOM      9  H   LIG d   1       3.566  -1.623 -14.380  0.00  0.00     0.167 HD
ATOM     10  C   LIG d   1       3.990  -0.097 -11.973  0.00  0.00     0.012 C 
ATOM     11  H   LIG d   1       3.138  -2.405  -9.393  0.00  0.00     0.039 H 
ATOM     12  H   LIG d   1       1.444  -1.903  -9.647  0.00  0.00     0.039 H 
ATOM     13  H   LIG d   1       2.198  -3.730 -14.208  0.00  0.00     0.103 H 
ATOM     14  H   LIG d   1       3.405   0.764 -12.294  0.00  0.00     0.088 H 
ATOM     15  H   LIG d   1       4.967  -0.079 -12.457  0.00  0.00     0.088 H 
ATOM     16  N   LIG d   1       4.180  -0.087 -10.502  0.00  0.00     0.252 N 
ATOM     17  H   LIG d   1       4.820  -0.847 -10.244  0.00  0.00     0.205 HD
ENDROOT
BRANCH   1  18
ATOM     18  C   LIG d   1       3.048   0.017  -8.351  0.00  0.00     0.276 A 
ATOM     19  N   LIG d   1       3.508  -0.789  -7.427  0.00  0.00    -0.186 NA
ATOM     20  C   LIG d   1       3.472  -0.082  -6.276  0.00  0.00     0.202 A 
ATOM     21  N   LIG d   1       2.993   1.100  -6.564  0.00  0.00    -0.056 NA
ATOM     22  O   LIG d   1       2.750   1.173  -7.750  0.00  0.00    -0.332 OA
BRANCH  20  23
ATOM     23  C   LIG d   1       3.893  -0.558  -4.935  0.00  0.00     0.023 A 
ATOM     24  C   LIG d   1       4.164  -1.909  -4.727  0.00  0.00    -0.051 A 
ATOM     25  C   LIG d   1       4.555  -2.347  -3.477  0.00  0.00    -0.061 A 
ATOM     26  H   LIG d   1       4.068  -2.612  -5.541  0.00  0.00     0.062 H 
ATOM     27  C   LIG d   1       4.676  -1.449  -2.434  0.00  0.00    -0.059 A 
ATOM     28  H   LIG d   1       4.765  -3.395  -3.315  0.00  0.00     0.062 H 
ATOM     29  C   LIG d   1       4.415  -0.106  -2.637  0.00  0.00    -0.050 A 
ATOM     30  H   LIG d   1       4.983  -1.796  -1.458  0.00  0.00     0.062 H 
ATOM     31  C   LIG d   1       4.018   0.343  -3.879  0.00  0.00    -0.048 A 
ATOM     32  H   LIG d   1       3.809   1.391  -4.036  0.00  0.00     0.063 H 
BRANCH  29  33
ATOM     33  C   LIG d   1       4.556   0.869  -1.496  0.00  0.00    -0.040 C 
ATOM     34  H   LIG d   1       4.832   1.848  -1.886  0.00  0.00     0.028 H 
ATOM     35  H   LIG d   1       3.609   0.943  -0.961  0.00  0.00     0.028 H 
ATOM     36  H   LIG d   1       5.332   0.519  -0.813  0.00  0.00     0.028 H 
ENDBRANCH  29  33
ENDBRANCH  20  23
ENDBRANCH   1  18
BRANCH  16  37
ATOM     37  C   LIG d   1       4.768   1.201 -10.080  0.00  0.00    -0.005 C 
ATOM     38  H   LIG d   1       4.935   1.849 -10.939  0.00  0.00     0.087 H 
ATOM     39  H   LIG d   1       4.088   1.690  -9.382  0.00  0.00     0.087 H 
BRANCH  37  40
ATOM     40  C   LIG d   1       6.083   0.931  -9.393  0.00  0.00     0.001 A 
ATOM     41  C   LIG d   1       6.332   1.466  -8.144  0.00  0.00    -0.011 A 
ATOM     42  C   LIG d   1       7.540   1.213  -7.511  0.00  0.00     0.130 A 
ATOM     43  H   LIG d   1       5.586   2.078  -7.660  0.00  0.00     0.066 H 
ATOM     44  C   LIG d   1       8.499   0.432  -8.138  0.00  0.00    -0.020 A 
ATOM     45  C   LIG d   1       8.246  -0.098  -9.389  0.00  0.00    -0.058 A 
ATOM     46  H   LIG d   1       9.442   0.237  -7.649  0.00  0.00     0.065 H 
ATOM     47  C   LIG d   1       7.040   0.150 -10.016  0.00  0.00    -0.053 A 
ATOM     48  H   LIG d   1       8.993  -0.707  -9.877  0.00  0.00     0.062 H 
ATOM     49  H   LIG d   1       6.845  -0.263 -10.994  0.00  0.00     0.062 H 
BRANCH  42  50
ATOM     50  O   LIG d   1       7.787   1.736  -6.281  0.00  0.00    -0.406 OA
BRANCH  50  51
ATOM     51  C   LIG d   1       7.743   0.835  -5.172  0.00  0.00     0.575 C 
ATOM     52  F   LIG d   1       7.133   1.466  -4.082  0.00  0.00    -0.133 F 
ATOM     53  F   LIG d   1       7.008  -0.302  -5.524  0.00  0.00    -0.133 F 
ATOM     54  F   LIG d   1       9.045   0.460  -4.825  0.00  0.00    -0.133 F 
ENDBRANCH  50  51
ENDBRANCH  42  50
ENDBRANCH  37  40
ENDBRANCH  16  37
TORSDOF 7
ENDMDL
MODEL 7
REMARK VINA RESULT:      -6.9      4.786      7.177
REMARK  7 active torsions:
REMARK  status: ('A' for Active; 'I' for Inactive)
REMARK    1  A    between atoms: C_1  and  C_2 
REMARK    2  A    between atoms: C_6  and  C_8 
REMARK    3  A    between atoms: C_10  and  C_13 
REMARK    4  A    between atoms: C_23  and  C_24 
REMARK    5  A    between atoms: C_23  and  N_53 
REMARK    6  A    between atoms: C_28  and  O_30 
REMARK    7  A    between atoms: O_30  and  C_31 
ROOT
ATOM      1  C   LIG d   1       5.257  -2.788  -4.608  0.00  0.00     0.066 C 
ATOM      2  H   LIG d   1       6.304  -2.846  -4.310  0.00  0.00     0.096 H 
ATOM      3  C   LIG d   1       4.395  -2.447  -3.383  0.00  0.00     0.043 C 
ATOM      4  C   LIG d   1       4.666  -1.011  -3.013  0.00  0.00     0.073 A 
ATOM      5  C   LIG d   1       5.277  -0.130  -3.838  0.00  0.00     0.084 A 
ATOM      6  N   LIG d   1       5.361   1.038  -3.200  0.00  0.00    -0.344 N 
ATOM      7  C   LIG d   1       4.825   0.919  -2.013  0.00  0.00     0.094 A 
ATOM      8  N   LIG d   1       4.379  -0.351  -1.862  0.00  0.00    -0.240 NA
ATOM      9  H   LIG d   1       5.769   1.873  -3.571  0.00  0.00     0.167 HD
ATOM     10  C   LIG d   1       5.751  -0.488  -5.224  0.00  0.00     0.012 C 
ATOM     11  H   LIG d   1       3.340  -2.573  -3.628  0.00  0.00     0.039 H 
ATOM     12  H   LIG d   1       4.662  -3.099  -2.551  0.00  0.00     0.039 H 
ATOM     13  H   LIG d   1       4.750   1.703  -1.275  0.00  0.00     0.103 H 
ATOM     14  H   LIG d   1       6.832  -0.623  -5.220  0.00  0.00     0.088 H 
ATOM     15  H   LIG d   1       5.482   0.308  -5.920  0.00  0.00     0.088 H 
ATOM     16  N   LIG d   1       5.064  -1.737  -5.633  0.00  0.00     0.252 N 
ATOM     17  H   LIG d   1       4.060  -1.549  -5.730  0.00  0.00     0.205 HD
ENDROOT
BRANCH   1  18
ATOM     18  C   LIG d   1       4.822  -4.115  -5.175  0.00  0.00     0.276 A 
ATOM     19  N   LIG d   1       5.504  -5.232  -5.150  0.00  0.00    -0.186 NA
ATOM     20  C   LIG d   1       4.725  -6.148  -5.769  0.00  0.00     0.202 A 
ATOM     21  N   LIG d   1       3.628  -5.536  -6.134  0.00  0.00    -0.056 NA
ATOM     22  O   LIG d   1       3.667  -4.372  -5.796  0.00  0.00    -0.332 OA
BRANCH  20  23
ATOM     23  C   LIG d   1       5.054  -7.576  -5.997  0.00  0.00     0.023 A 
ATOM     24  C   LIG d   1       4.633  -8.214  -7.162  0.00  0.00    -0.051 A 
ATOM     25  C   LIG d   1       4.942  -9.543  -7.368  0.00  0.00    -0.061 A 
ATOM     26  H   LIG d   1       4.067  -7.669  -7.902  0.00  0.00     0.062 H 
ATOM     27  C   LIG d   1       5.667 -10.242  -6.420  0.00  0.00    -0.059 A 
ATOM     28  H   LIG d   1       4.616 -10.038  -8.271  0.00  0.00     0.062 H 
ATOM     29  C   LIG d   1       6.093  -9.613  -5.265  0.00  0.00    -0.050 A 
ATOM     30  H   LIG d   1       5.907 -11.282  -6.586  0.00  0.00     0.062 H 
ATOM     31  C   LIG d   1       5.785  -8.286  -5.045  0.00  0.00    -0.048 A 
ATOM     32  H   LIG d   1       6.113  -7.796  -4.140  0.00  0.00     0.063 H 
BRANCH  29  33
ATOM     33  C   LIG d   1       6.888 -10.380  -4.240  0.00  0.00    -0.040 C 
ATOM     34  H   LIG d   1       6.608 -10.048  -3.240  0.00  0.00     0.028 H 
ATOM     35  H   LIG d   1       6.681 -11.445  -4.341  0.00  0.00     0.028 H 
ATOM     36  H   LIG d   1       7.952 -10.200  -4.397  0.00  0.00     0.028 H 
ENDBRANCH  29  33
ENDBRANCH  20  23
ENDBRANCH   1  18
BRANCH  16  37
ATOM     37  C   LIG d   1       5.594  -2.200  -6.932  0.00  0.00    -0.005 C 
ATOM     38  H   LIG d   1       6.613  -1.846  -7.081  0.00  0.00     0.087 H 
ATOM     39  H   LIG d   1       5.581  -3.290  -6.953  0.00  0.00     0.087 H 
BRANCH  37  40
ATOM     40  C   LIG d   1       4.711  -1.666  -8.032  0.00  0.00     0.001 A 
ATOM     41  C   LIG d   1       5.002  -0.451  -8.621  0.00  0.00    -0.011 A 
ATOM     42  C   LIG d   1       4.193   0.037  -9.637  0.00  0.00     0.130 A 
ATOM     43  H   LIG d   1       5.860   0.117  -8.294  0.00  0.00     0.066 H 
ATOM     44  C   LIG d   1       3.088  -0.691 -10.050  0.00  0.00    -0.020 A 
ATOM     45  C   LIG d   1       2.799  -1.904  -9.455  0.00  0.00    -0.058 A 
ATOM     46  H   LIG d   1       2.453  -0.311 -10.837  0.00  0.00     0.065 H 
ATOM     47  C   LIG d   1       3.610  -2.392  -8.447  0.00  0.00    -0.053 A 
ATOM     48  H   LIG d   1       1.938  -2.472  -9.778  0.00  0.00     0.062 H 
ATOM     49  H   LIG d   1       3.382  -3.339  -7.983  0.00  0.00     0.062 H 
BRANCH  42  50
ATOM     50  O   LIG d   1       4.478   1.231 -10.221  0.00  0.00    -0.406 OA
BRANCH  50  51
ATOM     51  C   LIG d   1       4.036   2.408  -9.542  0.00  0.00     0.575 C 
ATOM     52  F   LIG d   1       5.146   3.169  -9.157  0.00  0.00    -0.133 F 
ATOM     53  F   LIG d   1       3.226   3.163 -10.397  0.00  0.00    -0.133 F 
ATOM     54  F   LIG d   1       3.304   2.044  -8.407  0.00  0.00    -0.133 F 
ENDBRANCH  50  51
ENDBRANCH  42  50
ENDBRANCH  37  40
ENDBRANCH  16  37
TORSDOF 7
ENDMDL
MODEL 8
REMARK VINA RESULT:      -6.9      3.787      6.012
REMARK  7 active torsions:
REMARK  status: ('A' for Active; 'I' for Inactive)
REMARK    1  A    between atoms: C_1  and  C_2 
REMARK    2  A    between atoms: C_6  and  C_8 
REMARK    3  A    between atoms: C_10  and  C_13 
REMARK    4  A    between atoms: C_23  and  C_24 
REMARK    5  A    between atoms: C_23  and  N_53 
REMARK    6  A    between atoms: C_28  and  O_30 
REMARK    7  A    between atoms: O_30  and  C_31 
ROOT
ATOM      1  C   LIG d   1       8.849   1.671  -5.337  0.00  0.00     0.066 C 
ATOM      2  H   LIG d   1       9.444   0.774  -5.511  0.00  0.00     0.096 H 
ATOM      3  C   LIG d   1       8.783   2.498  -6.630  0.00  0.00     0.043 C 
ATOM      4  C   LIG d   1       7.904   1.759  -7.606  0.00  0.00     0.073 A 
ATOM      5  C   LIG d   1       7.071   0.755  -7.249  0.00  0.00     0.084 A 
ATOM      6  N   LIG d   1       6.453   0.324  -8.349  0.00  0.00    -0.344 N 
ATOM      7  C   LIG d   1       6.867   1.021  -9.376  0.00  0.00     0.094 A 
ATOM      8  N   LIG d   1       7.776   1.929  -8.947  0.00  0.00    -0.240 NA
ATOM      9  H   LIG d   1       5.779  -0.415  -8.384  0.00  0.00     0.167 HD
ATOM     10  C   LIG d   1       6.924   0.268  -5.829  0.00  0.00     0.012 C 
ATOM     11  H   LIG d   1       8.356   3.479  -6.418  0.00  0.00     0.039 H 
ATOM     12  H   LIG d   1       9.784   2.612  -7.047  0.00  0.00     0.039 H 
ATOM     13  H   LIG d   1       6.539   0.894 -10.397  0.00  0.00     0.103 H 
ATOM     14  H   LIG d   1       7.463  -0.671  -5.705  0.00  0.00     0.088 H 
ATOM     15  H   LIG d   1       5.869   0.120  -5.599  0.00  0.00     0.088 H 
ATOM     16  N   LIG d   1       7.471   1.313  -4.930  0.00  0.00     0.252 N 
ATOM     17  H   LIG d   1       6.879   2.149  -4.992  0.00  0.00     0.205 HD
ENDROOT
BRANCH   1  18
ATOM     18  C   LIG d   1       9.487   2.493  -4.247  0.00  0.00     0.276 A 
ATOM     19  N   LIG d   1       9.211   3.738  -3.949  0.00  0.00    -0.186 NA
ATOM     20  C   LIG d   1      10.022   4.053  -2.914  0.00  0.00     0.202 A 
ATOM     21  N   LIG d   1      10.739   2.992  -2.650  0.00  0.00    -0.056 NA
ATOM     22  O   LIG d   1      10.440   2.089  -3.402  0.00  0.00    -0.332 OA
BRANCH  20  23
ATOM     23  C   LIG d   1      10.089   5.358  -2.213  0.00  0.00     0.023 A 
ATOM     24  C   LIG d   1       9.640   6.516  -2.845  0.00  0.00    -0.051 A 
ATOM     25  C   LIG d   1       9.706   7.728  -2.188  0.00  0.00    -0.061 A 
ATOM     26  H   LIG d   1       9.242   6.464  -3.847  0.00  0.00     0.062 H 
ATOM     27  C   LIG d   1      10.217   7.795  -0.905  0.00  0.00    -0.059 A 
ATOM     28  H   LIG d   1       9.358   8.626  -2.678  0.00  0.00     0.062 H 
ATOM     29  C   LIG d   1      10.658   6.648  -0.270  0.00  0.00    -0.050 A 
ATOM     30  H   LIG d   1      10.265   8.745  -0.394  0.00  0.00     0.062 H 
ATOM     31  C   LIG d   1      10.603   5.432  -0.919  0.00  0.00    -0.048 A 
ATOM     32  H   LIG d   1      10.952   4.538  -0.424  0.00  0.00     0.063 H 
BRANCH  29  33
ATOM     33  C   LIG d   1      11.207   6.729   1.131  0.00  0.00    -0.040 C 
ATOM     34  H   LIG d   1      11.416   5.724   1.498  0.00  0.00     0.028 H 
ATOM     35  H   LIG d   1      12.127   7.313   1.129  0.00  0.00     0.028 H 
ATOM     36  H   LIG d   1      10.474   7.207   1.782  0.00  0.00     0.028 H 
ENDBRANCH  29  33
ENDBRANCH  20  23
ENDBRANCH   1  18
BRANCH  16  37
ATOM     37  C   LIG d   1       7.471   0.827  -3.535  0.00  0.00    -0.005 C 
ATOM     38  H   LIG d   1       8.222   0.049  -3.397  0.00  0.00     0.087 H 
ATOM     39  H   LIG d   1       7.686   1.661  -2.867  0.00  0.00     0.087 H 
BRANCH  37  40
ATOM     40  C   LIG d   1       6.107   0.269  -3.217  0.00  0.00     0.001 A 
ATOM     41  C   LIG d   1       5.845  -1.072  -3.424  0.00  0.00    -0.011 A 
ATOM     42  C   LIG d   1       4.590  -1.586  -3.127  0.00  0.00     0.130 A 
ATOM     43  H   LIG d   1       6.615  -1.720  -3.813  0.00  0.00     0.066 H 
ATOM     44  C   LIG d   1       3.600  -0.750  -2.634  0.00  0.00    -0.020 A 
ATOM     45  C   LIG d   1       3.866   0.591  -2.433  0.00  0.00    -0.058 A 
ATOM     46  H   LIG d   1       2.622  -1.146  -2.406  0.00  0.00     0.065 H 
ATOM     47  C   LIG d   1       5.119   1.100  -2.724  0.00  0.00    -0.053 A 
ATOM     48  H   LIG d   1       3.095   1.242  -2.048  0.00  0.00     0.062 H 
ATOM     49  H   LIG d   1       5.324   2.148  -2.567  0.00  0.00     0.062 H 
BRANCH  42  50
ATOM     50  O   LIG d   1       4.330  -2.905  -3.326  0.00  0.00    -0.406 OA
BRANCH  50  51
ATOM     51  C   LIG d   1       4.859  -3.499  -4.513  0.00  0.00     0.575 C 
ATOM     52  F   LIG d   1       6.255  -3.549  -4.428  0.00  0.00    -0.133 F 
ATOM     53  F   LIG d   1       4.353  -4.796  -4.651  0.00  0.00    -0.133 F 
ATOM     54  F   LIG d   1       4.487  -2.733  -5.623  0.00  0.00    -0.133 F 
ENDBRANCH  50  51
ENDBRANCH  42  50
ENDBRANCH  37  40
ENDBRANCH  16  37
TORSDOF 7
ENDMDL
MODEL 9
REMARK VINA RESULT:      -6.8      2.973      6.409
REMARK  7 active torsions:
REMARK  status: ('A' for Active; 'I' for Inactive)
REMARK    1  A    between atoms: C_1  and  C_2 
REMARK    2  A    between atoms: C_6  and  C_8 
REMARK    3  A    between atoms: C_10  and  C_13 
REMARK    4  A    between atoms: C_23  and  C_24 
REMARK    5  A    between atoms: C_23  and  N_53 
REMARK    6  A    between atoms: C_28  and  O_30 
REMARK    7  A    between atoms: O_30  and  C_31 
ROOT
ATOM      1  C   LIG d   1       8.773  -1.213  -4.964  0.00  0.00     0.066 C 
ATOM      2  H   LIG d   1       9.573  -1.470  -4.270  0.00  0.00     0.096 H 
ATOM      3  C   LIG d   1       9.100  -1.783  -6.353  0.00  0.00     0.043 C 
ATOM      4  C   LIG d   1       8.948  -3.281  -6.285  0.00  0.00     0.073 A 
ATOM      5  C   LIG d   1       8.302  -3.921  -5.283  0.00  0.00     0.084 A 
ATOM      6  N   LIG d   1       8.358  -5.230  -5.530  0.00  0.00    -0.344 N 
ATOM      7  C   LIG d   1       9.012  -5.430  -6.645  0.00  0.00     0.094 A 
ATOM      8  N   LIG d   1       9.395  -4.231  -7.145  0.00  0.00    -0.240 NA
ATOM      9  H   LIG d   1       7.964  -5.946  -4.953  0.00  0.00     0.167 HD
ATOM     10  C   LIG d   1       7.656  -3.204  -4.124  0.00  0.00     0.012 C 
ATOM     11  H   LIG d   1       8.408  -1.374  -7.090  0.00  0.00     0.039 H 
ATOM     12  H   LIG d   1      10.124  -1.528  -6.625  0.00  0.00     0.039 H 
ATOM     13  H   LIG d   1       9.213  -6.391  -7.094  0.00  0.00     0.103 H 
ATOM     14  H   LIG d   1       8.285  -3.294  -3.239  0.00  0.00     0.088 H 
ATOM     15  H   LIG d   1       6.676  -3.638  -3.925  0.00  0.00     0.088 H 
ATOM     16  N   LIG d   1       7.484  -1.781  -4.507  0.00  0.00     0.252 N 
ATOM     17  H   LIG d   1       6.806  -1.722  -5.274  0.00  0.00     0.205 HD
ENDROOT
BRANCH   1  18
ATOM     18  C   LIG d   1       8.647   0.286  -5.053  0.00  0.00     0.276 A 
ATOM     19  N   LIG d   1       9.272   1.164  -4.310  0.00  0.00    -0.186 NA
ATOM     20  C   LIG d   1       8.852   2.374  -4.745  0.00  0.00     0.202 A 
ATOM     21  N   LIG d   1       8.001   2.160  -5.715  0.00  0.00    -0.056 NA
ATOM     22  O   LIG d   1       7.878   0.968  -5.906  0.00  0.00    -0.332 OA
BRANCH  20  23
ATOM     23  C   LIG d   1       9.273   3.695  -4.218  0.00  0.00     0.023 A 
ATOM     24  C   LIG d   1       9.813   3.797  -2.938  0.00  0.00    -0.051 A 
ATOM     25  C   LIG d   1      10.202   5.030  -2.452  0.00  0.00    -0.061 A 
ATOM     26  H   LIG d   1       9.926   2.914  -2.327  0.00  0.00     0.062 H 
ATOM     27  C   LIG d   1      10.056   6.161  -3.233  0.00  0.00    -0.059 A 
ATOM     28  H   LIG d   1      10.621   5.109  -1.459  0.00  0.00     0.062 H 
ATOM     29  C   LIG d   1       9.527   6.064  -4.507  0.00  0.00    -0.050 A 
ATOM     30  H   LIG d   1      10.363   7.123  -2.850  0.00  0.00     0.062 H 
ATOM     31  C   LIG d   1       9.129   4.839  -5.001  0.00  0.00    -0.048 A 
ATOM     32  H   LIG d   1       8.711   4.765  -5.994  0.00  0.00     0.063 H 
BRANCH  29  33
ATOM     33  C   LIG d   1       9.377   7.301  -5.356  0.00  0.00    -0.040 C 
ATOM     34  H   LIG d   1       8.422   7.779  -5.136  0.00  0.00     0.028 H 
ATOM     35  H   LIG d   1      10.189   7.994  -5.135  0.00  0.00     0.028 H 
ATOM     36  H   LIG d   1       9.412   7.025  -6.410  0.00  0.00     0.028 H 
ENDBRANCH  29  33
ENDBRANCH  20  23
ENDBRANCH   1  18
BRANCH  16  37
ATOM     37  C   LIG d   1       6.975  -1.008  -3.355  0.00  0.00    -0.005 C 
ATOM     38  H   LIG d   1       7.232  -1.500  -2.418  0.00  0.00     0.087 H 
ATOM     39  H   LIG d   1       7.415  -0.011  -3.375  0.00  0.00     0.087 H 
BRANCH  37  40
ATOM     40  C   LIG d   1       5.476  -0.898  -3.471  0.00  0.00     0.001 A 
ATOM     41  C   LIG d   1       4.913  -0.249  -4.552  0.00  0.00    -0.011 A 
ATOM     42  C   LIG d   1       3.533  -0.153  -4.660  0.00  0.00     0.130 A 
ATOM     43  H   LIG d   1       5.546   0.181  -5.314  0.00  0.00     0.066 H 
ATOM     44  C   LIG d   1       2.723  -0.699  -3.677  0.00  0.00    -0.020 A 
ATOM     45  C   LIG d   1       3.292  -1.345  -2.595  0.00  0.00    -0.058 A 
ATOM     46  H   LIG d   1       1.649  -0.622  -3.756  0.00  0.00     0.065 H 
ATOM     47  C   LIG d   1       4.667  -1.445  -2.492  0.00  0.00    -0.053 A 
ATOM     48  H   LIG d   1       2.660  -1.771  -1.829  0.00  0.00     0.062 H 
ATOM     49  H   LIG d   1       5.109  -1.948  -1.645  0.00  0.00     0.062 H 
BRANCH  42  50
ATOM     50  O   LIG d   1       2.976   0.483  -5.725  0.00  0.00    -0.406 OA
BRANCH  50  51
ATOM     51  C   LIG d   1       3.238  -0.066  -7.018  0.00  0.00     0.575 C 
ATOM     52  F   LIG d   1       3.718  -1.373  -6.882  0.00  0.00    -0.133 F 
ATOM     53  F   LIG d   1       2.056  -0.079  -7.767  0.00  0.00    -0.133 F 
ATOM     54  F   LIG d   1       4.195   0.717  -7.671  0.00  0.00    -0.133 F 
ENDBRANCH  50  51
ENDBRANCH  42  50
ENDBRANCH  37  40
ENDBRANCH  16  37
TORSDOF 7
ENDMDL
MODEL 10
REMARK VINA RESULT:      -6.8      4.271      5.931
REMARK  7 active torsions:
REMARK  status: ('A' for Active; 'I' for Inactive)
REMARK    1  A    between atoms: C_1  and  C_2 
REMARK    2  A    between atoms: C_6  and  C_8 
REMARK    3  A    between atoms: C_10  and  C_13 
REMARK    4  A    between atoms: C_23  and  C_24 
REMARK    5  A    between atoms: C_23  and  N_53 
REMARK    6  A    between atoms: C_28  and  O_30 
REMARK    7  A    between atoms: O_30  and  C_31 
ROOT
ATOM      1  C   LIG d   1       5.615  -4.557  -8.253  0.00  0.00     0.066 C 
ATOM      2  H   LIG d   1       5.385  -5.609  -8.422  0.00  0.00     0.096 H 
ATOM      3  C   LIG d   1       7.124  -4.329  -8.427  0.00  0.00     0.043 C 
ATOM      4  C   LIG d   1       7.443  -4.456  -9.895  0.00  0.00     0.073 A 
ATOM      5  C   LIG d   1       6.506  -4.420 -10.869  0.00  0.00     0.084 A 
ATOM      6  N   LIG d   1       7.125  -4.566 -12.040  0.00  0.00    -0.344 N 
ATOM      7  C   LIG d   1       8.411  -4.689 -11.834  0.00  0.00     0.094 A 
ATOM      8  N   LIG d   1       8.646  -4.624 -10.502  0.00  0.00    -0.240 NA
ATOM      9  H   LIG d   1       6.678  -4.579 -12.935  0.00  0.00     0.167 HD
ATOM     10  C   LIG d   1       5.033  -4.242 -10.593  0.00  0.00     0.012 C 
ATOM     11  H   LIG d   1       7.388  -3.330  -8.077  0.00  0.00     0.039 H 
ATOM     12  H   LIG d   1       7.678  -5.078  -7.862  0.00  0.00     0.039 H 
ATOM     13  H   LIG d   1       9.162  -4.820 -12.599  0.00  0.00     0.103 H 
ATOM     14  H   LIG d   1       4.523  -5.200 -10.689  0.00  0.00     0.088 H 
ATOM     15  H   LIG d   1       4.612  -3.527 -11.301  0.00  0.00     0.088 H 
ATOM     16  N   LIG d   1       4.889  -3.702  -9.219  0.00  0.00     0.252 N 
ATOM     17  H   LIG d   1       5.286  -2.756  -9.189  0.00  0.00     0.205 HD
ENDROOT
BRANCH   1  18
ATOM     18  C   LIG d   1       5.208  -4.174  -6.853  0.00  0.00     0.276 A 
ATOM     19  N   LIG d   1       5.425  -3.023  -6.267  0.00  0.00    -0.186 NA
ATOM     20  C   LIG d   1       4.888  -3.136  -5.032  0.00  0.00     0.202 A 
ATOM     21  N   LIG d   1       4.385  -4.340  -4.939  0.00  0.00    -0.056 NA
ATOM     22  O   LIG d   1       4.556  -4.944  -5.977  0.00  0.00    -0.332 OA
BRANCH  20  23
ATOM     23  C   LIG d   1       4.875  -2.093  -3.977  0.00  0.00     0.023 A 
ATOM     24  C   LIG d   1       4.121  -2.277  -2.821  0.00  0.00    -0.051 A 
ATOM     25  C   LIG d   1       4.112  -1.303  -1.843  0.00  0.00    -0.061 A 
ATOM     26  H   LIG d   1       3.543  -3.180  -2.690  0.00  0.00     0.062 H 
ATOM     27  C   LIG d   1       4.850  -0.145  -2.010  0.00  0.00    -0.059 A 
ATOM     28  H   LIG d   1       3.527  -1.445  -0.946  0.00  0.00     0.062 H 
ATOM     29  C   LIG d   1       5.606   0.040  -3.153  0.00  0.00    -0.050 A 
ATOM     30  H   LIG d   1       4.841   0.614  -1.242  0.00  0.00     0.062 H 
ATOM     31  C   LIG d   1       5.617  -0.924  -4.140  0.00  0.00    -0.048 A 
ATOM     32  H   LIG d   1       6.204  -0.777  -5.035  0.00  0.00     0.063 H 
BRANCH  29  33
ATOM     33  C   LIG d   1       6.413   1.301  -3.325  0.00  0.00    -0.040 C 
ATOM     34  H   LIG d   1       7.466   1.087  -3.144  0.00  0.00     0.028 H 
ATOM     35  H   LIG d   1       6.288   1.677  -4.340  0.00  0.00     0.028 H 
ATOM     36  H   LIG d   1       6.068   2.053  -2.615  0.00  0.00     0.028 H 
ENDBRANCH  29  33
ENDBRANCH  20  23
ENDBRANCH   1  18
BRANCH  16  37
ATOM     37  C   LIG d   1       3.459  -3.633  -8.853  0.00  0.00    -0.005 C 
ATOM     38  H   LIG d   1       2.883  -4.372  -9.409  0.00  0.00     0.087 H 
ATOM     39  H   LIG d   1       3.356  -3.822  -7.785  0.00  0.00     0.087 H 
BRANCH  37  40
ATOM     40  C   LIG d   1       2.944  -2.253  -9.171  0.00  0.00     0.001 A 
ATOM     41  C   LIG d   1       3.571  -1.143  -8.639  0.00  0.00    -0.011 A 
ATOM     42  C   LIG d   1       3.100   0.128  -8.937  0.00  0.00     0.130 A 
ATOM     43  H   LIG d   1       4.430  -1.263  -7.996  0.00  0.00     0.066 H 
ATOM     44  C   LIG d   1       1.993   0.279  -9.758  0.00  0.00    -0.020 A 
ATOM     45  C   LIG d   1       1.366  -0.834 -10.284  0.00  0.00    -0.058 A 
ATOM     46  H   LIG d   1       1.621   1.267  -9.987  0.00  0.00     0.065 H 
ATOM     47  C   LIG d   1       1.841  -2.099  -9.991  0.00  0.00    -0.053 A 
ATOM     48  H   LIG d   1       0.504  -0.716 -10.924  0.00  0.00     0.062 H 
ATOM     49  H   LIG d   1       1.349  -2.968 -10.402  0.00  0.00     0.062 H 
BRANCH  42  50
ATOM     50  O   LIG d   1       3.717   1.222  -8.418  0.00  0.00    -0.406 OA
BRANCH  50  51
ATOM     51  C   LIG d   1       4.749   1.819  -9.206  0.00  0.00     0.575 C 
ATOM     52  F   LIG d   1       4.636   3.213  -9.143  0.00  0.00    -0.133 F 
ATOM     53  F   LIG d   1       5.998   1.430  -8.711  0.00  0.00    -0.133 F 
ATOM     54  F   LIG d   1       4.622   1.400 -10.534  0.00  0.00    -0.133 F 
ENDBRANCH  50  51
ENDBRANCH  42  50
ENDBRANCH  37  40
ENDBRANCH  16  37
TORSDOF 7
ENDMDL
