MODEL 1
REMARK VINA RESULT:      -6.6      0.000      0.000
REMARK  6 active torsions:
REMARK  status: ('A' for Active; 'I' for Inactive)
REMARK    1  A    between atoms: C_1  and  O_2 
REMARK    2  A    between atoms: O_2  and  C_3 
REMARK    3  A    between atoms: C_8  and  O_9 
REMARK    4  A    between atoms: O_9  and  C_10 
REMARK    5  A    between atoms: C_13  and  C_18 
REMARK    6  A    between atoms: C_13  and  O_25 
ROOT
ATOM      1  C   LIG d   1       3.596  -0.428  -9.468  0.00  0.00     0.162 A 
ATOM      2  C   LIG d   1       3.424  -1.800  -9.452  0.00  0.00    -0.013 A 
ATOM      3  C   LIG d   1       3.801  -2.547  -8.345  0.00  0.00    -0.030 A 
ATOM      4  C   LIG d   1       4.338  -1.896  -7.242  0.00  0.00     0.010 A 
ATOM      5  C   LIG d   1       4.523  -0.529  -7.259  0.00  0.00    -0.007 A 
ATOM      6  C   LIG d   1       4.154   0.214  -8.366  0.00  0.00     0.162 A 
ATOM      7  C   LIG d   1       4.726  -2.700  -6.043  0.00  0.00     0.039 C 
ATOM      8  H   LIG d   1       3.887  -2.758  -5.349  0.00  0.00     0.094 H 
ATOM      9  C   LIG d   1       5.977  -2.219  -5.305  0.00  0.00     0.142 C 
ATOM     10  C   LIG d   1       6.623  -3.526  -4.775  0.00  0.00     0.026 C 
ATOM     11  C   LIG d   1       5.723  -4.667  -5.323  0.00  0.00    -0.028 C 
ATOM     12  C   LIG d   1       3.905  -4.704  -7.045  0.00  0.00    -0.027 C 
ATOM     13  C   LIG d   1       3.603  -4.040  -8.395  0.00  0.00     0.013 C 
ATOM     14  H   LIG d   1       2.992  -2.294 -10.310  0.00  0.00     0.066 H 
ATOM     15  H   LIG d   1       4.956  -0.037  -6.400  0.00  0.00     0.066 H 
ATOM     16  H   LIG d   1       7.639  -3.629  -5.156  0.00  0.00     0.035 H 
ATOM     17  H   LIG d   1       6.624  -3.534  -3.685  0.00  0.00     0.035 H 
ATOM     18  H   LIG d   1       4.969  -4.948  -4.588  0.00  0.00     0.082 H 
ATOM     19  H   LIG d   1       6.324  -5.532  -5.606  0.00  0.00     0.082 H 
ATOM     20  H   LIG d   1       4.090  -5.768  -7.189  0.00  0.00     0.082 H 
ATOM     21  H   LIG d   1       3.067  -4.560  -6.364  0.00  0.00     0.082 H 
ATOM     22  H   LIG d   1       4.263  -4.461  -9.153  0.00  0.00     0.036 H 
ATOM     23  H   LIG d   1       2.570  -4.252  -8.671  0.00  0.00     0.036 H 
ATOM     24  N   LIG d   1       5.116  -4.001  -6.493  0.00  0.00     0.243 N 
ATOM     25  H   LIG d   1       5.820  -3.925  -7.238  0.00  0.00     0.204 HD
ENDROOT
BRANCH   9  26
ATOM     26  C   LIG d   1       5.601  -1.313  -4.161  0.00  0.00    -0.010 A 
ATOM     27  C   LIG d   1       6.210  -0.078  -4.029  0.00  0.00    -0.053 A 
ATOM     28  C   LIG d   1       5.861   0.755  -2.983  0.00  0.00    -0.026 A 
ATOM     29  H   LIG d   1       6.956   0.234  -4.743  0.00  0.00     0.062 H 
ATOM     30  C   LIG d   1       4.904   0.353  -2.068  0.00  0.00     0.123 A 
ATOM     31  H   LIG d   1       6.336   1.720  -2.880  0.00  0.00     0.065 H 
ATOM     32  C   LIG d   1       4.296  -0.883  -2.200  0.00  0.00    -0.026 A 
ATOM     33  F   LIG d   1       4.562   1.168  -1.045  0.00  0.00    -0.205 F 
ATOM     34  C   LIG d   1       4.645  -1.716  -3.247  0.00  0.00    -0.053 A 
ATOM     35  H   LIG d   1       3.549  -1.198  -1.487  0.00  0.00     0.065 H 
ATOM     36  H   LIG d   1       4.171  -2.681  -3.351  0.00  0.00     0.062 H 
ENDBRANCH   9  26
BRANCH   9  37
ATOM     37  O   LIG d   1       6.862  -1.548  -6.204  0.00  0.00    -0.378 OA
ATOM     38  H   LIG d   1       7.630  -1.147  -5.775  0.00  0.00     0.211 HD
ENDBRANCH   9  37
BRANCH   6  39
ATOM     39  O   LIG d   1       4.333   1.563  -8.377  0.00  0.00    -0.491 OA
BRANCH  39  40
ATOM     40  C   LIG d   1       5.552   2.050  -8.944  0.00  0.00     0.079 C 
ATOM     41  H   LIG d   1       5.325   2.691  -9.795  0.00  0.00     0.066 H 
ATOM     42  H   LIG d   1       6.097   2.621  -8.194  0.00  0.00     0.066 H 
ATOM     43  H   LIG d   1       6.160   1.208  -9.274  0.00  0.00     0.066 H 
ENDBRANCH  39  40
ENDBRANCH   6  39
BRANCH   1  44
ATOM     44  O   LIG d   1       3.222   0.294 -10.559  0.00  0.00    -0.491 OA
BRANCH  44  45
ATOM     45  C   LIG d   1       4.008   0.135 -11.741  0.00  0.00     0.079 C 
ATOM     46  H   LIG d   1       4.204  -0.924 -11.908  0.00  0.00     0.066 H 
ATOM     47  H   LIG d   1       3.467   0.544 -12.595  0.00  0.00     0.066 H 
ATOM     48  H   LIG d   1       4.954   0.666 -11.622  0.00  0.00     0.066 H 
ENDBRANCH  44  45
ENDBRANCH   1  44
TORSDOF 6
ENDMDL
MODEL 2
REMARK VINA RESULT:      -6.3      2.603      3.871
REMARK  6 active torsions:
REMARK  status: ('A' for Active; 'I' for Inactive)
REMARK    1  A    between atoms: C_1  and  O_2 
REMARK    2  A    between atoms: O_2  and  C_3 
REMARK    3  A    between atoms: C_8  and  O_9 
REMARK    4  A    between atoms: O_9  and  C_10 
REMARK    5  A    between atoms: C_13  and  C_18 
REMARK    6  A    between atoms: C_13  and  O_25 
ROOT
ATOM      1  C   LIG d   1       3.465  -0.290  -8.906  0.00  0.00     0.162 A 
ATOM      2  C   LIG d   1       2.851   0.431  -7.898  0.00  0.00    -0.013 A 
ATOM      3  C   LIG d   1       3.132   0.164  -6.566  0.00  0.00    -0.030 A 
ATOM      4  C   LIG d   1       4.054  -0.828  -6.256  0.00  0.00     0.010 A 
ATOM      5  C   LIG d   1       4.659  -1.558  -7.257  0.00  0.00    -0.007 A 
ATOM      6  C   LIG d   1       4.373  -1.295  -8.586  0.00  0.00     0.162 A 
ATOM      7  C   LIG d   1       4.370  -1.101  -4.821  0.00  0.00     0.039 C 
ATOM      8  H   LIG d   1       5.217  -0.493  -4.506  0.00  0.00     0.094 H 
ATOM      9  C   LIG d   1       4.626  -2.569  -4.472  0.00  0.00     0.142 C 
ATOM     10  C   LIG d   1       4.076  -2.710  -3.027  0.00  0.00     0.026 C 
ATOM     11  C   LIG d   1       3.473  -1.319  -2.692  0.00  0.00    -0.028 C 
ATOM     12  C   LIG d   1       2.954   0.682  -4.106  0.00  0.00    -0.027 C 
ATOM     13  C   LIG d   1       2.418   0.973  -5.514  0.00  0.00     0.013 C 
ATOM     14  H   LIG d   1       2.146   1.208  -8.151  0.00  0.00     0.066 H 
ATOM     15  H   LIG d   1       5.364  -2.336  -7.002  0.00  0.00     0.066 H 
ATOM     16  H   LIG d   1       3.303  -3.477  -2.990  0.00  0.00     0.035 H 
ATOM     17  H   LIG d   1       4.883  -2.951  -2.336  0.00  0.00     0.035 H 
ATOM     18  H   LIG d   1       4.202  -0.701  -2.167  0.00  0.00     0.082 H 
ATOM     19  H   LIG d   1       2.563  -1.423  -2.101  0.00  0.00     0.082 H 
ATOM     20  H   LIG d   1       2.225   0.996  -3.360  0.00  0.00     0.082 H 
ATOM     21  H   LIG d   1       3.895   1.209  -3.951  0.00  0.00     0.082 H 
ATOM     22  H   LIG d   1       1.355   0.735  -5.544  0.00  0.00     0.036 H 
ATOM     23  H   LIG d   1       2.549   2.032  -5.732  0.00  0.00     0.036 H 
ATOM     24  N   LIG d   1       3.203  -0.801  -4.048  0.00  0.00     0.243 N 
ATOM     25  H   LIG d   1       2.385  -1.287  -4.436  0.00  0.00     0.204 HD
ENDROOT
BRANCH   9  26
ATOM     26  C   LIG d   1       6.102  -2.871  -4.507  0.00  0.00    -0.010 A 
ATOM     27  C   LIG d   1       7.011  -1.924  -4.072  0.00  0.00    -0.053 A 
ATOM     28  C   LIG d   1       8.365  -2.204  -4.098  0.00  0.00    -0.026 A 
ATOM     29  H   LIG d   1       6.664  -0.969  -3.711  0.00  0.00     0.062 H 
ATOM     30  C   LIG d   1       8.810  -3.429  -4.561  0.00  0.00     0.123 A 
ATOM     31  H   LIG d   1       9.075  -1.464  -3.758  0.00  0.00     0.065 H 
ATOM     32  C   LIG d   1       7.899  -4.375  -4.998  0.00  0.00    -0.026 A 
ATOM     33  F   LIG d   1      10.133  -3.702  -4.587  0.00  0.00    -0.205 F 
ATOM     34  C   LIG d   1       6.546  -4.096  -4.970  0.00  0.00    -0.053 A 
ATOM     35  H   LIG d   1       8.244  -5.333  -5.359  0.00  0.00     0.065 H 
ATOM     36  H   LIG d   1       5.834  -4.834  -5.310  0.00  0.00     0.062 H 
ENDBRANCH   9  26
BRANCH   9  37
ATOM     37  O   LIG d   1       3.918  -3.428  -5.367  0.00  0.00    -0.378 OA
ATOM     38  H   LIG d   1       2.968  -3.251  -5.413  0.00  0.00     0.211 HD
ENDBRANCH   9  37
BRANCH   6  39
ATOM     39  O   LIG d   1       4.975  -2.014  -9.571  0.00  0.00    -0.491 OA
BRANCH  39  40
ATOM     40  C   LIG d   1       6.342  -1.706  -9.856  0.00  0.00     0.079 C 
ATOM     41  H   LIG d   1       6.738  -2.433 -10.564  0.00  0.00     0.066 H 
ATOM     42  H   LIG d   1       6.406  -0.707 -10.287  0.00  0.00     0.066 H 
ATOM     43  H   LIG d   1       6.922  -1.742  -8.934  0.00  0.00     0.066 H 
ENDBRANCH  39  40
ENDBRANCH   6  39
BRANCH   1  44
ATOM     44  O   LIG d   1       3.182  -0.019 -10.209  0.00  0.00    -0.491 OA
BRANCH  44  45
ATOM     45  C   LIG d   1       3.918   1.040 -10.825  0.00  0.00     0.079 C 
ATOM     46  H   LIG d   1       3.394   1.373 -11.721  0.00  0.00     0.066 H 
ATOM     47  H   LIG d   1       4.010   1.872 -10.127  0.00  0.00     0.066 H 
ATOM     48  H   LIG d   1       4.911   0.681 -11.097  0.00  0.00     0.066 H 
ENDBRANCH  44  45
ENDBRANCH   1  44
TORSDOF 6
ENDMDL
MODEL 3
REMARK VINA RESULT:      -6.1     10.500     13.354
REMARK  6 active torsions:
REMARK  status: ('A' for Active; 'I' for Inactive)
REMARK    1  A    between atoms: C_1  and  O_2 
REMARK    2  A    between atoms: O_2  and  C_3 
REMARK    3  A    between atoms: C_8  and  O_9 
REMARK    4  A    between atoms: O_9  and  C_10 
REMARK    5  A    between atoms: C_13  and  C_18 
REMARK    6  A    between atoms: C_13  and  O_25 
ROOT
ATOM      1  C   LIG d   1       9.964   5.707  -2.534  0.00  0.00     0.162 A 
ATOM      2  C   LIG d   1       9.836   6.198  -3.820  0.00  0.00    -0.013 A 
ATOM      3  C   LIG d   1       9.824   7.565  -4.058  0.00  0.00    -0.030 A 
ATOM      4  C   LIG d   1       9.960   8.438  -2.986  0.00  0.00     0.010 A 
ATOM      5  C   LIG d   1      10.074   7.953  -1.699  0.00  0.00    -0.007 A 
ATOM      6  C   LIG d   1      10.079   6.589  -1.463  0.00  0.00     0.162 A 
ATOM      7  C   LIG d   1       9.966   9.910  -3.244  0.00  0.00     0.039 C 
ATOM      8  H   LIG d   1      10.988  10.255  -3.397  0.00  0.00     0.094 H 
ATOM      9  C   LIG d   1       9.283  10.768  -2.178  0.00  0.00     0.142 C 
ATOM     10  C   LIG d   1       8.670  11.946  -2.983  0.00  0.00     0.026 C 
ATOM     11  C   LIG d   1       8.989  11.622  -4.468  0.00  0.00    -0.028 C 
ATOM     12  C   LIG d   1       9.841   9.557  -5.601  0.00  0.00    -0.027 C 
ATOM     13  C   LIG d   1       9.666   8.038  -5.480  0.00  0.00     0.013 C 
ATOM     14  H   LIG d   1       9.745   5.510  -4.648  0.00  0.00     0.066 H 
ATOM     15  H   LIG d   1      10.165   8.642  -0.873  0.00  0.00     0.066 H 
ATOM     16  H   LIG d   1       7.592  11.990  -2.828  0.00  0.00     0.035 H 
ATOM     17  H   LIG d   1       9.135  12.887  -2.691  0.00  0.00     0.035 H 
ATOM     18  H   LIG d   1       9.909  12.117  -4.780  0.00  0.00     0.082 H 
ATOM     19  H   LIG d   1       8.159  11.912  -5.114  0.00  0.00     0.082 H 
ATOM     20  H   LIG d   1       9.396   9.908  -6.532  0.00  0.00     0.082 H 
ATOM     21  H   LIG d   1      10.900   9.813  -5.576  0.00  0.00     0.082 H 
ATOM     22  H   LIG d   1       8.673   7.766  -5.836  0.00  0.00     0.036 H 
ATOM     23  H   LIG d   1      10.412   7.544  -6.102  0.00  0.00     0.036 H 
ATOM     24  N   LIG d   1       9.159  10.157  -4.401  0.00  0.00     0.243 N 
ATOM     25  H   LIG d   1       8.238   9.717  -4.292  0.00  0.00     0.204 HD
ENDROOT
BRANCH   9  26
ATOM     26  C   LIG d   1      10.292  11.278  -1.182  0.00  0.00    -0.010 A 
ATOM     27  C   LIG d   1      10.105  11.051   0.169  0.00  0.00    -0.053 A 
ATOM     28  C   LIG d   1      11.034  11.513   1.082  0.00  0.00    -0.026 A 
ATOM     29  H   LIG d   1       9.234  10.512   0.510  0.00  0.00     0.062 H 
ATOM     30  C   LIG d   1      12.150  12.203   0.644  0.00  0.00     0.123 A 
ATOM     31  H   LIG d   1      10.888  11.334   2.138  0.00  0.00     0.065 H 
ATOM     32  C   LIG d   1      12.336  12.431  -0.708  0.00  0.00    -0.026 A 
ATOM     33  F   LIG d   1      13.059  12.654   1.537  0.00  0.00    -0.205 F 
ATOM     34  C   LIG d   1      11.407  11.968  -1.621  0.00  0.00    -0.053 A 
ATOM     35  H   LIG d   1      13.207  12.970  -1.051  0.00  0.00     0.065 H 
ATOM     36  H   LIG d   1      11.552  12.145  -2.676  0.00  0.00     0.062 H 
ENDBRANCH   9  26
BRANCH   9  37
ATOM     37  O   LIG d   1       8.259  10.024  -1.516  0.00  0.00    -0.378 OA
ATOM     38  H   LIG d   1       8.529   9.134  -1.248  0.00  0.00     0.211 HD
ENDBRANCH   9  37
BRANCH   6  39
ATOM     39  O   LIG d   1      10.197   6.114  -0.194  0.00  0.00    -0.491 OA
BRANCH  39  40
ATOM     40  C   LIG d   1      11.047   6.843   0.695  0.00  0.00     0.079 C 
ATOM     41  H   LIG d   1      11.228   6.250   1.591  0.00  0.00     0.066 H 
ATOM     42  H   LIG d   1      11.995   7.052   0.200  0.00  0.00     0.066 H 
ATOM     43  H   LIG d   1      10.566   7.781   0.970  0.00  0.00     0.066 H 
ENDBRANCH  39  40
ENDBRANCH   6  39
BRANCH   1  44
ATOM     44  O   LIG d   1       9.975   4.365  -2.314  0.00  0.00    -0.491 OA
BRANCH  44  45
ATOM     45  C   LIG d   1       9.623   3.525  -3.416  0.00  0.00     0.079 C 
ATOM     46  H   LIG d   1      10.011   3.955  -4.339  0.00  0.00     0.066 H 
ATOM     47  H   LIG d   1      10.053   2.534  -3.269  0.00  0.00     0.066 H 
ATOM     48  H   LIG d   1       8.537   3.445  -3.479  0.00  0.00     0.066 H 
ENDBRANCH  44  45
ENDBRANCH   1  44
TORSDOF 6
ENDMDL
MODEL 4
REMARK VINA RESULT:      -5.4     11.149     13.946
REMARK  6 active torsions:
REMARK  status: ('A' for Active; 'I' for Inactive)
REMARK    1  A    between atoms: C_1  and  O_2 
REMARK    2  A    between atoms: O_2  and  C_3 
REMARK    3  A    between atoms: C_8  and  O_9 
REMARK    4  A    between atoms: O_9  and  C_10 
REMARK    5  A    between atoms: C_13  and  C_18 
REMARK    6  A    between atoms: C_13  and  O_25 
ROOT
ATOM      1  C   LIG d   1       9.822  11.648  -5.750  0.00  0.00     0.162 A 
ATOM      2  C   LIG d   1      10.251  12.715  -4.981  0.00  0.00    -0.013 A 
ATOM      3  C   LIG d   1      10.473  12.562  -3.620  0.00  0.00    -0.030 A 
ATOM      4  C   LIG d   1      10.274  11.316  -3.039  0.00  0.00     0.010 A 
ATOM      5  C   LIG d   1       9.833  10.252  -3.799  0.00  0.00    -0.007 A 
ATOM      6  C   LIG d   1       9.607  10.408  -5.155  0.00  0.00     0.162 A 
ATOM      7  C   LIG d   1      10.531  11.148  -1.576  0.00  0.00     0.039 C 
ATOM      8  H   LIG d   1      11.563  10.837  -1.415  0.00  0.00     0.094 H 
ATOM      9  C   LIG d   1       9.582  10.195  -0.847  0.00  0.00     0.142 C 
ATOM     10  C   LIG d   1       9.452  10.811   0.572  0.00  0.00     0.026 C 
ATOM     11  C   LIG d   1      10.283  12.122   0.515  0.00  0.00    -0.028 C 
ATOM     12  C   LIG d   1      11.288  13.403  -1.388  0.00  0.00    -0.027 C 
ATOM     13  C   LIG d   1      10.924  13.766  -2.834  0.00  0.00     0.013 C 
ATOM     14  H   LIG d   1      10.415  13.676  -5.445  0.00  0.00     0.066 H 
ATOM     15  H   LIG d   1       9.669   9.292  -3.333  0.00  0.00     0.066 H 
ATOM     16  H   LIG d   1       8.408  11.034   0.794  0.00  0.00     0.035 H 
ATOM     17  H   LIG d   1       9.862  10.133   1.319  0.00  0.00     0.035 H 
ATOM     18  H   LIG d   1      11.297  11.949   0.874  0.00  0.00     0.082 H 
ATOM     19  H   LIG d   1       9.801  12.912   1.093  0.00  0.00     0.082 H 
ATOM     20  H   LIG d   1      11.274  14.298  -0.767  0.00  0.00     0.082 H 
ATOM     21  H   LIG d   1      12.276  12.944  -1.357  0.00  0.00     0.082 H 
ATOM     22  H   LIG d   1      10.123  14.504  -2.823  0.00  0.00     0.036 H 
ATOM     23  H   LIG d   1      11.797  14.200  -3.321  0.00  0.00     0.036 H 
ATOM     24  N   LIG d   1      10.262  12.399  -0.936  0.00  0.00     0.243 N 
ATOM     25  H   LIG d   1       9.330  12.741  -1.198  0.00  0.00     0.204 HD
ENDROOT
BRANCH   9  26
ATOM     26  C   LIG d   1      10.176   8.812  -0.769  0.00  0.00    -0.010 A 
ATOM     27  C   LIG d   1      11.401   8.621  -0.157  0.00  0.00    -0.053 A 
ATOM     28  C   LIG d   1      11.944   7.352  -0.080  0.00  0.00    -0.026 A 
ATOM     29  H   LIG d   1      11.933   9.462   0.262  0.00  0.00     0.062 H 
ATOM     30  C   LIG d   1      11.263   6.274  -0.617  0.00  0.00     0.123 A 
ATOM     31  H   LIG d   1      12.901   7.203   0.399  0.00  0.00     0.065 H 
ATOM     32  C   LIG d   1      10.037   6.467  -1.231  0.00  0.00    -0.026 A 
ATOM     33  F   LIG d   1      11.793   5.034  -0.542  0.00  0.00    -0.205 F 
ATOM     34  C   LIG d   1       9.495   7.736  -1.306  0.00  0.00    -0.053 A 
ATOM     35  H   LIG d   1       9.504   5.627  -1.651  0.00  0.00     0.065 H 
ATOM     36  H   LIG d   1       8.538   7.888  -1.785  0.00  0.00     0.062 H 
ENDBRANCH   9  26
BRANCH   9  37
ATOM     37  O   LIG d   1       8.311  10.157  -1.499  0.00  0.00    -0.378 OA
ATOM     38  H   LIG d   1       7.825   9.332  -1.366  0.00  0.00     0.211 HD
ENDBRANCH   9  37
BRANCH   6  39
ATOM     39  O   LIG d   1       9.177   9.355  -5.903  0.00  0.00    -0.491 OA
BRANCH  39  40
ATOM     40  C   LIG d   1       9.510   8.047  -5.434  0.00  0.00     0.079 C 
ATOM     41  H   LIG d   1       8.675   7.643  -4.862  0.00  0.00     0.066 H 
ATOM     42  H   LIG d   1       9.716   7.399  -6.285  0.00  0.00     0.066 H 
ATOM     43  H   LIG d   1      10.394   8.104  -4.798  0.00  0.00     0.066 H 
ENDBRANCH  39  40
ENDBRANCH   6  39
BRANCH   1  44
ATOM     44  O   LIG d   1       9.609  11.810  -7.083  0.00  0.00    -0.491 OA
BRANCH  44  45
ATOM     45  C   LIG d   1       9.608  13.150  -7.581  0.00  0.00     0.079 C 
ATOM     46  H   LIG d   1       8.670  13.636  -7.312  0.00  0.00     0.066 H 
ATOM     47  H   LIG d   1      10.441  13.701  -7.144  0.00  0.00     0.066 H 
ATOM     48  H   LIG d   1       9.712  13.134  -8.666  0.00  0.00     0.066 H 
ENDBRANCH  44  45
ENDBRANCH   1  44
TORSDOF 6
ENDMDL
MODEL 5
REMARK VINA RESULT:      -5.4      4.720      6.552
REMARK  6 active torsions:
REMARK  status: ('A' for Active; 'I' for Inactive)
REMARK    1  A    between atoms: C_1  and  O_2 
REMARK    2  A    between atoms: O_2  and  C_3 
REMARK    3  A    between atoms: C_8  and  O_9 
REMARK    4  A    between atoms: O_9  and  C_10 
REMARK    5  A    between atoms: C_13  and  C_18 
REMARK    6  A    between atoms: C_13  and  O_25 
ROOT
ATOM      1  C   LIG d   1       5.702   0.468  -2.663  0.00  0.00     0.162 A 
ATOM      2  C   LIG d   1       6.677   1.093  -3.419  0.00  0.00    -0.013 A 
ATOM      3  C   LIG d   1       7.597   0.347  -4.143  0.00  0.00    -0.030 A 
ATOM      4  C   LIG d   1       7.516  -1.039  -4.112  0.00  0.00     0.010 A 
ATOM      5  C   LIG d   1       6.554  -1.667  -3.349  0.00  0.00    -0.007 A 
ATOM      6  C   LIG d   1       5.641  -0.923  -2.622  0.00  0.00     0.162 A 
ATOM      7  C   LIG d   1       8.496  -1.841  -4.907  0.00  0.00     0.039 C 
ATOM      8  H   LIG d   1       8.094  -2.038  -5.901  0.00  0.00     0.094 H 
ATOM      9  C   LIG d   1       8.952  -3.151  -4.262  0.00  0.00     0.142 C 
ATOM     10  C   LIG d   1      10.423  -3.306  -4.730  0.00  0.00     0.026 C 
ATOM     11  C   LIG d   1      10.719  -2.019  -5.549  0.00  0.00    -0.028 C 
ATOM     12  C   LIG d   1       9.476   0.139  -5.809  0.00  0.00    -0.027 C 
ATOM     13  C   LIG d   1       8.645   1.087  -4.935  0.00  0.00     0.013 C 
ATOM     14  H   LIG d   1       6.722   2.171  -3.446  0.00  0.00     0.066 H 
ATOM     15  H   LIG d   1       6.511  -2.746  -3.322  0.00  0.00     0.066 H 
ATOM     16  H   LIG d   1      11.090  -3.368  -3.869  0.00  0.00     0.035 H 
ATOM     17  H   LIG d   1      10.531  -4.189  -5.358  0.00  0.00     0.035 H 
ATOM     18  H   LIG d   1      10.546  -2.193  -6.612  0.00  0.00     0.082 H 
ATOM     19  H   LIG d   1      11.740  -1.677  -5.378  0.00  0.00     0.082 H 
ATOM     20  H   LIG d   1      10.412   0.621  -6.091  0.00  0.00     0.082 H 
ATOM     21  H   LIG d   1       8.914  -0.131  -6.703  0.00  0.00     0.082 H 
ATOM     22  H   LIG d   1       9.309   1.607  -4.245  0.00  0.00     0.036 H 
ATOM     23  H   LIG d   1       8.154   1.820  -5.574  0.00  0.00     0.036 H 
ATOM     24  N   LIG d   1       9.716  -1.095  -4.983  0.00  0.00     0.243 N 
ATOM     25  H   LIG d   1      10.017  -0.809  -4.044  0.00  0.00     0.204 HD
ENDROOT
BRANCH   9  26
ATOM     26  C   LIG d   1       8.116  -4.303  -4.757  0.00  0.00    -0.010 A 
ATOM     27  C   LIG d   1       8.509  -5.603  -4.496  0.00  0.00    -0.053 A 
ATOM     28  C   LIG d   1       7.739  -6.660  -4.945  0.00  0.00    -0.026 A 
ATOM     29  H   LIG d   1       9.415  -5.792  -3.941  0.00  0.00     0.062 H 
ATOM     30  C   LIG d   1       6.577  -6.417  -5.656  0.00  0.00     0.123 A 
ATOM     31  H   LIG d   1       8.046  -7.676  -4.740  0.00  0.00     0.065 H 
ATOM     32  C   LIG d   1       6.186  -5.116  -5.918  0.00  0.00    -0.026 A 
ATOM     33  F   LIG d   1       5.825  -7.450  -6.095  0.00  0.00    -0.205 F 
ATOM     34  C   LIG d   1       6.955  -4.059  -5.468  0.00  0.00    -0.053 A 
ATOM     35  H   LIG d   1       5.279  -4.924  -6.473  0.00  0.00     0.065 H 
ATOM     36  H   LIG d   1       6.651  -3.043  -5.671  0.00  0.00     0.062 H 
ENDBRANCH   9  26
BRANCH   9  37
ATOM     37  O   LIG d   1       8.883  -3.059  -2.838  0.00  0.00    -0.378 OA
ATOM     38  H   LIG d   1       8.726  -2.163  -2.509  0.00  0.00     0.211 HD
ENDBRANCH   9  37
BRANCH   6  39
ATOM     39  O   LIG d   1       4.691  -1.545  -1.874  0.00  0.00    -0.491 OA
BRANCH  39  40
ATOM     40  C   LIG d   1       3.698  -2.293  -2.580  0.00  0.00     0.079 C 
ATOM     41  H   LIG d   1       3.796  -2.109  -3.649  0.00  0.00     0.066 H 
ATOM     42  H   LIG d   1       3.834  -3.355  -2.380  0.00  0.00     0.066 H 
ATOM     43  H   LIG d   1       2.707  -1.985  -2.247  0.00  0.00     0.066 H 
ENDBRANCH  39  40
ENDBRANCH   6  39
BRANCH   1  44
ATOM     44  O   LIG d   1       4.806   1.209  -1.958  0.00  0.00    -0.491 OA
BRANCH  44  45
ATOM     45  C   LIG d   1       3.609   1.595  -2.637  0.00  0.00     0.079 C 
ATOM     46  H   LIG d   1       3.249   0.762  -3.240  0.00  0.00     0.066 H 
ATOM     47  H   LIG d   1       2.849   1.868  -1.905  0.00  0.00     0.066 H 
ATOM     48  H   LIG d   1       3.816   2.449  -3.282  0.00  0.00     0.066 H 
ENDBRANCH  44  45
ENDBRANCH   1  44
TORSDOF 6
ENDMDL
MODEL 6
REMARK VINA RESULT:      -5.4      2.782      3.734
REMARK  6 active torsions:
REMARK  status: ('A' for Active; 'I' for Inactive)
REMARK    1  A    between atoms: C_1  and  O_2 
REMARK    2  A    between atoms: O_2  and  C_3 
REMARK    3  A    between atoms: C_8  and  O_9 
REMARK    4  A    between atoms: O_9  and  C_10 
REMARK    5  A    between atoms: C_13  and  C_18 
REMARK    6  A    between atoms: C_13  and  O_25 
ROOT
ATOM      1  C   LIG d   1       3.392   0.067  -8.456  0.00  0.00     0.162 A 
ATOM      2  C   LIG d   1       2.583   0.123  -7.335  0.00  0.00    -0.013 A 
ATOM      3  C   LIG d   1       3.129   0.027  -6.063  0.00  0.00    -0.030 A 
ATOM      4  C   LIG d   1       4.505  -0.107  -5.928  0.00  0.00     0.010 A 
ATOM      5  C   LIG d   1       5.314  -0.176  -7.043  0.00  0.00    -0.007 A 
ATOM      6  C   LIG d   1       4.767  -0.088  -8.311  0.00  0.00     0.162 A 
ATOM      7  C   LIG d   1       5.094  -0.191  -4.557  0.00  0.00     0.039 C 
ATOM      8  H   LIG d   1       5.358   0.806  -4.206  0.00  0.00     0.094 H 
ATOM      9  C   LIG d   1       6.297  -1.127  -4.413  0.00  0.00     0.142 C 
ATOM     10  C   LIG d   1       6.158  -1.694  -2.975  0.00  0.00     0.026 C 
ATOM     11  C   LIG d   1       4.833  -1.091  -2.434  0.00  0.00    -0.028 C 
ATOM     12  C   LIG d   1       2.954   0.132  -3.552  0.00  0.00    -0.027 C 
ATOM     13  C   LIG d   1       2.194   0.078  -4.883  0.00  0.00     0.013 C 
ATOM     14  H   LIG d   1       1.516   0.241  -7.452  0.00  0.00     0.066 H 
ATOM     15  H   LIG d   1       6.381  -0.296  -6.924  0.00  0.00     0.066 H 
ATOM     16  H   LIG d   1       6.097  -2.782  -3.001  0.00  0.00     0.035 H 
ATOM     17  H   LIG d   1       6.999  -1.375  -2.360  0.00  0.00     0.035 H 
ATOM     18  H   LIG d   1       5.028  -0.180  -1.868  0.00  0.00     0.082 H 
ATOM     19  H   LIG d   1       4.300  -1.817  -1.820  0.00  0.00     0.082 H 
ATOM     20  H   LIG d   1       2.297  -0.173  -2.737  0.00  0.00     0.082 H 
ATOM     21  H   LIG d   1       3.322   1.142  -3.374  0.00  0.00     0.082 H 
ATOM     22  H   LIG d   1       1.560  -0.808  -4.894  0.00  0.00     0.036 H 
ATOM     23  H   LIG d   1       1.564   0.964  -4.968  0.00  0.00     0.036 H 
ATOM     24  N   LIG d   1       4.126  -0.802  -3.698  0.00  0.00     0.243 N 
ATOM     25  H   LIG d   1       3.794  -1.684  -4.106  0.00  0.00     0.204 HD
ENDROOT
BRANCH   9  26
ATOM     26  C   LIG d   1       7.585  -0.358  -4.557  0.00  0.00    -0.010 A 
ATOM     27  C   LIG d   1       7.700   0.905  -4.007  0.00  0.00    -0.053 A 
ATOM     28  C   LIG d   1       8.884   1.608  -4.133  0.00  0.00    -0.026 A 
ATOM     29  H   LIG d   1       6.867   1.342  -3.479  0.00  0.00     0.062 H 
ATOM     30  C   LIG d   1       9.953   1.047  -4.810  0.00  0.00     0.123 A 
ATOM     31  H   LIG d   1       8.974   2.595  -3.703  0.00  0.00     0.065 H 
ATOM     32  C   LIG d   1       9.836  -0.217  -5.361  0.00  0.00    -0.026 A 
ATOM     33  F   LIG d   1      11.110   1.734  -4.933  0.00  0.00    -0.205 F 
ATOM     34  C   LIG d   1       8.652  -0.919  -5.233  0.00  0.00    -0.053 A 
ATOM     35  H   LIG d   1      10.669  -0.656  -5.889  0.00  0.00     0.065 H 
ATOM     36  H   LIG d   1       8.560  -1.906  -5.662  0.00  0.00     0.062 H 
ENDBRANCH   9  26
BRANCH   9  37
ATOM     37  O   LIG d   1       6.231  -2.178  -5.378  0.00  0.00    -0.378 OA
ATOM     38  H   LIG d   1       5.410  -2.193  -5.889  0.00  0.00     0.211 HD
ENDBRANCH   9  37
BRANCH   6  39
ATOM     39  O   LIG d   1       5.569  -0.152  -9.409  0.00  0.00    -0.491 OA
BRANCH  39  40
ATOM     40  C   LIG d   1       6.725   0.689  -9.417  0.00  0.00     0.079 C 
ATOM     41  H   LIG d   1       7.403   0.365 -10.206  0.00  0.00     0.066 H 
ATOM     42  H   LIG d   1       6.422   1.720  -9.600  0.00  0.00     0.066 H 
ATOM     43  H   LIG d   1       7.228   0.624  -8.453  0.00  0.00     0.066 H 
ENDBRANCH  39  40
ENDBRANCH   6  39
BRANCH   1  44
ATOM     44  O   LIG d   1       2.844   0.162  -9.697  0.00  0.00    -0.491 OA
BRANCH  44  45
ATOM     45  C   LIG d   1       1.646  -0.579  -9.936  0.00  0.00     0.079 C 
ATOM     46  H   LIG d   1       1.775  -1.602  -9.582  0.00  0.00     0.066 H 
ATOM     47  H   LIG d   1       0.818  -0.112  -9.404  0.00  0.00     0.066 H 
ATOM     48  H   LIG d   1       1.432  -0.589 -11.005  0.00  0.00     0.066 H 
ENDBRANCH  44  45
ENDBRANCH   1  44
TORSDOF 6
ENDMDL
MODEL 7
REMARK VINA RESULT:      -5.3      9.173     11.802
REMARK  6 active torsions:
REMARK  status: ('A' for Active; 'I' for Inactive)
REMARK    1  A    between atoms: C_1  and  O_2 
REMARK    2  A    between atoms: O_2  and  C_3 
REMARK    3  A    between atoms: C_8  and  O_9 
REMARK    4  A    between atoms: O_9  and  C_10 
REMARK    5  A    between atoms: C_13  and  C_18 
REMARK    6  A    between atoms: C_13  and  O_25 
ROOT
ATOM      1  C   LIG d   1       9.550   7.585  -6.997  0.00  0.00     0.162 A 
ATOM      2  C   LIG d   1       9.340   8.922  -6.713  0.00  0.00    -0.013 A 
ATOM      3  C   LIG d   1       9.554   9.415  -5.434  0.00  0.00    -0.030 A 
ATOM      4  C   LIG d   1      10.002   8.551  -4.443  0.00  0.00     0.010 A 
ATOM      5  C   LIG d   1      10.201   7.214  -4.719  0.00  0.00    -0.007 A 
ATOM      6  C   LIG d   1       9.980   6.722  -5.993  0.00  0.00     0.162 A 
ATOM      7  C   LIG d   1      10.252   9.087  -3.071  0.00  0.00     0.039 C 
ATOM      8  H   LIG d   1      11.289   9.408  -2.981  0.00  0.00     0.094 H 
ATOM      9  C   LIG d   1       9.899   8.141  -1.920  0.00  0.00     0.142 C 
ATOM     10  C   LIG d   1       9.415   9.090  -0.792  0.00  0.00     0.026 C 
ATOM     11  C   LIG d   1       9.456  10.510  -1.420  0.00  0.00    -0.028 C 
ATOM     12  C   LIG d   1       9.733  11.307  -3.778  0.00  0.00    -0.027 C 
ATOM     13  C   LIG d   1       9.292  10.878  -5.183  0.00  0.00     0.013 C 
ATOM     14  H   LIG d   1       9.004   9.588  -7.494  0.00  0.00     0.066 H 
ATOM     15  H   LIG d   1      10.535   6.549  -3.936  0.00  0.00     0.066 H 
ATOM     16  H   LIG d   1       8.398   8.837  -0.494  0.00  0.00     0.035 H 
ATOM     17  H   LIG d   1      10.086   9.034   0.065  0.00  0.00     0.035 H 
ATOM     18  H   LIG d   1      10.400  11.005  -1.191  0.00  0.00     0.082 H 
ATOM     19  H   LIG d   1       8.615  11.112  -1.073  0.00  0.00     0.082 H 
ATOM     20  H   LIG d   1       9.237  12.237  -3.501  0.00  0.00     0.082 H 
ATOM     21  H   LIG d   1      10.814  11.440  -3.752  0.00  0.00     0.082 H 
ATOM     22  H   LIG d   1       8.225  11.071  -5.294  0.00  0.00     0.036 H 
ATOM     23  H   LIG d   1       9.836  11.467  -5.921  0.00  0.00     0.036 H 
ATOM     24  N   LIG d   1       9.352  10.180  -2.855  0.00  0.00     0.243 N 
ATOM     25  H   LIG d   1       8.388   9.895  -3.065  0.00  0.00     0.204 HD
ENDROOT
BRANCH   9  26
ATOM     26  C   LIG d   1      11.116   7.371  -1.477  0.00  0.00    -0.010 A 
ATOM     27  C   LIG d   1      10.972   6.115  -0.917  0.00  0.00    -0.053 A 
ATOM     28  C   LIG d   1      12.089   5.406  -0.516  0.00  0.00    -0.026 A 
ATOM     29  H   LIG d   1       9.989   5.689  -0.793  0.00  0.00     0.062 H 
ATOM     30  C   LIG d   1      13.350   5.954  -0.674  0.00  0.00     0.123 A 
ATOM     31  H   LIG d   1      11.977   4.425  -0.078  0.00  0.00     0.065 H 
ATOM     32  C   LIG d   1      13.493   7.211  -1.234  0.00  0.00    -0.026 A 
ATOM     33  F   LIG d   1      14.442   5.260  -0.283  0.00  0.00    -0.205 F 
ATOM     34  C   LIG d   1      12.376   7.919  -1.636  0.00  0.00    -0.053 A 
ATOM     35  H   LIG d   1      14.477   7.639  -1.359  0.00  0.00     0.065 H 
ATOM     36  H   LIG d   1      12.486   8.900  -2.073  0.00  0.00     0.062 H 
ENDBRANCH   9  26
BRANCH   9  37
ATOM     37  O   LIG d   1       8.855   7.247  -2.309  0.00  0.00    -0.378 OA
ATOM     38  H   LIG d   1       9.158   6.493  -2.834  0.00  0.00     0.211 HD
ENDBRANCH   9  37
BRANCH   6  39
ATOM     39  O   LIG d   1      10.181   5.404  -6.263  0.00  0.00    -0.491 OA
BRANCH  39  40
ATOM     40  C   LIG d   1       9.680   4.463  -5.311  0.00  0.00     0.079 C 
ATOM     41  H   LIG d   1       9.904   3.451  -5.648  0.00  0.00     0.066 H 
ATOM     42  H   LIG d   1      10.155   4.637  -4.345  0.00  0.00     0.066 H 
ATOM     43  H   LIG d   1       8.602   4.584  -5.213  0.00  0.00     0.066 H 
ENDBRANCH  39  40
ENDBRANCH   6  39
BRANCH   1  44
ATOM     44  O   LIG d   1       9.336   7.114  -8.255  0.00  0.00    -0.491 OA
BRANCH  44  45
ATOM     45  C   LIG d   1       9.902   7.863  -9.333  0.00  0.00     0.079 C 
ATOM     46  H   LIG d   1      10.801   7.362  -9.692  0.00  0.00     0.066 H 
ATOM     47  H   LIG d   1       9.177   7.935 -10.144  0.00  0.00     0.066 H 
ATOM     48  H   LIG d   1      10.157   8.864  -8.984  0.00  0.00     0.066 H 
ENDBRANCH  44  45
ENDBRANCH   1  44
TORSDOF 6
ENDMDL
MODEL 8
REMARK VINA RESULT:      -5.2     10.964     13.712
REMARK  6 active torsions:
REMARK  status: ('A' for Active; 'I' for Inactive)
REMARK    1  A    between atoms: C_1  and  O_2 
REMARK    2  A    between atoms: O_2  and  C_3 
REMARK    3  A    between atoms: C_8  and  O_9 
REMARK    4  A    between atoms: O_9  and  C_10 
REMARK    5  A    between atoms: C_13  and  C_18 
REMARK    6  A    between atoms: C_13  and  O_25 
ROOT
ATOM      1  C   LIG d   1       9.577   8.615  -7.065  0.00  0.00     0.162 A 
ATOM      2  C   LIG d   1       9.885   9.862  -7.579  0.00  0.00    -0.013 A 
ATOM      3  C   LIG d   1       9.999  10.963  -6.742  0.00  0.00    -0.030 A 
ATOM      4  C   LIG d   1       9.818  10.795  -5.375  0.00  0.00     0.010 A 
ATOM      5  C   LIG d   1       9.498   9.556  -4.860  0.00  0.00    -0.007 A 
ATOM      6  C   LIG d   1       9.377   8.460  -5.696  0.00  0.00     0.162 A 
ATOM      7  C   LIG d   1       9.961  11.977  -4.473  0.00  0.00     0.039 C 
ATOM      8  H   LIG d   1      10.991  12.056  -4.125  0.00  0.00     0.094 H 
ATOM      9  C   LIG d   1       9.005  12.013  -3.279  0.00  0.00     0.142 C 
ATOM     10  C   LIG d   1       8.725  13.526  -3.070  0.00  0.00     0.026 C 
ATOM     11  C   LIG d   1       9.489  14.235  -4.222  0.00  0.00    -0.028 C 
ATOM     12  C   LIG d   1      10.581  13.376  -6.305  0.00  0.00    -0.027 C 
ATOM     13  C   LIG d   1      10.321  12.298  -7.365  0.00  0.00     0.013 C 
ATOM     14  H   LIG d   1      10.037   9.979  -8.642  0.00  0.00     0.066 H 
ATOM     15  H   LIG d   1       9.345   9.441  -3.797  0.00  0.00     0.066 H 
ATOM     16  H   LIG d   1       7.656  13.727  -3.144  0.00  0.00     0.035 H 
ATOM     17  H   LIG d   1       9.107  13.852  -2.103  0.00  0.00     0.035 H 
ATOM     18  H   LIG d   1      10.478  14.551  -3.889  0.00  0.00     0.082 H 
ATOM     19  H   LIG d   1       8.920  15.087  -4.596  0.00  0.00     0.082 H 
ATOM     20  H   LIG d   1      10.470  14.365  -6.748  0.00  0.00     0.082 H 
ATOM     21  H   LIG d   1      11.585  13.262  -5.898  0.00  0.00     0.082 H 
ATOM     22  H   LIG d   1       9.484  12.609  -7.989  0.00  0.00     0.036 H 
ATOM     23  H   LIG d   1      11.207  12.193  -7.989  0.00  0.00     0.036 H 
ATOM     24  N   LIG d   1       9.574  13.142  -5.211  0.00  0.00     0.243 N 
ATOM     25  H   LIG d   1       8.651  13.003  -5.638  0.00  0.00     0.204 HD
ENDROOT
BRANCH   9  26
ATOM     26  C   LIG d   1       9.662  11.424  -2.058  0.00  0.00    -0.010 A 
ATOM     27  C   LIG d   1       9.101  10.324  -1.435  0.00  0.00    -0.053 A 
ATOM     28  C   LIG d   1       9.707   9.780  -0.318  0.00  0.00    -0.026 A 
ATOM     29  H   LIG d   1       8.192   9.891  -1.821  0.00  0.00     0.062 H 
ATOM     30  C   LIG d   1      10.874  10.337   0.177  0.00  0.00     0.123 A 
ATOM     31  H   LIG d   1       9.269   8.920   0.168  0.00  0.00     0.065 H 
ATOM     32  C   LIG d   1      11.433  11.438  -0.447  0.00  0.00    -0.026 A 
ATOM     33  F   LIG d   1      11.466   9.804   1.268  0.00  0.00    -0.205 F 
ATOM     34  C   LIG d   1      10.827  11.981  -1.564  0.00  0.00    -0.053 A 
ATOM     35  H   LIG d   1      12.344  11.873  -0.062  0.00  0.00     0.065 H 
ATOM     36  H   LIG d   1      11.263  12.841  -2.051  0.00  0.00     0.062 H 
ENDBRANCH   9  26
BRANCH   9  37
ATOM     37  O   LIG d   1       7.797  11.315  -3.583  0.00  0.00    -0.378 OA
ATOM     38  H   LIG d   1       7.638  10.540  -3.026  0.00  0.00     0.211 HD
ENDBRANCH   9  37
BRANCH   6  39
ATOM     39  O   LIG d   1       9.066   7.238  -5.184  0.00  0.00    -0.491 OA
BRANCH  39  40
ATOM     40  C   LIG d   1       9.690   6.875  -3.950  0.00  0.00     0.079 C 
ATOM     41  H   LIG d   1       9.247   7.449  -3.137  0.00  0.00     0.066 H 
ATOM     42  H   LIG d   1       9.540   5.811  -3.768  0.00  0.00     0.066 H 
ATOM     43  H   LIG d   1      10.757   7.087  -4.006  0.00  0.00     0.066 H 
ENDBRANCH  39  40
ENDBRANCH   6  39
BRANCH   1  44
ATOM     44  O   LIG d   1       9.468   7.544  -7.895  0.00  0.00    -0.491 OA
BRANCH  44  45
ATOM     45  C   LIG d   1       9.648   7.785  -9.292  0.00  0.00     0.079 C 
ATOM     46  H   LIG d   1       9.216   8.751  -9.553  0.00  0.00     0.066 H 
ATOM     47  H   LIG d   1      10.713   7.788  -9.526  0.00  0.00     0.066 H 
ATOM     48  H   LIG d   1       9.153   6.998  -9.863  0.00  0.00     0.066 H 
ENDBRANCH  44  45
ENDBRANCH   1  44
TORSDOF 6
ENDMDL
MODEL 9
REMARK VINA RESULT:      -5.1      2.848      4.325
REMARK  6 active torsions:
REMARK  status: ('A' for Active; 'I' for Inactive)
REMARK    1  A    between atoms: C_1  and  O_2 
REMARK    2  A    between atoms: O_2  and  C_3 
REMARK    3  A    between atoms: C_8  and  O_9 
REMARK    4  A    between atoms: O_9  and  C_10 
REMARK    5  A    between atoms: C_13  and  C_18 
REMARK    6  A    between atoms: C_13  and  O_25 
ROOT
ATOM      1  C   LIG d   1       3.590  -3.302  -9.991  0.00  0.00     0.162 A 
ATOM      2  C   LIG d   1       2.937  -2.110  -9.735  0.00  0.00    -0.013 A 
ATOM      3  C   LIG d   1       3.173  -1.412  -8.559  0.00  0.00    -0.030 A 
ATOM      4  C   LIG d   1       4.089  -1.918  -7.646  0.00  0.00     0.010 A 
ATOM      5  C   LIG d   1       4.733  -3.113  -7.891  0.00  0.00    -0.007 A 
ATOM      6  C   LIG d   1       4.492  -3.812  -9.061  0.00  0.00     0.162 A 
ATOM      7  C   LIG d   1       4.356  -1.156  -6.389  0.00  0.00     0.039 C 
ATOM      8  H   LIG d   1       5.188  -0.469  -6.541  0.00  0.00     0.094 H 
ATOM      9  C   LIG d   1       4.608  -2.009  -5.143  0.00  0.00     0.142 C 
ATOM     10  C   LIG d   1       4.009  -1.166  -3.986  0.00  0.00     0.026 C 
ATOM     11  C   LIG d   1       3.386   0.077  -4.679  0.00  0.00    -0.028 C 
ATOM     12  C   LIG d   1       2.906   0.610  -7.079  0.00  0.00    -0.027 C 
ATOM     13  C   LIG d   1       2.418  -0.128  -8.332  0.00  0.00     0.013 C 
ATOM     14  H   LIG d   1       2.237  -1.719 -10.458  0.00  0.00     0.066 H 
ATOM     15  H   LIG d   1       5.432  -3.503  -7.166  0.00  0.00     0.066 H 
ATOM     16  H   LIG d   1       3.239  -1.733  -3.463  0.00  0.00     0.035 H 
ATOM     17  H   LIG d   1       4.793  -0.862  -3.293  0.00  0.00     0.035 H 
ATOM     18  H   LIG d   1       4.093   0.908  -4.684  0.00  0.00     0.082 H 
ATOM     19  H   LIG d   1       2.456   0.369  -4.189  0.00  0.00     0.082 H 
ATOM     20  H   LIG d   1       2.150   1.321  -6.749  0.00  0.00     0.082 H 
ATOM     21  H   LIG d   1       3.838   1.131  -7.294  0.00  0.00     0.082 H 
ATOM     22  H   LIG d   1       1.358  -0.354  -8.220  0.00  0.00     0.036 H 
ATOM     23  H   LIG d   1       2.551   0.519  -9.199  0.00  0.00     0.036 H 
ATOM     24  N   LIG d   1       3.161  -0.450  -6.040  0.00  0.00     0.243 N 
ATOM     25  H   LIG d   1       2.360  -1.092  -6.022  0.00  0.00     0.204 HD
ENDROOT
BRANCH   9  26
ATOM     26  C   LIG d   1       6.086  -2.216  -4.935  0.00  0.00    -0.010 A 
ATOM     27  C   LIG d   1       6.563  -3.460  -4.563  0.00  0.00    -0.053 A 
ATOM     28  C   LIG d   1       7.919  -3.652  -4.377  0.00  0.00    -0.026 A 
ATOM     29  H   LIG d   1       5.876  -4.280  -4.418  0.00  0.00     0.062 H 
ATOM     30  C   LIG d   1       8.799  -2.601  -4.563  0.00  0.00     0.123 A 
ATOM     31  H   LIG d   1       8.291  -4.624  -4.087  0.00  0.00     0.065 H 
ATOM     32  C   LIG d   1       8.321  -1.356  -4.934  0.00  0.00    -0.026 A 
ATOM     33  F   LIG d   1      10.125  -2.789  -4.382  0.00  0.00    -0.205 F 
ATOM     34  C   LIG d   1       6.965  -1.165  -5.120  0.00  0.00    -0.053 A 
ATOM     35  H   LIG d   1       9.006  -0.535  -5.080  0.00  0.00     0.065 H 
ATOM     36  H   LIG d   1       6.590  -0.194  -5.411  0.00  0.00     0.062 H 
ENDBRANCH   9  26
BRANCH   9  37
ATOM     37  O   LIG d   1       3.937  -3.265  -5.252  0.00  0.00    -0.378 OA
ATOM     38  H   LIG d   1       3.204  -3.375  -4.630  0.00  0.00     0.211 HD
ENDBRANCH   9  37
BRANCH   6  39
ATOM     39  O   LIG d   1       5.132  -4.988  -9.301  0.00  0.00    -0.491 OA
BRANCH  39  40
ATOM     40  C   LIG d   1       5.538  -5.749  -8.161  0.00  0.00     0.079 C 
ATOM     41  H   LIG d   1       4.800  -5.636  -7.368  0.00  0.00     0.066 H 
ATOM     42  H   LIG d   1       5.617  -6.800  -8.437  0.00  0.00     0.066 H 
ATOM     43  H   LIG d   1       6.507  -5.392  -7.812  0.00  0.00     0.066 H 
ENDBRANCH  39  40
ENDBRANCH   6  39
BRANCH   1  44
ATOM     44  O   LIG d   1       3.351  -3.976 -11.147  0.00  0.00    -0.491 OA
BRANCH  44  45
ATOM     45  C   LIG d   1       2.131  -4.717 -11.226  0.00  0.00     0.079 C 
ATOM     46  H   LIG d   1       1.416  -4.175 -11.845  0.00  0.00     0.066 H 
ATOM     47  H   LIG d   1       2.327  -5.694 -11.667  0.00  0.00     0.066 H 
ATOM     48  H   LIG d   1       1.721  -4.847 -10.223  0.00  0.00     0.066 H 
ENDBRANCH  44  45
ENDBRANCH   1  44
TORSDOF 6
ENDMDL
