MODEL 1
REMARK VINA RESULT:      -8.1      0.000      0.000
REMARK  6 active torsions:
REMARK  status: ('A' for Active; 'I' for Inactive)
REMARK    1  A    between atoms: C_6  and  C_7 
REMARK    2  A    between atoms: C_7  and  C_8 
REMARK    3  A    between atoms: C_8  and  C_10 
REMARK    4  A    between atoms: C_8  and  N_22 
REMARK    5  A    between atoms: C_10  and  C_12 
REMARK    6  A    between atoms: N_22  and  C_23 
ROOT
ATOM      1  C   LIG d   1       5.037  -1.194  -6.988  0.00  0.00     0.084 C 
ATOM      2  H   LIG d   1       4.072  -1.623  -6.716  0.00  0.00     0.058 H 
ENDROOT
BRANCH   1   3
ATOM      3  C   LIG d   1       5.943  -2.290  -7.552  0.00  0.00    -0.002 C 
ATOM      4  H   LIG d   1       6.984  -2.043  -7.347  0.00  0.00     0.034 H 
ATOM      5  H   LIG d   1       5.793  -2.367  -8.629  0.00  0.00     0.034 H 
BRANCH   3   6
ATOM      6  C   LIG d   1       5.602  -3.607  -6.902  0.00  0.00    -0.045 A 
ATOM      7  C   LIG d   1       4.325  -4.123  -7.016  0.00  0.00    -0.056 A 
ATOM      8  C   LIG d   1       4.011  -5.330  -6.419  0.00  0.00    -0.026 A 
ATOM      9  H   LIG d   1       3.573  -3.586  -7.574  0.00  0.00     0.062 H 
ATOM     10  C   LIG d   1       4.976  -6.021  -5.707  0.00  0.00     0.123 A 
ATOM     11  H   LIG d   1       3.013  -5.733  -6.509  0.00  0.00     0.065 H 
ATOM     12  C   LIG d   1       6.256  -5.503  -5.594  0.00  0.00    -0.026 A 
ATOM     13  F   LIG d   1       4.671  -7.201  -5.124  0.00  0.00    -0.205 F 
ATOM     14  C   LIG d   1       6.566  -4.296  -6.191  0.00  0.00    -0.056 A 
ATOM     15  H   LIG d   1       7.009  -6.041  -5.039  0.00  0.00     0.065 H 
ATOM     16  H   LIG d   1       7.564  -3.892  -6.102  0.00  0.00     0.062 H 
ENDBRANCH   3   6
ENDBRANCH   1   3
BRANCH   1  17
ATOM     17  C   LIG d   1       5.681  -0.589  -5.766  0.00  0.00     0.160 C 
ATOM     18  O   LIG d   1       6.817  -0.187  -5.820  0.00  0.00    -0.295 OA
BRANCH  17  19
ATOM     19  C   LIG d   1       4.906  -0.489  -4.479  0.00  0.00     0.032 C 
ATOM     20  C   LIG d   1       3.600   0.267  -4.727  0.00  0.00    -0.038 C 
ATOM     21  C   LIG d   1       2.812   0.370  -3.420  0.00  0.00    -0.040 C 
ATOM     22  H   LIG d   1       3.824   1.269  -5.095  0.00  0.00     0.028 H 
ATOM     23  H   LIG d   1       3.005  -0.267  -5.468  0.00  0.00     0.028 H 
ATOM     24  C   LIG d   1       3.646   1.120  -2.379  0.00  0.00    -0.047 C 
ATOM     25  C   LIG d   1       2.497  -1.035  -2.903  0.00  0.00    -0.047 C 
ATOM     26  H   LIG d   1       1.881   0.909  -3.596  0.00  0.00     0.030 H 
ATOM     27  C   LIG d   1       4.952   0.364  -2.130  0.00  0.00    -0.040 C 
ATOM     28  H   LIG d   1       3.085   1.193  -1.448  0.00  0.00     0.027 H 
ATOM     29  H   LIG d   1       3.871   2.122  -2.747  0.00  0.00     0.027 H 
ATOM     30  C   LIG d   1       5.740   0.262  -3.438  0.00  0.00    -0.038 C 
ATOM     31  C   LIG d   1       4.637  -1.041  -1.613  0.00  0.00    -0.047 C 
ATOM     32  H   LIG d   1       5.547   0.900  -1.389  0.00  0.00     0.030 H 
ATOM     33  H   LIG d   1       6.670  -0.277  -3.261  0.00  0.00     0.028 H 
ATOM     34  H   LIG d   1       5.964   1.263  -3.806  0.00  0.00     0.028 H 
ATOM     35  C   LIG d   1       3.804  -1.792  -2.653  0.00  0.00    -0.040 C 
ATOM     36  H   LIG d   1       5.568  -1.580  -1.436  0.00  0.00     0.027 H 
ATOM     37  H   LIG d   1       4.077  -0.968  -0.681  0.00  0.00     0.027 H 
ATOM     38  C   LIG d   1       4.591  -1.894  -3.962  0.00  0.00    -0.038 C 
ATOM     39  H   LIG d   1       3.580  -2.793  -2.285  0.00  0.00     0.030 H 
ATOM     40  H   LIG d   1       3.997  -2.429  -4.702  0.00  0.00     0.028 H 
ATOM     41  H   LIG d   1       5.522  -2.433  -3.784  0.00  0.00     0.028 H 
ATOM     42  H   LIG d   1       1.937  -0.963  -1.971  0.00  0.00     0.027 H 
ATOM     43  H   LIG d   1       1.903  -1.570  -3.643  0.00  0.00     0.027 H 
ENDBRANCH  17  19
ENDBRANCH   1  17
BRANCH   1  44
ATOM     44  N   LIG d   1       4.841  -0.154  -8.001  0.00  0.00    -0.334 N 
ATOM     45  H   LIG d   1       5.386   0.649  -7.985  0.00  0.00     0.147 HD
BRANCH  44  46
ATOM     46  C   LIG d   1       3.868  -0.317  -8.992  0.00  0.00     0.028 A 
ATOM     47  C   LIG d   1       2.582  -0.712  -8.647  0.00  0.00    -0.038 A 
ATOM     48  C   LIG d   1       1.622  -0.868  -9.628  0.00  0.00    -0.025 A 
ATOM     49  H   LIG d   1       2.332  -0.894  -7.613  0.00  0.00     0.064 H 
ATOM     50  C   LIG d   1       1.944  -0.639 -10.956  0.00  0.00     0.123 A 
ATOM     51  H   LIG d   1       0.621  -1.171  -9.360  0.00  0.00     0.065 H 
ATOM     52  C   LIG d   1       3.227  -0.250 -11.302  0.00  0.00    -0.025 A 
ATOM     53  F   LIG d   1       1.005  -0.797 -11.914  0.00  0.00    -0.205 F 
ATOM     54  C   LIG d   1       4.188  -0.089 -10.324  0.00  0.00    -0.038 A 
ATOM     55  H   LIG d   1       3.476  -0.073 -12.338  0.00  0.00     0.065 H 
ATOM     56  H   LIG d   1       5.189   0.216 -10.595  0.00  0.00     0.064 H 
ENDBRANCH  44  46
ENDBRANCH   1  44
TORSDOF 6
ENDMDL
MODEL 2
REMARK VINA RESULT:      -8.0      0.036      1.650
REMARK  6 active torsions:
REMARK  status: ('A' for Active; 'I' for Inactive)
REMARK    1  A    between atoms: C_6  and  C_7 
REMARK    2  A    between atoms: C_7  and  C_8 
REMARK    3  A    between atoms: C_8  and  C_10 
REMARK    4  A    between atoms: C_8  and  N_22 
REMARK    5  A    between atoms: C_10  and  C_12 
REMARK    6  A    between atoms: N_22  and  C_23 
ROOT
ATOM      1  C   LIG d   1       5.032  -1.177  -6.981  0.00  0.00     0.084 C 
ATOM      2  H   LIG d   1       4.069  -1.607  -6.708  0.00  0.00     0.058 H 
ENDROOT
BRANCH   1   3
ATOM      3  C   LIG d   1       5.937  -2.270  -7.552  0.00  0.00    -0.002 C 
ATOM      4  H   LIG d   1       6.979  -2.023  -7.351  0.00  0.00     0.034 H 
ATOM      5  H   LIG d   1       5.782  -2.344  -8.628  0.00  0.00     0.034 H 
BRANCH   3   6
ATOM      6  C   LIG d   1       5.600  -3.589  -6.904  0.00  0.00    -0.045 A 
ATOM      7  C   LIG d   1       6.573  -4.288  -6.214  0.00  0.00    -0.056 A 
ATOM      8  C   LIG d   1       6.266  -5.497  -5.621  0.00  0.00    -0.026 A 
ATOM      9  H   LIG d   1       7.573  -3.886  -6.136  0.00  0.00     0.062 H 
ATOM     10  C   LIG d   1       4.984  -6.010  -5.717  0.00  0.00     0.123 A 
ATOM     11  H   LIG d   1       7.027  -6.042  -5.082  0.00  0.00     0.065 H 
ATOM     12  C   LIG d   1       4.009  -5.309  -6.408  0.00  0.00    -0.026 A 
ATOM     13  F   LIG d   1       4.683  -7.192  -5.137  0.00  0.00    -0.205 F 
ATOM     14  C   LIG d   1       4.319  -4.100  -7.001  0.00  0.00    -0.056 A 
ATOM     15  H   LIG d   1       3.009  -5.707  -6.484  0.00  0.00     0.065 H 
ATOM     16  H   LIG d   1       3.560  -3.553  -7.540  0.00  0.00     0.062 H 
ENDBRANCH   3   6
ENDBRANCH   1   3
BRANCH   1  17
ATOM     17  C   LIG d   1       5.680  -0.577  -5.759  0.00  0.00     0.160 C 
ATOM     18  O   LIG d   1       6.817  -0.177  -5.813  0.00  0.00    -0.295 OA
BRANCH  17  19
ATOM     19  C   LIG d   1       4.907  -0.478  -4.469  0.00  0.00     0.032 C 
ATOM     20  C   LIG d   1       5.738   0.280  -3.433  0.00  0.00    -0.038 C 
ATOM     21  C   LIG d   1       4.954   0.380  -2.124  0.00  0.00    -0.040 C 
ATOM     22  H   LIG d   1       6.672  -0.254  -3.256  0.00  0.00     0.028 H 
ATOM     23  H   LIG d   1       5.956   1.281  -3.803  0.00  0.00     0.028 H 
ATOM     24  C   LIG d   1       4.647  -1.025  -1.603  0.00  0.00    -0.047 C 
ATOM     25  C   LIG d   1       3.643   1.129  -2.371  0.00  0.00    -0.047 C 
ATOM     26  H   LIG d   1       5.546   0.921  -1.385  0.00  0.00     0.030 H 
ATOM     27  C   LIG d   1       3.816  -1.783  -2.639  0.00  0.00    -0.040 C 
ATOM     28  H   LIG d   1       4.089  -0.953  -0.670  0.00  0.00     0.027 H 
ATOM     29  H   LIG d   1       5.582  -1.559  -1.426  0.00  0.00     0.027 H 
ATOM     30  C   LIG d   1       4.601  -1.884  -3.949  0.00  0.00    -0.038 C 
ATOM     31  C   LIG d   1       2.504  -1.034  -2.887  0.00  0.00    -0.047 C 
ATOM     32  H   LIG d   1       3.598  -2.785  -2.268  0.00  0.00     0.030 H 
ATOM     33  H   LIG d   1       4.008  -2.423  -4.687  0.00  0.00     0.028 H 
ATOM     34  H   LIG d   1       5.535  -2.417  -3.772  0.00  0.00     0.028 H 
ATOM     35  C   LIG d   1       2.810   0.371  -3.407  0.00  0.00    -0.040 C 
ATOM     36  H   LIG d   1       1.912  -1.574  -3.624  0.00  0.00     0.027 H 
ATOM     37  H   LIG d   1       1.945  -0.963  -1.954  0.00  0.00     0.027 H 
ATOM     38  C   LIG d   1       3.596   0.271  -4.717  0.00  0.00    -0.038 C 
ATOM     39  H   LIG d   1       1.876   0.904  -3.584  0.00  0.00     0.030 H 
ATOM     40  H   LIG d   1       3.813   1.272  -5.088  0.00  0.00     0.028 H 
ATOM     41  H   LIG d   1       3.002  -0.269  -5.455  0.00  0.00     0.028 H 
ATOM     42  H   LIG d   1       3.083   1.201  -1.438  0.00  0.00     0.027 H 
ATOM     43  H   LIG d   1       3.861   2.130  -2.742  0.00  0.00     0.027 H 
ENDBRANCH  17  19
ENDBRANCH   1  17
BRANCH   1  44
ATOM     44  N   LIG d   1       4.833  -0.132  -7.989  0.00  0.00    -0.334 N 
ATOM     45  H   LIG d   1       5.365   0.678  -7.960  0.00  0.00     0.147 HD
BRANCH  44  46
ATOM     46  C   LIG d   1       3.875  -0.303  -8.994  0.00  0.00     0.028 A 
ATOM     47  C   LIG d   1       2.607  -0.768  -8.674  0.00  0.00    -0.038 A 
ATOM     48  C   LIG d   1       1.661  -0.932  -9.668  0.00  0.00    -0.025 A 
ATOM     49  H   LIG d   1       2.358  -0.998  -7.649  0.00  0.00     0.064 H 
ATOM     50  C   LIG d   1       1.982  -0.642 -10.984  0.00  0.00     0.123 A 
ATOM     51  H   LIG d   1       0.673  -1.289  -9.420  0.00  0.00     0.065 H 
ATOM     52  C   LIG d   1       3.248  -0.183 -11.305  0.00  0.00    -0.025 A 
ATOM     53  F   LIG d   1       1.057  -0.807 -11.955  0.00  0.00    -0.205 F 
ATOM     54  C   LIG d   1       4.194  -0.013 -10.314  0.00  0.00    -0.038 A 
ATOM     55  H   LIG d   1       3.496   0.043 -12.332  0.00  0.00     0.065 H 
ATOM     56  H   LIG d   1       5.182   0.345 -10.565  0.00  0.00     0.064 H 
ENDBRANCH  44  46
ENDBRANCH   1  44
TORSDOF 6
ENDMDL
MODEL 3
REMARK VINA RESULT:      -8.0      3.850      6.439
REMARK  6 active torsions:
REMARK  status: ('A' for Active; 'I' for Inactive)
REMARK    1  A    between atoms: C_6  and  C_7 
REMARK    2  A    between atoms: C_7  and  C_8 
REMARK    3  A    between atoms: C_8  and  C_10 
REMARK    4  A    between atoms: C_8  and  N_22 
REMARK    5  A    between atoms: C_10  and  C_12 
REMARK    6  A    between atoms: N_22  and  C_23 
ROOT
ATOM      1  C   LIG d   1       7.388   0.163  -5.863  0.00  0.00     0.084 C 
ATOM      2  H   LIG d   1       6.768   1.060  -5.843  0.00  0.00     0.058 H 
ENDROOT
BRANCH   1   3
ATOM      3  C   LIG d   1       7.320  -0.473  -7.253  0.00  0.00    -0.002 C 
ATOM      4  H   LIG d   1       7.012  -1.514  -7.162  0.00  0.00     0.034 H 
ATOM      5  H   LIG d   1       8.302  -0.424  -7.723  0.00  0.00     0.034 H 
BRANCH   3   6
ATOM      6  C   LIG d   1       6.320   0.274  -8.099  0.00  0.00    -0.045 A 
ATOM      7  C   LIG d   1       5.189  -0.372  -8.562  0.00  0.00    -0.056 A 
ATOM      8  C   LIG d   1       4.272   0.311  -9.338  0.00  0.00    -0.026 A 
ATOM      9  H   LIG d   1       5.019  -1.409  -8.313  0.00  0.00     0.062 H 
ATOM     10  C   LIG d   1       4.486   1.642  -9.652  0.00  0.00     0.123 A 
ATOM     11  H   LIG d   1       3.388  -0.194  -9.699  0.00  0.00     0.065 H 
ATOM     12  C   LIG d   1       5.620   2.288  -9.187  0.00  0.00    -0.026 A 
ATOM     13  F   LIG d   1       3.590   2.311 -10.411  0.00  0.00    -0.205 F 
ATOM     14  C   LIG d   1       6.536   1.602  -8.412  0.00  0.00    -0.056 A 
ATOM     15  H   LIG d   1       5.789   3.326  -9.432  0.00  0.00     0.065 H 
ATOM     16  H   LIG d   1       7.420   2.106  -8.050  0.00  0.00     0.062 H 
ENDBRANCH   3   6
ENDBRANCH   1   3
BRANCH   1  17
ATOM     17  C   LIG d   1       6.884  -0.820  -4.837  0.00  0.00     0.160 C 
ATOM     18  O   LIG d   1       7.445  -1.877  -4.687  0.00  0.00    -0.295 OA
BRANCH  17  19
ATOM     19  C   LIG d   1       5.678  -0.481  -3.998  0.00  0.00     0.032 C 
ATOM     20  C   LIG d   1       5.496  -1.543  -2.913  0.00  0.00    -0.038 C 
ATOM     21  C   LIG d   1       4.273  -1.199  -2.062  0.00  0.00    -0.040 C 
ATOM     22  H   LIG d   1       5.351  -2.518  -3.380  0.00  0.00     0.028 H 
ATOM     23  H   LIG d   1       6.382  -1.571  -2.280  0.00  0.00     0.028 H 
ATOM     24  C   LIG d   1       3.028  -1.159  -2.951  0.00  0.00    -0.047 C 
ATOM     25  C   LIG d   1       4.475   0.169  -1.407  0.00  0.00    -0.047 C 
ATOM     26  H   LIG d   1       4.143  -1.956  -1.289  0.00  0.00     0.030 H 
ATOM     27  C   LIG d   1       3.209  -0.097  -4.036  0.00  0.00    -0.040 C 
ATOM     28  H   LIG d   1       2.156  -0.914  -2.344  0.00  0.00     0.027 H 
ATOM     29  H   LIG d   1       2.883  -2.134  -3.418  0.00  0.00     0.027 H 
ATOM     30  C   LIG d   1       4.433  -0.440  -4.888  0.00  0.00    -0.038 C 
ATOM     31  C   LIG d   1       3.412   1.272  -3.381  0.00  0.00    -0.047 C 
ATOM     32  H   LIG d   1       2.322  -0.068  -4.669  0.00  0.00     0.030 H 
ATOM     33  H   LIG d   1       4.563   0.317  -5.660  0.00  0.00     0.028 H 
ATOM     34  H   LIG d   1       4.289  -1.415  -5.354  0.00  0.00     0.028 H 
ATOM     35  C   LIG d   1       4.657   1.232  -2.492  0.00  0.00    -0.040 C 
ATOM     36  H   LIG d   1       3.541   2.029  -4.153  0.00  0.00     0.027 H 
ATOM     37  H   LIG d   1       2.540   1.517  -2.775  0.00  0.00     0.027 H 
ATOM     38  C   LIG d   1       5.881   0.888  -3.343  0.00  0.00    -0.038 C 
ATOM     39  H   LIG d   1       4.801   2.206  -2.026  0.00  0.00     0.030 H 
ATOM     40  H   LIG d   1       6.767   0.859  -2.710  0.00  0.00     0.028 H 
ATOM     41  H   LIG d   1       6.010   1.646  -4.116  0.00  0.00     0.028 H 
ATOM     42  H   LIG d   1       3.603   0.414  -0.801  0.00  0.00     0.027 H 
ATOM     43  H   LIG d   1       5.362   0.140  -0.774  0.00  0.00     0.027 H 
ENDBRANCH  17  19
ENDBRANCH   1  17
BRANCH   1  44
ATOM     44  N   LIG d   1       8.774   0.520  -5.556  0.00  0.00    -0.334 N 
ATOM     45  H   LIG d   1       9.480  -0.137  -5.665  0.00  0.00     0.147 HD
BRANCH  44  46
ATOM     46  C   LIG d   1       9.083   1.809  -5.108  0.00  0.00     0.028 A 
ATOM     47  C   LIG d   1       9.242   2.053  -3.751  0.00  0.00    -0.038 A 
ATOM     48  C   LIG d   1       9.551   3.326  -3.311  0.00  0.00    -0.025 A 
ATOM     49  H   LIG d   1       9.129   1.249  -3.039  0.00  0.00     0.064 H 
ATOM     50  C   LIG d   1       9.691   4.359  -4.223  0.00  0.00     0.123 A 
ATOM     51  H   LIG d   1       9.680   3.516  -2.256  0.00  0.00     0.065 H 
ATOM     52  C   LIG d   1       9.528   4.118  -5.576  0.00  0.00    -0.025 A 
ATOM     53  F   LIG d   1       9.989   5.604  -3.790  0.00  0.00    -0.205 F 
ATOM     54  C   LIG d   1       9.224   2.846  -6.020  0.00  0.00    -0.038 A 
ATOM     55  H   LIG d   1       9.637   4.925  -6.285  0.00  0.00     0.065 H 
ATOM     56  H   LIG d   1       9.096   2.658  -7.076  0.00  0.00     0.064 H 
ENDBRANCH  44  46
ENDBRANCH   1  44
TORSDOF 6
ENDMDL
MODEL 4
REMARK VINA RESULT:      -7.5      1.584      2.345
REMARK  6 active torsions:
REMARK  status: ('A' for Active; 'I' for Inactive)
REMARK    1  A    between atoms: C_6  and  C_7 
REMARK    2  A    between atoms: C_7  and  C_8 
REMARK    3  A    between atoms: C_8  and  C_10 
REMARK    4  A    between atoms: C_8  and  N_22 
REMARK    5  A    between atoms: C_10  and  C_12 
REMARK    6  A    between atoms: N_22  and  C_23 
ROOT
ATOM      1  C   LIG d   1       6.153  -1.677  -6.379  0.00  0.00     0.084 C 
ATOM      2  H   LIG d   1       5.094  -1.934  -6.383  0.00  0.00     0.058 H 
ENDROOT
BRANCH   1   3
ATOM      3  C   LIG d   1       6.985  -2.939  -6.143  0.00  0.00    -0.002 C 
ATOM      4  H   LIG d   1       7.283  -2.988  -5.097  0.00  0.00     0.034 H 
ATOM      5  H   LIG d   1       7.873  -2.912  -6.774  0.00  0.00     0.034 H 
BRANCH   3   6
ATOM      6  C   LIG d   1       6.161  -4.154  -6.487  0.00  0.00    -0.045 A 
ATOM      7  C   LIG d   1       4.805  -4.167  -6.221  0.00  0.00    -0.056 A 
ATOM      8  C   LIG d   1       4.049  -5.281  -6.535  0.00  0.00    -0.026 A 
ATOM      9  H   LIG d   1       4.334  -3.305  -5.771  0.00  0.00     0.062 H 
ATOM     10  C   LIG d   1       4.651  -6.383  -7.117  0.00  0.00     0.123 A 
ATOM     11  H   LIG d   1       2.990  -5.290  -6.327  0.00  0.00     0.065 H 
ATOM     12  C   LIG d   1       6.010  -6.369  -7.384  0.00  0.00    -0.026 A 
ATOM     13  F   LIG d   1       3.913  -7.473  -7.425  0.00  0.00    -0.205 F 
ATOM     14  C   LIG d   1       6.763  -5.255  -7.068  0.00  0.00    -0.056 A 
ATOM     15  H   LIG d   1       6.480  -7.229  -7.837  0.00  0.00     0.065 H 
ATOM     16  H   LIG d   1       7.823  -5.244  -7.275  0.00  0.00     0.062 H 
ENDBRANCH   3   6
ENDBRANCH   1   3
BRANCH   1  17
ATOM     17  C   LIG d   1       6.425  -0.684  -5.277  0.00  0.00     0.160 C 
ATOM     18  O   LIG d   1       7.483  -0.105  -5.233  0.00  0.00    -0.295 OA
BRANCH  17  19
ATOM     19  C   LIG d   1       5.375  -0.415  -4.231  0.00  0.00     0.032 C 
ATOM     20  C   LIG d   1       5.837   0.729  -3.327  0.00  0.00    -0.038 C 
ATOM     21  C   LIG d   1       4.771   1.003  -2.264  0.00  0.00    -0.040 C 
ATOM     22  H   LIG d   1       6.772   0.452  -2.840  0.00  0.00     0.028 H 
ATOM     23  H   LIG d   1       5.991   1.626  -3.926  0.00  0.00     0.028 H 
ATOM     24  C   LIG d   1       4.555  -0.257  -1.423  0.00  0.00    -0.047 C 
ATOM     25  C   LIG d   1       3.458   1.391  -2.947  0.00  0.00    -0.047 C 
ATOM     26  H   LIG d   1       5.100   1.818  -1.620  0.00  0.00     0.030 H 
ATOM     27  C   LIG d   1       4.092  -1.400  -2.327  0.00  0.00    -0.040 C 
ATOM     28  H   LIG d   1       3.795  -0.062  -0.666  0.00  0.00     0.027 H 
ATOM     29  H   LIG d   1       5.490  -0.534  -0.936  0.00  0.00     0.027 H 
ATOM     30  C   LIG d   1       5.158  -1.675  -3.389  0.00  0.00    -0.038 C 
ATOM     31  C   LIG d   1       2.779  -1.012  -3.010  0.00  0.00    -0.047 C 
ATOM     32  H   LIG d   1       3.938  -2.298  -1.727  0.00  0.00     0.030 H 
ATOM     33  H   LIG d   1       4.828  -2.489  -4.034  0.00  0.00     0.028 H 
ATOM     34  H   LIG d   1       6.093  -1.951  -2.903  0.00  0.00     0.028 H 
ATOM     35  C   LIG d   1       2.995   0.247  -3.851  0.00  0.00    -0.040 C 
ATOM     36  H   LIG d   1       2.449  -1.827  -3.653  0.00  0.00     0.027 H 
ATOM     37  H   LIG d   1       2.020  -0.818  -2.253  0.00  0.00     0.027 H 
ATOM     38  C   LIG d   1       4.062  -0.026  -4.914  0.00  0.00    -0.038 C 
ATOM     39  H   LIG d   1       2.060   0.524  -4.337  0.00  0.00     0.030 H 
ATOM     40  H   LIG d   1       4.216   0.871  -5.513  0.00  0.00     0.028 H 
ATOM     41  H   LIG d   1       3.732  -0.841  -5.558  0.00  0.00     0.028 H 
ATOM     42  H   LIG d   1       2.698   1.586  -2.190  0.00  0.00     0.027 H 
ATOM     43  H   LIG d   1       3.613   2.289  -3.546  0.00  0.00     0.027 H 
ENDBRANCH  17  19
ENDBRANCH   1  17
BRANCH   1  44
ATOM     44  N   LIG d   1       6.518  -1.085  -7.669  0.00  0.00    -0.334 N 
ATOM     45  H   LIG d   1       7.334  -1.360  -8.116  0.00  0.00     0.147 HD
BRANCH  44  46
ATOM     46  C   LIG d   1       5.689  -0.125  -8.257  0.00  0.00     0.028 A 
ATOM     47  C   LIG d   1       6.177   1.148  -8.521  0.00  0.00    -0.038 A 
ATOM     48  C   LIG d   1       5.357   2.093  -9.107  0.00  0.00    -0.025 A 
ATOM     49  H   LIG d   1       7.197   1.398  -8.272  0.00  0.00     0.064 H 
ATOM     50  C   LIG d   1       4.047   1.774  -9.422  0.00  0.00     0.123 A 
ATOM     51  H   LIG d   1       5.737   3.082  -9.317  0.00  0.00     0.065 H 
ATOM     52  C   LIG d   1       3.557   0.507  -9.155  0.00  0.00    -0.025 A 
ATOM     53  F   LIG d   1       3.245   2.702  -9.991  0.00  0.00    -0.205 F 
ATOM     54  C   LIG d   1       4.374  -0.442  -8.574  0.00  0.00    -0.038 A 
ATOM     55  H   LIG d   1       2.535   0.261  -9.401  0.00  0.00     0.065 H 
ATOM     56  H   LIG d   1       3.991  -1.431  -8.366  0.00  0.00     0.064 H 
ENDBRANCH  44  46
ENDBRANCH   1  44
TORSDOF 6
ENDMDL
MODEL 5
REMARK VINA RESULT:      -7.5      3.266      4.567
REMARK  6 active torsions:
REMARK  status: ('A' for Active; 'I' for Inactive)
REMARK    1  A    between atoms: C_6  and  C_7 
REMARK    2  A    between atoms: C_7  and  C_8 
REMARK    3  A    between atoms: C_8  and  C_10 
REMARK    4  A    between atoms: C_8  and  N_22 
REMARK    5  A    between atoms: C_10  and  C_12 
REMARK    6  A    between atoms: N_22  and  C_23 
ROOT
ATOM      1  C   LIG d   1       6.750  -2.713  -5.328  0.00  0.00     0.084 C 
ATOM      2  H   LIG d   1       6.387  -3.254  -4.454  0.00  0.00     0.058 H 
ENDROOT
BRANCH   1   3
ATOM      3  C   LIG d   1       8.248  -2.967  -5.500  0.00  0.00    -0.002 C 
ATOM      4  H   LIG d   1       8.790  -2.026  -5.410  0.00  0.00     0.034 H 
ATOM      5  H   LIG d   1       8.433  -3.401  -6.482  0.00  0.00     0.034 H 
BRANCH   3   6
ATOM      6  C   LIG d   1       8.722  -3.921  -4.432  0.00  0.00    -0.045 A 
ATOM      7  C   LIG d   1       9.139  -3.435  -3.208  0.00  0.00    -0.056 A 
ATOM      8  C   LIG d   1       9.575  -4.308  -2.229  0.00  0.00    -0.026 A 
ATOM      9  H   LIG d   1       9.122  -2.372  -3.014  0.00  0.00     0.062 H 
ATOM     10  C   LIG d   1       9.593  -5.670  -2.475  0.00  0.00     0.123 A 
ATOM     11  H   LIG d   1       9.900  -3.928  -1.272  0.00  0.00     0.065 H 
ATOM     12  C   LIG d   1       9.174  -6.156  -3.703  0.00  0.00    -0.026 A 
ATOM     13  F   LIG d   1      10.017  -6.525  -1.519  0.00  0.00    -0.205 F 
ATOM     14  C   LIG d   1       8.740  -5.281  -4.680  0.00  0.00    -0.056 A 
ATOM     15  H   LIG d   1       9.188  -7.218  -3.896  0.00  0.00     0.065 H 
ATOM     16  H   LIG d   1       8.414  -5.659  -5.637  0.00  0.00     0.062 H 
ENDBRANCH   3   6
ENDBRANCH   1   3
BRANCH   1  17
ATOM     17  C   LIG d   1       6.509  -1.237  -5.140  0.00  0.00     0.160 C 
ATOM     18  O   LIG d   1       7.167  -0.435  -5.757  0.00  0.00    -0.295 OA
BRANCH  17  19
ATOM     19  C   LIG d   1       5.447  -0.763  -4.182  0.00  0.00     0.032 C 
ATOM     20  C   LIG d   1       4.199  -0.354  -4.966  0.00  0.00    -0.038 C 
ATOM     21  C   LIG d   1       3.121   0.128  -3.994  0.00  0.00    -0.040 C 
ATOM     22  H   LIG d   1       4.451   0.452  -5.656  0.00  0.00     0.028 H 
ATOM     23  H   LIG d   1       3.825  -1.210  -5.528  0.00  0.00     0.028 H 
ATOM     24  C   LIG d   1       3.644   1.329  -3.205  0.00  0.00    -0.047 C 
ATOM     25  C   LIG d   1       2.766  -1.003  -3.025  0.00  0.00    -0.047 C 
ATOM     26  H   LIG d   1       2.231   0.419  -4.552  0.00  0.00     0.030 H 
ATOM     27  C   LIG d   1       4.892   0.920  -2.421  0.00  0.00    -0.040 C 
ATOM     28  H   LIG d   1       2.875   1.672  -2.512  0.00  0.00     0.027 H 
ATOM     29  H   LIG d   1       3.897   2.135  -3.895  0.00  0.00     0.027 H 
ATOM     30  C   LIG d   1       5.971   0.439  -3.393  0.00  0.00    -0.038 C 
ATOM     31  C   LIG d   1       4.538  -0.210  -1.452  0.00  0.00    -0.047 C 
ATOM     32  H   LIG d   1       5.265   1.777  -1.859  0.00  0.00     0.030 H 
ATOM     33  H   LIG d   1       6.860   0.147  -2.835  0.00  0.00     0.028 H 
ATOM     34  H   LIG d   1       6.223   1.244  -4.083  0.00  0.00     0.028 H 
ATOM     35  C   LIG d   1       4.014  -1.412  -2.240  0.00  0.00    -0.040 C 
ATOM     36  H   LIG d   1       5.426  -0.501  -0.893  0.00  0.00     0.027 H 
ATOM     37  H   LIG d   1       3.770   0.133  -0.759  0.00  0.00     0.027 H 
ATOM     38  C   LIG d   1       5.093  -1.893  -3.214  0.00  0.00    -0.038 C 
ATOM     39  H   LIG d   1       3.762  -2.217  -1.550  0.00  0.00     0.030 H 
ATOM     40  H   LIG d   1       4.719  -2.749  -3.775  0.00  0.00     0.028 H 
ATOM     41  H   LIG d   1       5.982  -2.185  -2.654  0.00  0.00     0.028 H 
ATOM     42  H   LIG d   1       1.998  -0.660  -2.332  0.00  0.00     0.027 H 
ATOM     43  H   LIG d   1       2.393  -1.859  -3.587  0.00  0.00     0.027 H 
ENDBRANCH  17  19
ENDBRANCH   1  17
BRANCH   1  44
ATOM     44  N   LIG d   1       6.036  -3.176  -6.520  0.00  0.00    -0.334 N 
ATOM     45  H   LIG d   1       5.874  -2.565  -7.257  0.00  0.00     0.147 HD
BRANCH  44  46
ATOM     46  C   LIG d   1       5.589  -4.499  -6.599  0.00  0.00     0.028 A 
ATOM     47  C   LIG d   1       5.128  -5.146  -5.461  0.00  0.00    -0.038 A 
ATOM     48  C   LIG d   1       4.682  -6.451  -5.542  0.00  0.00    -0.025 A 
ATOM     49  H   LIG d   1       5.114  -4.629  -4.513  0.00  0.00     0.064 H 
ATOM     50  C   LIG d   1       4.705  -7.116  -6.757  0.00  0.00     0.123 A 
ATOM     51  H   LIG d   1       4.320  -6.954  -4.658  0.00  0.00     0.065 H 
ATOM     52  C   LIG d   1       5.169  -6.474  -7.892  0.00  0.00    -0.025 A 
ATOM     53  F   LIG d   1       4.273  -8.395  -6.833  0.00  0.00    -0.205 F 
ATOM     54  C   LIG d   1       5.611  -5.168  -7.816  0.00  0.00    -0.038 A 
ATOM     55  H   LIG d   1       5.186  -6.995  -8.838  0.00  0.00     0.065 H 
ATOM     56  H   LIG d   1       5.973  -4.667  -8.702  0.00  0.00     0.064 H 
ENDBRANCH  44  46
ENDBRANCH   1  44
TORSDOF 6
ENDMDL
MODEL 6
REMARK VINA RESULT:      -7.4      1.742      5.255
REMARK  6 active torsions:
REMARK  status: ('A' for Active; 'I' for Inactive)
REMARK    1  A    between atoms: C_6  and  C_7 
REMARK    2  A    between atoms: C_7  and  C_8 
REMARK    3  A    between atoms: C_8  and  C_10 
REMARK    4  A    between atoms: C_8  and  N_22 
REMARK    5  A    between atoms: C_10  and  C_12 
REMARK    6  A    between atoms: N_22  and  C_23 
ROOT
ATOM      1  C   LIG d   1       3.548  -0.089  -7.017  0.00  0.00     0.084 C 
ATOM      2  H   LIG d   1       4.605   0.175  -7.050  0.00  0.00     0.058 H 
ENDROOT
BRANCH   1   3
ATOM      3  C   LIG d   1       2.756   0.857  -7.921  0.00  0.00    -0.002 C 
ATOM      4  H   LIG d   1       3.170   1.862  -7.848  0.00  0.00     0.034 H 
ATOM      5  H   LIG d   1       1.712   0.870  -7.607  0.00  0.00     0.034 H 
BRANCH   3   6
ATOM      6  C   LIG d   1       2.846   0.380  -9.348  0.00  0.00    -0.045 A 
ATOM      7  C   LIG d   1       3.925   0.744 -10.132  0.00  0.00    -0.056 A 
ATOM      8  C   LIG d   1       4.007   0.308 -11.440  0.00  0.00    -0.026 A 
ATOM      9  H   LIG d   1       4.706   1.366  -9.720  0.00  0.00     0.062 H 
ATOM     10  C   LIG d   1       3.009  -0.494 -11.967  0.00  0.00     0.123 A 
ATOM     11  H   LIG d   1       4.851   0.592 -12.052  0.00  0.00     0.065 H 
ATOM     12  C   LIG d   1       1.929  -0.859 -11.181  0.00  0.00    -0.026 A 
ATOM     13  F   LIG d   1       3.089  -0.921 -13.247  0.00  0.00    -0.205 F 
ATOM     14  C   LIG d   1       1.848  -0.420  -9.873  0.00  0.00    -0.056 A 
ATOM     15  H   LIG d   1       1.150  -1.483 -11.591  0.00  0.00     0.065 H 
ATOM     16  H   LIG d   1       1.005  -0.704  -9.260  0.00  0.00     0.062 H 
ENDBRANCH   3   6
ENDBRANCH   1   3
BRANCH   1  17
ATOM     17  C   LIG d   1       3.045   0.032  -5.601  0.00  0.00     0.160 C 
ATOM     18  O   LIG d   1       1.888   0.306  -5.392  0.00  0.00    -0.295 OA
BRANCH  17  19
ATOM     19  C   LIG d   1       3.987  -0.190  -4.446  0.00  0.00     0.032 C 
ATOM     20  C   LIG d   1       5.429  -0.190  -4.956  0.00  0.00    -0.038 C 
ATOM     21  C   LIG d   1       6.385  -0.415  -3.784  0.00  0.00    -0.040 C 
ATOM     22  H   LIG d   1       5.556  -0.989  -5.686  0.00  0.00     0.028 H 
ATOM     23  H   LIG d   1       5.648   0.769  -5.425  0.00  0.00     0.028 H 
ATOM     24  C   LIG d   1       6.077  -1.761  -3.125  0.00  0.00    -0.047 C 
ATOM     25  C   LIG d   1       6.207   0.707  -2.758  0.00  0.00    -0.047 C 
ATOM     26  H   LIG d   1       7.413  -0.415  -4.147  0.00  0.00     0.030 H 
ATOM     27  C   LIG d   1       4.636  -1.761  -2.614  0.00  0.00    -0.040 C 
ATOM     28  H   LIG d   1       6.759  -1.921  -2.290  0.00  0.00     0.027 H 
ATOM     29  H   LIG d   1       6.204  -2.560  -3.855  0.00  0.00     0.027 H 
ATOM     30  C   LIG d   1       3.678  -1.537  -3.787  0.00  0.00    -0.038 C 
ATOM     31  C   LIG d   1       4.458  -0.639  -1.589  0.00  0.00    -0.047 C 
ATOM     32  H   LIG d   1       4.416  -2.721  -2.145  0.00  0.00     0.030 H 
ATOM     33  H   LIG d   1       2.651  -1.536  -3.423  0.00  0.00     0.028 H 
ATOM     34  H   LIG d   1       3.805  -2.335  -4.517  0.00  0.00     0.028 H 
ATOM     35  C   LIG d   1       4.765   0.707  -2.247  0.00  0.00    -0.040 C 
ATOM     36  H   LIG d   1       3.431  -0.640  -1.225  0.00  0.00     0.027 H 
ATOM     37  H   LIG d   1       5.138  -0.800  -0.753  0.00  0.00     0.027 H 
ATOM     38  C   LIG d   1       3.809   0.932  -3.420  0.00  0.00    -0.038 C 
ATOM     39  H   LIG d   1       4.638   1.505  -1.516  0.00  0.00     0.030 H 
ATOM     40  H   LIG d   1       4.028   1.891  -3.889  0.00  0.00     0.028 H 
ATOM     41  H   LIG d   1       2.781   0.932  -3.056  0.00  0.00     0.028 H 
ATOM     42  H   LIG d   1       6.889   0.547  -1.922  0.00  0.00     0.027 H 
ATOM     43  H   LIG d   1       6.427   1.665  -3.227  0.00  0.00     0.027 H 
ENDBRANCH  17  19
ENDBRANCH   1  17
BRANCH   1  44
ATOM     44  N   LIG d   1       3.374  -1.468  -7.480  0.00  0.00    -0.334 N 
ATOM     45  H   LIG d   1       2.497  -1.782  -7.751  0.00  0.00     0.147 HD
BRANCH  44  46
ATOM     46  C   LIG d   1       4.473  -2.332  -7.534  0.00  0.00     0.028 A 
ATOM     47  C   LIG d   1       5.481  -2.117  -8.464  0.00  0.00    -0.038 A 
ATOM     48  C   LIG d   1       6.568  -2.969  -8.512  0.00  0.00    -0.025 A 
ATOM     49  H   LIG d   1       5.419  -1.284  -9.147  0.00  0.00     0.064 H 
ATOM     50  C   LIG d   1       6.646  -4.042  -7.640  0.00  0.00     0.123 A 
ATOM     51  H   LIG d   1       7.354  -2.801  -9.232  0.00  0.00     0.065 H 
ATOM     52  C   LIG d   1       5.639  -4.260  -6.715  0.00  0.00    -0.025 A 
ATOM     53  F   LIG d   1       7.707  -4.877  -7.692  0.00  0.00    -0.205 F 
ATOM     54  C   LIG d   1       4.554  -3.408  -6.661  0.00  0.00    -0.038 A 
ATOM     55  H   LIG d   1       5.702  -5.098  -6.036  0.00  0.00     0.065 H 
ATOM     56  H   LIG d   1       3.768  -3.579  -5.938  0.00  0.00     0.064 H 
ENDBRANCH  44  46
ENDBRANCH   1  44
TORSDOF 6
ENDMDL
MODEL 7
REMARK VINA RESULT:      -7.3      2.581      3.551
REMARK  6 active torsions:
REMARK  status: ('A' for Active; 'I' for Inactive)
REMARK    1  A    between atoms: C_6  and  C_7 
REMARK    2  A    between atoms: C_7  and  C_8 
REMARK    3  A    between atoms: C_8  and  C_10 
REMARK    4  A    between atoms: C_8  and  N_22 
REMARK    5  A    between atoms: C_10  and  C_12 
REMARK    6  A    between atoms: N_22  and  C_23 
ROOT
ATOM      1  C   LIG d   1       3.638  -0.499  -7.247  0.00  0.00     0.084 C 
ATOM      2  H   LIG d   1       4.021  -1.502  -7.059  0.00  0.00     0.058 H 
ENDROOT
BRANCH   1   3
ATOM      3  C   LIG d   1       4.660   0.295  -8.062  0.00  0.00    -0.002 C 
ATOM      4  H   LIG d   1       4.573   1.354  -7.822  0.00  0.00     0.034 H 
ATOM      5  H   LIG d   1       4.471   0.147  -9.125  0.00  0.00     0.034 H 
BRANCH   3   6
ATOM      6  C   LIG d   1       6.050  -0.183  -7.727  0.00  0.00    -0.045 A 
ATOM      7  C   LIG d   1       6.346  -1.533  -7.774  0.00  0.00    -0.056 A 
ATOM      8  C   LIG d   1       7.619  -1.972  -7.466  0.00  0.00    -0.026 A 
ATOM      9  H   LIG d   1       5.582  -2.244  -8.054  0.00  0.00     0.062 H 
ATOM     10  C   LIG d   1       8.599  -1.061  -7.112  0.00  0.00     0.123 A 
ATOM     11  H   LIG d   1       7.850  -3.026  -7.503  0.00  0.00     0.065 H 
ATOM     12  C   LIG d   1       8.302   0.291  -7.067  0.00  0.00    -0.026 A 
ATOM     13  F   LIG d   1       9.845  -1.489  -6.812  0.00  0.00    -0.205 F 
ATOM     14  C   LIG d   1       7.027   0.728  -7.373  0.00  0.00    -0.056 A 
ATOM     15  H   LIG d   1       9.065   1.003  -6.790  0.00  0.00     0.065 H 
ATOM     16  H   LIG d   1       6.795   1.782  -7.338  0.00  0.00     0.062 H 
ENDBRANCH   3   6
ENDBRANCH   1   3
BRANCH   1  17
ATOM     17  C   LIG d   1       3.393   0.198  -5.932  0.00  0.00     0.160 C 
ATOM     18  O   LIG d   1       2.764   1.228  -5.903  0.00  0.00    -0.295 OA
BRANCH  17  19
ATOM     19  C   LIG d   1       3.935  -0.390  -4.656  0.00  0.00     0.032 C 
ATOM     20  C   LIG d   1       4.337  -1.846  -4.895  0.00  0.00    -0.038 C 
ATOM     21  C   LIG d   1       4.886  -2.444  -3.599  0.00  0.00    -0.040 C 
ATOM     22  H   LIG d   1       3.465  -2.416  -5.216  0.00  0.00     0.028 H 
ATOM     23  H   LIG d   1       5.104  -1.889  -5.668  0.00  0.00     0.028 H 
ATOM     24  C   LIG d   1       3.810  -2.384  -2.513  0.00  0.00    -0.047 C 
ATOM     25  C   LIG d   1       6.111  -1.645  -3.148  0.00  0.00    -0.047 C 
ATOM     26  H   LIG d   1       5.174  -3.482  -3.770  0.00  0.00     0.030 H 
ATOM     27  C   LIG d   1       3.408  -0.929  -2.273  0.00  0.00    -0.040 C 
ATOM     28  H   LIG d   1       4.202  -2.811  -1.590  0.00  0.00     0.027 H 
ATOM     29  H   LIG d   1       2.938  -2.954  -2.834  0.00  0.00     0.027 H 
ATOM     30  C   LIG d   1       2.858  -0.330  -3.569  0.00  0.00    -0.038 C 
ATOM     31  C   LIG d   1       4.633  -0.129  -1.822  0.00  0.00    -0.047 C 
ATOM     32  H   LIG d   1       2.641  -0.886  -1.499  0.00  0.00     0.030 H 
ATOM     33  H   LIG d   1       2.572   0.707  -3.398  0.00  0.00     0.028 H 
ATOM     34  H   LIG d   1       1.986  -0.900  -3.891  0.00  0.00     0.028 H 
ATOM     35  C   LIG d   1       5.709  -0.188  -2.907  0.00  0.00    -0.040 C 
ATOM     36  H   LIG d   1       4.346   0.908  -1.650  0.00  0.00     0.027 H 
ATOM     37  H   LIG d   1       5.023  -0.554  -0.898  0.00  0.00     0.027 H 
ATOM     38  C   LIG d   1       5.159   0.409  -4.204  0.00  0.00    -0.038 C 
ATOM     39  H   LIG d   1       6.580   0.381  -2.585  0.00  0.00     0.030 H 
ATOM     40  H   LIG d   1       5.925   0.367  -4.977  0.00  0.00     0.028 H 
ATOM     41  H   LIG d   1       4.872   1.447  -4.033  0.00  0.00     0.028 H 
ATOM     42  H   LIG d   1       6.503  -2.070  -2.224  0.00  0.00     0.027 H 
ATOM     43  H   LIG d   1       6.877  -1.687  -3.921  0.00  0.00     0.027 H 
ENDBRANCH  17  19
ENDBRANCH   1  17
BRANCH   1  44
ATOM     44  N   LIG d   1       2.380  -0.588  -7.992  0.00  0.00    -0.334 N 
ATOM     45  H   LIG d   1       1.571  -0.196  -7.629  0.00  0.00     0.147 HD
BRANCH  44  46
ATOM     46  C   LIG d   1       2.346  -1.237  -9.231  0.00  0.00     0.028 A 
ATOM     47  C   LIG d   1       2.895  -2.505  -9.367  0.00  0.00    -0.038 A 
ATOM     48  C   LIG d   1       2.855  -3.147 -10.590  0.00  0.00    -0.025 A 
ATOM     49  H   LIG d   1       3.350  -2.991  -8.517  0.00  0.00     0.064 H 
ATOM     50  C   LIG d   1       2.277  -2.521 -11.682  0.00  0.00     0.123 A 
ATOM     51  H   LIG d   1       3.279  -4.134 -10.696  0.00  0.00     0.065 H 
ATOM     52  C   LIG d   1       1.732  -1.255 -11.549  0.00  0.00    -0.025 A 
ATOM     53  F   LIG d   1       2.243  -3.148 -12.878  0.00  0.00    -0.205 F 
ATOM     54  C   LIG d   1       1.766  -0.612 -10.327  0.00  0.00    -0.038 A 
ATOM     55  H   LIG d   1       1.282  -0.769 -12.402  0.00  0.00     0.065 H 
ATOM     56  H   LIG d   1       1.341   0.376 -10.224  0.00  0.00     0.064 H 
ENDBRANCH  44  46
ENDBRANCH   1  44
TORSDOF 6
ENDMDL
MODEL 8
REMARK VINA RESULT:      -7.3      3.246      7.076
REMARK  6 active torsions:
REMARK  status: ('A' for Active; 'I' for Inactive)
REMARK    1  A    between atoms: C_6  and  C_7 
REMARK    2  A    between atoms: C_7  and  C_8 
REMARK    3  A    between atoms: C_8  and  C_10 
REMARK    4  A    between atoms: C_8  and  N_22 
REMARK    5  A    between atoms: C_10  and  C_12 
REMARK    6  A    between atoms: N_22  and  C_23 
ROOT
ATOM      1  C   LIG d   1       4.629  -1.706  -6.584  0.00  0.00     0.084 C 
ATOM      2  H   LIG d   1       4.462  -0.645  -6.776  0.00  0.00     0.058 H 
ENDROOT
BRANCH   1   3
ATOM      3  C   LIG d   1       6.131  -1.975  -6.477  0.00  0.00    -0.002 C 
ATOM      4  H   LIG d   1       6.467  -2.521  -7.358  0.00  0.00     0.034 H 
ATOM      5  H   LIG d   1       6.331  -2.567  -5.584  0.00  0.00     0.034 H 
BRANCH   3   6
ATOM      6  C   LIG d   1       6.871  -0.665  -6.387  0.00  0.00    -0.045 A 
ATOM      7  C   LIG d   1       6.894   0.191  -7.472  0.00  0.00    -0.056 A 
ATOM      8  C   LIG d   1       7.573   1.392  -7.390  0.00  0.00    -0.026 A 
ATOM      9  H   LIG d   1       6.378  -0.076  -8.382  0.00  0.00     0.062 H 
ATOM     10  C   LIG d   1       8.231   1.738  -6.223  0.00  0.00     0.123 A 
ATOM     11  H   LIG d   1       7.591   2.061  -8.239  0.00  0.00     0.065 H 
ATOM     12  C   LIG d   1       8.207   0.880  -5.136  0.00  0.00    -0.026 A 
ATOM     13  F   LIG d   1       8.895   2.912  -6.142  0.00  0.00    -0.205 F 
ATOM     14  C   LIG d   1       7.528  -0.321  -5.220  0.00  0.00    -0.056 A 
ATOM     15  H   LIG d   1       8.719   1.148  -4.224  0.00  0.00     0.065 H 
ATOM     16  H   LIG d   1       7.509  -0.990  -4.373  0.00  0.00     0.062 H 
ENDBRANCH   3   6
ENDBRANCH   1   3
BRANCH   1  17
ATOM     17  C   LIG d   1       4.053  -2.517  -7.717  0.00  0.00     0.160 C 
ATOM     18  O   LIG d   1       4.042  -3.722  -7.651  0.00  0.00    -0.295 OA
BRANCH  17  19
ATOM     19  C   LIG d   1       3.492  -1.824  -8.931  0.00  0.00     0.032 C 
ATOM     20  C   LIG d   1       2.800  -0.528  -8.504  0.00  0.00    -0.038 C 
ATOM     21  C   LIG d   1       2.230   0.176  -9.736  0.00  0.00    -0.040 C 
ATOM     22  H   LIG d   1       1.991  -0.759  -7.811  0.00  0.00     0.028 H 
ATOM     23  H   LIG d   1       3.522   0.125  -8.014  0.00  0.00     0.028 H 
ATOM     24  C   LIG d   1       1.216  -0.741 -10.424  0.00  0.00    -0.047 C 
ATOM     25  C   LIG d   1       3.366   0.501 -10.709  0.00  0.00    -0.047 C 
ATOM     26  H   LIG d   1       1.737   1.100  -9.433  0.00  0.00     0.030 H 
ATOM     27  C   LIG d   1       1.908  -2.036 -10.851  0.00  0.00    -0.040 C 
ATOM     28  H   LIG d   1       0.810  -0.239 -11.302  0.00  0.00     0.027 H 
ATOM     29  H   LIG d   1       0.407  -0.972  -9.732  0.00  0.00     0.027 H 
ATOM     30  C   LIG d   1       2.478  -2.741  -9.619  0.00  0.00    -0.038 C 
ATOM     31  C   LIG d   1       3.043  -1.711 -11.824  0.00  0.00    -0.047 C 
ATOM     32  H   LIG d   1       1.185  -2.690 -11.341  0.00  0.00     0.030 H 
ATOM     33  H   LIG d   1       2.971  -3.664  -9.923  0.00  0.00     0.028 H 
ATOM     34  H   LIG d   1       1.669  -2.972  -8.926  0.00  0.00     0.028 H 
ATOM     35  C   LIG d   1       4.057  -0.795 -11.137  0.00  0.00    -0.040 C 
ATOM     36  H   LIG d   1       3.536  -2.635 -12.129  0.00  0.00     0.027 H 
ATOM     37  H   LIG d   1       2.637  -1.211 -12.703  0.00  0.00     0.027 H 
ATOM     38  C   LIG d   1       4.628  -1.499  -9.903  0.00  0.00    -0.038 C 
ATOM     39  H   LIG d   1       4.866  -0.564 -11.830  0.00  0.00     0.030 H 
ATOM     40  H   LIG d   1       5.350  -0.846  -9.414  0.00  0.00     0.028 H 
ATOM     41  H   LIG d   1       5.121  -2.423 -10.208  0.00  0.00     0.028 H 
ATOM     42  H   LIG d   1       2.960   1.002 -11.588  0.00  0.00     0.027 H 
ATOM     43  H   LIG d   1       4.088   1.154 -10.219  0.00  0.00     0.027 H 
ENDBRANCH  17  19
ENDBRANCH   1  17
BRANCH   1  44
ATOM     44  N   LIG d   1       3.974  -2.084  -5.330  0.00  0.00    -0.334 N 
ATOM     45  H   LIG d   1       3.434  -2.889  -5.288  0.00  0.00     0.147 HD
BRANCH  44  46
ATOM     46  C   LIG d   1       4.127  -1.286  -4.192  0.00  0.00     0.028 A 
ATOM     47  C   LIG d   1       3.934   0.086  -4.274  0.00  0.00    -0.038 A 
ATOM     48  C   LIG d   1       4.081   0.872  -3.147  0.00  0.00    -0.025 A 
ATOM     49  H   LIG d   1       3.667   0.540  -5.216  0.00  0.00     0.064 H 
ATOM     50  C   LIG d   1       4.430   0.292  -1.939  0.00  0.00     0.123 A 
ATOM     51  H   LIG d   1       3.927   1.939  -3.209  0.00  0.00     0.065 H 
ATOM     52  C   LIG d   1       4.627  -1.076  -1.856  0.00  0.00    -0.025 A 
ATOM     53  F   LIG d   1       4.577   1.063  -0.838  0.00  0.00    -0.205 F 
ATOM     54  C   LIG d   1       4.476  -1.865  -2.979  0.00  0.00    -0.038 A 
ATOM     55  H   LIG d   1       4.899  -1.526  -0.913  0.00  0.00     0.065 H 
ATOM     56  H   LIG d   1       4.630  -2.933  -2.914  0.00  0.00     0.064 H 
ENDBRANCH  44  46
ENDBRANCH   1  44
TORSDOF 6
ENDMDL
MODEL 9
REMARK VINA RESULT:      -7.3      4.245      7.024
REMARK  6 active torsions:
REMARK  status: ('A' for Active; 'I' for Inactive)
REMARK    1  A    between atoms: C_6  and  C_7 
REMARK    2  A    between atoms: C_7  and  C_8 
REMARK    3  A    between atoms: C_8  and  C_10 
REMARK    4  A    between atoms: C_8  and  N_22 
REMARK    5  A    between atoms: C_10  and  C_12 
REMARK    6  A    between atoms: N_22  and  C_23 
ROOT
ATOM      1  C   LIG d   1       7.488  -1.486  -5.283  0.00  0.00     0.084 C 
ATOM      2  H   LIG d   1       7.763  -1.267  -4.251  0.00  0.00     0.058 H 
ENDROOT
BRANCH   1   3
ATOM      3  C   LIG d   1       8.422  -0.732  -6.232  0.00  0.00    -0.002 C 
ATOM      4  H   LIG d   1       7.834  -0.091  -6.888  0.00  0.00     0.034 H 
ATOM      5  H   LIG d   1       8.985  -1.447  -6.832  0.00  0.00     0.034 H 
BRANCH   3   6
ATOM      6  C   LIG d   1       9.377   0.114  -5.429  0.00  0.00    -0.045 A 
ATOM      7  C   LIG d   1       8.930   1.270  -4.818  0.00  0.00    -0.056 A 
ATOM      8  C   LIG d   1       9.805   2.046  -4.083  0.00  0.00    -0.026 A 
ATOM      9  H   LIG d   1       7.895   1.564  -4.911  0.00  0.00     0.062 H 
ATOM     10  C   LIG d   1      11.130   1.666  -3.958  0.00  0.00     0.123 A 
ATOM     11  H   LIG d   1       9.455   2.949  -3.605  0.00  0.00     0.065 H 
ATOM     12  C   LIG d   1      11.577   0.507  -4.570  0.00  0.00    -0.026 A 
ATOM     13  F   LIG d   1      11.987   2.424  -3.239  0.00  0.00    -0.205 F 
ATOM     14  C   LIG d   1      10.700  -0.267  -5.306  0.00  0.00    -0.056 A 
ATOM     15  H   LIG d   1      12.611   0.210  -4.474  0.00  0.00     0.065 H 
ATOM     16  H   LIG d   1      11.049  -1.170  -5.784  0.00  0.00     0.062 H 
ENDBRANCH   3   6
ENDBRANCH   1   3
BRANCH   1  17
ATOM     17  C   LIG d   1       6.065  -1.052  -5.528  0.00  0.00     0.160 C 
ATOM     18  O   LIG d   1       5.655  -0.937  -6.657  0.00  0.00    -0.295 OA
BRANCH  17  19
ATOM     19  C   LIG d   1       5.156  -0.760  -4.363  0.00  0.00     0.032 C 
ATOM     20  C   LIG d   1       4.736  -2.075  -3.702  0.00  0.00    -0.038 C 
ATOM     21  C   LIG d   1       3.812  -1.779  -2.519  0.00  0.00    -0.040 C 
ATOM     22  H   LIG d   1       4.209  -2.694  -4.428  0.00  0.00     0.028 H 
ATOM     23  H   LIG d   1       5.621  -2.603  -3.349  0.00  0.00     0.028 H 
ATOM     24  C   LIG d   1       2.570  -1.037  -3.015  0.00  0.00    -0.047 C 
ATOM     25  C   LIG d   1       4.552  -0.910  -1.500  0.00  0.00    -0.047 C 
ATOM     26  H   LIG d   1       3.513  -2.716  -2.048  0.00  0.00     0.030 H 
ATOM     27  C   LIG d   1       2.989   0.277  -3.675  0.00  0.00    -0.040 C 
ATOM     28  H   LIG d   1       1.912  -0.827  -2.172  0.00  0.00     0.027 H 
ATOM     29  H   LIG d   1       2.042  -1.656  -3.741  0.00  0.00     0.027 H 
ATOM     30  C   LIG d   1       3.913  -0.018  -4.859  0.00  0.00    -0.038 C 
ATOM     31  C   LIG d   1       3.729   1.146  -2.655  0.00  0.00    -0.047 C 
ATOM     32  H   LIG d   1       2.104   0.806  -4.028  0.00  0.00     0.030 H 
ATOM     33  H   LIG d   1       4.212   0.918  -5.329  0.00  0.00     0.028 H 
ATOM     34  H   LIG d   1       3.386  -0.637  -5.585  0.00  0.00     0.028 H 
ATOM     35  C   LIG d   1       4.972   0.405  -2.160  0.00  0.00    -0.040 C 
ATOM     36  H   LIG d   1       4.028   2.083  -3.125  0.00  0.00     0.027 H 
ATOM     37  H   LIG d   1       3.071   1.358  -1.813  0.00  0.00     0.027 H 
ATOM     38  C   LIG d   1       5.896   0.109  -3.343  0.00  0.00    -0.038 C 
ATOM     39  H   LIG d   1       5.499   1.024  -1.434  0.00  0.00     0.030 H 
ATOM     40  H   LIG d   1       6.781  -0.420  -2.990  0.00  0.00     0.028 H 
ATOM     41  H   LIG d   1       6.195   1.046  -3.814  0.00  0.00     0.028 H 
ATOM     42  H   LIG d   1       3.894  -0.699  -0.657  0.00  0.00     0.027 H 
ATOM     43  H   LIG d   1       5.437  -1.439  -1.147  0.00  0.00     0.027 H 
ENDBRANCH  17  19
ENDBRANCH   1  17
BRANCH   1  44
ATOM     44  N   LIG d   1       7.606  -2.926  -5.524  0.00  0.00    -0.334 N 
ATOM     45  H   LIG d   1       7.229  -3.317  -6.328  0.00  0.00     0.147 HD
BRANCH  44  46
ATOM     46  C   LIG d   1       8.264  -3.740  -4.595  0.00  0.00     0.028 A 
ATOM     47  C   LIG d   1       8.428  -5.095  -4.851  0.00  0.00    -0.038 A 
ATOM     48  C   LIG d   1       9.082  -5.895  -3.934  0.00  0.00    -0.025 A 
ATOM     49  H   LIG d   1       8.048  -5.522  -5.767  0.00  0.00     0.064 H 
ATOM     50  C   LIG d   1       9.564  -5.348  -2.756  0.00  0.00     0.123 A 
ATOM     51  H   LIG d   1       9.214  -6.948  -4.134  0.00  0.00     0.065 H 
ATOM     52  C   LIG d   1       9.396  -3.998  -2.498  0.00  0.00    -0.025 A 
ATOM     53  F   LIG d   1      10.199  -6.134  -1.859  0.00  0.00    -0.205 F 
ATOM     54  C   LIG d   1       8.748  -3.194  -3.414  0.00  0.00    -0.038 A 
ATOM     55  H   LIG d   1       9.773  -3.574  -1.579  0.00  0.00     0.065 H 
ATOM     56  H   LIG d   1       8.618  -2.140  -3.212  0.00  0.00     0.064 H 
ENDBRANCH  44  46
ENDBRANCH   1  44
TORSDOF 6
ENDMDL
MODEL 10
REMARK VINA RESULT:      -7.1      2.286      6.319
REMARK  6 active torsions:
REMARK  status: ('A' for Active; 'I' for Inactive)
REMARK    1  A    between atoms: C_6  and  C_7 
REMARK    2  A    between atoms: C_7  and  C_8 
REMARK    3  A    between atoms: C_8  and  C_10 
REMARK    4  A    between atoms: C_8  and  N_22 
REMARK    5  A    between atoms: C_10  and  C_12 
REMARK    6  A    between atoms: N_22  and  C_23 
ROOT
ATOM      1  C   LIG d   1       5.911  -1.587  -6.618  0.00  0.00     0.084 C 
ATOM      2  H   LIG d   1       4.840  -1.652  -6.419  0.00  0.00     0.058 H 
ENDROOT
BRANCH   1   3
ATOM      3  C   LIG d   1       6.659  -1.324  -5.310  0.00  0.00    -0.002 C 
ATOM      4  H   LIG d   1       7.559  -0.745  -5.516  0.00  0.00     0.034 H 
ATOM      5  H   LIG d   1       6.934  -2.274  -4.852  0.00  0.00     0.034 H 
BRANCH   3   6
ATOM      6  C   LIG d   1       5.770  -0.551  -4.369  0.00  0.00    -0.045 A 
ATOM      7  C   LIG d   1       6.265   0.552  -3.701  0.00  0.00    -0.056 A 
ATOM      8  C   LIG d   1       5.452   1.260  -2.837  0.00  0.00    -0.026 A 
ATOM      9  H   LIG d   1       7.288   0.863  -3.855  0.00  0.00     0.062 H 
ATOM     10  C   LIG d   1       4.140   0.865  -2.642  0.00  0.00     0.123 A 
ATOM     11  H   LIG d   1       5.840   2.122  -2.315  0.00  0.00     0.065 H 
ATOM     12  C   LIG d   1       3.643  -0.240  -3.313  0.00  0.00    -0.026 A 
ATOM     13  F   LIG d   1       3.343   1.557  -1.798  0.00  0.00    -0.205 F 
ATOM     14  C   LIG d   1       4.460  -0.947  -4.175  0.00  0.00    -0.056 A 
ATOM     15  H   LIG d   1       2.621  -0.550  -3.162  0.00  0.00     0.065 H 
ATOM     16  H   LIG d   1       4.073  -1.809  -4.699  0.00  0.00     0.062 H 
ENDBRANCH   3   6
ENDBRANCH   1   3
BRANCH   1  17
ATOM     17  C   LIG d   1       6.174  -0.459  -7.583  0.00  0.00     0.160 C 
ATOM     18  O   LIG d   1       7.298  -0.051  -7.743  0.00  0.00    -0.295 OA
BRANCH  17  19
ATOM     19  C   LIG d   1       5.032   0.160  -8.347  0.00  0.00     0.032 C 
ATOM     20  C   LIG d   1       4.729  -0.686  -9.585  0.00  0.00    -0.038 C 
ATOM     21  C   LIG d   1       3.570  -0.058 -10.361  0.00  0.00    -0.040 C 
ATOM     22  H   LIG d   1       5.612  -0.728 -10.222  0.00  0.00     0.028 H 
ATOM     23  H   LIG d   1       4.455  -1.695  -9.277  0.00  0.00     0.028 H 
ATOM     24  C   LIG d   1       3.954   1.358 -10.794  0.00  0.00    -0.047 C 
ATOM     25  C   LIG d   1       2.330   0.000  -9.467  0.00  0.00    -0.047 C 
ATOM     26  H   LIG d   1       3.353  -0.661 -11.243  0.00  0.00     0.030 H 
ATOM     27  C   LIG d   1       4.257   2.205  -9.557  0.00  0.00    -0.040 C 
ATOM     28  H   LIG d   1       3.128   1.805 -11.347  0.00  0.00     0.027 H 
ATOM     29  H   LIG d   1       4.837   1.317 -11.431  0.00  0.00     0.027 H 
ATOM     30  C   LIG d   1       5.416   1.577  -8.780  0.00  0.00    -0.038 C 
ATOM     31  C   LIG d   1       3.016   2.263  -8.662  0.00  0.00    -0.047 C 
ATOM     32  H   LIG d   1       4.531   3.214  -9.865  0.00  0.00     0.030 H 
ATOM     33  H   LIG d   1       5.632   2.180  -7.898  0.00  0.00     0.028 H 
ATOM     34  H   LIG d   1       6.300   1.535  -9.417  0.00  0.00     0.028 H 
ATOM     35  C   LIG d   1       2.632   0.847  -8.230  0.00  0.00    -0.040 C 
ATOM     36  H   LIG d   1       3.232   2.867  -7.781  0.00  0.00     0.027 H 
ATOM     37  H   LIG d   1       2.191   2.712  -9.215  0.00  0.00     0.027 H 
ATOM     38  C   LIG d   1       3.792   0.219  -7.453  0.00  0.00    -0.038 C 
ATOM     39  H   LIG d   1       1.749   0.890  -7.593  0.00  0.00     0.030 H 
ATOM     40  H   LIG d   1       3.518  -0.790  -7.145  0.00  0.00     0.028 H 
ATOM     41  H   LIG d   1       4.007   0.822  -6.571  0.00  0.00     0.028 H 
ATOM     42  H   LIG d   1       1.503   0.448 -10.020  0.00  0.00     0.027 H 
ATOM     43  H   LIG d   1       2.056  -1.008  -9.159  0.00  0.00     0.027 H 
ENDBRANCH  17  19
ENDBRANCH   1  17
BRANCH   1  44
ATOM     44  N   LIG d   1       6.376  -2.847  -7.203  0.00  0.00    -0.334 N 
ATOM     45  H   LIG d   1       6.986  -2.836  -7.958  0.00  0.00     0.147 HD
BRANCH  44  46
ATOM     46  C   LIG d   1       5.943  -4.067  -6.673  0.00  0.00     0.028 A 
ATOM     47  C   LIG d   1       6.867  -4.972  -6.167  0.00  0.00    -0.038 A 
ATOM     48  C   LIG d   1       6.436  -6.174  -5.640  0.00  0.00    -0.025 A 
ATOM     49  H   LIG d   1       7.920  -4.736  -6.183  0.00  0.00     0.064 H 
ATOM     50  C   LIG d   1       5.086  -6.480  -5.625  0.00  0.00     0.123 A 
ATOM     51  H   LIG d   1       7.153  -6.877  -5.243  0.00  0.00     0.065 H 
ATOM     52  C   LIG d   1       4.164  -5.580  -6.133  0.00  0.00    -0.025 A 
ATOM     53  F   LIG d   1       4.667  -7.659  -5.113  0.00  0.00    -0.205 F 
ATOM     54  C   LIG d   1       4.590  -4.376  -6.656  0.00  0.00    -0.038 A 
ATOM     55  H   LIG d   1       3.112  -5.821  -6.120  0.00  0.00     0.065 H 
ATOM     56  H   LIG d   1       3.870  -3.674  -7.052  0.00  0.00     0.064 H 
ENDBRANCH  44  46
ENDBRANCH   1  44
TORSDOF 6
ENDMDL
