MODEL 1
REMARK VINA RESULT:      -5.6      0.000      0.000
REMARK  13 active torsions:
REMARK  status: ('A' for Active; 'I' for Inactive)
REMARK    1  A    between atoms: C_1  and  C_2 
REMARK    2  A    between atoms: C_2  and  C_3 
REMARK    3  A    between atoms: C_3  and  C_5 
REMARK    4  A    between atoms: C_3  and  C_35 
REMARK    5  A    between atoms: C_5  and  C_6 
REMARK    6  A    between atoms: C_6  and  C_7 
REMARK    7  A    between atoms: C_7  and  C_9 
REMARK    8  A    between atoms: C_7  and  C_10 
REMARK    9  A    between atoms: C_16  and  C_34 
REMARK   10  A    between atoms: C_26  and  C_33 
REMARK   11  A    between atoms: C_29  and  O_32 
REMARK   12  A    between atoms: C_35  and  C_36 
REMARK   13  A    between atoms: C_35  and  C_37 
ROOT
ATOM      1  C   LIG d   1       6.125  -3.043  -5.649  0.00  0.00    -0.033 C 
ATOM      2  H   LIG d   1       7.130  -3.466  -5.648  0.00  0.00     0.031 H 
ATOM      3  C   LIG d   1       5.081  -4.156  -5.863  0.00  0.00    -0.049 C 
ATOM      4  C   LIG d   1       4.297  -3.786  -7.144  0.00  0.00    -0.049 C 
ATOM      5  C   LIG d   1       4.495  -2.262  -7.257  0.00  0.00    -0.032 C 
ATOM      6  H   LIG d   1       3.847  -1.764  -6.536  0.00  0.00     0.031 H 
ATOM      7  C   LIG d   1       5.961  -2.058  -6.836  0.00  0.00    -0.026 C 
ATOM      8  C   LIG d   1       6.907  -2.542  -7.940  0.00  0.00    -0.047 C 
ATOM      9  C   LIG d   1       6.578  -1.856  -9.263  0.00  0.00    -0.049 C 
ATOM     10  C   LIG d   1       5.157  -2.250  -9.685  0.00  0.00    -0.029 C 
ATOM     11  H   LIG d   1       5.085  -3.336  -9.744  0.00  0.00     0.031 H 
ATOM     12  C   LIG d   1       4.179  -1.733  -8.635  0.00  0.00    -0.031 C 
ATOM     13  H   LIG d   1       4.219  -0.644  -8.619  0.00  0.00     0.031 H 
ATOM     14  C   LIG d   1       2.763  -2.139  -9.027  0.00  0.00    -0.031 C 
ATOM     15  C   LIG d   1       2.468  -1.667 -10.421  0.00  0.00    -0.084 C 
ATOM     16  C   LIG d   1       3.395  -1.457 -11.308  0.00  0.00    -0.065 C 
ATOM     17  C   LIG d   1       4.859  -1.650 -11.050  0.00  0.00    -0.008 C 
ATOM     18  C   LIG d   1       5.455  -2.542 -12.143  0.00  0.00    -0.041 C 
ATOM     19  C   LIG d   1       5.137  -1.941 -13.514  0.00  0.00    -0.026 C 
ATOM     20  C   LIG d   1       3.623  -1.915 -13.728  0.00  0.00     0.059 C 
ATOM     21  H   LIG d   1       3.222  -2.923 -13.616  0.00  0.00     0.060 H 
ATOM     22  C   LIG d   1       2.975  -0.991 -12.693  0.00  0.00    -0.005 C 
ATOM     23  H   LIG d   1       5.581  -5.115  -5.996  0.00  0.00     0.027 H 
ATOM     24  H   LIG d   1       4.404  -4.203  -5.010  0.00  0.00     0.027 H 
ATOM     25  H   LIG d   1       4.718  -4.293  -8.011  0.00  0.00     0.027 H 
ATOM     26  H   LIG d   1       3.241  -4.031  -7.031  0.00  0.00     0.027 H 
ATOM     27  H   LIG d   1       6.801  -3.621  -8.057  0.00  0.00     0.027 H 
ATOM     28  H   LIG d   1       7.933  -2.309  -7.659  0.00  0.00     0.027 H 
ATOM     29  H   LIG d   1       7.288  -2.176 -10.025  0.00  0.00     0.027 H 
ATOM     30  H   LIG d   1       6.635  -0.775  -9.138  0.00  0.00     0.027 H 
ATOM     31  H   LIG d   1       2.043  -1.701  -8.335  0.00  0.00     0.031 H 
ATOM     32  H   LIG d   1       2.693  -3.225  -8.987  0.00  0.00     0.031 H 
ATOM     33  H   LIG d   1       1.439  -1.493 -10.698  0.00  0.00     0.057 H 
ATOM     34  H   LIG d   1       6.535  -2.603 -12.014  0.00  0.00     0.027 H 
ATOM     35  H   LIG d   1       5.023  -3.540 -12.074  0.00  0.00     0.027 H 
ATOM     36  H   LIG d   1       5.528  -0.925 -13.564  0.00  0.00     0.029 H 
ATOM     37  H   LIG d   1       5.603  -2.547 -14.292  0.00  0.00     0.029 H 
ATOM     38  H   LIG d   1       1.889  -1.041 -12.783  0.00  0.00     0.034 H 
ATOM     39  H   LIG d   1       3.310   0.033 -12.853  0.00  0.00     0.034 H 
ENDROOT
BRANCH   1  40
ATOM     40  C   LIG d   1       5.859  -2.321  -4.326  0.00  0.00    -0.041 C 
ATOM     41  H   LIG d   1       5.624  -1.275  -4.524  0.00  0.00     0.030 H 
BRANCH  40  42
ATOM     42  C   LIG d   1       4.676  -2.982  -3.613  0.00  0.00    -0.050 C 
ATOM     43  H   LIG d   1       3.998  -3.406  -4.353  0.00  0.00     0.027 H 
ATOM     44  H   LIG d   1       5.044  -3.774  -2.960  0.00  0.00     0.027 H 
BRANCH  42  45
ATOM     45  C   LIG d   1       3.933  -1.936  -2.780  0.00  0.00    -0.050 C 
ATOM     46  H   LIG d   1       2.884  -2.219  -2.694  0.00  0.00     0.027 H 
ATOM     47  H   LIG d   1       4.378  -1.882  -1.786  0.00  0.00     0.027 H 
BRANCH  45  48
ATOM     48  C   LIG d   1       4.040  -0.571  -3.462  0.00  0.00    -0.039 C 
ATOM     49  H   LIG d   1       4.712  -0.643  -4.317  0.00  0.00     0.030 H 
BRANCH  48  50
ATOM     50  C   LIG d   1       2.655  -0.128  -3.936  0.00  0.00    -0.053 C 
ATOM     51  H   LIG d   1       1.952  -0.953  -3.825  0.00  0.00     0.026 H 
ATOM     52  H   LIG d   1       2.319   0.719  -3.337  0.00  0.00     0.026 H 
BRANCH  50  53
ATOM     53  C   LIG d   1       2.728   0.286  -5.407  0.00  0.00    -0.065 C 
ATOM     54  H   LIG d   1       1.721   0.460  -5.786  0.00  0.00     0.023 H 
ATOM     55  H   LIG d   1       3.314   1.201  -5.497  0.00  0.00     0.023 H 
ATOM     56  H   LIG d   1       3.201  -0.507  -5.984  0.00  0.00     0.023 H 
ENDBRANCH  50  53
ENDBRANCH  48  50
BRANCH  48  57
ATOM     57  C   LIG d   1       4.591   0.454  -2.466  0.00  0.00    -0.044 C 
ATOM     58  H   LIG d   1       4.828  -0.045  -1.527  0.00  0.00     0.030 H 
BRANCH  57  59
ATOM     59  C   LIG d   1       5.859   1.089  -3.040  0.00  0.00    -0.062 C 
ATOM     60  H   LIG d   1       6.096   0.628  -3.998  0.00  0.00     0.023 H 
ATOM     61  H   LIG d   1       5.697   2.158  -3.182  0.00  0.00     0.023 H 
ATOM     62  H   LIG d   1       6.688   0.937  -2.348  0.00  0.00     0.023 H 
ENDBRANCH  57  59
BRANCH  57  63
ATOM     63  C   LIG d   1       3.542   1.539  -2.219  0.00  0.00    -0.062 C 
ATOM     64  H   LIG d   1       3.611   2.296  -3.000  0.00  0.00     0.023 H 
ATOM     65  H   LIG d   1       2.548   1.093  -2.230  0.00  0.00     0.023 H 
ATOM     66  H   LIG d   1       3.721   2.002  -1.248  0.00  0.00     0.023 H 
ENDBRANCH  57  63
ENDBRANCH  48  57
ENDBRANCH  45  48
ENDBRANCH  42  45
ENDBRANCH  40  42
BRANCH  40  67
ATOM     67  C   LIG d   1       7.102  -2.407  -3.439  0.00  0.00    -0.062 C 
ATOM     68  H   LIG d   1       7.562  -1.422  -3.362  0.00  0.00     0.023 H 
ATOM     69  H   LIG d   1       6.816  -2.753  -2.446  0.00  0.00     0.023 H 
ATOM     70  H   LIG d   1       7.813  -3.107  -3.877  0.00  0.00     0.023 H 
ENDBRANCH  40  67
ENDBRANCH   1  40
BRANCH   7  71
ATOM     71  C   LIG d   1       6.254  -0.613  -6.429  0.00  0.00    -0.059 C 
ATOM     72  H   LIG d   1       5.330  -0.129  -6.114  0.00  0.00     0.024 H 
ATOM     73  H   LIG d   1       6.968  -0.605  -5.605  0.00  0.00     0.024 H 
ATOM     74  H   LIG d   1       6.674  -0.075  -7.279  0.00  0.00     0.024 H 
ENDBRANCH   7  71
BRANCH  17  75
ATOM     75  C   LIG d   1       5.542  -0.283 -11.128  0.00  0.00    -0.056 C 
ATOM     76  H   LIG d   1       6.286  -0.203 -10.335  0.00  0.00     0.024 H 
ATOM     77  H   LIG d   1       6.028  -0.175 -12.096  0.00  0.00     0.024 H 
ATOM     78  H   LIG d   1       4.795   0.502 -11.006  0.00  0.00     0.024 H 
ENDBRANCH  17  75
BRANCH  20  79
ATOM     79  O   LIG d   1       3.336  -1.432 -15.042  0.00  0.00    -0.392 OA
ATOM     80  H   LIG d   1       2.720  -1.988 -15.540  0.00  0.00     0.210 HD
ENDBRANCH  20  79
TORSDOF 13
ENDMDL
MODEL 2
REMARK VINA RESULT:      -5.5      1.446      2.280
REMARK  13 active torsions:
REMARK  status: ('A' for Active; 'I' for Inactive)
REMARK    1  A    between atoms: C_1  and  C_2 
REMARK    2  A    between atoms: C_2  and  C_3 
REMARK    3  A    between atoms: C_3  and  C_5 
REMARK    4  A    between atoms: C_3  and  C_35 
REMARK    5  A    between atoms: C_5  and  C_6 
REMARK    6  A    between atoms: C_6  and  C_7 
REMARK    7  A    between atoms: C_7  and  C_9 
REMARK    8  A    between atoms: C_7  and  C_10 
REMARK    9  A    between atoms: C_16  and  C_34 
REMARK   10  A    between atoms: C_26  and  C_33 
REMARK   11  A    between atoms: C_29  and  O_32 
REMARK   12  A    between atoms: C_35  and  C_36 
REMARK   13  A    between atoms: C_35  and  C_37 
ROOT
ATOM      1  C   LIG d   1       7.357  -0.799  -6.155  0.00  0.00    -0.033 C 
ATOM      2  H   LIG d   1       8.335  -1.196  -6.428  0.00  0.00     0.031 H 
ATOM      3  C   LIG d   1       6.450  -1.933  -5.638  0.00  0.00    -0.049 C 
ATOM      4  C   LIG d   1       5.212  -1.966  -6.565  0.00  0.00    -0.049 C 
ATOM      5  C   LIG d   1       5.169  -0.543  -7.154  0.00  0.00    -0.032 C 
ATOM      6  H   LIG d   1       4.775   0.142  -6.404  0.00  0.00     0.031 H 
ATOM      7  C   LIG d   1       6.651  -0.213  -7.406  0.00  0.00    -0.026 C 
ATOM      8  C   LIG d   1       7.176  -0.996  -8.613  0.00  0.00    -0.047 C 
ATOM      9  C   LIG d   1       6.304  -0.737  -9.838  0.00  0.00    -0.049 C 
ATOM     10  C   LIG d   1       4.886  -1.249  -9.554  0.00  0.00    -0.029 C 
ATOM     11  H   LIG d   1       4.929  -2.304  -9.283  0.00  0.00     0.031 H 
ATOM     12  C   LIG d   1       4.308  -0.450  -8.391  0.00  0.00    -0.031 C 
ATOM     13  H   LIG d   1       4.219   0.595  -8.688  0.00  0.00     0.031 H 
ATOM     14  C   LIG d   1       2.906  -0.963  -8.079  0.00  0.00    -0.031 C 
ATOM     15  C   LIG d   1       2.065  -0.930  -9.322  0.00  0.00    -0.084 C 
ATOM     16  C   LIG d   1       2.569  -0.986 -10.519  0.00  0.00    -0.065 C 
ATOM     17  C   LIG d   1       4.038  -1.084 -10.805  0.00  0.00    -0.008 C 
ATOM     18  C   LIG d   1       4.294  -2.255 -11.757  0.00  0.00    -0.041 C 
ATOM     19  C   LIG d   1       3.424  -2.091 -13.005  0.00  0.00    -0.026 C 
ATOM     20  C   LIG d   1       1.946  -2.141 -12.616  0.00  0.00     0.059 C 
ATOM     21  H   LIG d   1       1.740  -3.073 -12.089  0.00  0.00     0.060 H 
ATOM     22  C   LIG d   1       1.618  -0.956 -11.704  0.00  0.00    -0.005 C 
ATOM     23  H   LIG d   1       6.979  -2.885  -5.688  0.00  0.00     0.027 H 
ATOM     24  H   LIG d   1       6.145  -1.729  -4.612  0.00  0.00     0.027 H 
ATOM     25  H   LIG d   1       5.344  -2.705  -7.354  0.00  0.00     0.027 H 
ATOM     26  H   LIG d   1       4.309  -2.173  -5.990  0.00  0.00     0.027 H 
ATOM     27  H   LIG d   1       7.167  -2.062  -8.382  0.00  0.00     0.027 H 
ATOM     28  H   LIG d   1       8.198  -0.683  -8.825  0.00  0.00     0.027 H 
ATOM     29  H   LIG d   1       6.718  -1.263 -10.697  0.00  0.00     0.027 H 
ATOM     30  H   LIG d   1       6.272   0.333 -10.043  0.00  0.00     0.027 H 
ATOM     31  H   LIG d   1       2.443  -0.345  -7.309  0.00  0.00     0.031 H 
ATOM     32  H   LIG d   1       2.988  -1.989  -7.721  0.00  0.00     0.031 H 
ATOM     33  H   LIG d   1       0.994  -0.853  -9.216  0.00  0.00     0.057 H 
ATOM     34  H   LIG d   1       5.345  -2.267 -12.044  0.00  0.00     0.027 H 
ATOM     35  H   LIG d   1       4.042  -3.191 -11.258  0.00  0.00     0.027 H 
ATOM     36  H   LIG d   1       3.644  -1.133 -13.476  0.00  0.00     0.029 H 
ATOM     37  H   LIG d   1       3.642  -2.898 -13.706  0.00  0.00     0.029 H 
ATOM     38  H   LIG d   1       0.589  -1.038 -11.350  0.00  0.00     0.034 H 
ATOM     39  H   LIG d   1       1.744  -0.023 -12.252  0.00  0.00     0.034 H 
ENDROOT
BRANCH   1  40
ATOM     40  C   LIG d   1       7.509   0.281  -5.082  0.00  0.00    -0.041 C 
ATOM     41  H   LIG d   1       6.959   1.173  -5.384  0.00  0.00     0.030 H 
BRANCH  40  42
ATOM     42  C   LIG d   1       6.951  -0.236  -3.754  0.00  0.00    -0.050 C 
ATOM     43  H   LIG d   1       6.645  -1.276  -3.870  0.00  0.00     0.027 H 
ATOM     44  H   LIG d   1       7.722  -0.168  -2.986  0.00  0.00     0.027 H 
BRANCH  42  45
ATOM     45  C   LIG d   1       5.744   0.609  -3.344  0.00  0.00    -0.050 C 
ATOM     46  H   LIG d   1       5.912   1.023  -2.349  0.00  0.00     0.027 H 
ATOM     47  H   LIG d   1       5.611   1.422  -4.058  0.00  0.00     0.027 H 
BRANCH  45  48
ATOM     48  C   LIG d   1       4.490  -0.266  -3.327  0.00  0.00    -0.039 C 
ATOM     49  H   LIG d   1       4.488  -0.915  -4.203  0.00  0.00     0.030 H 
BRANCH  48  50
ATOM     50  C   LIG d   1       4.480  -1.120  -2.058  0.00  0.00    -0.053 C 
ATOM     51  H   LIG d   1       5.504  -1.299  -1.733  0.00  0.00     0.026 H 
ATOM     52  H   LIG d   1       3.936  -0.596  -1.272  0.00  0.00     0.026 H 
BRANCH  50  53
ATOM     53  C   LIG d   1       3.795  -2.457  -2.348  0.00  0.00    -0.065 C 
ATOM     54  H   LIG d   1       4.382  -3.016  -3.077  0.00  0.00     0.023 H 
ATOM     55  H   LIG d   1       3.717  -3.032  -1.426  0.00  0.00     0.023 H 
ATOM     56  H   LIG d   1       2.798  -2.275  -2.748  0.00  0.00     0.023 H 
ENDBRANCH  50  53
ENDBRANCH  48  50
BRANCH  48  57
ATOM     57  C   LIG d   1       3.246   0.627  -3.352  0.00  0.00    -0.044 C 
ATOM     58  H   LIG d   1       2.535   0.278  -2.603  0.00  0.00     0.030 H 
BRANCH  57  59
ATOM     59  C   LIG d   1       3.648   2.070  -3.040  0.00  0.00    -0.062 C 
ATOM     60  H   LIG d   1       2.759   2.700  -3.027  0.00  0.00     0.023 H 
ATOM     61  H   LIG d   1       4.134   2.108  -2.065  0.00  0.00     0.023 H 
ATOM     62  H   LIG d   1       4.338   2.429  -3.804  0.00  0.00     0.023 H 
ENDBRANCH  57  59
BRANCH  57  63
ATOM     63  C   LIG d   1       2.601   0.564  -4.737  0.00  0.00    -0.062 C 
ATOM     64  H   LIG d   1       2.666   1.543  -5.213  0.00  0.00     0.023 H 
ATOM     65  H   LIG d   1       3.121  -0.174  -5.347  0.00  0.00     0.023 H 
ATOM     66  H   LIG d   1       1.553   0.279  -4.637  0.00  0.00     0.023 H 
ENDBRANCH  57  63
ENDBRANCH  48  57
ENDBRANCH  45  48
ENDBRANCH  42  45
ENDBRANCH  40  42
BRANCH  40  67
ATOM     67  C   LIG d   1       8.990   0.627  -4.914  0.00  0.00    -0.062 C 
ATOM     68  H   LIG d   1       9.090   1.683  -4.665  0.00  0.00     0.023 H 
ATOM     69  H   LIG d   1       9.415   0.023  -4.112  0.00  0.00     0.023 H 
ATOM     70  H   LIG d   1       9.519   0.420  -5.844  0.00  0.00     0.023 H 
ENDBRANCH  40  67
ENDBRANCH   1  40
BRANCH   7  71
ATOM     71  C   LIG d   1       6.895   1.290  -7.553  0.00  0.00    -0.059 C 
ATOM     72  H   LIG d   1       6.220   1.697  -8.304  0.00  0.00     0.024 H 
ATOM     73  H   LIG d   1       6.714   1.782  -6.597  0.00  0.00     0.024 H 
ATOM     74  H   LIG d   1       7.927   1.461  -7.860  0.00  0.00     0.024 H 
ENDBRANCH   7  71
BRANCH  17  75
ATOM     75  C   LIG d   1       4.473   0.204 -11.509  0.00  0.00    -0.056 C 
ATOM     76  H   LIG d   1       5.218   0.716 -10.900  0.00  0.00     0.024 H 
ATOM     77  H   LIG d   1       4.902  -0.040 -12.479  0.00  0.00     0.024 H 
ATOM     78  H   LIG d   1       3.607   0.852 -11.646  0.00  0.00     0.024 H 
ENDBRANCH  17  75
BRANCH  20  79
ATOM     79  O   LIG d   1       1.141  -2.073 -13.795  0.00  0.00    -0.392 OA
ATOM     80  H   LIG d   1       0.193  -1.999 -13.619  0.00  0.00     0.210 HD
ENDBRANCH  20  79
TORSDOF 13
ENDMDL
MODEL 3
REMARK VINA RESULT:      -5.4      1.671      2.987
REMARK  13 active torsions:
REMARK  status: ('A' for Active; 'I' for Inactive)
REMARK    1  A    between atoms: C_1  and  C_2 
REMARK    2  A    between atoms: C_2  and  C_3 
REMARK    3  A    between atoms: C_3  and  C_5 
REMARK    4  A    between atoms: C_3  and  C_35 
REMARK    5  A    between atoms: C_5  and  C_6 
REMARK    6  A    between atoms: C_6  and  C_7 
REMARK    7  A    between atoms: C_7  and  C_9 
REMARK    8  A    between atoms: C_7  and  C_10 
REMARK    9  A    between atoms: C_16  and  C_34 
REMARK   10  A    between atoms: C_26  and  C_33 
REMARK   11  A    between atoms: C_29  and  O_32 
REMARK   12  A    between atoms: C_35  and  C_36 
REMARK   13  A    between atoms: C_35  and  C_37 
ROOT
ATOM      1  C   LIG d   1       6.269  -0.160  -6.473  0.00  0.00    -0.033 C 
ATOM      2  H   LIG d   1       6.706   0.794  -6.767  0.00  0.00     0.031 H 
ATOM      3  C   LIG d   1       7.101  -1.323  -7.046  0.00  0.00    -0.049 C 
ATOM      4  C   LIG d   1       6.147  -2.152  -7.937  0.00  0.00    -0.049 C 
ATOM      5  C   LIG d   1       4.751  -1.808  -7.383  0.00  0.00    -0.032 C 
ATOM      6  H   LIG d   1       4.594  -2.353  -6.452  0.00  0.00     0.031 H 
ATOM      7  C   LIG d   1       4.846  -0.304  -7.075  0.00  0.00    -0.026 C 
ATOM      8  C   LIG d   1       4.835   0.510  -8.372  0.00  0.00    -0.047 C 
ATOM      9  C   LIG d   1       3.608   0.162  -9.210  0.00  0.00    -0.049 C 
ATOM     10  C   LIG d   1       3.683  -1.317  -9.609  0.00  0.00    -0.029 C 
ATOM     11  H   LIG d   1       4.620  -1.503 -10.136  0.00  0.00     0.031 H 
ATOM     12  C   LIG d   1       3.639  -2.163  -8.340  0.00  0.00    -0.031 C 
ATOM     13  H   LIG d   1       2.679  -2.012  -7.847  0.00  0.00     0.031 H 
ATOM     14  C   LIG d   1       3.738  -3.637  -8.718  0.00  0.00    -0.031 C 
ATOM     15  C   LIG d   1       2.672  -3.978  -9.718  0.00  0.00    -0.084 C 
ATOM     16  C   LIG d   1       2.140  -3.097 -10.512  0.00  0.00    -0.065 C 
ATOM     17  C   LIG d   1       2.516  -1.645 -10.525  0.00  0.00    -0.008 C 
ATOM     18  C   LIG d   1       2.851  -1.219 -11.957  0.00  0.00    -0.041 C 
ATOM     19  C   LIG d   1       1.678  -1.568 -12.876  0.00  0.00    -0.026 C 
ATOM     20  C   LIG d   1       1.468  -3.083 -12.893  0.00  0.00     0.059 C 
ATOM     21  H   LIG d   1       2.393  -3.575 -13.199  0.00  0.00     0.060 H 
ATOM     22  C   LIG d   1       1.075  -3.561 -11.493  0.00  0.00    -0.005 C 
ATOM     23  H   LIG d   1       7.925  -0.933  -7.643  0.00  0.00     0.027 H 
ATOM     24  H   LIG d   1       7.487  -1.941  -6.235  0.00  0.00     0.027 H 
ATOM     25  H   LIG d   1       6.232  -1.845  -8.979  0.00  0.00     0.027 H 
ATOM     26  H   LIG d   1       6.352  -3.217  -7.833  0.00  0.00     0.027 H 
ATOM     27  H   LIG d   1       5.737   0.288  -8.944  0.00  0.00     0.027 H 
ATOM     28  H   LIG d   1       4.816   1.572  -8.128  0.00  0.00     0.027 H 
ATOM     29  H   LIG d   1       3.591   0.782 -10.105  0.00  0.00     0.027 H 
ATOM     30  H   LIG d   1       2.705   0.337  -8.624  0.00  0.00     0.027 H 
ATOM     31  H   LIG d   1       3.618  -4.260  -7.831  0.00  0.00     0.031 H 
ATOM     32  H   LIG d   1       4.720  -3.814  -9.157  0.00  0.00     0.031 H 
ATOM     33  H   LIG d   1       2.330  -5.000  -9.777  0.00  0.00     0.057 H 
ATOM     34  H   LIG d   1       3.028  -0.144 -11.984  0.00  0.00     0.027 H 
ATOM     35  H   LIG d   1       3.745  -1.745 -12.292  0.00  0.00     0.027 H 
ATOM     36  H   LIG d   1       0.775  -1.081 -12.511  0.00  0.00     0.029 H 
ATOM     37  H   LIG d   1       1.895  -1.221 -13.887  0.00  0.00     0.029 H 
ATOM     38  H   LIG d   1       1.014  -4.650 -11.480  0.00  0.00     0.034 H 
ATOM     39  H   LIG d   1       0.111  -3.136 -11.217  0.00  0.00     0.034 H 
ENDROOT
BRANCH   1  40
ATOM     40  C   LIG d   1       6.207  -0.261  -4.947  0.00  0.00    -0.041 C 
ATOM     41  H   LIG d   1       5.170  -0.375  -4.632  0.00  0.00     0.030 H 
BRANCH  40  42
ATOM     42  C   LIG d   1       7.018  -1.473  -4.483  0.00  0.00    -0.050 C 
ATOM     43  H   LIG d   1       7.211  -2.128  -5.333  0.00  0.00     0.027 H 
ATOM     44  H   LIG d   1       7.965  -1.136  -4.061  0.00  0.00     0.027 H 
BRANCH  42  45
ATOM     45  C   LIG d   1       6.228  -2.238  -3.419  0.00  0.00    -0.050 C 
ATOM     46  H   LIG d   1       6.627  -3.248  -3.326  0.00  0.00     0.027 H 
ATOM     47  H   LIG d   1       6.316  -1.723  -2.462  0.00  0.00     0.027 H 
BRANCH  45  48
ATOM     48  C   LIG d   1       4.756  -2.307  -3.828  0.00  0.00    -0.039 C 
ATOM     49  H   LIG d   1       4.570  -1.604  -4.640  0.00  0.00     0.030 H 
BRANCH  48  50
ATOM     50  C   LIG d   1       4.421  -3.725  -4.294  0.00  0.00    -0.053 C 
ATOM     51  H   LIG d   1       4.197  -4.348  -3.429  0.00  0.00     0.026 H 
ATOM     52  H   LIG d   1       3.555  -3.695  -4.955  0.00  0.00     0.026 H 
BRANCH  50  53
ATOM     53  C   LIG d   1       5.617  -4.309  -5.048  0.00  0.00    -0.065 C 
ATOM     54  H   LIG d   1       6.515  -3.741  -4.803  0.00  0.00     0.023 H 
ATOM     55  H   LIG d   1       5.756  -5.350  -4.756  0.00  0.00     0.023 H 
ATOM     56  H   LIG d   1       5.433  -4.254  -6.120  0.00  0.00     0.023 H 
ENDBRANCH  50  53
ENDBRANCH  48  50
BRANCH  48  57
ATOM     57  C   LIG d   1       3.876  -1.943  -2.629  0.00  0.00    -0.044 C 
ATOM     58  H   LIG d   1       3.485  -2.854  -2.176  0.00  0.00     0.030 H 
BRANCH  57  59
ATOM     59  C   LIG d   1       4.711  -1.180  -1.598  0.00  0.00    -0.062 C 
ATOM     60  H   LIG d   1       5.676  -1.671  -1.477  0.00  0.00     0.023 H 
ATOM     61  H   LIG d   1       4.865  -0.157  -1.941  0.00  0.00     0.023 H 
ATOM     62  H   LIG d   1       4.187  -1.168  -0.642  0.00  0.00     0.023 H 
ENDBRANCH  57  59
BRANCH  57  63
ATOM     63  C   LIG d   1       2.715  -1.064  -3.096  0.00  0.00    -0.062 C 
ATOM     64  H   LIG d   1       2.695  -0.145  -2.510  0.00  0.00     0.023 H 
ATOM     65  H   LIG d   1       2.844  -0.822  -4.150  0.00  0.00     0.023 H 
ATOM     66  H   LIG d   1       1.776  -1.601  -2.959  0.00  0.00     0.023 H 
ENDBRANCH  57  63
ENDBRANCH  48  57
ENDBRANCH  45  48
ENDBRANCH  42  45
ENDBRANCH  40  42
BRANCH  40  67
ATOM     67  C   LIG d   1       6.791   1.011  -4.328  0.00  0.00    -0.062 C 
ATOM     68  H   LIG d   1       6.743   1.823  -5.053  0.00  0.00     0.023 H 
ATOM     69  H   LIG d   1       6.217   1.280  -3.442  0.00  0.00     0.023 H 
ATOM     70  H   LIG d   1       7.829   0.834  -4.048  0.00  0.00     0.023 H 
ENDBRANCH  40  67
ENDBRANCH   1  40
BRANCH   7  71
ATOM     71  C   LIG d   1       3.761   0.161  -6.102  0.00  0.00    -0.059 C 
ATOM     72  H   LIG d   1       2.972   0.672  -6.654  0.00  0.00     0.024 H 
ATOM     73  H   LIG d   1       3.341  -0.703  -5.586  0.00  0.00     0.024 H 
ATOM     74  H   LIG d   1       4.196   0.844  -5.372  0.00  0.00     0.024 H 
ENDBRANCH   7  71
BRANCH  17  75
ATOM     75  C   LIG d   1       1.303  -0.835 -10.060  0.00  0.00    -0.056 C 
ATOM     76  H   LIG d   1       0.621  -1.486  -9.513  0.00  0.00     0.024 H 
ATOM     77  H   LIG d   1       1.635  -0.026  -9.410  0.00  0.00     0.024 H 
ATOM     78  H   LIG d   1       0.791  -0.419 -10.928  0.00  0.00     0.024 H 
ENDBRANCH  17  75
BRANCH  20  79
ATOM     79  O   LIG d   1       0.429  -3.408 -13.818  0.00  0.00    -0.392 OA
ATOM     80  H   LIG d   1       0.732  -3.899 -14.594  0.00  0.00     0.210 HD
ENDBRANCH  20  79
TORSDOF 13
ENDMDL
MODEL 4
REMARK VINA RESULT:      -5.4      4.532      7.827
REMARK  13 active torsions:
REMARK  status: ('A' for Active; 'I' for Inactive)
REMARK    1  A    between atoms: C_1  and  C_2 
REMARK    2  A    between atoms: C_2  and  C_3 
REMARK    3  A    between atoms: C_3  and  C_5 
REMARK    4  A    between atoms: C_3  and  C_35 
REMARK    5  A    between atoms: C_5  and  C_6 
REMARK    6  A    between atoms: C_6  and  C_7 
REMARK    7  A    between atoms: C_7  and  C_9 
REMARK    8  A    between atoms: C_7  and  C_10 
REMARK    9  A    between atoms: C_16  and  C_34 
REMARK   10  A    between atoms: C_26  and  C_33 
REMARK   11  A    between atoms: C_29  and  O_32 
REMARK   12  A    between atoms: C_35  and  C_36 
REMARK   13  A    between atoms: C_35  and  C_37 
ROOT
ATOM      1  C   LIG d   1       6.197  -2.642  -7.057  0.00  0.00    -0.033 C 
ATOM      2  H   LIG d   1       6.179  -2.964  -8.099  0.00  0.00     0.031 H 
ATOM      3  C   LIG d   1       7.358  -1.656  -6.827  0.00  0.00    -0.049 C 
ATOM      4  C   LIG d   1       8.261  -2.283  -5.740  0.00  0.00    -0.049 C 
ATOM      5  C   LIG d   1       7.313  -3.245  -4.998  0.00  0.00    -0.032 C 
ATOM      6  H   LIG d   1       6.666  -2.669  -4.338  0.00  0.00     0.031 H 
ATOM      7  C   LIG d   1       6.465  -3.854  -6.128  0.00  0.00    -0.026 C 
ATOM      8  C   LIG d   1       7.293  -4.855  -6.940  0.00  0.00    -0.047 C 
ATOM      9  C   LIG d   1       7.895  -5.916  -6.025  0.00  0.00    -0.049 C 
ATOM     10  C   LIG d   1       8.854  -5.236  -5.041  0.00  0.00    -0.029 C 
ATOM     11  H   LIG d   1       9.610  -4.680  -5.596  0.00  0.00     0.031 H 
ATOM     12  C   LIG d   1       8.052  -4.271  -4.173  0.00  0.00    -0.031 C 
ATOM     13  H   LIG d   1       7.334  -4.839  -3.581  0.00  0.00     0.031 H 
ATOM     14  C   LIG d   1       8.995  -3.566  -3.204  0.00  0.00    -0.031 C 
ATOM     15  C   LIG d   1       9.776  -4.584  -2.425  0.00  0.00    -0.084 C 
ATOM     16  C   LIG d   1      10.011  -5.784  -2.866  0.00  0.00    -0.065 C 
ATOM     17  C   LIG d   1       9.532  -6.298  -4.191  0.00  0.00    -0.008 C 
ATOM     18  C   LIG d   1      10.713  -6.895  -4.962  0.00  0.00    -0.041 C 
ATOM     19  C   LIG d   1      11.401  -7.951  -4.095  0.00  0.00    -0.026 C 
ATOM     20  C   LIG d   1      11.970  -7.296  -2.836  0.00  0.00     0.059 C 
ATOM     21  H   LIG d   1      12.647  -6.489  -3.120  0.00  0.00     0.060 H 
ATOM     22  C   LIG d   1      10.824  -6.727  -1.993  0.00  0.00    -0.005 C 
ATOM     23  H   LIG d   1       7.922  -1.522  -7.749  0.00  0.00     0.027 H 
ATOM     24  H   LIG d   1       6.970  -0.696  -6.483  0.00  0.00     0.027 H 
ATOM     25  H   LIG d   1       9.085  -2.831  -6.196  0.00  0.00     0.027 H 
ATOM     26  H   LIG d   1       8.638  -1.515  -5.064  0.00  0.00     0.027 H 
ATOM     27  H   LIG d   1       8.094  -4.324  -7.454  0.00  0.00     0.027 H 
ATOM     28  H   LIG d   1       6.649  -5.336  -7.676  0.00  0.00     0.027 H 
ATOM     29  H   LIG d   1       8.442  -6.645  -6.623  0.00  0.00     0.027 H 
ATOM     30  H   LIG d   1       7.099  -6.417  -5.473  0.00  0.00     0.027 H 
ATOM     31  H   LIG d   1       8.426  -2.940  -2.516  0.00  0.00     0.031 H 
ATOM     32  H   LIG d   1       9.680  -2.945  -3.782  0.00  0.00     0.031 H 
ATOM     33  H   LIG d   1      10.156  -4.307  -1.453  0.00  0.00     0.057 H 
ATOM     34  H   LIG d   1      10.351  -7.357  -5.880  0.00  0.00     0.027 H 
ATOM     35  H   LIG d   1      11.424  -6.106  -5.207  0.00  0.00     0.027 H 
ATOM     36  H   LIG d   1      10.677  -8.715  -3.811  0.00  0.00     0.029 H 
ATOM     37  H   LIG d   1      12.211  -8.413  -4.661  0.00  0.00     0.029 H 
ATOM     38  H   LIG d   1      11.231  -6.179  -1.142  0.00  0.00     0.034 H 
ATOM     39  H   LIG d   1      10.190  -7.538  -1.639  0.00  0.00     0.034 H 
ENDROOT
BRANCH   1  40
ATOM     40  C   LIG d   1       4.866  -1.981  -6.690  0.00  0.00    -0.041 C 
ATOM     41  H   LIG d   1       4.365  -2.574  -5.925  0.00  0.00     0.030 H 
BRANCH  40  42
ATOM     42  C   LIG d   1       5.127  -0.572  -6.152  0.00  0.00    -0.050 C 
ATOM     43  H   LIG d   1       6.202  -0.401  -6.090  0.00  0.00     0.027 H 
ATOM     44  H   LIG d   1       4.681   0.161  -6.824  0.00  0.00     0.027 H 
BRANCH  42  45
ATOM     45  C   LIG d   1       4.507  -0.434  -4.761  0.00  0.00    -0.050 C 
ATOM     46  H   LIG d   1       4.002   0.529  -4.681  0.00  0.00     0.027 H 
ATOM     47  H   LIG d   1       3.785  -1.237  -4.604  0.00  0.00     0.027 H 
BRANCH  45  48
ATOM     48  C   LIG d   1       5.606  -0.522  -3.701  0.00  0.00    -0.039 C 
ATOM     49  H   LIG d   1       6.377  -1.217  -4.033  0.00  0.00     0.030 H 
BRANCH  48  50
ATOM     50  C   LIG d   1       6.222   0.861  -3.488  0.00  0.00    -0.053 C 
ATOM     51  H   LIG d   1       5.693   1.593  -4.099  0.00  0.00     0.026 H 
ATOM     52  H   LIG d   1       6.140   1.138  -2.437  0.00  0.00     0.026 H 
BRANCH  50  53
ATOM     53  C   LIG d   1       7.697   0.831  -3.893  0.00  0.00    -0.065 C 
ATOM     54  H   LIG d   1       8.111  -0.156  -3.686  0.00  0.00     0.023 H 
ATOM     55  H   LIG d   1       7.785   1.045  -4.959  0.00  0.00     0.023 H 
ATOM     56  H   LIG d   1       8.245   1.582  -3.326  0.00  0.00     0.023 H 
ENDBRANCH  50  53
ENDBRANCH  48  50
BRANCH  48  57
ATOM     57  C   LIG d   1       5.005  -1.021  -2.384  0.00  0.00    -0.044 C 
ATOM     58  H   LIG d   1       5.792  -1.460  -1.770  0.00  0.00     0.030 H 
BRANCH  57  59
ATOM     59  C   LIG d   1       4.371   0.154  -1.636  0.00  0.00    -0.062 C 
ATOM     60  H   LIG d   1       4.330  -0.073  -0.571  0.00  0.00     0.023 H 
ATOM     61  H   LIG d   1       4.972   1.050  -1.793  0.00  0.00     0.023 H 
ATOM     62  H   LIG d   1       3.362   0.322  -2.011  0.00  0.00     0.023 H 
ENDBRANCH  57  59
BRANCH  57  63
ATOM     63  C   LIG d   1       3.937  -2.076  -2.677  0.00  0.00    -0.062 C 
ATOM     64  H   LIG d   1       3.114  -1.967  -1.971  0.00  0.00     0.023 H 
ATOM     65  H   LIG d   1       3.565  -1.943  -3.693  0.00  0.00     0.023 H 
ATOM     66  H   LIG d   1       4.372  -3.071  -2.577  0.00  0.00     0.023 H 
ENDBRANCH  57  63
ENDBRANCH  48  57
ENDBRANCH  45  48
ENDBRANCH  42  45
ENDBRANCH  40  42
BRANCH  40  67
ATOM     67  C   LIG d   1       3.979  -1.896  -7.933  0.00  0.00    -0.062 C 
ATOM     68  H   LIG d   1       2.974  -2.235  -7.686  0.00  0.00     0.023 H 
ATOM     69  H   LIG d   1       3.939  -0.864  -8.281  0.00  0.00     0.023 H 
ATOM     70  H   LIG d   1       4.393  -2.528  -8.719  0.00  0.00     0.023 H 
ENDBRANCH  40  67
ENDBRANCH   1  40
BRANCH   7  71
ATOM     71  C   LIG d   1       5.168  -4.478  -5.609  0.00  0.00    -0.059 C 
ATOM     72  H   LIG d   1       4.381  -3.725  -5.596  0.00  0.00     0.024 H 
ATOM     73  H   LIG d   1       4.873  -5.300  -6.262  0.00  0.00     0.024 H 
ATOM     74  H   LIG d   1       5.326  -4.856  -4.598  0.00  0.00     0.024 H 
ENDBRANCH   7  71
BRANCH  17  75
ATOM     75  C   LIG d   1       8.521  -7.417  -3.931  0.00  0.00    -0.056 C 
ATOM     76  H   LIG d   1       8.438  -8.045  -4.818  0.00  0.00     0.024 H 
ATOM     77  H   LIG d   1       8.857  -8.021  -3.088  0.00  0.00     0.024 H 
ATOM     78  H   LIG d   1       7.549  -6.981  -3.701  0.00  0.00     0.024 H 
ENDBRANCH  17  75
BRANCH  20  79
ATOM     79  O   LIG d   1      12.683  -8.271  -2.072  0.00  0.00    -0.392 OA
ATOM     80  H   LIG d   1      13.347  -8.758  -2.580  0.00  0.00     0.210 HD
ENDBRANCH  20  79
TORSDOF 13
ENDMDL
MODEL 5
REMARK VINA RESULT:      -5.2      4.664      6.307
REMARK  13 active torsions:
REMARK  status: ('A' for Active; 'I' for Inactive)
REMARK    1  A    between atoms: C_1  and  C_2 
REMARK    2  A    between atoms: C_2  and  C_3 
REMARK    3  A    between atoms: C_3  and  C_5 
REMARK    4  A    between atoms: C_3  and  C_35 
REMARK    5  A    between atoms: C_5  and  C_6 
REMARK    6  A    between atoms: C_6  and  C_7 
REMARK    7  A    between atoms: C_7  and  C_9 
REMARK    8  A    between atoms: C_7  and  C_10 
REMARK    9  A    between atoms: C_16  and  C_34 
REMARK   10  A    between atoms: C_26  and  C_33 
REMARK   11  A    between atoms: C_29  and  O_32 
REMARK   12  A    between atoms: C_35  and  C_36 
REMARK   13  A    between atoms: C_35  and  C_37 
ROOT
ATOM      1  C   LIG d   1       8.443  -1.145  -4.942  0.00  0.00    -0.033 C 
ATOM      2  H   LIG d   1       9.304  -1.522  -4.389  0.00  0.00     0.031 H 
ATOM      3  C   LIG d   1       8.444  -1.709  -6.375  0.00  0.00    -0.049 C 
ATOM      4  C   LIG d   1       8.493  -0.492  -7.329  0.00  0.00    -0.049 C 
ATOM      5  C   LIG d   1       7.929   0.657  -6.471  0.00  0.00    -0.032 C 
ATOM      6  H   LIG d   1       6.846   0.558  -6.412  0.00  0.00     0.031 H 
ATOM      7  C   LIG d   1       8.534   0.398  -5.081  0.00  0.00    -0.026 C 
ATOM      8  C   LIG d   1      10.024   0.752  -5.071  0.00  0.00    -0.047 C 
ATOM      9  C   LIG d   1      10.235   2.188  -5.541  0.00  0.00    -0.049 C 
ATOM     10  C   LIG d   1       9.755   2.310  -6.992  0.00  0.00    -0.029 C 
ATOM     11  H   LIG d   1      10.282   1.583  -7.611  0.00  0.00     0.031 H 
ATOM     12  C   LIG d   1       8.258   2.019  -7.033  0.00  0.00    -0.031 C 
ATOM     13  H   LIG d   1       7.734   2.781  -6.456  0.00  0.00     0.031 H 
ATOM     14  C   LIG d   1       7.769   2.111  -8.474  0.00  0.00    -0.031 C 
ATOM     15  C   LIG d   1       8.149   3.442  -9.055  0.00  0.00    -0.084 C 
ATOM     16  C   LIG d   1       9.157   4.140  -8.623  0.00  0.00    -0.065 C 
ATOM     17  C   LIG d   1      10.053   3.712  -7.499  0.00  0.00    -0.008 C 
ATOM     18  C   LIG d   1      11.513   3.794  -7.952  0.00  0.00    -0.041 C 
ATOM     19  C   LIG d   1      11.801   5.203  -8.476  0.00  0.00    -0.026 C 
ATOM     20  C   LIG d   1      10.931   5.486  -9.702  0.00  0.00     0.059 C 
ATOM     21  H   LIG d   1      11.109   4.719 -10.458  0.00  0.00     0.060 H 
ATOM     22  C   LIG d   1       9.455   5.470  -9.297  0.00  0.00    -0.005 C 
ATOM     23  H   LIG d   1       9.321  -2.338  -6.528  0.00  0.00     0.027 H 
ATOM     24  H   LIG d   1       7.536  -2.286  -6.550  0.00  0.00     0.027 H 
ATOM     25  H   LIG d   1       9.519  -0.281  -7.628  0.00  0.00     0.027 H 
ATOM     26  H   LIG d   1       7.865  -0.665  -8.203  0.00  0.00     0.027 H 
ATOM     27  H   LIG d   1      10.560   0.073  -5.735  0.00  0.00     0.027 H 
ATOM     28  H   LIG d   1      10.410   0.644  -4.057  0.00  0.00     0.027 H 
ATOM     29  H   LIG d   1      11.294   2.438  -5.484  0.00  0.00     0.027 H 
ATOM     30  H   LIG d   1       9.662   2.867  -4.908  0.00  0.00     0.027 H 
ATOM     31  H   LIG d   1       6.686   1.995  -8.510  0.00  0.00     0.031 H 
ATOM     32  H   LIG d   1       8.241   1.314  -9.048  0.00  0.00     0.031 H 
ATOM     33  H   LIG d   1       7.557   3.838  -9.866  0.00  0.00     0.057 H 
ATOM     34  H   LIG d   1      12.168   3.579  -7.108  0.00  0.00     0.027 H 
ATOM     35  H   LIG d   1      11.689   3.068  -8.745  0.00  0.00     0.027 H 
ATOM     36  H   LIG d   1      11.578   5.932  -7.698  0.00  0.00     0.029 H 
ATOM     37  H   LIG d   1      12.853   5.278  -8.753  0.00  0.00     0.029 H 
ATOM     38  H   LIG d   1       8.829   5.580 -10.184  0.00  0.00     0.034 H 
ATOM     39  H   LIG d   1       9.255   6.286  -8.604  0.00  0.00     0.034 H 
ENDROOT
BRANCH   1  40
ATOM     40  C   LIG d   1       7.148  -1.533  -4.226  0.00  0.00    -0.041 C 
ATOM     41  H   LIG d   1       6.674  -0.638  -3.821  0.00  0.00     0.030 H 
BRANCH  40  42
ATOM     42  C   LIG d   1       6.198  -2.207  -5.219  0.00  0.00    -0.050 C 
ATOM     43  H   LIG d   1       6.273  -1.710  -6.186  0.00  0.00     0.027 H 
ATOM     44  H   LIG d   1       6.472  -3.256  -5.327  0.00  0.00     0.027 H 
BRANCH  42  45
ATOM     45  C   LIG d   1       4.762  -2.105  -4.702  0.00  0.00    -0.050 C 
ATOM     46  H   LIG d   1       4.068  -2.365  -5.502  0.00  0.00     0.027 H 
ATOM     47  H   LIG d   1       4.628  -2.792  -3.867  0.00  0.00     0.027 H 
BRANCH  45  48
ATOM     48  C   LIG d   1       4.489  -0.674  -4.235  0.00  0.00    -0.039 C 
ATOM     49  H   LIG d   1       5.431  -0.133  -4.150  0.00  0.00     0.030 H 
BRANCH  48  50
ATOM     50  C   LIG d   1       3.585   0.029  -5.249  0.00  0.00    -0.053 C 
ATOM     51  H   LIG d   1       3.996   1.011  -5.482  0.00  0.00     0.026 H 
ATOM     52  H   LIG d   1       3.527  -0.566  -6.160  0.00  0.00     0.026 H 
BRANCH  50  53
ATOM     53  C   LIG d   1       2.183   0.190  -4.657  0.00  0.00    -0.065 C 
ATOM     54  H   LIG d   1       2.218   0.890  -3.822  0.00  0.00     0.023 H 
ATOM     55  H   LIG d   1       1.508   0.571  -5.423  0.00  0.00     0.023 H 
ATOM     56  H   LIG d   1       1.824  -0.777  -4.305  0.00  0.00     0.023 H 
ENDBRANCH  50  53
ENDBRANCH  48  50
BRANCH  48  57
ATOM     57  C   LIG d   1       3.795  -0.708  -2.870  0.00  0.00    -0.044 C 
ATOM     58  H   LIG d   1       2.767  -0.363  -2.978  0.00  0.00     0.030 H 
BRANCH  57  59
ATOM     59  C   LIG d   1       3.799  -2.140  -2.332  0.00  0.00    -0.062 C 
ATOM     60  H   LIG d   1       2.977  -2.266  -1.628  0.00  0.00     0.023 H 
ATOM     61  H   LIG d   1       3.677  -2.839  -3.160  0.00  0.00     0.023 H 
ATOM     62  H   LIG d   1       4.745  -2.337  -1.827  0.00  0.00     0.023 H 
ENDBRANCH  57  59
BRANCH  57  63
ATOM     63  C   LIG d   1       4.542   0.206  -1.897  0.00  0.00    -0.062 C 
ATOM     64  H   LIG d   1       5.616   0.111  -2.060  0.00  0.00     0.023 H 
ATOM     65  H   LIG d   1       4.238   1.239  -2.062  0.00  0.00     0.023 H 
ATOM     66  H   LIG d   1       4.304  -0.083  -0.873  0.00  0.00     0.023 H 
ENDBRANCH  57  63
ENDBRANCH  48  57
ENDBRANCH  45  48
ENDBRANCH  42  45
ENDBRANCH  40  42
BRANCH  40  67
ATOM     67  C   LIG d   1       7.466  -2.502  -3.086  0.00  0.00    -0.062 C 
ATOM     68  H   LIG d   1       8.275  -2.097  -2.480  0.00  0.00     0.023 H 
ATOM     69  H   LIG d   1       6.580  -2.637  -2.466  0.00  0.00     0.023 H 
ATOM     70  H   LIG d   1       7.768  -3.464  -3.501  0.00  0.00     0.023 H 
ENDBRANCH  40  67
ENDBRANCH   1  40
BRANCH   7  71
ATOM     71  C   LIG d   1       7.770   1.121  -3.970  0.00  0.00    -0.059 C 
ATOM     72  H   LIG d   1       8.301   1.004  -3.026  0.00  0.00     0.024 H 
ATOM     73  H   LIG d   1       7.693   2.181  -4.213  0.00  0.00     0.024 H 
ATOM     74  H   LIG d   1       6.771   0.695  -3.880  0.00  0.00     0.024 H 
ENDBRANCH   7  71
BRANCH  17  75
ATOM     75  C   LIG d   1       9.860   4.689  -6.337  0.00  0.00    -0.056 C 
ATOM     76  H   LIG d   1       9.254   4.217  -5.563  0.00  0.00     0.024 H 
ATOM     77  H   LIG d   1      10.831   4.959  -5.925  0.00  0.00     0.024 H 
ATOM     78  H   LIG d   1       9.355   5.585  -6.698  0.00  0.00     0.024 H 
ENDBRANCH  17  75
BRANCH  20  79
ATOM     79  O   LIG d   1      11.265   6.768 -10.237  0.00  0.00    -0.392 OA
ATOM     80  H   LIG d   1      10.514   7.242 -10.620  0.00  0.00     0.210 HD
ENDBRANCH  20  79
TORSDOF 13
ENDMDL
MODEL 6
REMARK VINA RESULT:      -5.1      2.981      7.817
REMARK  13 active torsions:
REMARK  status: ('A' for Active; 'I' for Inactive)
REMARK    1  A    between atoms: C_1  and  C_2 
REMARK    2  A    between atoms: C_2  and  C_3 
REMARK    3  A    between atoms: C_3  and  C_5 
REMARK    4  A    between atoms: C_3  and  C_35 
REMARK    5  A    between atoms: C_5  and  C_6 
REMARK    6  A    between atoms: C_6  and  C_7 
REMARK    7  A    between atoms: C_7  and  C_9 
REMARK    8  A    between atoms: C_7  and  C_10 
REMARK    9  A    between atoms: C_16  and  C_34 
REMARK   10  A    between atoms: C_26  and  C_33 
REMARK   11  A    between atoms: C_29  and  O_32 
REMARK   12  A    between atoms: C_35  and  C_36 
REMARK   13  A    between atoms: C_35  and  C_37 
ROOT
ATOM      1  C   LIG d   1       5.447  -1.252 -10.827  0.00  0.00    -0.033 C 
ATOM      2  H   LIG d   1       6.502  -1.311 -11.097  0.00  0.00     0.031 H 
ATOM      3  C   LIG d   1       4.969   0.212 -10.876  0.00  0.00    -0.049 C 
ATOM      4  C   LIG d   1       4.456   0.558  -9.459  0.00  0.00    -0.049 C 
ATOM      5  C   LIG d   1       4.109  -0.819  -8.859  0.00  0.00    -0.032 C 
ATOM      6  H   LIG d   1       3.165  -1.163  -9.279  0.00  0.00     0.031 H 
ATOM      7  C   LIG d   1       5.244  -1.727  -9.364  0.00  0.00    -0.026 C 
ATOM      8  C   LIG d   1       6.547  -1.421  -8.618  0.00  0.00    -0.047 C 
ATOM      9  C   LIG d   1       6.338  -1.531  -7.111  0.00  0.00    -0.049 C 
ATOM     10  C   LIG d   1       5.313  -0.477  -6.675  0.00  0.00    -0.029 C 
ATOM     11  H   LIG d   1       5.657   0.512  -6.981  0.00  0.00     0.031 H 
ATOM     12  C   LIG d   1       3.983  -0.784  -7.355  0.00  0.00    -0.031 C 
ATOM     13  H   LIG d   1       3.619  -1.749  -7.004  0.00  0.00     0.031 H 
ATOM     14  C   LIG d   1       2.958   0.271  -6.951  0.00  0.00    -0.031 C 
ATOM     15  C   LIG d   1       2.875   0.351  -5.455  0.00  0.00    -0.084 C 
ATOM     16  C   LIG d   1       3.855   0.006  -4.672  0.00  0.00    -0.065 C 
ATOM     17  C   LIG d   1       5.173  -0.515  -5.161  0.00  0.00    -0.008 C 
ATOM     18  C   LIG d   1       6.307   0.290  -4.521  0.00  0.00    -0.041 C 
ATOM     19  C   LIG d   1       6.151   0.262  -2.999  0.00  0.00    -0.026 C 
ATOM     20  C   LIG d   1       4.838   0.937  -2.602  0.00  0.00     0.059 C 
ATOM     21  H   LIG d   1       4.816   1.953  -3.000  0.00  0.00     0.060 H 
ATOM     22  C   LIG d   1       3.660   0.141  -3.170  0.00  0.00    -0.005 C 
ATOM     23  H   LIG d   1       5.799   0.867 -11.142  0.00  0.00     0.027 H 
ATOM     24  H   LIG d   1       4.163   0.318 -11.603  0.00  0.00     0.027 H 
ATOM     25  H   LIG d   1       5.237   1.045  -8.877  0.00  0.00     0.027 H 
ATOM     26  H   LIG d   1       3.569   1.189  -9.516  0.00  0.00     0.027 H 
ATOM     27  H   LIG d   1       6.873  -0.410  -8.864  0.00  0.00     0.027 H 
ATOM     28  H   LIG d   1       7.312  -2.132  -8.929  0.00  0.00     0.027 H 
ATOM     29  H   LIG d   1       7.283  -1.357  -6.598  0.00  0.00     0.027 H 
ATOM     30  H   LIG d   1       5.965  -2.526  -6.866  0.00  0.00     0.027 H 
ATOM     31  H   LIG d   1       1.979   0.016  -7.357  0.00  0.00     0.031 H 
ATOM     32  H   LIG d   1       3.280   1.232  -7.351  0.00  0.00     0.031 H 
ATOM     33  H   LIG d   1       1.959   0.708  -5.008  0.00  0.00     0.057 H 
ATOM     34  H   LIG d   1       7.266  -0.149  -4.797  0.00  0.00     0.027 H 
ATOM     35  H   LIG d   1       6.264   1.321  -4.872  0.00  0.00     0.027 H 
ATOM     36  H   LIG d   1       6.145  -0.772  -2.655  0.00  0.00     0.029 H 
ATOM     37  H   LIG d   1       6.985   0.793  -2.539  0.00  0.00     0.029 H 
ATOM     38  H   LIG d   1       2.727   0.669  -2.968  0.00  0.00     0.034 H 
ATOM     39  H   LIG d   1       3.629  -0.847  -2.714  0.00  0.00     0.034 H 
ENDROOT
BRANCH   1  40
ATOM     40  C   LIG d   1       4.612  -2.109 -11.780  0.00  0.00    -0.041 C 
ATOM     41  H   LIG d   1       3.955  -2.759 -11.202  0.00  0.00     0.030 H 
BRANCH  40  42
ATOM     42  C   LIG d   1       3.769  -1.201 -12.677  0.00  0.00    -0.050 C 
ATOM     43  H   LIG d   1       3.949  -0.159 -12.411  0.00  0.00     0.027 H 
ATOM     44  H   LIG d   1       4.046  -1.363 -13.719  0.00  0.00     0.027 H 
BRANCH  42  45
ATOM     45  C   LIG d   1       2.287  -1.527 -12.486  0.00  0.00    -0.050 C 
ATOM     46  H   LIG d   1       1.778  -0.666 -12.051  0.00  0.00     0.027 H 
ATOM     47  H   LIG d   1       1.840  -1.764 -13.452  0.00  0.00     0.027 H 
BRANCH  45  48
ATOM     48  C   LIG d   1       2.146  -2.729 -11.550  0.00  0.00    -0.039 C 
ATOM     49  H   LIG d   1       3.135  -3.069 -11.243  0.00  0.00     0.030 H 
BRANCH  48  50
ATOM     50  C   LIG d   1       1.340  -2.323 -10.316  0.00  0.00    -0.053 C 
ATOM     51  H   LIG d   1       0.400  -2.874 -10.298  0.00  0.00     0.026 H 
ATOM     52  H   LIG d   1       1.912  -2.551  -9.416  0.00  0.00     0.026 H 
BRANCH  50  53
ATOM     53  C   LIG d   1       1.050  -0.821 -10.368  0.00  0.00    -0.065 C 
ATOM     54  H   LIG d   1       1.802  -0.285  -9.790  0.00  0.00     0.023 H 
ATOM     55  H   LIG d   1       1.076  -0.482 -11.403  0.00  0.00     0.023 H 
ATOM     56  H   LIG d   1       0.063  -0.627  -9.948  0.00  0.00     0.023 H 
ENDBRANCH  50  53
ENDBRANCH  48  50
BRANCH  48  57
ATOM     57  C   LIG d   1       1.422  -3.863 -12.283  0.00  0.00    -0.044 C 
ATOM     58  H   LIG d   1       0.582  -4.206 -11.678  0.00  0.00     0.030 H 
BRANCH  57  59
ATOM     59  C   LIG d   1       0.906  -3.351 -13.629  0.00  0.00    -0.062 C 
ATOM     60  H   LIG d   1       1.536  -2.530 -13.972  0.00  0.00     0.023 H 
ATOM     61  H   LIG d   1       0.936  -4.160 -14.359  0.00  0.00     0.023 H 
ATOM     62  H   LIG d   1      -0.119  -3.000 -13.517  0.00  0.00     0.023 H 
ENDBRANCH  57  59
BRANCH  57  63
ATOM     63  C   LIG d   1       2.393  -5.021 -12.514  0.00  0.00    -0.062 C 
ATOM     64  H   LIG d   1       3.384  -4.627 -12.740  0.00  0.00     0.023 H 
ATOM     65  H   LIG d   1       2.443  -5.638 -11.617  0.00  0.00     0.023 H 
ATOM     66  H   LIG d   1       2.043  -5.626 -13.351  0.00  0.00     0.023 H 
ENDBRANCH  57  63
ENDBRANCH  48  57
ENDBRANCH  45  48
ENDBRANCH  42  45
ENDBRANCH  40  42
BRANCH  40  67
ATOM     67  C   LIG d   1       5.541  -2.962 -12.645  0.00  0.00    -0.062 C 
ATOM     68  H   LIG d   1       5.538  -3.988 -12.280  0.00  0.00     0.023 H 
ATOM     69  H   LIG d   1       5.194  -2.943 -13.678  0.00  0.00     0.023 H 
ATOM     70  H   LIG d   1       6.554  -2.562 -12.595  0.00  0.00     0.023 H 
ENDBRANCH  40  67
ENDBRANCH   1  40
BRANCH   7  71
ATOM     71  C   LIG d   1       4.879  -3.210  -9.287  0.00  0.00    -0.059 C 
ATOM     72  H   LIG d   1       5.387  -3.752 -10.084  0.00  0.00     0.024 H 
ATOM     73  H   LIG d   1       5.188  -3.611  -8.321  0.00  0.00     0.024 H 
ATOM     74  H   LIG d   1       3.801  -3.325  -9.400  0.00  0.00     0.024 H 
ENDBRANCH   7  71
BRANCH  17  75
ATOM     75  C   LIG d   1       5.309  -1.970  -4.707  0.00  0.00    -0.056 C 
ATOM     76  H   LIG d   1       5.780  -2.554  -5.498  0.00  0.00     0.024 H 
ATOM     77  H   LIG d   1       5.921  -2.014  -3.808  0.00  0.00     0.024 H 
ATOM     78  H   LIG d   1       4.320  -2.377  -4.495  0.00  0.00     0.024 H 
ENDBRANCH  17  75
BRANCH  20  79
ATOM     79  O   LIG d   1       4.738   0.983  -1.177  0.00  0.00    -0.392 OA
ATOM     80  H   LIG d   1       4.359   0.184  -0.784  0.00  0.00     0.210 HD
ENDBRANCH  20  79
TORSDOF 13
ENDMDL
MODEL 7
REMARK VINA RESULT:      -5.0      8.698     11.313
REMARK  13 active torsions:
REMARK  status: ('A' for Active; 'I' for Inactive)
REMARK    1  A    between atoms: C_1  and  C_2 
REMARK    2  A    between atoms: C_2  and  C_3 
REMARK    3  A    between atoms: C_3  and  C_5 
REMARK    4  A    between atoms: C_3  and  C_35 
REMARK    5  A    between atoms: C_5  and  C_6 
REMARK    6  A    between atoms: C_6  and  C_7 
REMARK    7  A    between atoms: C_7  and  C_9 
REMARK    8  A    between atoms: C_7  and  C_10 
REMARK    9  A    between atoms: C_16  and  C_34 
REMARK   10  A    between atoms: C_26  and  C_33 
REMARK   11  A    between atoms: C_29  and  O_32 
REMARK   12  A    between atoms: C_35  and  C_36 
REMARK   13  A    between atoms: C_35  and  C_37 
ROOT
ATOM      1  C   LIG d   1      11.535   5.736  -1.781  0.00  0.00    -0.033 C 
ATOM      2  H   LIG d   1      11.726   4.695  -1.521  0.00  0.00     0.031 H 
ATOM      3  C   LIG d   1      10.040   6.062  -1.600  0.00  0.00    -0.049 C 
ATOM      4  C   LIG d   1       9.520   6.529  -2.979  0.00  0.00    -0.049 C 
ATOM      5  C   LIG d   1      10.795   7.012  -3.698  0.00  0.00    -0.032 C 
ATOM      6  H   LIG d   1      11.076   7.989  -3.306  0.00  0.00     0.031 H 
ATOM      7  C   LIG d   1      11.856   5.979  -3.279  0.00  0.00    -0.026 C 
ATOM      8  C   LIG d   1      11.621   4.648  -3.999  0.00  0.00    -0.047 C 
ATOM      9  C   LIG d   1      11.575   4.859  -5.510  0.00  0.00    -0.049 C 
ATOM     10  C   LIG d   1      10.387   5.768  -5.848  0.00  0.00    -0.029 C 
ATOM     11  H   LIG d   1       9.470   5.326  -5.456  0.00  0.00     0.031 H 
ATOM     12  C   LIG d   1      10.615   7.126  -5.192  0.00  0.00    -0.031 C 
ATOM     13  H   LIG d   1      11.503   7.585  -5.626  0.00  0.00     0.031 H 
ATOM     14  C   LIG d   1       9.429   8.035  -5.497  0.00  0.00    -0.031 C 
ATOM     15  C   LIG d   1       9.209   8.101  -6.981  0.00  0.00    -0.084 C 
ATOM     16  C   LIG d   1       9.582   7.158  -7.794  0.00  0.00    -0.065 C 
ATOM     17  C   LIG d   1      10.277   5.902  -7.358  0.00  0.00    -0.008 C 
ATOM     18  C   LIG d   1       9.539   4.688  -7.929  0.00  0.00    -0.041 C 
ATOM     19  C   LIG d   1       9.417   4.838  -9.447  0.00  0.00    -0.026 C 
ATOM     20  C   LIG d   1       8.578   6.073  -9.778  0.00  0.00     0.059 C 
ATOM     21  H   LIG d   1       7.605   5.992  -9.291  0.00  0.00     0.060 H 
ATOM     22  C   LIG d   1       9.296   7.329  -9.277  0.00  0.00    -0.005 C 
ATOM     23  H   LIG d   1       9.500   5.171  -1.280  0.00  0.00     0.027 H 
ATOM     24  H   LIG d   1       9.917   6.857  -0.864  0.00  0.00     0.027 H 
ATOM     25  H   LIG d   1       9.066   5.699  -3.519  0.00  0.00     0.027 H 
ATOM     26  H   LIG d   1       8.809   7.347  -2.864  0.00  0.00     0.027 H 
ATOM     27  H   LIG d   1      10.675   4.221  -3.666  0.00  0.00     0.027 H 
ATOM     28  H   LIG d   1      12.432   3.962  -3.755  0.00  0.00     0.027 H 
ATOM     29  H   LIG d   1      11.455   3.898  -6.008  0.00  0.00     0.027 H 
ATOM     30  H   LIG d   1      12.501   5.331  -5.840  0.00  0.00     0.027 H 
ATOM     31  H   LIG d   1       9.616   9.037  -5.112  0.00  0.00     0.031 H 
ATOM     32  H   LIG d   1       8.545   7.619  -5.016  0.00  0.00     0.031 H 
ATOM     33  H   LIG d   1       8.722   8.973  -7.390  0.00  0.00     0.057 H 
ATOM     34  H   LIG d   1      10.097   3.781  -7.696  0.00  0.00     0.027 H 
ATOM     35  H   LIG d   1       8.544   4.627  -7.488  0.00  0.00     0.027 H 
ATOM     36  H   LIG d   1      10.410   4.948  -9.881  0.00  0.00     0.029 H 
ATOM     37  H   LIG d   1       8.936   3.951  -9.861  0.00  0.00     0.029 H 
ATOM     38  H   LIG d   1       8.659   8.202  -9.429  0.00  0.00     0.034 H 
ATOM     39  H   LIG d   1      10.232   7.459  -9.819  0.00  0.00     0.034 H 
ENDROOT
BRANCH   1  40
ATOM     40  C   LIG d   1      12.383   6.660  -0.904  0.00  0.00    -0.041 C 
ATOM     41  H   LIG d   1      12.686   7.533  -1.483  0.00  0.00     0.030 H 
BRANCH  40  42
ATOM     42  C   LIG d   1      11.562   7.111   0.306  0.00  0.00    -0.050 C 
ATOM     43  H   LIG d   1      10.507   6.904   0.126  0.00  0.00     0.027 H 
ATOM     44  H   LIG d   1      11.893   6.568   1.191  0.00  0.00     0.027 H 
BRANCH  42  45
ATOM     45  C   LIG d   1      11.757   8.613   0.524  0.00  0.00    -0.050 C 
ATOM     46  H   LIG d   1      11.253   8.915   1.443  0.00  0.00     0.027 H 
ATOM     47  H   LIG d   1      12.822   8.832   0.605  0.00  0.00     0.027 H 
BRANCH  45  48
ATOM     48  C   LIG d   1      11.166   9.382  -0.658  0.00  0.00    -0.039 C 
ATOM     49  H   LIG d   1      10.887   8.681  -1.445  0.00  0.00     0.030 H 
BRANCH  48  50
ATOM     50  C   LIG d   1       9.928  10.152  -0.198  0.00  0.00    -0.053 C 
ATOM     51  H   LIG d   1       9.873  10.136   0.890  0.00  0.00     0.026 H 
ATOM     52  H   LIG d   1       9.993  11.185  -0.543  0.00  0.00     0.026 H 
BRANCH  50  53
ATOM     53  C   LIG d   1       8.674   9.499  -0.783  0.00  0.00    -0.065 C 
ATOM     54  H   LIG d   1       8.864   9.206  -1.815  0.00  0.00     0.023 H 
ATOM     55  H   LIG d   1       8.417   8.617  -0.196  0.00  0.00     0.023 H 
ATOM     56  H   LIG d   1       7.847  10.208  -0.753  0.00  0.00     0.023 H 
ENDBRANCH  50  53
ENDBRANCH  48  50
BRANCH  48  57
ATOM     57  C   LIG d   1      12.208  10.365  -1.198  0.00  0.00    -0.044 C 
ATOM     58  H   LIG d   1      11.838  11.384  -1.084  0.00  0.00     0.030 H 
BRANCH  57  59
ATOM     59  C   LIG d   1      13.513  10.206  -0.415  0.00  0.00    -0.062 C 
ATOM     60  H   LIG d   1      13.320  10.358   0.647  0.00  0.00     0.023 H 
ATOM     61  H   LIG d   1      13.910   9.203  -0.571  0.00  0.00     0.023 H 
ATOM     62  H   LIG d   1      14.238  10.943  -0.761  0.00  0.00     0.023 H 
ENDBRANCH  57  59
BRANCH  57  63
ATOM     63  C   LIG d   1      12.463  10.077  -2.678  0.00  0.00    -0.062 C 
ATOM     64  H   LIG d   1      12.291  10.983  -3.261  0.00  0.00     0.023 H 
ATOM     65  H   LIG d   1      13.493   9.748  -2.812  0.00  0.00     0.023 H 
ATOM     66  H   LIG d   1      11.785   9.293  -3.017  0.00  0.00     0.023 H 
ENDBRANCH  57  63
ENDBRANCH  48  57
ENDBRANCH  45  48
ENDBRANCH  42  45
ENDBRANCH  40  42
BRANCH  40  67
ATOM     67  C   LIG d   1      13.627   5.909  -0.426  0.00  0.00    -0.062 C 
ATOM     68  H   LIG d   1      14.504   6.290  -0.948  0.00  0.00     0.023 H 
ATOM     69  H   LIG d   1      13.750   6.057   0.647  0.00  0.00     0.023 H 
ATOM     70  H   LIG d   1      13.512   4.846  -0.635  0.00  0.00     0.023 H 
ENDBRANCH  40  67
ENDBRANCH   1  40
BRANCH   7  71
ATOM     71  C   LIG d   1      13.281   6.494  -3.486  0.00  0.00    -0.059 C 
ATOM     72  H   LIG d   1      13.283   7.583  -3.459  0.00  0.00     0.024 H 
ATOM     73  H   LIG d   1      13.925   6.111  -2.693  0.00  0.00     0.024 H 
ATOM     74  H   LIG d   1      13.654   6.154  -4.452  0.00  0.00     0.024 H 
ENDBRANCH   7  71
BRANCH  17  75
ATOM     75  C   LIG d   1      11.693   5.914  -7.939  0.00  0.00    -0.056 C 
ATOM     76  H   LIG d   1      12.062   6.940  -7.973  0.00  0.00     0.024 H 
ATOM     77  H   LIG d   1      12.348   5.313  -7.311  0.00  0.00     0.024 H 
ATOM     78  H   LIG d   1      11.674   5.501  -8.948  0.00  0.00     0.024 H 
ENDBRANCH  17  75
BRANCH  20  79
ATOM     79  O   LIG d   1       8.397   6.160 -11.193  0.00  0.00    -0.392 OA
ATOM     80  H   LIG d   1       8.965   5.562 -11.699  0.00  0.00     0.210 HD
ENDBRANCH  20  79
TORSDOF 13
ENDMDL
MODEL 8
REMARK VINA RESULT:      -4.9      8.526     12.131
REMARK  13 active torsions:
REMARK  status: ('A' for Active; 'I' for Inactive)
REMARK    1  A    between atoms: C_1  and  C_2 
REMARK    2  A    between atoms: C_2  and  C_3 
REMARK    3  A    between atoms: C_3  and  C_5 
REMARK    4  A    between atoms: C_3  and  C_35 
REMARK    5  A    between atoms: C_5  and  C_6 
REMARK    6  A    between atoms: C_6  and  C_7 
REMARK    7  A    between atoms: C_7  and  C_9 
REMARK    8  A    between atoms: C_7  and  C_10 
REMARK    9  A    between atoms: C_16  and  C_34 
REMARK   10  A    between atoms: C_26  and  C_33 
REMARK   11  A    between atoms: C_29  and  O_32 
REMARK   12  A    between atoms: C_35  and  C_36 
REMARK   13  A    between atoms: C_35  and  C_37 
ROOT
ATOM      1  C   LIG d   1      10.392   8.238  -0.200  0.00  0.00    -0.033 C 
ATOM      2  H   LIG d   1      10.444   7.830   0.810  0.00  0.00     0.031 H 
ATOM      3  C   LIG d   1       8.923   8.371  -0.643  0.00  0.00    -0.049 C 
ATOM      4  C   LIG d   1       8.766   7.510  -1.918  0.00  0.00    -0.049 C 
ATOM      5  C   LIG d   1      10.203   7.421  -2.469  0.00  0.00    -0.032 C 
ATOM      6  H   LIG d   1      10.456   8.363  -2.956  0.00  0.00     0.031 H 
ATOM      7  C   LIG d   1      11.063   7.263  -1.203  0.00  0.00    -0.026 C 
ATOM      8  C   LIG d   1      10.905   5.856  -0.620  0.00  0.00    -0.047 C 
ATOM      9  C   LIG d   1      11.221   4.801  -1.677  0.00  0.00    -0.049 C 
ATOM     10  C   LIG d   1      10.209   4.929  -2.822  0.00  0.00    -0.029 C 
ATOM     11  H   LIG d   1       9.198   4.837  -2.425  0.00  0.00     0.031 H 
ATOM     12  C   LIG d   1      10.378   6.302  -3.466  0.00  0.00    -0.031 C 
ATOM     13  H   LIG d   1      11.372   6.367  -3.907  0.00  0.00     0.031 H 
ATOM     14  C   LIG d   1       9.361   6.455  -4.592  0.00  0.00    -0.031 C 
ATOM     15  C   LIG d   1       9.491   5.309  -5.553  0.00  0.00    -0.084 C 
ATOM     16  C   LIG d   1       9.971   4.151  -5.211  0.00  0.00    -0.065 C 
ATOM     17  C   LIG d   1      10.456   3.819  -3.831  0.00  0.00    -0.008 C 
ATOM     18  C   LIG d   1       9.784   2.530  -3.352  0.00  0.00    -0.041 C 
ATOM     19  C   LIG d   1      10.023   1.422  -4.380  0.00  0.00    -0.026 C 
ATOM     20  C   LIG d   1       9.372   1.803  -5.710  0.00  0.00     0.059 C 
ATOM     21  H   LIG d   1       8.310   1.998  -5.553  0.00  0.00     0.060 H 
ATOM     22  C   LIG d   1      10.045   3.060  -6.268  0.00  0.00    -0.005 C 
ATOM     23  H   LIG d   1       8.262   8.000   0.140  0.00  0.00     0.027 H 
ATOM     24  H   LIG d   1       8.692   9.413  -0.864  0.00  0.00     0.027 H 
ATOM     25  H   LIG d   1       8.389   6.519  -1.668  0.00  0.00     0.027 H 
ATOM     26  H   LIG d   1       8.108   8.001  -2.634  0.00  0.00     0.027 H 
ATOM     27  H   LIG d   1       9.879   5.723  -0.274  0.00  0.00     0.027 H 
ATOM     28  H   LIG d   1      11.587   5.739   0.221  0.00  0.00     0.027 H 
ATOM     29  H   LIG d   1      11.148   3.809  -1.234  0.00  0.00     0.027 H 
ATOM     30  H   LIG d   1      12.229   4.960  -2.061  0.00  0.00     0.027 H 
ATOM     31  H   LIG d   1       9.526   7.394  -5.121  0.00  0.00     0.031 H 
ATOM     32  H   LIG d   1       8.362   6.454  -4.156  0.00  0.00     0.031 H 
ATOM     33  H   LIG d   1       9.173   5.456  -6.574  0.00  0.00     0.057 H 
ATOM     34  H   LIG d   1      10.208   2.234  -2.392  0.00  0.00     0.027 H 
ATOM     35  H   LIG d   1       8.713   2.699  -3.240  0.00  0.00     0.027 H 
ATOM     36  H   LIG d   1      11.094   1.288  -4.526  0.00  0.00     0.029 H 
ATOM     37  H   LIG d   1       9.587   0.491  -4.016  0.00  0.00     0.029 H 
ATOM     38  H   LIG d   1       9.523   3.387  -7.169  0.00  0.00     0.034 H 
ATOM     39  H   LIG d   1      11.086   2.846  -6.504  0.00  0.00     0.034 H 
ENDROOT
BRANCH   1  40
ATOM     40  C   LIG d   1      11.082   9.603  -0.251  0.00  0.00    -0.041 C 
ATOM     41  H   LIG d   1      11.888   9.575  -0.984  0.00  0.00     0.030 H 
BRANCH  40  42
ATOM     42  C   LIG d   1      10.065  10.673  -0.654  0.00  0.00    -0.050 C 
ATOM     43  H   LIG d   1       9.086  10.212  -0.785  0.00  0.00     0.027 H 
ATOM     44  H   LIG d   1      10.008  11.431   0.128  0.00  0.00     0.027 H 
BRANCH  42  45
ATOM     45  C   LIG d   1      10.502  11.325  -1.966  0.00  0.00    -0.050 C 
ATOM     46  H   LIG d   1      10.453  12.410  -1.868  0.00  0.00     0.027 H 
ATOM     47  H   LIG d   1      11.526  11.028  -2.195  0.00  0.00     0.027 H 
BRANCH  45  48
ATOM     48  C   LIG d   1       9.575  10.873  -3.095  0.00  0.00    -0.039 C 
ATOM     49  H   LIG d   1       9.198   9.874  -2.878  0.00  0.00     0.030 H 
BRANCH  48  50
ATOM     50  C   LIG d   1       8.401  11.847  -3.212  0.00  0.00    -0.053 C 
ATOM     51  H   LIG d   1       7.840  11.632  -4.121  0.00  0.00     0.026 H 
ATOM     52  H   LIG d   1       7.748  11.736  -2.347  0.00  0.00     0.026 H 
BRANCH  50  53
ATOM     53  C   LIG d   1       8.932  13.281  -3.268  0.00  0.00    -0.065 C 
ATOM     54  H   LIG d   1      10.022  13.265  -3.294  0.00  0.00     0.023 H 
ATOM     55  H   LIG d   1       8.554  13.773  -4.165  0.00  0.00     0.023 H 
ATOM     56  H   LIG d   1       8.598  13.827  -2.387  0.00  0.00     0.023 H 
ENDBRANCH  50  53
ENDBRANCH  48  50
BRANCH  48  57
ATOM     57  C   LIG d   1      10.352  10.849  -4.414  0.00  0.00    -0.044 C 
ATOM     58  H   LIG d   1      10.472  11.867  -4.782  0.00  0.00     0.030 H 
BRANCH  57  59
ATOM     59  C   LIG d   1      11.729  10.225  -4.182  0.00  0.00    -0.062 C 
ATOM     60  H   LIG d   1      12.364  10.414  -5.048  0.00  0.00     0.023 H 
ATOM     61  H   LIG d   1      12.183  10.668  -3.296  0.00  0.00     0.023 H 
ATOM     62  H   LIG d   1      11.623   9.150  -4.037  0.00  0.00     0.023 H 
ENDBRANCH  57  59
BRANCH  57  63
ATOM     63  C   LIG d   1       9.583  10.020  -5.444  0.00  0.00    -0.062 C 
ATOM     64  H   LIG d   1       8.514  10.205  -5.335  0.00  0.00     0.023 H 
ATOM     65  H   LIG d   1       9.900  10.302  -6.448  0.00  0.00     0.023 H 
ATOM     66  H   LIG d   1       9.786   8.961  -5.283  0.00  0.00     0.023 H 
ENDBRANCH  57  63
ENDBRANCH  48  57
ENDBRANCH  45  48
ENDBRANCH  42  45
ENDBRANCH  40  42
BRANCH  40  67
ATOM     67  C   LIG d   1      11.655   9.936   1.127  0.00  0.00    -0.062 C 
ATOM     68  H   LIG d   1      12.621   9.447   1.247  0.00  0.00     0.023 H 
ATOM     69  H   LIG d   1      11.781  11.016   1.217  0.00  0.00     0.023 H 
ATOM     70  H   LIG d   1      10.972   9.585   1.900  0.00  0.00     0.023 H 
ENDBRANCH  40  67
ENDBRANCH   1  40
BRANCH   7  71
ATOM     71  C   LIG d   1      12.531   7.614  -1.451  0.00  0.00    -0.059 C 
ATOM     72  H   LIG d   1      12.641   8.696  -1.522  0.00  0.00     0.024 H 
ATOM     73  H   LIG d   1      13.139   7.241  -0.626  0.00  0.00     0.024 H 
ATOM     74  H   LIG d   1      12.863   7.154  -2.382  0.00  0.00     0.024 H 
ENDBRANCH   7  71
BRANCH  17  75
ATOM     75  C   LIG d   1      11.965   3.570  -3.904  0.00  0.00    -0.056 C 
ATOM     76  H   LIG d   1      12.373   4.070  -4.782  0.00  0.00     0.024 H 
ATOM     77  H   LIG d   1      12.441   3.963  -3.007  0.00  0.00     0.024 H 
ATOM     78  H   LIG d   1      12.152   2.498  -3.976  0.00  0.00     0.024 H 
ENDBRANCH  17  75
BRANCH  20  79
ATOM     79  O   LIG d   1       9.525   0.728  -6.640  0.00  0.00    -0.392 OA
ATOM     80  H   LIG d   1       8.700   0.453  -7.063  0.00  0.00     0.210 HD
ENDBRANCH  20  79
TORSDOF 13
ENDMDL
MODEL 9
REMARK VINA RESULT:      -4.7      3.416      8.458
REMARK  13 active torsions:
REMARK  status: ('A' for Active; 'I' for Inactive)
REMARK    1  A    between atoms: C_1  and  C_2 
REMARK    2  A    between atoms: C_2  and  C_3 
REMARK    3  A    between atoms: C_3  and  C_5 
REMARK    4  A    between atoms: C_3  and  C_35 
REMARK    5  A    between atoms: C_5  and  C_6 
REMARK    6  A    between atoms: C_6  and  C_7 
REMARK    7  A    between atoms: C_7  and  C_9 
REMARK    8  A    between atoms: C_7  and  C_10 
REMARK    9  A    between atoms: C_16  and  C_34 
REMARK   10  A    between atoms: C_26  and  C_33 
REMARK   11  A    between atoms: C_29  and  O_32 
REMARK   12  A    between atoms: C_35  and  C_36 
REMARK   13  A    between atoms: C_35  and  C_37 
ROOT
ATOM      1  C   LIG d   1       4.299  -1.481 -10.670  0.00  0.00    -0.033 C 
ATOM      2  H   LIG d   1       5.304  -1.688 -11.039  0.00  0.00     0.031 H 
ATOM      3  C   LIG d   1       4.012   0.031 -10.733  0.00  0.00    -0.049 C 
ATOM      4  C   LIG d   1       3.695   0.480  -9.287  0.00  0.00    -0.049 C 
ATOM      5  C   LIG d   1       3.236  -0.821  -8.601  0.00  0.00    -0.032 C 
ATOM      6  H   LIG d   1       2.217  -1.048  -8.913  0.00  0.00     0.031 H 
ATOM      7  C   LIG d   1       4.186  -1.885  -9.177  0.00  0.00    -0.026 C 
ATOM      8  C   LIG d   1       5.586  -1.735  -8.575  0.00  0.00    -0.047 C 
ATOM      9  C   LIG d   1       5.519  -1.775  -7.051  0.00  0.00    -0.049 C 
ATOM     10  C   LIG d   1       4.690  -0.582  -6.560  0.00  0.00    -0.029 C 
ATOM     11  H   LIG d   1       5.126   0.343  -6.938  0.00  0.00     0.031 H 
ATOM     12  C   LIG d   1       3.268  -0.729  -7.094  0.00  0.00    -0.031 C 
ATOM     13  H   LIG d   1       2.821  -1.627  -6.671  0.00  0.00     0.031 H 
ATOM     14  C   LIG d   1       2.436   0.464  -6.636  0.00  0.00    -0.031 C 
ATOM     15  C   LIG d   1       2.517   0.595  -5.143  0.00  0.00    -0.084 C 
ATOM     16  C   LIG d   1       3.518   0.145  -4.446  0.00  0.00    -0.065 C 
ATOM     17  C   LIG d   1       4.701  -0.560  -5.040  0.00  0.00    -0.008 C 
ATOM     18  C   LIG d   1       5.989   0.104  -4.546  0.00  0.00    -0.041 C 
ATOM     19  C   LIG d   1       5.986   0.138  -3.016  0.00  0.00    -0.026 C 
ATOM     20  C   LIG d   1       4.819   0.993  -2.521  0.00  0.00     0.059 C 
ATOM     21  H   LIG d   1       4.889   1.991  -2.956  0.00  0.00     0.060 H 
ATOM     22  C   LIG d   1       3.496   0.345  -2.939  0.00  0.00    -0.005 C 
ATOM     23  H   LIG d   1       4.888   0.562 -11.104  0.00  0.00     0.027 H 
ATOM     24  H   LIG d   1       3.157   0.223 -11.381  0.00  0.00     0.027 H 
ATOM     25  H   LIG d   1       4.587   0.875  -8.804  0.00  0.00     0.027 H 
ATOM     26  H   LIG d   1       2.896   1.222  -9.283  0.00  0.00     0.027 H 
ATOM     27  H   LIG d   1       6.014  -0.784  -8.892  0.00  0.00     0.027 H 
ATOM     28  H   LIG d   1       6.217  -2.550  -8.930  0.00  0.00     0.027 H 
ATOM     29  H   LIG d   1       6.526  -1.714  -6.640  0.00  0.00     0.027 H 
ATOM     30  H   LIG d   1       5.047  -2.705  -6.731  0.00  0.00     0.027 H 
ATOM     31  H   LIG d   1       1.395   0.331  -6.934  0.00  0.00     0.031 H 
ATOM     32  H   LIG d   1       2.837   1.363  -7.103  0.00  0.00     0.031 H 
ATOM     33  H   LIG d   1       1.705   1.083  -4.624  0.00  0.00     0.057 H 
ATOM     34  H   LIG d   1       6.850  -0.466  -4.896  0.00  0.00     0.027 H 
ATOM     35  H   LIG d   1       6.045   1.122  -4.933  0.00  0.00     0.027 H 
ATOM     36  H   LIG d   1       5.882  -0.876  -2.632  0.00  0.00     0.029 H 
ATOM     37  H   LIG d   1       6.925   0.566  -2.662  0.00  0.00     0.029 H 
ATOM     38  H   LIG d   1       2.665   0.998  -2.668  0.00  0.00     0.034 H 
ATOM     39  H   LIG d   1       3.385  -0.617  -2.442  0.00  0.00     0.034 H 
ENDROOT
BRANCH   1  40
ATOM     40  C   LIG d   1       3.267  -2.246 -11.502  0.00  0.00    -0.041 C 
ATOM     41  H   LIG d   1       2.724  -2.939 -10.859  0.00  0.00     0.030 H 
BRANCH  40  42
ATOM     42  C   LIG d   1       2.283  -1.256 -12.129  0.00  0.00    -0.050 C 
ATOM     43  H   LIG d   1       2.359  -0.296 -11.619  0.00  0.00     0.027 H 
ATOM     44  H   LIG d   1       2.522  -1.127 -13.185  0.00  0.00     0.027 H 
BRANCH  42  45
ATOM     45  C   LIG d   1       0.858  -1.796 -11.991  0.00  0.00    -0.050 C 
ATOM     46  H   LIG d   1       0.885  -2.773 -11.507  0.00  0.00     0.027 H 
ATOM     47  H   LIG d   1       0.266  -1.108 -11.387  0.00  0.00     0.027 H 
BRANCH  45  48
ATOM     48  C   LIG d   1       0.226  -1.931 -13.377  0.00  0.00    -0.039 C 
ATOM     49  H   LIG d   1       0.566  -1.113 -14.013  0.00  0.00     0.030 H 
BRANCH  48  50
ATOM     50  C   LIG d   1       0.639  -3.266 -13.998  0.00  0.00    -0.053 C 
ATOM     51  H   LIG d   1       1.316  -3.788 -13.323  0.00  0.00     0.026 H 
ATOM     52  H   LIG d   1      -0.248  -3.878 -14.168  0.00  0.00     0.026 H 
BRANCH  50  53
ATOM     53  C   LIG d   1       1.344  -3.012 -15.332  0.00  0.00    -0.065 C 
ATOM     54  H   LIG d   1       1.001  -3.739 -16.069  0.00  0.00     0.023 H 
ATOM     55  H   LIG d   1       1.112  -2.005 -15.679  0.00  0.00     0.023 H 
ATOM     56  H   LIG d   1       2.421  -3.111 -15.198  0.00  0.00     0.023 H 
ENDBRANCH  50  53
ENDBRANCH  48  50
BRANCH  48  57
ATOM     57  C   LIG d   1      -1.299  -1.876 -13.250  0.00  0.00    -0.044 C 
ATOM     58  H   LIG d   1      -1.568  -1.273 -12.383  0.00  0.00     0.030 H 
BRANCH  57  59
ATOM     59  C   LIG d   1      -1.893  -1.248 -14.512  0.00  0.00    -0.062 C 
ATOM     60  H   LIG d   1      -1.472  -0.253 -14.656  0.00  0.00     0.023 H 
ATOM     61  H   LIG d   1      -1.653  -1.871 -15.374  0.00  0.00     0.023 H 
ATOM     62  H   LIG d   1      -2.975  -1.174 -14.408  0.00  0.00     0.023 H 
ENDBRANCH  57  59
BRANCH  57  63
ATOM     63  C   LIG d   1      -1.847  -3.293 -13.078  0.00  0.00    -0.062 C 
ATOM     64  H   LIG d   1      -1.110  -3.908 -12.560  0.00  0.00     0.023 H 
ATOM     65  H   LIG d   1      -2.767  -3.258 -12.494  0.00  0.00     0.023 H 
ATOM     66  H   LIG d   1      -2.055  -3.724 -14.057  0.00  0.00     0.023 H 
ENDBRANCH  57  63
ENDBRANCH  48  57
ENDBRANCH  45  48
ENDBRANCH  42  45
ENDBRANCH  40  42
BRANCH  40  67
ATOM     67  C   LIG d   1       3.980  -3.027 -12.607  0.00  0.00    -0.062 C 
ATOM     68  H   LIG d   1       3.529  -4.014 -12.703  0.00  0.00     0.023 H 
ATOM     69  H   LIG d   1       3.884  -2.490 -13.551  0.00  0.00     0.023 H 
ATOM     70  H   LIG d   1       5.035  -3.132 -12.355  0.00  0.00     0.023 H 
ENDBRANCH  40  67
ENDBRANCH   1  40
BRANCH   7  71
ATOM     71  C   LIG d   1       3.642  -3.304  -9.005  0.00  0.00    -0.059 C 
ATOM     72  H   LIG d   1       2.562  -3.266  -8.860  0.00  0.00     0.024 H 
ATOM     73  H   LIG d   1       3.868  -3.891  -9.895  0.00  0.00     0.024 H 
ATOM     74  H   LIG d   1       4.108  -3.769  -8.135  0.00  0.00     0.024 H 
ENDBRANCH   7  71
BRANCH  17  75
ATOM     75  C   LIG d   1       4.692  -2.008  -4.543  0.00  0.00    -0.056 C 
ATOM     76  H   LIG d   1       3.682  -2.280  -4.236  0.00  0.00     0.024 H 
ATOM     77  H   LIG d   1       5.020  -2.669  -5.344  0.00  0.00     0.024 H 
ATOM     78  H   LIG d   1       5.368  -2.103  -3.693  0.00  0.00     0.024 H 
ENDBRANCH  17  75
BRANCH  20  79
ATOM     79  O   LIG d   1       4.872   1.090  -1.096  0.00  0.00    -0.392 OA
ATOM     80  H   LIG d   1       5.742   1.332  -0.750  0.00  0.00     0.210 HD
ENDBRANCH  20  79
TORSDOF 13
ENDMDL
MODEL 10
REMARK VINA RESULT:      -4.6      8.850     11.248
REMARK  13 active torsions:
REMARK  status: ('A' for Active; 'I' for Inactive)
REMARK    1  A    between atoms: C_1  and  C_2 
REMARK    2  A    between atoms: C_2  and  C_3 
REMARK    3  A    between atoms: C_3  and  C_5 
REMARK    4  A    between atoms: C_3  and  C_35 
REMARK    5  A    between atoms: C_5  and  C_6 
REMARK    6  A    between atoms: C_6  and  C_7 
REMARK    7  A    between atoms: C_7  and  C_9 
REMARK    8  A    between atoms: C_7  and  C_10 
REMARK    9  A    between atoms: C_16  and  C_34 
REMARK   10  A    between atoms: C_26  and  C_33 
REMARK   11  A    between atoms: C_29  and  O_32 
REMARK   12  A    between atoms: C_35  and  C_36 
REMARK   13  A    between atoms: C_35  and  C_37 
ROOT
ATOM      1  C   LIG d   1      13.541   7.886  -3.778  0.00  0.00    -0.033 C 
ATOM      2  H   LIG d   1      14.222   8.723  -3.936  0.00  0.00     0.031 H 
ATOM      3  C   LIG d   1      14.175   6.582  -4.299  0.00  0.00    -0.049 C 
ATOM      4  C   LIG d   1      13.219   6.027  -5.380  0.00  0.00    -0.049 C 
ATOM      5  C   LIG d   1      11.863   6.666  -5.021  0.00  0.00    -0.032 C 
ATOM      6  H   LIG d   1      11.439   6.142  -4.165  0.00  0.00     0.031 H 
ATOM      7  C   LIG d   1      12.241   8.096  -4.597  0.00  0.00    -0.026 C 
ATOM      8  C   LIG d   1      12.624   8.933  -5.822  0.00  0.00    -0.047 C 
ATOM      9  C   LIG d   1      11.504   8.907  -6.858  0.00  0.00    -0.049 C 
ATOM     10  C   LIG d   1      11.311   7.465  -7.343  0.00  0.00    -0.029 C 
ATOM     11  H   LIG d   1      12.255   7.085  -7.734  0.00  0.00     0.031 H 
ATOM     12  C   LIG d   1      10.872   6.610  -6.158  0.00  0.00    -0.031 C 
ATOM     13  H   LIG d   1       9.903   6.963  -5.807  0.00  0.00     0.031 H 
ATOM     14  C   LIG d   1      10.701   5.167  -6.618  0.00  0.00    -0.031 C 
ATOM     15  C   LIG d   1       9.763   5.116  -7.790  0.00  0.00    -0.084 C 
ATOM     16  C   LIG d   1       9.578   6.122  -8.592  0.00  0.00    -0.065 C 
ATOM     17  C   LIG d   1      10.266   7.447  -8.446  0.00  0.00    -0.008 C 
ATOM     18  C   LIG d   1      10.917   7.831  -9.777  0.00  0.00    -0.041 C 
ATOM     19  C   LIG d   1       9.863   7.794 -10.886  0.00  0.00    -0.026 C 
ATOM     20  C   LIG d   1       9.326   6.370 -11.041  0.00  0.00     0.059 C 
ATOM     21  H   LIG d   1      10.154   5.688 -11.236  0.00  0.00     0.060 H 
ATOM     22  C   LIG d   1       8.611   5.950  -9.753  0.00  0.00    -0.005 C 
ATOM     23  H   LIG d   1      15.151   6.790  -4.735  0.00  0.00     0.027 H 
ATOM     24  H   LIG d   1      14.276   5.865  -3.484  0.00  0.00     0.027 H 
ATOM     25  H   LIG d   1      13.540   6.341  -6.373  0.00  0.00     0.027 H 
ATOM     26  H   LIG d   1      13.161   4.940  -5.320  0.00  0.00     0.027 H 
ATOM     27  H   LIG d   1      13.534   8.528  -6.264  0.00  0.00     0.027 H 
ATOM     28  H   LIG d   1      12.802   9.962  -5.509  0.00  0.00     0.027 H 
ATOM     29  H   LIG d   1      11.772   9.544  -7.700  0.00  0.00     0.027 H 
ATOM     30  H   LIG d   1      10.579   9.267  -6.405  0.00  0.00     0.027 H 
ATOM     31  H   LIG d   1      10.301   4.560  -5.806  0.00  0.00     0.031 H 
ATOM     32  H   LIG d   1      11.676   4.783  -6.915  0.00  0.00     0.031 H 
ATOM     33  H   LIG d   1       9.216   4.203  -7.971  0.00  0.00     0.057 H 
ATOM     34  H   LIG d   1      11.332   8.836  -9.702  0.00  0.00     0.027 H 
ATOM     35  H   LIG d   1      11.714   7.124 -10.009  0.00  0.00     0.027 H 
ATOM     36  H   LIG d   1       9.043   8.465 -10.629  0.00  0.00     0.029 H 
ATOM     37  H   LIG d   1      10.314   8.115 -11.825  0.00  0.00     0.029 H 
ATOM     38  H   LIG d   1       8.308   4.905  -9.825  0.00  0.00     0.034 H 
ATOM     39  H   LIG d   1       7.735   6.577  -9.597  0.00  0.00     0.034 H 
ENDROOT
BRANCH   1  40
ATOM     40  C   LIG d   1      13.210   7.752  -2.291  0.00  0.00    -0.041 C 
ATOM     41  H   LIG d   1      12.130   7.679  -2.164  0.00  0.00     0.030 H 
BRANCH  40  42
ATOM     42  C   LIG d   1      13.875   6.492  -1.732  0.00  0.00    -0.050 C 
ATOM     43  H   LIG d   1      14.188   5.851  -2.556  0.00  0.00     0.027 H 
ATOM     44  H   LIG d   1      14.746   6.774  -1.139  0.00  0.00     0.027 H 
BRANCH  42  45
ATOM     45  C   LIG d   1      12.879   5.738  -0.849  0.00  0.00    -0.050 C 
ATOM     46  H   LIG d   1      13.181   4.693  -0.770  0.00  0.00     0.027 H 
ATOM     47  H   LIG d   1      12.861   6.187   0.144  0.00  0.00     0.027 H 
BRANCH  45  48
ATOM     48  C   LIG d   1      11.484   5.818  -1.471  0.00  0.00    -0.039 C 
ATOM     49  H   LIG d   1      11.478   6.574  -2.256  0.00  0.00     0.030 H 
BRANCH  48  50
ATOM     50  C   LIG d   1      11.111   4.460  -2.067  0.00  0.00    -0.053 C 
ATOM     51  H   LIG d   1      11.929   4.100  -2.691  0.00  0.00     0.026 H 
ATOM     52  H   LIG d   1      10.927   3.748  -1.263  0.00  0.00     0.026 H 
BRANCH  50  53
ATOM     53  C   LIG d   1       9.847   4.605  -2.917  0.00  0.00    -0.065 C 
ATOM     54  H   LIG d   1       9.063   3.965  -2.515  0.00  0.00     0.023 H 
ATOM     55  H   LIG d   1       9.515   5.643  -2.898  0.00  0.00     0.023 H 
ATOM     56  H   LIG d   1      10.064   4.313  -3.944  0.00  0.00     0.023 H 
ENDBRANCH  50  53
ENDBRANCH  48  50
BRANCH  48  57
ATOM     57  C   LIG d   1      10.466   6.198  -0.391  0.00  0.00    -0.044 C 
ATOM     58  H   LIG d   1       9.607   5.530  -0.452  0.00  0.00     0.030 H 
BRANCH  57  59
ATOM     59  C   LIG d   1      11.115   6.069   0.988  0.00  0.00    -0.062 C 
ATOM     60  H   LIG d   1      10.405   5.620   1.683  0.00  0.00     0.023 H 
ATOM     61  H   LIG d   1      12.000   5.436   0.915  0.00  0.00     0.023 H 
ATOM     62  H   LIG d   1      11.403   7.056   1.350  0.00  0.00     0.023 H 
ENDBRANCH  57  59
BRANCH  57  63
ATOM     63  C   LIG d   1      10.008   7.641  -0.607  0.00  0.00    -0.062 C 
ATOM     64  H   LIG d   1      10.621   8.106  -1.380  0.00  0.00     0.023 H 
ATOM     65  H   LIG d   1       8.963   7.648  -0.916  0.00  0.00     0.023 H 
ATOM     66  H   LIG d   1      10.115   8.199   0.324  0.00  0.00     0.023 H 
ENDBRANCH  57  63
ENDBRANCH  48  57
ENDBRANCH  45  48
ENDBRANCH  42  45
ENDBRANCH  40  42
BRANCH  40  67
ATOM     67  C   LIG d   1      13.730   8.979  -1.539  0.00  0.00    -0.062 C 
ATOM     68  H   LIG d   1      12.967   9.332  -0.847  0.00  0.00     0.023 H 
ATOM     69  H   LIG d   1      14.629   8.711  -0.984  0.00  0.00     0.023 H 
ATOM     70  H   LIG d   1      13.966   9.768  -2.253  0.00  0.00     0.023 H 
ENDBRANCH  40  67
ENDBRANCH   1  40
BRANCH   7  71
ATOM     71  C   LIG d   1      11.142   8.767  -3.771  0.00  0.00    -0.059 C 
ATOM     72  H   LIG d   1      11.578   9.555  -3.158  0.00  0.00     0.024 H 
ATOM     73  H   LIG d   1      10.396   9.197  -4.439  0.00  0.00     0.024 H 
ATOM     74  H   LIG d   1      10.669   8.025  -3.126  0.00  0.00     0.024 H 
ENDBRANCH   7  71
BRANCH  17  75
ATOM     75  C   LIG d   1       9.205   8.499  -8.115  0.00  0.00    -0.056 C 
ATOM     76  H   LIG d   1       9.670   9.326  -7.577  0.00  0.00     0.024 H 
ATOM     77  H   LIG d   1       8.762   8.870  -9.038  0.00  0.00     0.024 H 
ATOM     78  H   LIG d   1       8.431   8.051  -7.493  0.00  0.00     0.024 H 
ENDBRANCH  17  75
BRANCH  20  79
ATOM     79  O   LIG d   1       8.405   6.325 -12.132  0.00  0.00    -0.392 OA
ATOM     80  H   LIG d   1       7.735   7.023 -12.111  0.00  0.00     0.210 HD
ENDBRANCH  20  79
TORSDOF 13
ENDMDL
