MODEL 1
REMARK VINA RESULT:      -6.1      0.000      0.000
REMARK  10 active torsions:
REMARK  status: ('A' for Active; 'I' for Inactive)
REMARK    1  A    between atoms: CB_1  and  CA_2 
REMARK       I    between atoms: CA_2  and  C_4 
REMARK       I    between atoms: CA_2  and  N_6 
REMARK    2  A    between atoms: C_4  and  O_5 
REMARK       I    between atoms: N_6  and  C_7 
REMARK    3  A    between atoms: C_7  and  C_9 
REMARK    4  A    between atoms: C_9  and  O_10 
REMARK    5  A    between atoms: O_10  and  C_11 
REMARK    6  A    between atoms: C_19  and  C_22 
REMARK    7  A    between atoms: C_25  and  O_30 
REMARK    8  A    between atoms: C_26  and  O_28 
REMARK    9  A    between atoms: O_28  and  C_29 
REMARK   10  A    between atoms: O_30  and  C_31 
ROOT
ATOM      1  C   UNK d   0       7.048  -8.853  -6.255  0.00  0.00     0.125 A 
ATOM      2  C   UNK d   0       5.671  -8.865  -6.467  0.00  0.00    -0.019 A 
ATOM      3  C   UNK d   0       4.929  -7.743  -6.236  0.00  0.00    -0.044 A 
ATOM      4  C   UNK d   0       5.554  -6.580  -5.784  0.00  0.00     0.065 A 
ATOM      5  C   UNK d   0       6.943  -6.557  -5.567  0.00  0.00     0.142 A 
ATOM      6  C   UNK d   0       7.683  -7.709  -5.802  0.00  0.00     0.023 A 
ATOM      7  O   UNK d   0       7.545  -5.433  -5.131  0.00  0.00    -0.462 OA
ATOM      8  C   UNK d   0       6.886  -4.298  -4.882  0.00  0.00     0.104 A 
ATOM      9  C   UNK d   0       5.544  -4.180  -5.049  0.00  0.00     0.064 A 
ATOM     10  C   UNK d   0       4.784  -5.350  -5.524  0.00  0.00     0.200 A 
ATOM     11  O   UNK d   0       3.578  -5.303  -5.692  0.00  0.00    -0.286 OA
ATOM     12  H   UNK d   0       5.189  -9.767  -6.816  0.00  0.00     0.065 H 
ATOM     13  H   UNK d   0       3.862  -7.756  -6.402  0.00  0.00     0.063 H 
ATOM     14  H   UNK d   0       8.749  -7.711  -5.636  0.00  0.00     0.069 H 
ATOM     15  H   UNK d   0       7.442  -3.441  -4.535  0.00  0.00     0.104 H 
ENDROOT
BRANCH   1  16
ATOM     16  O   UNK d   0       7.775  -9.977  -6.488  0.00  0.00    -0.483 OA
BRANCH  16  17
ATOM     17  C   UNK d   0       7.467 -11.124  -5.694  0.00  0.00     0.165 C 
ATOM     18  H   UNK d   0       7.885 -12.015  -6.163  0.00  0.00     0.080 H 
ATOM     19  H   UNK d   0       6.386 -11.230  -5.611  0.00  0.00     0.080 H 
BRANCH  17  20
ATOM     20  C   UNK d   0       8.062 -10.956  -4.319  0.00  0.00     0.251 C 
ATOM     21  N   ALA d   1       7.273 -11.034  -3.229  0.00  0.00    -0.308 N 
ATOM     22  CA  ALA d   1       7.850 -10.870  -1.894  0.00  0.00     0.043 C 
ATOM     23  H   ALA d   1       6.321 -11.195  -3.330  0.00  0.00     0.149 HD
ATOM     24  HA  ALA d   1       8.852 -11.300  -1.875  0.00  0.00     0.052 H 
ATOM     25  C   ALA d   1       6.972 -11.586  -0.866  0.00  0.00     0.062 C 
ATOM     26  H1  ALA d   1       6.844 -12.628  -1.159  0.00  0.00     0.058 H 
ATOM     27  H2  ALA d   1       7.446 -11.540   0.114  0.00  0.00     0.058 H 
ATOM     28  O   UNK d   0       9.250 -10.750  -4.194  0.00  0.00    -0.272 OA
BRANCH  22  29
ATOM     29  CB  ALA d   1       7.927  -9.381  -1.550  0.00  0.00    -0.044 C 
ATOM     30  HB1 ALA d   1       8.966  -9.051  -1.596  0.00  0.00     0.025 H 
ATOM     31  HB2 ALA d   1       7.333  -8.812  -2.265  0.00  0.00     0.025 H 
ATOM     32  HB3 ALA d   1       7.538  -9.220  -0.546  0.00  0.00     0.025 H 
ENDBRANCH  22  29
BRANCH  25  33
ATOM     33  O   ALA d   1       5.693 -10.949  -0.807  0.00  0.00    -0.393 OA
ATOM     34  H   ALA d   1       5.719 -10.047  -0.461  0.00  0.00     0.209 HD
ENDBRANCH  25  33
ENDBRANCH  17  20
ENDBRANCH  16  17
ENDBRANCH   1  16
BRANCH   9  35
ATOM     35  C   UNK d   0       4.855  -2.899  -4.759  0.00  0.00    -0.008 A 
ATOM     36  C   UNK d   0       4.749  -1.924  -5.749  0.00  0.00    -0.008 A 
ATOM     37  C   UNK d   0       4.102  -0.732  -5.477  0.00  0.00     0.162 A 
ATOM     38  H   UNK d   0       5.168  -2.101  -6.729  0.00  0.00     0.066 H 
ATOM     39  C   UNK d   0       3.568  -0.504  -4.211  0.00  0.00     0.162 A 
ATOM     40  C   UNK d   0       3.680  -1.472  -3.224  0.00  0.00    -0.016 A 
ATOM     41  C   UNK d   0       4.319  -2.665  -3.494  0.00  0.00    -0.050 A 
ATOM     42  H   UNK d   0       3.264  -1.292  -2.243  0.00  0.00     0.066 H 
ATOM     43  H   UNK d   0       4.405  -3.417  -2.723  0.00  0.00     0.062 H 
BRANCH  37  44
ATOM     44  O   UNK d   0       3.991   0.218  -6.442  0.00  0.00    -0.491 OA
BRANCH  44  45
ATOM     45  C   UNK d   0       3.011  -0.002  -7.460  0.00  0.00     0.079 C 
ATOM     46  H   UNK d   0       2.028   0.280  -7.084  0.00  0.00     0.066 H 
ATOM     47  H   UNK d   0       3.253   0.602  -8.334  0.00  0.00     0.066 H 
ATOM     48  H   UNK d   0       3.006  -1.057  -7.737  0.00  0.00     0.066 H 
ENDBRANCH  44  45
ENDBRANCH  37  44
BRANCH  39  49
ATOM     49  O   UNK d   0       2.937   0.671  -3.942  0.00  0.00    -0.491 OA
BRANCH  49  50
ATOM     50  C   UNK d   0       3.568   1.545  -3.004  0.00  0.00     0.079 C 
ATOM     51  H   UNK d   0       4.646   1.533  -3.165  0.00  0.00     0.066 H 
ATOM     52  H   UNK d   0       3.191   2.559  -3.142  0.00  0.00     0.066 H 
ATOM     53  H   UNK d   0       3.348   1.211  -1.990  0.00  0.00     0.066 H 
ENDBRANCH  49  50
ENDBRANCH  39  49
ENDBRANCH   9  35
TORSDOF 12
ENDMDL
MODEL 2
REMARK VINA RESULT:      -6.1      6.531      8.423
REMARK  10 active torsions:
REMARK  status: ('A' for Active; 'I' for Inactive)
REMARK    1  A    between atoms: CB_1  and  CA_2 
REMARK       I    between atoms: CA_2  and  C_4 
REMARK       I    between atoms: CA_2  and  N_6 
REMARK    2  A    between atoms: C_4  and  O_5 
REMARK       I    between atoms: N_6  and  C_7 
REMARK    3  A    between atoms: C_7  and  C_9 
REMARK    4  A    between atoms: C_9  and  O_10 
REMARK    5  A    between atoms: O_10  and  C_11 
REMARK    6  A    between atoms: C_19  and  C_22 
REMARK    7  A    between atoms: C_25  and  O_30 
REMARK    8  A    between atoms: C_26  and  O_28 
REMARK    9  A    between atoms: O_28  and  C_29 
REMARK   10  A    between atoms: O_30  and  C_31 
ROOT
ATOM      1  C   UNK d   0       1.433  -2.308 -10.583  0.00  0.00     0.125 A 
ATOM      2  C   UNK d   0       1.269  -0.930 -10.459  0.00  0.00    -0.019 A 
ATOM      3  C   UNK d   0       2.026  -0.224  -9.570  0.00  0.00    -0.044 A 
ATOM      4  C   UNK d   0       2.967  -0.887  -8.781  0.00  0.00     0.065 A 
ATOM      5  C   UNK d   0       3.141  -2.277  -8.899  0.00  0.00     0.142 A 
ATOM      6  C   UNK d   0       2.359  -2.982  -9.805  0.00  0.00     0.023 A 
ATOM      7  O   UNK d   0       4.050  -2.915  -8.136  0.00  0.00    -0.462 OA
ATOM      8  C   UNK d   0       4.826  -2.293  -7.244  0.00  0.00     0.104 A 
ATOM      9  C   UNK d   0       4.763  -0.954  -7.029  0.00  0.00     0.064 A 
ATOM     10  C   UNK d   0       3.802  -0.156  -7.811  0.00  0.00     0.200 A 
ATOM     11  O   UNK d   0       3.701   1.049  -7.660  0.00  0.00    -0.286 OA
ATOM     12  H   UNK d   0       0.539  -0.419 -11.070  0.00  0.00     0.065 H 
ATOM     13  H   UNK d   0       1.896   0.845  -9.476  0.00  0.00     0.063 H 
ATOM     14  H   UNK d   0       2.475  -4.050  -9.904  0.00  0.00     0.069 H 
ATOM     15  H   UNK d   0       5.531  -2.877  -6.673  0.00  0.00     0.104 H 
ENDROOT
BRANCH   1  16
ATOM     16  O   UNK d   0       0.673  -2.999 -11.472  0.00  0.00    -0.483 OA
BRANCH  16  17
ATOM     17  C   UNK d   0       1.201  -4.237 -11.952  0.00  0.00     0.165 C 
ATOM     18  H   UNK d   0       2.078  -4.510 -11.364  0.00  0.00     0.080 H 
ATOM     19  H   UNK d   0       1.484  -4.130 -12.999  0.00  0.00     0.080 H 
BRANCH  17  20
ATOM     20  C   UNK d   0       0.154  -5.313 -11.821  0.00  0.00     0.251 C 
ATOM     21  N   ALA d   1      -0.404  -5.569 -10.621  0.00  0.00    -0.308 N 
ATOM     22  CA  ALA d   1      -1.421  -6.614 -10.494  0.00  0.00     0.043 C 
ATOM     23  H   ALA d   1      -0.129  -5.061  -9.841  0.00  0.00     0.149 HD
ATOM     24  HA  ALA d   1      -2.031  -6.641 -11.398  0.00  0.00     0.052 H 
ATOM     25  C   ALA d   1      -2.313  -6.315  -9.288  0.00  0.00     0.062 C 
ATOM     26  H1  ALA d   1      -2.730  -5.313  -9.383  0.00  0.00     0.058 H 
ATOM     27  H2  ALA d   1      -3.122  -7.043  -9.244  0.00  0.00     0.058 H 
ATOM     28  O   UNK d   0      -0.186  -5.950 -12.796  0.00  0.00    -0.272 OA
BRANCH  22  29
ATOM     29  CB  ALA d   1      -0.738  -7.970 -10.300  0.00  0.00    -0.044 C 
ATOM     30  HB1 ALA d   1       0.014  -8.112 -11.077  0.00  0.00     0.025 H 
ATOM     31  HB2 ALA d   1      -0.259  -7.998  -9.321  0.00  0.00     0.025 H 
ATOM     32  HB3 ALA d   1      -1.481  -8.763 -10.363  0.00  0.00     0.025 H 
ENDBRANCH  22  29
BRANCH  25  33
ATOM     33  O   ALA d   1      -1.536  -6.395  -8.090  0.00  0.00    -0.393 OA
ATOM     34  H   ALA d   1      -1.108  -5.564  -7.843  0.00  0.00     0.209 HD
ENDBRANCH  25  33
ENDBRANCH  17  20
ENDBRANCH  16  17
ENDBRANCH   1  16
BRANCH   9  35
ATOM     35  C   UNK d   0       5.644  -0.307  -6.026  0.00  0.00    -0.008 A 
ATOM     36  C   UNK d   0       5.249  -0.237  -4.692  0.00  0.00    -0.008 A 
ATOM     37  C   UNK d   0       6.076   0.363  -3.759  0.00  0.00     0.162 A 
ATOM     38  H   UNK d   0       4.301  -0.654  -4.385  0.00  0.00     0.066 H 
ATOM     39  C   UNK d   0       7.295   0.905  -4.157  0.00  0.00     0.162 A 
ATOM     40  C   UNK d   0       7.684   0.841  -5.486  0.00  0.00    -0.016 A 
ATOM     41  C   UNK d   0       6.866   0.238  -6.419  0.00  0.00    -0.050 A 
ATOM     42  H   UNK d   0       8.631   1.263  -5.792  0.00  0.00     0.066 H 
ATOM     43  H   UNK d   0       7.171   0.189  -7.454  0.00  0.00     0.062 H 
BRANCH  37  44
ATOM     44  O   UNK d   0       5.697   0.427  -2.455  0.00  0.00    -0.491 OA
BRANCH  44  45
ATOM     45  C   UNK d   0       4.476   1.113  -2.168  0.00  0.00     0.079 C 
ATOM     46  H   UNK d   0       4.009   1.429  -3.100  0.00  0.00     0.066 H 
ATOM     47  H   UNK d   0       3.802   0.446  -1.632  0.00  0.00     0.066 H 
ATOM     48  H   UNK d   0       4.686   1.988  -1.552  0.00  0.00     0.066 H 
ENDBRANCH  44  45
ENDBRANCH  37  44
BRANCH  39  49
ATOM     49  O   UNK d   0       8.105   1.501  -3.240  0.00  0.00    -0.491 OA
BRANCH  49  50
ATOM     50  C   UNK d   0       8.971   2.533  -3.714  0.00  0.00     0.079 C 
ATOM     51  H   UNK d   0       9.676   2.115  -4.432  0.00  0.00     0.066 H 
ATOM     52  H   UNK d   0       8.380   3.312  -4.196  0.00  0.00     0.066 H 
ATOM     53  H   UNK d   0       9.520   2.961  -2.874  0.00  0.00     0.066 H 
ENDBRANCH  49  50
ENDBRANCH  39  49
ENDBRANCH   9  35
TORSDOF 12
ENDMDL
MODEL 3
REMARK VINA RESULT:      -5.9      7.213     12.351
REMARK  10 active torsions:
REMARK  status: ('A' for Active; 'I' for Inactive)
REMARK    1  A    between atoms: CB_1  and  CA_2 
REMARK       I    between atoms: CA_2  and  C_4 
REMARK       I    between atoms: CA_2  and  N_6 
REMARK    2  A    between atoms: C_4  and  O_5 
REMARK       I    between atoms: N_6  and  C_7 
REMARK    3  A    between atoms: C_7  and  C_9 
REMARK    4  A    between atoms: C_9  and  O_10 
REMARK    5  A    between atoms: O_10  and  C_11 
REMARK    6  A    between atoms: C_19  and  C_22 
REMARK    7  A    between atoms: C_25  and  O_30 
REMARK    8  A    between atoms: C_26  and  O_28 
REMARK    9  A    between atoms: O_28  and  C_29 
REMARK   10  A    between atoms: O_30  and  C_31 
ROOT
ATOM      1  C   UNK d   0       9.974   4.725  -5.599  0.00  0.00     0.125 A 
ATOM      2  C   UNK d   0       9.818   4.126  -6.848  0.00  0.00    -0.019 A 
ATOM      3  C   UNK d   0       9.141   2.946  -6.966  0.00  0.00    -0.044 A 
ATOM      4  C   UNK d   0       8.605   2.339  -5.830  0.00  0.00     0.065 A 
ATOM      5  C   UNK d   0       8.757   2.934  -4.566  0.00  0.00     0.142 A 
ATOM      6  C   UNK d   0       9.452   4.132  -4.462  0.00  0.00     0.023 A 
ATOM      7  O   UNK d   0       8.239   2.345  -3.470  0.00  0.00    -0.462 OA
ATOM      8  C   UNK d   0       7.566   1.192  -3.506  0.00  0.00     0.104 A 
ATOM      9  C   UNK d   0       7.346   0.510  -4.660  0.00  0.00     0.064 A 
ATOM     10  C   UNK d   0       7.869   1.065  -5.921  0.00  0.00     0.200 A 
ATOM     11  O   UNK d   0       7.702   0.497  -6.986  0.00  0.00    -0.286 OA
ATOM     12  H   UNK d   0      10.234   4.598  -7.726  0.00  0.00     0.065 H 
ATOM     13  H   UNK d   0       9.022   2.485  -7.936  0.00  0.00     0.063 H 
ATOM     14  H   UNK d   0       9.583   4.600  -3.499  0.00  0.00     0.069 H 
ATOM     15  H   UNK d   0       7.182   0.786  -2.583  0.00  0.00     0.104 H 
ENDROOT
BRANCH   1  16
ATOM     16  O   UNK d   0      10.650   5.899  -5.496  0.00  0.00    -0.483 OA
BRANCH  16  17
ATOM     17  C   UNK d   0       9.886   7.058  -5.154  0.00  0.00     0.165 C 
ATOM     18  H   UNK d   0       8.836   6.785  -5.054  0.00  0.00     0.080 H 
ATOM     19  H   UNK d   0       9.995   7.808  -5.936  0.00  0.00     0.080 H 
BRANCH  17  20
ATOM     20  C   UNK d   0      10.385   7.618  -3.846  0.00  0.00     0.251 C 
ATOM     21  N   ALA d   1       9.575   8.384  -3.089  0.00  0.00    -0.308 N 
ATOM     22  CA  ALA d   1      10.059   8.929  -1.819  0.00  0.00     0.043 C 
ATOM     23  H   ALA d   1       8.672   8.577  -3.387  0.00  0.00     0.149 HD
ATOM     24  HA  ALA d   1      10.731   8.211  -1.348  0.00  0.00     0.052 H 
ATOM     25  C   ALA d   1       8.871   9.196  -0.892  0.00  0.00     0.062 C 
ATOM     26  H1  ALA d   1       8.286   8.285  -0.778  0.00  0.00     0.058 H 
ATOM     27  H2  ALA d   1       9.236   9.518   0.083  0.00  0.00     0.058 H 
ATOM     28  O   UNK d   0      11.515   7.381  -3.476  0.00  0.00    -0.272 OA
BRANCH  22  29
ATOM     29  CB  ALA d   1      10.809  10.237  -2.078  0.00  0.00    -0.044 C 
ATOM     30  HB1 ALA d   1      10.210  11.076  -1.722  0.00  0.00     0.025 H 
ATOM     31  HB2 ALA d   1      11.762  10.220  -1.548  0.00  0.00     0.025 H 
ATOM     32  HB3 ALA d   1      10.989  10.347  -3.146  0.00  0.00     0.025 H 
ENDBRANCH  22  29
BRANCH  25  33
ATOM     33  O   ALA d   1       8.050  10.222  -1.455  0.00  0.00    -0.393 OA
ATOM     34  H   ALA d   1       8.518  10.814  -2.059  0.00  0.00     0.209 HD
ENDBRANCH  25  33
ENDBRANCH  17  20
ENDBRANCH  16  17
ENDBRANCH   1  16
BRANCH   9  35
ATOM     35  C   UNK d   0       6.594  -0.769  -4.651  0.00  0.00    -0.008 A 
ATOM     36  C   UNK d   0       5.317  -0.823  -4.095  0.00  0.00    -0.008 A 
ATOM     37  C   UNK d   0       4.616  -2.015  -4.093  0.00  0.00     0.162 A 
ATOM     38  H   UNK d   0       4.873   0.066  -3.671  0.00  0.00     0.066 H 
ATOM     39  C   UNK d   0       5.192  -3.161  -4.635  0.00  0.00     0.162 A 
ATOM     40  C   UNK d   0       6.465  -3.108  -5.182  0.00  0.00    -0.016 A 
ATOM     41  C   UNK d   0       7.166  -1.919  -5.192  0.00  0.00    -0.050 A 
ATOM     42  H   UNK d   0       6.909  -3.999  -5.601  0.00  0.00     0.066 H 
ATOM     43  H   UNK d   0       8.157  -1.880  -5.618  0.00  0.00     0.062 H 
BRANCH  37  44
ATOM     44  O   UNK d   0       3.368  -2.070  -3.558  0.00  0.00    -0.491 OA
BRANCH  44  45
ATOM     45  C   UNK d   0       2.776  -0.830  -3.164  0.00  0.00     0.079 C 
ATOM     46  H   UNK d   0       1.954  -0.589  -3.839  0.00  0.00     0.066 H 
ATOM     47  H   UNK d   0       2.397  -0.915  -2.146  0.00  0.00     0.066 H 
ATOM     48  H   UNK d   0       3.525  -0.039  -3.208  0.00  0.00     0.066 H 
ENDBRANCH  44  45
ENDBRANCH  37  44
BRANCH  39  49
ATOM     49  O   UNK d   0       4.505  -4.335  -4.627  0.00  0.00    -0.491 OA
BRANCH  49  50
ATOM     50  C   UNK d   0       4.576  -5.136  -5.808  0.00  0.00     0.079 C 
ATOM     51  H   UNK d   0       3.929  -6.006  -5.696  0.00  0.00     0.066 H 
ATOM     52  H   UNK d   0       4.249  -4.549  -6.666  0.00  0.00     0.066 H 
ATOM     53  H   UNK d   0       5.604  -5.465  -5.963  0.00  0.00     0.066 H 
ENDBRANCH  49  50
ENDBRANCH  39  49
ENDBRANCH   9  35
TORSDOF 12
ENDMDL
MODEL 4
REMARK VINA RESULT:      -5.7      8.561     12.263
REMARK  10 active torsions:
REMARK  status: ('A' for Active; 'I' for Inactive)
REMARK    1  A    between atoms: CB_1  and  CA_2 
REMARK       I    between atoms: CA_2  and  C_4 
REMARK       I    between atoms: CA_2  and  N_6 
REMARK    2  A    between atoms: C_4  and  O_5 
REMARK       I    between atoms: N_6  and  C_7 
REMARK    3  A    between atoms: C_7  and  C_9 
REMARK    4  A    between atoms: C_9  and  O_10 
REMARK    5  A    between atoms: O_10  and  C_11 
REMARK    6  A    between atoms: C_19  and  C_22 
REMARK    7  A    between atoms: C_25  and  O_30 
REMARK    8  A    between atoms: C_26  and  O_28 
REMARK    9  A    between atoms: O_28  and  C_29 
REMARK   10  A    between atoms: O_30  and  C_31 
ROOT
ATOM      1  C   UNK d   0       9.353   1.917  -4.665  0.00  0.00     0.125 A 
ATOM      2  C   UNK d   0       8.924   2.873  -5.583  0.00  0.00    -0.019 A 
ATOM      3  C   UNK d   0       9.009   4.202  -5.283  0.00  0.00    -0.044 A 
ATOM      4  C   UNK d   0       9.527   4.602  -4.051  0.00  0.00     0.065 A 
ATOM      5  C   UNK d   0       9.963   3.646  -3.118  0.00  0.00     0.142 A 
ATOM      6  C   UNK d   0       9.866   2.298  -3.436  0.00  0.00     0.023 A 
ATOM      7  O   UNK d   0      10.463   4.035  -1.928  0.00  0.00    -0.462 OA
ATOM      8  C   UNK d   0      10.576   5.315  -1.563  0.00  0.00     0.104 A 
ATOM      9  C   UNK d   0      10.193   6.340  -2.367  0.00  0.00     0.064 A 
ATOM     10  C   UNK d   0       9.633   6.029  -3.694  0.00  0.00     0.200 A 
ATOM     11  O   UNK d   0       9.273   6.908  -4.457  0.00  0.00    -0.286 OA
ATOM     12  H   UNK d   0       8.523   2.561  -6.536  0.00  0.00     0.065 H 
ATOM     13  H   UNK d   0       8.675   4.941  -5.997  0.00  0.00     0.063 H 
ATOM     14  H   UNK d   0      10.191   1.550  -2.729  0.00  0.00     0.069 H 
ATOM     15  H   UNK d   0      10.988   5.544  -0.592  0.00  0.00     0.104 H 
ENDROOT
BRANCH   1  16
ATOM     16  O   UNK d   0       9.264   0.597  -4.975  0.00  0.00    -0.483 OA
BRANCH  16  17
ATOM     17  C   UNK d   0       8.034   0.149  -5.550  0.00  0.00     0.165 C 
ATOM     18  H   UNK d   0       8.212  -0.757  -6.129  0.00  0.00     0.080 H 
ATOM     19  H   UNK d   0       7.634   0.925  -6.202  0.00  0.00     0.080 H 
BRANCH  17  20
ATOM     20  C   UNK d   0       7.045  -0.144  -4.451  0.00  0.00     0.251 C 
ATOM     21  N   ALA d   1       5.791   0.347  -4.524  0.00  0.00    -0.308 N 
ATOM     22  CA  ALA d   1       4.830   0.062  -3.457  0.00  0.00     0.043 C 
ATOM     23  H   ALA d   1       5.528   0.891  -5.283  0.00  0.00     0.149 HD
ATOM     24  HA  ALA d   1       5.003  -0.943  -3.070  0.00  0.00     0.052 H 
ATOM     25  C   ALA d   1       3.408   0.156  -4.013  0.00  0.00     0.062 C 
ATOM     26  H1  ALA d   1       3.309  -0.505  -4.874  0.00  0.00     0.058 H 
ATOM     27  H2  ALA d   1       2.696  -0.142  -3.243  0.00  0.00     0.058 H 
ATOM     28  O   UNK d   0       7.377  -0.821  -3.501  0.00  0.00    -0.272 OA
BRANCH  22  29
ATOM     29  CB  ALA d   1       5.005   1.081  -2.328  0.00  0.00    -0.044 C 
ATOM     30  HB1 ALA d   1       4.841   2.086  -2.718  0.00  0.00     0.025 H 
ATOM     31  HB2 ALA d   1       4.283   0.874  -1.538  0.00  0.00     0.025 H 
ATOM     32  HB3 ALA d   1       6.015   1.007  -1.926  0.00  0.00     0.025 H 
ENDBRANCH  22  29
BRANCH  25  33
ATOM     33  O   ALA d   1       3.141   1.502  -4.414  0.00  0.00    -0.393 OA
ATOM     34  H   ALA d   1       2.245   1.802  -4.212  0.00  0.00     0.209 HD
ENDBRANCH  25  33
ENDBRANCH  17  20
ENDBRANCH  16  17
ENDBRANCH   1  16
BRANCH   9  35
ATOM     35  C   UNK d   0      10.337   7.747  -1.919  0.00  0.00    -0.008 A 
ATOM     36  C   UNK d   0      11.477   8.474  -2.258  0.00  0.00    -0.008 A 
ATOM     37  C   UNK d   0      11.605   9.787  -1.843  0.00  0.00     0.162 A 
ATOM     38  H   UNK d   0      12.256   8.015  -2.848  0.00  0.00     0.066 H 
ATOM     39  C   UNK d   0      10.602  10.376  -1.077  0.00  0.00     0.162 A 
ATOM     40  C   UNK d   0       9.472   9.650  -0.734  0.00  0.00    -0.016 A 
ATOM     41  C   UNK d   0       9.336   8.341  -1.152  0.00  0.00    -0.050 A 
ATOM     42  H   UNK d   0       8.696  10.110  -0.140  0.00  0.00     0.066 H 
ATOM     43  H   UNK d   0       8.455   7.778  -0.884  0.00  0.00     0.062 H 
BRANCH  37  44
ATOM     44  O   UNK d   0      12.713  10.502  -2.177  0.00  0.00    -0.491 OA
BRANCH  44  45
ATOM     45  C   UNK d   0      13.903  10.240  -1.430  0.00  0.00     0.079 C 
ATOM     46  H   UNK d   0      14.628  11.034  -1.611  0.00  0.00     0.066 H 
ATOM     47  H   UNK d   0      13.665  10.201  -0.368  0.00  0.00     0.066 H 
ATOM     48  H   UNK d   0      14.325   9.284  -1.742  0.00  0.00     0.066 H 
ENDBRANCH  44  45
ENDBRANCH  37  44
BRANCH  39  49
ATOM     49  O   UNK d   0      10.733  11.666  -0.663  0.00  0.00    -0.491 OA
BRANCH  49  50
ATOM     50  C   UNK d   0      10.955  11.879   0.732  0.00  0.00     0.079 C 
ATOM     51  H   UNK d   0      10.431  11.115   1.305  0.00  0.00     0.066 H 
ATOM     52  H   UNK d   0      12.024  11.823   0.943  0.00  0.00     0.066 H 
ATOM     53  H   UNK d   0      10.582  12.864   1.013  0.00  0.00     0.066 H 
ENDBRANCH  49  50
ENDBRANCH  39  49
ENDBRANCH   9  35
TORSDOF 12
ENDMDL
MODEL 5
REMARK VINA RESULT:      -5.7      1.660      2.244
REMARK  10 active torsions:
REMARK  status: ('A' for Active; 'I' for Inactive)
REMARK    1  A    between atoms: CB_1  and  CA_2 
REMARK       I    between atoms: CA_2  and  C_4 
REMARK       I    between atoms: CA_2  and  N_6 
REMARK    2  A    between atoms: C_4  and  O_5 
REMARK       I    between atoms: N_6  and  C_7 
REMARK    3  A    between atoms: C_7  and  C_9 
REMARK    4  A    between atoms: C_9  and  O_10 
REMARK    5  A    between atoms: O_10  and  C_11 
REMARK    6  A    between atoms: C_19  and  C_22 
REMARK    7  A    between atoms: C_25  and  O_30 
REMARK    8  A    between atoms: C_26  and  O_28 
REMARK    9  A    between atoms: O_28  and  C_29 
REMARK   10  A    between atoms: O_30  and  C_31 
ROOT
ATOM      1  C   UNK d   0       7.691  -8.366  -5.884  0.00  0.00     0.125 A 
ATOM      2  C   UNK d   0       8.659  -7.472  -5.433  0.00  0.00    -0.019 A 
ATOM      3  C   UNK d   0       8.319  -6.186  -5.126  0.00  0.00    -0.044 A 
ATOM      4  C   UNK d   0       6.995  -5.768  -5.265  0.00  0.00     0.065 A 
ATOM      5  C   UNK d   0       6.010  -6.662  -5.719  0.00  0.00     0.142 A 
ATOM      6  C   UNK d   0       6.374  -7.965  -6.032  0.00  0.00     0.023 A 
ATOM      7  O   UNK d   0       4.732  -6.256  -5.853  0.00  0.00    -0.462 OA
ATOM      8  C   UNK d   0       4.324  -5.015  -5.573  0.00  0.00     0.104 A 
ATOM      9  C   UNK d   0       5.169  -4.051  -5.127  0.00  0.00     0.064 A 
ATOM     10  C   UNK d   0       6.592  -4.387  -4.942  0.00  0.00     0.200 A 
ATOM     11  O   UNK d   0       7.396  -3.562  -4.544  0.00  0.00    -0.286 OA
ATOM     12  H   UNK d   0       9.684  -7.797  -5.327  0.00  0.00     0.065 H 
ATOM     13  H   UNK d   0       9.072  -5.495  -4.776  0.00  0.00     0.063 H 
ATOM     14  H   UNK d   0       5.632  -8.664  -6.387  0.00  0.00     0.069 H 
ATOM     15  H   UNK d   0       3.281  -4.770  -5.707  0.00  0.00     0.104 H 
ENDROOT
BRANCH   1  16
ATOM     16  O   UNK d   0       8.043  -9.643  -6.187  0.00  0.00    -0.483 OA
BRANCH  16  17
ATOM     17  C   UNK d   0       6.986 -10.545  -6.521  0.00  0.00     0.165 C 
ATOM     18  H   UNK d   0       7.374 -11.340  -7.158  0.00  0.00     0.080 H 
ATOM     19  H   UNK d   0       6.201 -10.005  -7.050  0.00  0.00     0.080 H 
BRANCH  17  20
ATOM     20  C   UNK d   0       6.421 -11.144  -5.259  0.00  0.00     0.251 C 
ATOM     21  N   ALA d   1       5.288 -10.644  -4.724  0.00  0.00    -0.308 N 
ATOM     22  CA  ALA d   1       4.739 -11.226  -3.498  0.00  0.00     0.043 C 
ATOM     23  H   ALA d   1       4.840  -9.897  -5.150  0.00  0.00     0.149 HD
ATOM     24  HA  ALA d   1       4.918 -12.302  -3.493  0.00  0.00     0.052 H 
ATOM     25  C   ALA d   1       3.233 -10.962  -3.437  0.00  0.00     0.062 C 
ATOM     26  H1  ALA d   1       2.761 -11.336  -4.345  0.00  0.00     0.058 H 
ATOM     27  H2  ALA d   1       2.809 -11.469  -2.571  0.00  0.00     0.058 H 
ATOM     28  O   UNK d   0       6.984 -12.075  -4.724  0.00  0.00    -0.272 OA
BRANCH  22  29
ATOM     29  CB  ALA d   1       5.418 -10.591  -2.283  0.00  0.00    -0.044 C 
ATOM     30  HB1 ALA d   1       5.710  -9.568  -2.523  0.00  0.00     0.025 H 
ATOM     31  HB2 ALA d   1       4.725 -10.584  -1.442  0.00  0.00     0.025 H 
ATOM     32  HB3 ALA d   1       6.303 -11.169  -2.018  0.00  0.00     0.025 H 
ENDBRANCH  22  29
BRANCH  25  33
ATOM     33  O   ALA d   1       3.002  -9.555  -3.326  0.00  0.00    -0.393 OA
ATOM     34  H   ALA d   1       3.806  -9.021  -3.357  0.00  0.00     0.209 HD
ENDBRANCH  25  33
ENDBRANCH  17  20
ENDBRANCH  16  17
ENDBRANCH   1  16
BRANCH   9  35
ATOM     35  C   UNK d   0       4.669  -2.686  -4.829  0.00  0.00    -0.008 A 
ATOM     36  C   UNK d   0       4.580  -1.739  -5.848  0.00  0.00    -0.008 A 
ATOM     37  C   UNK d   0       4.108  -0.469  -5.569  0.00  0.00     0.162 A 
ATOM     38  H   UNK d   0       4.873  -1.998  -6.855  0.00  0.00     0.066 H 
ATOM     39  C   UNK d   0       3.737  -0.136  -4.269  0.00  0.00     0.162 A 
ATOM     40  C   UNK d   0       3.832  -1.077  -3.255  0.00  0.00    -0.016 A 
ATOM     41  C   UNK d   0       4.295  -2.347  -3.530  0.00  0.00    -0.050 A 
ATOM     42  H   UNK d   0       3.543  -0.815  -2.247  0.00  0.00     0.066 H 
ATOM     43  H   UNK d   0       4.369  -3.078  -2.739  0.00  0.00     0.062 H 
BRANCH  37  44
ATOM     44  O   UNK d   0       4.014   0.456  -6.561  0.00  0.00    -0.491 OA
BRANCH  44  45
ATOM     45  C   UNK d   0       2.901   0.340  -7.451  0.00  0.00     0.079 C 
ATOM     46  H   UNK d   0       3.257   0.348  -8.481  0.00  0.00     0.066 H 
ATOM     47  H   UNK d   0       2.375  -0.594  -7.255  0.00  0.00     0.066 H 
ATOM     48  H   UNK d   0       2.222   1.179  -7.295  0.00  0.00     0.066 H 
ENDBRANCH  44  45
ENDBRANCH  37  44
BRANCH  39  49
ATOM     49  O   UNK d   0       3.279   1.116  -3.993  0.00  0.00    -0.491 OA
BRANCH  49  50
ATOM     50  C   UNK d   0       3.543   1.629  -2.686  0.00  0.00     0.079 C 
ATOM     51  H   UNK d   0       4.345   1.053  -2.224  0.00  0.00     0.066 H 
ATOM     52  H   UNK d   0       3.843   2.675  -2.760  0.00  0.00     0.066 H 
ATOM     53  H   UNK d   0       2.643   1.552  -2.077  0.00  0.00     0.066 H 
ENDBRANCH  49  50
ENDBRANCH  39  49
ENDBRANCH   9  35
TORSDOF 12
ENDMDL
MODEL 6
REMARK VINA RESULT:      -5.6      8.842     12.602
REMARK  10 active torsions:
REMARK  status: ('A' for Active; 'I' for Inactive)
REMARK    1  A    between atoms: CB_1  and  CA_2 
REMARK       I    between atoms: CA_2  and  C_4 
REMARK       I    between atoms: CA_2  and  N_6 
REMARK    2  A    between atoms: C_4  and  O_5 
REMARK       I    between atoms: N_6  and  C_7 
REMARK    3  A    between atoms: C_7  and  C_9 
REMARK    4  A    between atoms: C_9  and  O_10 
REMARK    5  A    between atoms: O_10  and  C_11 
REMARK    6  A    between atoms: C_19  and  C_22 
REMARK    7  A    between atoms: C_25  and  O_30 
REMARK    8  A    between atoms: C_26  and  O_28 
REMARK    9  A    between atoms: O_28  and  C_29 
REMARK   10  A    between atoms: O_30  and  C_31 
ROOT
ATOM      1  C   UNK d   0       9.306   2.225  -4.363  0.00  0.00     0.125 A 
ATOM      2  C   UNK d   0       9.251   2.994  -5.523  0.00  0.00    -0.019 A 
ATOM      3  C   UNK d   0       9.556   4.325  -5.482  0.00  0.00    -0.044 A 
ATOM      4  C   UNK d   0       9.924   4.914  -4.272  0.00  0.00     0.065 A 
ATOM      5  C   UNK d   0       9.983   4.147  -3.096  0.00  0.00     0.142 A 
ATOM      6  C   UNK d   0       9.664   2.796  -3.153  0.00  0.00     0.023 A 
ATOM      7  O   UNK d   0      10.337   4.719  -1.928  0.00  0.00    -0.462 OA
ATOM      8  C   UNK d   0      10.648   6.012  -1.810  0.00  0.00     0.104 A 
ATOM      9  C   UNK d   0      10.632   6.867  -2.864  0.00  0.00     0.064 A 
ATOM     10  C   UNK d   0      10.259   6.347  -4.192  0.00  0.00     0.200 A 
ATOM     11  O   UNK d   0      10.228   7.068  -5.174  0.00  0.00    -0.286 OA
ATOM     12  H   UNK d   0       8.966   2.536  -6.458  0.00  0.00     0.065 H 
ATOM     13  H   UNK d   0       9.513   4.918  -6.384  0.00  0.00     0.063 H 
ATOM     14  H   UNK d   0       9.699   2.194  -2.259  0.00  0.00     0.069 H 
ATOM     15  H   UNK d   0      10.923   6.393  -0.838  0.00  0.00     0.104 H 
ENDROOT
BRANCH   1  16
ATOM     16  O   UNK d   0       9.000   0.903  -4.417  0.00  0.00    -0.483 OA
BRANCH  16  17
ATOM     17  C   UNK d   0       7.826   0.539  -5.146  0.00  0.00     0.165 C 
ATOM     18  H   UNK d   0       8.050  -0.306  -5.797  0.00  0.00     0.080 H 
ATOM     19  H   UNK d   0       7.496   1.385  -5.748  0.00  0.00     0.080 H 
BRANCH  17  20
ATOM     20  C   UNK d   0       6.736   0.152  -4.180  0.00  0.00     0.251 C 
ATOM     21  N   ALA d   1       5.463   0.529  -4.415  0.00  0.00    -0.308 N 
ATOM     22  CA  ALA d   1       4.404   0.154  -3.476  0.00  0.00     0.043 C 
ATOM     23  H   ALA d   1       5.250   1.052  -5.204  0.00  0.00     0.149 HD
ATOM     24  HA  ALA d   1       4.615  -0.834  -3.065  0.00  0.00     0.052 H 
ATOM     25  C   ALA d   1       3.060   0.122  -4.208  0.00  0.00     0.062 C 
ATOM     26  H1  ALA d   1       3.131  -0.540  -5.071  0.00  0.00     0.058 H 
ATOM     27  H2  ALA d   1       2.286  -0.242  -3.534  0.00  0.00     0.058 H 
ATOM     28  O   UNK d   0       7.004  -0.498  -3.192  0.00  0.00    -0.272 OA
BRANCH  22  29
ATOM     29  CB  ALA d   1       4.342   1.177  -2.340  0.00  0.00    -0.044 C 
ATOM     30  HB1 ALA d   1       3.340   1.180  -1.909  0.00  0.00     0.025 H 
ATOM     31  HB2 ALA d   1       5.068   0.911  -1.572  0.00  0.00     0.025 H 
ATOM     32  HB3 ALA d   1       4.573   2.167  -2.731  0.00  0.00     0.025 H 
ENDBRANCH  22  29
BRANCH  25  33
ATOM     33  O   ALA d   1       2.727   1.441  -4.648  0.00  0.00    -0.393 OA
ATOM     34  H   ALA d   1       3.067   1.661  -5.526  0.00  0.00     0.209 HD
ENDBRANCH  25  33
ENDBRANCH  17  20
ENDBRANCH  16  17
ENDBRANCH   1  16
BRANCH   9  35
ATOM     35  C   UNK d   0      10.985   8.297  -2.684  0.00  0.00    -0.008 A 
ATOM     36  C   UNK d   0       9.980   9.248  -2.520  0.00  0.00    -0.008 A 
ATOM     37  C   UNK d   0      10.312  10.579  -2.347  0.00  0.00     0.162 A 
ATOM     38  H   UNK d   0       8.942   8.945  -2.524  0.00  0.00     0.066 H 
ATOM     39  C   UNK d   0      11.649  10.968  -2.349  0.00  0.00     0.162 A 
ATOM     40  C   UNK d   0      12.648  10.023  -2.518  0.00  0.00    -0.016 A 
ATOM     41  C   UNK d   0      12.322   8.692  -2.685  0.00  0.00    -0.050 A 
ATOM     42  H   UNK d   0      13.685  10.328  -2.520  0.00  0.00     0.066 H 
ATOM     43  H   UNK d   0      13.102   7.957  -2.817  0.00  0.00     0.062 H 
BRANCH  37  44
ATOM     44  O   UNK d   0       9.334  11.509  -2.180  0.00  0.00    -0.491 OA
BRANCH  44  45
ATOM     45  C   UNK d   0       8.477  11.756  -3.298  0.00  0.00     0.079 C 
ATOM     46  H   UNK d   0       7.771  12.548  -3.047  0.00  0.00     0.066 H 
ATOM     47  H   UNK d   0       9.076  12.061  -4.154  0.00  0.00     0.066 H 
ATOM     48  H   UNK d   0       7.929  10.846  -3.544  0.00  0.00     0.066 H 
ENDBRANCH  44  45
ENDBRANCH  37  44
BRANCH  39  49
ATOM     49  O   UNK d   0      11.975  12.279  -2.185  0.00  0.00    -0.491 OA
BRANCH  49  50
ATOM     50  C   UNK d   0      12.441  12.675  -0.893  0.00  0.00     0.079 C 
ATOM     51  H   UNK d   0      13.530  12.705  -0.894  0.00  0.00     0.066 H 
ATOM     52  H   UNK d   0      12.049  13.664  -0.652  0.00  0.00     0.066 H 
ATOM     53  H   UNK d   0      12.097  11.957  -0.148  0.00  0.00     0.066 H 
ENDBRANCH  49  50
ENDBRANCH  39  49
ENDBRANCH   9  35
TORSDOF 12
ENDMDL
MODEL 7
REMARK VINA RESULT:      -5.6      2.313      2.626
REMARK  10 active torsions:
REMARK  status: ('A' for Active; 'I' for Inactive)
REMARK    1  A    between atoms: CB_1  and  CA_2 
REMARK       I    between atoms: CA_2  and  C_4 
REMARK       I    between atoms: CA_2  and  N_6 
REMARK    2  A    between atoms: C_4  and  O_5 
REMARK       I    between atoms: N_6  and  C_7 
REMARK    3  A    between atoms: C_7  and  C_9 
REMARK    4  A    between atoms: C_9  and  O_10 
REMARK    5  A    between atoms: O_10  and  C_11 
REMARK    6  A    between atoms: C_19  and  C_22 
REMARK    7  A    between atoms: C_25  and  O_30 
REMARK    8  A    between atoms: C_26  and  O_28 
REMARK    9  A    between atoms: O_28  and  C_29 
REMARK   10  A    between atoms: O_30  and  C_31 
ROOT
ATOM      1  C   UNK d   0       6.074  -8.066  -7.328  0.00  0.00     0.125 A 
ATOM      2  C   UNK d   0       4.786  -7.557  -7.490  0.00  0.00    -0.019 A 
ATOM      3  C   UNK d   0       4.443  -6.361  -6.929  0.00  0.00    -0.044 A 
ATOM      4  C   UNK d   0       5.387  -5.647  -6.190  0.00  0.00     0.065 A 
ATOM      5  C   UNK d   0       6.689  -6.151  -6.021  0.00  0.00     0.142 A 
ATOM      6  C   UNK d   0       7.020  -7.372  -6.594  0.00  0.00     0.023 A 
ATOM      7  O   UNK d   0       7.598  -5.460  -5.306  0.00  0.00    -0.462 OA
ATOM      8  C   UNK d   0       7.337  -4.284  -4.727  0.00  0.00     0.104 A 
ATOM      9  C   UNK d   0       6.123  -3.683  -4.810  0.00  0.00     0.064 A 
ATOM     10  C   UNK d   0       5.052  -4.352  -5.570  0.00  0.00     0.200 A 
ATOM     11  O   UNK d   0       3.942  -3.859  -5.678  0.00  0.00    -0.286 OA
ATOM     12  H   UNK d   0       4.057  -8.112  -8.061  0.00  0.00     0.065 H 
ATOM     13  H   UNK d   0       3.445  -5.969  -7.056  0.00  0.00     0.063 H 
ATOM     14  H   UNK d   0       8.013  -7.776  -6.469  0.00  0.00     0.069 H 
ATOM     15  H   UNK d   0       8.122  -3.794  -4.172  0.00  0.00     0.104 H 
ENDROOT
BRANCH   1  16
ATOM     16  O   UNK d   0       6.402  -9.258  -7.892  0.00  0.00    -0.483 OA
BRANCH  16  17
ATOM     17  C   UNK d   0       5.459 -10.322  -7.751  0.00  0.00     0.165 C 
ATOM     18  H   UNK d   0       5.693 -11.112  -8.465  0.00  0.00     0.080 H 
ATOM     19  H   UNK d   0       4.454  -9.946  -7.942  0.00  0.00     0.080 H 
BRANCH  17  20
ATOM     20  C   UNK d   0       5.530 -10.874  -6.351  0.00  0.00     0.251 C 
ATOM     21  N   ALA d   1       4.612 -10.508  -5.434  0.00  0.00    -0.308 N 
ATOM     22  CA  ALA d   1       4.682 -11.044  -4.073  0.00  0.00     0.043 C 
ATOM     23  H   ALA d   1       3.908  -9.887  -5.676  0.00  0.00     0.149 HD
ATOM     24  HA  ALA d   1       5.043 -12.072  -4.105  0.00  0.00     0.052 H 
ATOM     25  C   ALA d   1       3.289 -11.014  -3.440  0.00  0.00     0.062 C 
ATOM     26  H1  ALA d   1       2.587 -11.546  -4.081  0.00  0.00     0.058 H 
ATOM     27  H2  ALA d   1       3.323 -11.492  -2.463  0.00  0.00     0.058 H 
ATOM     28  O   UNK d   0       6.414 -11.647  -6.048  0.00  0.00    -0.272 OA
BRANCH  22  29
ATOM     29  CB  ALA d   1       5.640 -10.192  -3.238  0.00  0.00    -0.044 C 
ATOM     30  HB1 ALA d   1       5.069  -9.596  -2.525  0.00  0.00     0.025 H 
ATOM     31  HB2 ALA d   1       6.329 -10.843  -2.699  0.00  0.00     0.025 H 
ATOM     32  HB3 ALA d   1       6.205  -9.531  -3.894  0.00  0.00     0.025 H 
ENDBRANCH  22  29
BRANCH  25  33
ATOM     33  O   ALA d   1       2.863  -9.657  -3.292  0.00  0.00    -0.393 OA
ATOM     34  H   ALA d   1       2.516  -9.448  -2.415  0.00  0.00     0.209 HD
ENDBRANCH  25  33
ENDBRANCH  17  20
ENDBRANCH  16  17
ENDBRANCH   1  16
BRANCH   9  35
ATOM     35  C   UNK d   0       5.879  -2.377  -4.150  0.00  0.00    -0.008 A 
ATOM     36  C   UNK d   0       6.501  -1.226  -4.628  0.00  0.00    -0.008 A 
ATOM     37  C   UNK d   0       6.267  -0.009  -4.014  0.00  0.00     0.162 A 
ATOM     38  H   UNK d   0       7.162  -1.283  -5.482  0.00  0.00     0.066 H 
ATOM     39  C   UNK d   0       5.421   0.061  -2.911  0.00  0.00     0.162 A 
ATOM     40  C   UNK d   0       4.807  -1.086  -2.430  0.00  0.00    -0.016 A 
ATOM     41  C   UNK d   0       5.032  -2.301  -3.046  0.00  0.00    -0.050 A 
ATOM     42  H   UNK d   0       4.150  -1.028  -1.574  0.00  0.00     0.066 H 
ATOM     43  H   UNK d   0       4.553  -3.193  -2.669  0.00  0.00     0.062 H 
BRANCH  37  44
ATOM     44  O   UNK d   0       6.868   1.117  -4.482  0.00  0.00    -0.491 OA
BRANCH  44  45
ATOM     45  C   UNK d   0       8.288   1.199  -4.346  0.00  0.00     0.079 C 
ATOM     46  H   UNK d   0       8.619   0.510  -3.568  0.00  0.00     0.066 H 
ATOM     47  H   UNK d   0       8.760   0.934  -5.291  0.00  0.00     0.066 H 
ATOM     48  H   UNK d   0       8.569   2.216  -4.073  0.00  0.00     0.066 H 
ENDBRANCH  44  45
ENDBRANCH  37  44
BRANCH  39  49
ATOM     49  O   UNK d   0       5.196   1.257  -2.302  0.00  0.00    -0.491 OA
BRANCH  49  50
ATOM     50  C   UNK d   0       3.843   1.711  -2.244  0.00  0.00     0.079 C 
ATOM     51  H   UNK d   0       3.649   2.385  -3.078  0.00  0.00     0.066 H 
ATOM     52  H   UNK d   0       3.169   0.856  -2.304  0.00  0.00     0.066 H 
ATOM     53  H   UNK d   0       3.676   2.238  -1.305  0.00  0.00     0.066 H 
ENDBRANCH  49  50
ENDBRANCH  39  49
ENDBRANCH   9  35
TORSDOF 12
ENDMDL
MODEL 8
REMARK VINA RESULT:      -5.6      9.232     12.722
REMARK  10 active torsions:
REMARK  status: ('A' for Active; 'I' for Inactive)
REMARK    1  A    between atoms: CB_1  and  CA_2 
REMARK       I    between atoms: CA_2  and  C_4 
REMARK       I    between atoms: CA_2  and  N_6 
REMARK    2  A    between atoms: C_4  and  O_5 
REMARK       I    between atoms: N_6  and  C_7 
REMARK    3  A    between atoms: C_7  and  C_9 
REMARK    4  A    between atoms: C_9  and  O_10 
REMARK    5  A    between atoms: O_10  and  C_11 
REMARK    6  A    between atoms: C_19  and  C_22 
REMARK    7  A    between atoms: C_25  and  O_30 
REMARK    8  A    between atoms: C_26  and  O_28 
REMARK    9  A    between atoms: O_28  and  C_29 
REMARK   10  A    between atoms: O_30  and  C_31 
ROOT
ATOM      1  C   UNK d   0       9.195   2.796  -7.288  0.00  0.00     0.125 A 
ATOM      2  C   UNK d   0       9.554   4.072  -7.721  0.00  0.00    -0.019 A 
ATOM      3  C   UNK d   0       9.906   5.032  -6.817  0.00  0.00    -0.044 A 
ATOM      4  C   UNK d   0       9.906   4.733  -5.454  0.00  0.00     0.065 A 
ATOM      5  C   UNK d   0       9.547   3.450  -5.007  0.00  0.00     0.142 A 
ATOM      6  C   UNK d   0       9.186   2.486  -5.939  0.00  0.00     0.023 A 
ATOM      7  O   UNK d   0       9.547   3.163  -3.690  0.00  0.00    -0.462 OA
ATOM      8  C   UNK d   0       9.879   4.050  -2.747  0.00  0.00     0.104 A 
ATOM      9  C   UNK d   0      10.246   5.324  -3.038  0.00  0.00     0.064 A 
ATOM     10  C   UNK d   0      10.282   5.745  -4.450  0.00  0.00     0.200 A 
ATOM     11  O   UNK d   0      10.604   6.876  -4.771  0.00  0.00    -0.286 OA
ATOM     12  H   UNK d   0       9.552   4.301  -8.776  0.00  0.00     0.065 H 
ATOM     13  H   UNK d   0      10.184   6.019  -7.156  0.00  0.00     0.063 H 
ATOM     14  H   UNK d   0       8.902   1.497  -5.613  0.00  0.00     0.069 H 
ATOM     15  H   UNK d   0       9.855   3.741  -1.713  0.00  0.00     0.104 H 
ENDROOT
BRANCH   1  16
ATOM     16  O   UNK d   0       8.846   1.850  -8.198  0.00  0.00    -0.483 OA
BRANCH  16  17
ATOM     17  C   UNK d   0       7.633   1.135  -7.956  0.00  0.00     0.165 C 
ATOM     18  H   UNK d   0       7.439   1.101  -6.884  0.00  0.00     0.080 H 
ATOM     19  H   UNK d   0       7.727   0.120  -8.341  0.00  0.00     0.080 H 
BRANCH  17  20
ATOM     20  C   UNK d   0       6.492   1.832  -8.651  0.00  0.00     0.251 C 
ATOM     21  N   ALA d   1       5.229   1.394  -8.480  0.00  0.00    -0.308 N 
ATOM     22  CA  ALA d   1       4.121   2.071  -9.155  0.00  0.00     0.043 C 
ATOM     23  H   ALA d   1       5.056   0.627  -7.912  0.00  0.00     0.149 HD
ATOM     24  HA  ALA d   1       4.326   3.141  -9.208  0.00  0.00     0.052 H 
ATOM     25  C   ALA d   1       2.827   1.840  -8.371  0.00  0.00     0.062 C 
ATOM     26  H1  ALA d   1       2.966   2.157  -7.338  0.00  0.00     0.058 H 
ATOM     27  H2  ALA d   1       2.020   2.415  -8.823  0.00  0.00     0.058 H 
ATOM     28  O   UNK d   0       6.710   2.788  -9.364  0.00  0.00    -0.272 OA
BRANCH  22  29
ATOM     29  CB  ALA d   1       3.967   1.511 -10.571  0.00  0.00    -0.044 C 
ATOM     30  HB1 ALA d   1       3.473   2.251 -11.202  0.00  0.00     0.025 H 
ATOM     31  HB2 ALA d   1       4.951   1.282 -10.980  0.00  0.00     0.025 H 
ATOM     32  HB3 ALA d   1       3.367   0.603 -10.539  0.00  0.00     0.025 H 
ENDBRANCH  22  29
BRANCH  25  33
ATOM     33  O   ALA d   1       2.495   0.450  -8.401  0.00  0.00    -0.393 OA
ATOM     34  H   ALA d   1       2.511   0.023  -7.534  0.00  0.00     0.209 HD
ENDBRANCH  25  33
ENDBRANCH  17  20
ENDBRANCH  16  17
ENDBRANCH   1  16
BRANCH   9  35
ATOM     35  C   UNK d   0      10.606   6.274  -1.957  0.00  0.00    -0.008 A 
ATOM     36  C   UNK d   0      11.888   6.258  -1.412  0.00  0.00    -0.008 A 
ATOM     37  C   UNK d   0      12.222   7.148  -0.408  0.00  0.00     0.162 A 
ATOM     38  H   UNK d   0      12.623   5.554  -1.777  0.00  0.00     0.066 H 
ATOM     39  C   UNK d   0      11.272   8.050   0.066  0.00  0.00     0.162 A 
ATOM     40  C   UNK d   0       9.994   8.060  -0.472  0.00  0.00    -0.016 A 
ATOM     41  C   UNK d   0       9.659   7.178  -1.479  0.00  0.00    -0.050 A 
ATOM     42  H   UNK d   0       9.260   8.761  -0.102  0.00  0.00     0.066 H 
ATOM     43  H   UNK d   0       8.663   7.188  -1.896  0.00  0.00     0.062 H 
BRANCH  37  44
ATOM     44  O   UNK d   0      13.474   7.140   0.122  0.00  0.00    -0.491 OA
BRANCH  44  45
ATOM     45  C   UNK d   0      14.477   6.417  -0.596  0.00  0.00     0.079 C 
ATOM     46  H   UNK d   0      14.011   5.857  -1.407  0.00  0.00     0.066 H 
ATOM     47  H   UNK d   0      15.204   7.115  -1.007  0.00  0.00     0.066 H 
ATOM     48  H   UNK d   0      14.980   5.725   0.080  0.00  0.00     0.066 H 
ENDBRANCH  44  45
ENDBRANCH  37  44
BRANCH  39  49
ATOM     49  O   UNK d   0      11.599   8.921   1.059  0.00  0.00    -0.491 OA
BRANCH  49  50
ATOM     50  C   UNK d   0      11.755  10.293   0.692  0.00  0.00     0.079 C 
ATOM     51  H   UNK d   0      12.076  10.867   1.560  0.00  0.00     0.066 H 
ATOM     52  H   UNK d   0      12.504  10.376  -0.096  0.00  0.00     0.066 H 
ATOM     53  H   UNK d   0      10.803  10.683   0.330  0.00  0.00     0.066 H 
ENDBRANCH  49  50
ENDBRANCH  39  49
ENDBRANCH   9  35
TORSDOF 12
ENDMDL
MODEL 9
REMARK VINA RESULT:      -5.5      8.323     11.664
REMARK  10 active torsions:
REMARK  status: ('A' for Active; 'I' for Inactive)
REMARK    1  A    between atoms: CB_1  and  CA_2 
REMARK       I    between atoms: CA_2  and  C_4 
REMARK       I    between atoms: CA_2  and  N_6 
REMARK    2  A    between atoms: C_4  and  O_5 
REMARK       I    between atoms: N_6  and  C_7 
REMARK    3  A    between atoms: C_7  and  C_9 
REMARK    4  A    between atoms: C_9  and  O_10 
REMARK    5  A    between atoms: O_10  and  C_11 
REMARK    6  A    between atoms: C_19  and  C_22 
REMARK    7  A    between atoms: C_25  and  O_30 
REMARK    8  A    between atoms: C_26  and  O_28 
REMARK    9  A    between atoms: O_28  and  C_29 
REMARK   10  A    between atoms: O_30  and  C_31 
ROOT
ATOM      1  C   UNK d   0       8.375   1.562  -7.611  0.00  0.00     0.125 A 
ATOM      2  C   UNK d   0       8.949   2.729  -8.112  0.00  0.00    -0.019 A 
ATOM      3  C   UNK d   0       9.561   3.612  -7.269  0.00  0.00    -0.044 A 
ATOM      4  C   UNK d   0       9.610   3.343  -5.901  0.00  0.00     0.065 A 
ATOM      5  C   UNK d   0       9.034   2.169  -5.385  0.00  0.00     0.142 A 
ATOM      6  C   UNK d   0       8.411   1.284  -6.255  0.00  0.00     0.023 A 
ATOM      7  O   UNK d   0       9.082   1.912  -4.063  0.00  0.00    -0.462 OA
ATOM      8  C   UNK d   0       9.662   2.727  -3.178  0.00  0.00     0.104 A 
ATOM      9  C   UNK d   0      10.256   3.894  -3.539  0.00  0.00     0.064 A 
ATOM     10  C   UNK d   0      10.262   4.274  -4.962  0.00  0.00     0.200 A 
ATOM     11  O   UNK d   0      10.780   5.309  -5.344  0.00  0.00    -0.286 OA
ATOM     12  H   UNK d   0       8.909   2.936  -9.171  0.00  0.00     0.065 H 
ATOM     13  H   UNK d   0      10.005   4.516  -7.661  0.00  0.00     0.063 H 
ATOM     14  H   UNK d   0       7.959   0.380  -5.876  0.00  0.00     0.069 H 
ATOM     15  H   UNK d   0       9.658   2.448  -2.136  0.00  0.00     0.104 H 
ENDROOT
BRANCH   1  16
ATOM     16  O   UNK d   0       7.769   0.692  -8.460  0.00  0.00    -0.483 OA
BRANCH  16  17
ATOM     17  C   UNK d   0       7.061   1.254  -9.567  0.00  0.00     0.165 C 
ATOM     18  H   UNK d   0       7.014   0.526 -10.376  0.00  0.00     0.080 H 
ATOM     19  H   UNK d   0       7.577   2.150  -9.912  0.00  0.00     0.080 H 
BRANCH  17  20
ATOM     20  C   UNK d   0       5.662   1.615  -9.135  0.00  0.00     0.251 C 
ATOM     21  N   ALA d   1       4.871   0.684  -8.566  0.00  0.00    -0.308 N 
ATOM     22  CA  ALA d   1       3.513   1.034  -8.147  0.00  0.00     0.043 C 
ATOM     23  H   ALA d   1       5.202  -0.219  -8.437  0.00  0.00     0.149 HD
ATOM     24  HA  ALA d   1       3.498   2.061  -7.782  0.00  0.00     0.052 H 
ATOM     25  C   ALA d   1       3.064   0.091  -7.028  0.00  0.00     0.062 C 
ATOM     26  H1  ALA d   1       3.790   0.119  -6.216  0.00  0.00     0.058 H 
ATOM     27  H2  ALA d   1       2.090   0.405  -6.656  0.00  0.00     0.058 H 
ATOM     28  O   UNK d   0       5.249   2.743  -9.300  0.00  0.00    -0.272 OA
BRANCH  22  29
ATOM     29  CB  ALA d   1       2.561   0.901  -9.338  0.00  0.00    -0.044 C 
ATOM     30  HB1 ALA d   1       1.775   1.653  -9.259  0.00  0.00     0.025 H 
ATOM     31  HB2 ALA d   1       3.116   1.051 -10.264  0.00  0.00     0.025 H 
ATOM     32  HB3 ALA d   1       2.116  -0.093  -9.338  0.00  0.00     0.025 H 
ENDBRANCH  22  29
BRANCH  25  33
ATOM     33  O   ALA d   1       2.972  -1.242  -7.538  0.00  0.00    -0.393 OA
ATOM     34  H   ALA d   1       3.623  -1.851  -7.165  0.00  0.00     0.209 HD
ENDBRANCH  25  33
ENDBRANCH  17  20
ENDBRANCH  16  17
ENDBRANCH   1  16
BRANCH   9  35
ATOM     35  C   UNK d   0      10.886   4.768  -2.519  0.00  0.00    -0.008 A 
ATOM     36  C   UNK d   0      10.108   5.669  -1.796  0.00  0.00    -0.008 A 
ATOM     37  C   UNK d   0      10.698   6.479  -0.842  0.00  0.00     0.162 A 
ATOM     38  H   UNK d   0       9.044   5.732  -1.976  0.00  0.00     0.066 H 
ATOM     39  C   UNK d   0      12.069   6.401  -0.616  0.00  0.00     0.162 A 
ATOM     40  C   UNK d   0      12.844   5.508  -1.341  0.00  0.00    -0.016 A 
ATOM     41  C   UNK d   0      12.258   4.693  -2.289  0.00  0.00    -0.050 A 
ATOM     42  H   UNK d   0      13.908   5.450  -1.163  0.00  0.00     0.066 H 
ATOM     43  H   UNK d   0      12.864   3.999  -2.852  0.00  0.00     0.062 H 
BRANCH  37  44
ATOM     44  O   UNK d   0       9.940   7.355  -0.130  0.00  0.00    -0.491 OA
BRANCH  44  45
ATOM     45  C   UNK d   0       9.508   8.538  -0.806  0.00  0.00     0.079 C 
ATOM     46  H   UNK d   0       9.188   9.279  -0.074  0.00  0.00     0.066 H 
ATOM     47  H   UNK d   0      10.331   8.941  -1.395  0.00  0.00     0.066 H 
ATOM     48  H   UNK d   0       8.675   8.295  -1.466  0.00  0.00     0.066 H 
ENDBRANCH  44  45
ENDBRANCH  37  44
BRANCH  39  49
ATOM     49  O   UNK d   0      12.650   7.203   0.317  0.00  0.00    -0.491 OA
BRANCH  49  50
ATOM     50  C   UNK d   0      13.365   8.343  -0.162  0.00  0.00     0.079 C 
ATOM     51  H   UNK d   0      12.844   8.764  -1.022  0.00  0.00     0.066 H 
ATOM     52  H   UNK d   0      13.427   9.092   0.628  0.00  0.00     0.066 H 
ATOM     53  H   UNK d   0      14.371   8.044  -0.458  0.00  0.00     0.066 H 
ENDBRANCH  49  50
ENDBRANCH  39  49
ENDBRANCH   9  35
TORSDOF 12
ENDMDL
MODEL 10
REMARK VINA RESULT:      -5.4      1.518      2.724
REMARK  10 active torsions:
REMARK  status: ('A' for Active; 'I' for Inactive)
REMARK    1  A    between atoms: CB_1  and  CA_2 
REMARK       I    between atoms: CA_2  and  C_4 
REMARK       I    between atoms: CA_2  and  N_6 
REMARK    2  A    between atoms: C_4  and  O_5 
REMARK       I    between atoms: N_6  and  C_7 
REMARK    3  A    between atoms: C_7  and  C_9 
REMARK    4  A    between atoms: C_9  and  O_10 
REMARK    5  A    between atoms: O_10  and  C_11 
REMARK    6  A    between atoms: C_19  and  C_22 
REMARK    7  A    between atoms: C_25  and  O_30 
REMARK    8  A    between atoms: C_26  and  O_28 
REMARK    9  A    between atoms: O_28  and  C_29 
REMARK   10  A    between atoms: O_30  and  C_31 
ROOT
ATOM      1  C   UNK d   0       6.705  -8.925  -4.810  0.00  0.00     0.125 A 
ATOM      2  C   UNK d   0       5.332  -8.951  -5.049  0.00  0.00    -0.019 A 
ATOM      3  C   UNK d   0       4.669  -7.803  -5.376  0.00  0.00    -0.044 A 
ATOM      4  C   UNK d   0       5.370  -6.600  -5.469  0.00  0.00     0.065 A 
ATOM      5  C   UNK d   0       6.755  -6.564  -5.229  0.00  0.00     0.142 A 
ATOM      6  C   UNK d   0       7.414  -7.739  -4.893  0.00  0.00     0.023 A 
ATOM      7  O   UNK d   0       7.430  -5.401  -5.319  0.00  0.00    -0.462 OA
ATOM      8  C   UNK d   0       6.851  -4.239  -5.633  0.00  0.00     0.104 A 
ATOM      9  C   UNK d   0       5.522  -4.130  -5.889  0.00  0.00     0.064 A 
ATOM     10  C   UNK d   0       4.686  -5.342  -5.820  0.00  0.00     0.200 A 
ATOM     11  O   UNK d   0       3.489  -5.305  -6.040  0.00  0.00    -0.286 OA
ATOM     12  H   UNK d   0       4.791  -9.883  -4.976  0.00  0.00     0.065 H 
ATOM     13  H   UNK d   0       3.605  -7.826  -5.562  0.00  0.00     0.063 H 
ATOM     14  H   UNK d   0       8.476  -7.728  -4.700  0.00  0.00     0.069 H 
ATOM     15  H   UNK d   0       7.463  -3.351  -5.685  0.00  0.00     0.104 H 
ENDROOT
BRANCH   1  16
ATOM     16  O   UNK d   0       7.352 -10.074  -4.485  0.00  0.00    -0.483 OA
BRANCH  16  17
ATOM     17  C   UNK d   0       6.834 -10.821  -3.383  0.00  0.00     0.165 C 
ATOM     18  H   UNK d   0       7.044 -11.881  -3.530  0.00  0.00     0.080 H 
ATOM     19  H   UNK d   0       5.757 -10.670  -3.316  0.00  0.00     0.080 H 
BRANCH  17  20
ATOM     20  C   UNK d   0       7.487 -10.353  -2.108  0.00  0.00     0.251 C 
ATOM     21  N   ALA d   1       8.829 -10.261  -2.033  0.00  0.00    -0.308 N 
ATOM     22  CA  ALA d   1       9.464  -9.807  -0.794  0.00  0.00     0.043 C 
ATOM     23  H   ALA d   1       9.375 -10.500  -2.798  0.00  0.00     0.149 HD
ATOM     24  HA  ALA d   1       8.837  -9.051  -0.320  0.00  0.00     0.052 H 
ATOM     25  C   ALA d   1      10.833  -9.203  -1.113  0.00  0.00     0.062 C 
ATOM     26  H1  ALA d   1      10.719  -8.415  -1.858  0.00  0.00     0.058 H 
ATOM     27  H2  ALA d   1      11.267  -8.785  -0.206  0.00  0.00     0.058 H 
ATOM     28  O   UNK d   0       6.804 -10.059  -1.150  0.00  0.00    -0.272 OA
BRANCH  22  29
ATOM     29  CB  ALA d   1       9.639 -10.994   0.156  0.00  0.00    -0.044 C 
ATOM     30  HB1 ALA d   1       8.700 -11.544   0.225  0.00  0.00     0.025 H 
ATOM     31  HB2 ALA d   1      10.420 -11.652  -0.226  0.00  0.00     0.025 H 
ATOM     32  HB3 ALA d   1       9.921 -10.630   1.143  0.00  0.00     0.025 H 
ENDBRANCH  22  29
BRANCH  25  33
ATOM     33  O   ALA d   1      11.694 -10.221  -1.628  0.00  0.00    -0.393 OA
ATOM     34  H   ALA d   1      11.810 -10.975  -1.035  0.00  0.00     0.209 HD
ENDBRANCH  25  33
ENDBRANCH  17  20
ENDBRANCH  16  17
ENDBRANCH   1  16
BRANCH   9  35
ATOM     35  C   UNK d   0       4.923  -2.817  -6.232  0.00  0.00    -0.008 A 
ATOM     36  C   UNK d   0       4.741  -1.853  -5.243  0.00  0.00    -0.008 A 
ATOM     37  C   UNK d   0       4.187  -0.628  -5.567  0.00  0.00     0.162 A 
ATOM     38  H   UNK d   0       5.036  -2.061  -4.224  0.00  0.00     0.066 H 
ATOM     39  C   UNK d   0       3.801  -0.365  -6.879  0.00  0.00     0.162 A 
ATOM     40  C   UNK d   0       3.976  -1.328  -7.862  0.00  0.00    -0.016 A 
ATOM     41  C   UNK d   0       4.535  -2.549  -7.544  0.00  0.00    -0.050 A 
ATOM     42  H   UNK d   0       3.675  -1.120  -8.879  0.00  0.00     0.066 H 
ATOM     43  H   UNK d   0       4.670  -3.297  -8.311  0.00  0.00     0.062 H 
BRANCH  37  44
ATOM     44  O   UNK d   0       4.013   0.317  -4.606  0.00  0.00    -0.491 OA
BRANCH  44  45
ATOM     45  C   UNK d   0       2.927   0.126  -3.697  0.00  0.00     0.079 C 
ATOM     46  H   UNK d   0       2.351   1.048  -3.620  0.00  0.00     0.066 H 
ATOM     47  H   UNK d   0       2.285  -0.675  -4.061  0.00  0.00     0.066 H 
ATOM     48  H   UNK d   0       3.318  -0.141  -2.714  0.00  0.00     0.066 H 
ENDBRANCH  44  45
ENDBRANCH  37  44
BRANCH  39  49
ATOM     49  O   UNK d   0       3.250   0.837  -7.197  0.00  0.00    -0.491 OA
BRANCH  49  50
ATOM     50  C   UNK d   0       2.930   1.062  -8.571  0.00  0.00     0.079 C 
ATOM     51  H   UNK d   0       2.524   2.066  -8.691  0.00  0.00     0.066 H 
ATOM     52  H   UNK d   0       3.831   0.959  -9.176  0.00  0.00     0.066 H 
ATOM     53  H   UNK d   0       2.190   0.330  -8.896  0.00  0.00     0.066 H 
ENDBRANCH  49  50
ENDBRANCH  39  49
ENDBRANCH   9  35
TORSDOF 12
ENDMDL
