MODEL 1
REMARK VINA RESULT:      -6.0      0.000      0.000
REMARK  13 active torsions:
REMARK  status: ('A' for Active; 'I' for Inactive)
REMARK    1  A    between atoms: C_1  and  C_2 
REMARK    2  A    between atoms: C_5  and  O_40 
REMARK    3  A    between atoms: C_7  and  C_38 
REMARK    4  A    between atoms: C_7  and  C_39 
REMARK    5  A    between atoms: C_12  and  C_37 
REMARK    6  A    between atoms: C_20  and  C_30 
REMARK    7  A    between atoms: C_20  and  C_31 
REMARK    8  A    between atoms: C_24  and  C_29 
REMARK    9  A    between atoms: C_27  and  C_28 
REMARK   10  A    between atoms: C_31  and  O_33 
REMARK   11  A    between atoms: O_33  and  C_34 
REMARK   12  A    between atoms: C_34  and  C_35 
REMARK   13  A    between atoms: C_35  and  N_36 
ROOT
ATOM      1  C   LIG d   1       7.028  -0.619  -4.427  0.00  0.00    -0.022 C 
ATOM      2  C   LIG d   1       6.401  -0.518  -3.022  0.00  0.00    -0.044 C 
ATOM      3  C   LIG d   1       5.203  -1.462  -2.943  0.00  0.00    -0.026 C 
ATOM      4  C   LIG d   1       4.133  -1.055  -3.945  0.00  0.00     0.061 C 
ATOM      5  H   LIG d   1       3.716  -0.084  -3.650  0.00  0.00     0.060 H 
ATOM      6  C   LIG d   1       4.665  -0.944  -5.373  0.00  0.00    -0.006 C 
ATOM      7  C   LIG d   1       5.979  -0.200  -5.444  0.00  0.00    -0.028 C 
ATOM      8  H   LIG d   1       5.739   0.871  -5.211  0.00  0.00     0.031 H 
ATOM      9  C   LIG d   1       6.583  -0.183  -6.845  0.00  0.00    -0.049 C 
ATOM     10  C   LIG d   1       7.681   0.899  -6.880  0.00  0.00    -0.046 C 
ATOM     11  C   LIG d   1       8.801   0.538  -5.898  0.00  0.00    -0.016 C 
ATOM     12  C   LIG d   1       8.211   0.351  -4.504  0.00  0.00    -0.011 C 
ATOM     13  H   LIG d   1       8.991  -0.011  -3.842  0.00  0.00     0.035 H 
ATOM     14  C   LIG d   1       7.723   1.686  -3.973  0.00  0.00    -0.080 C 
ATOM     15  C   LIG d   1       8.588   2.714  -4.005  0.00  0.00    -0.062 C 
ATOM     16  C   LIG d   1       9.914   2.349  -4.574  0.00  0.00    -0.041 C 
ATOM     17  C   LIG d   1      11.006   2.697  -3.911  0.00  0.00    -0.052 C 
ATOM     18  C   LIG d   1      10.854   3.443  -2.605  0.00  0.00    -0.014 C 
ATOM     19  C   LIG d   1      11.757   4.675  -2.587  0.00  0.00     0.075 C 
ATOM     20  C   LIG d   1      13.212   4.258  -2.815  0.00  0.00     0.022 C 
ATOM     21  C   LIG d   1      13.314   3.530  -4.133  0.00  0.00     0.144 C 
ATOM     22  O   LIG d   1      14.136   3.862  -4.951  0.00  0.00    -0.296 OA
ATOM     23  C   LIG d   1      12.382   2.380  -4.421  0.00  0.00     0.048 C 
ATOM     24  C   LIG d   1      12.348   2.111  -5.921  0.00  0.00    -0.036 C 
ATOM     25  C   LIG d   1      11.265   1.068  -6.227  0.00  0.00    -0.042 C 
ATOM     26  C   LIG d   1       9.889   1.616  -5.883  0.00  0.00    -0.001 C 
ATOM     27  H   LIG d   1       7.146  -0.803  -2.282  0.00  0.00     0.027 H 
ATOM     28  H   LIG d   1       6.064   0.497  -2.837  0.00  0.00     0.027 H 
ATOM     29  H   LIG d   1       5.496  -2.495  -3.086  0.00  0.00     0.029 H 
ATOM     30  H   LIG d   1       4.776  -1.383  -1.929  0.00  0.00     0.029 H 
ATOM     31  H   LIG d   1       6.992  -1.146  -7.120  0.00  0.00     0.027 H 
ATOM     32  H   LIG d   1       5.824   0.098  -7.581  0.00  0.00     0.027 H 
ATOM     33  H   LIG d   1       8.063   0.925  -7.900  0.00  0.00     0.027 H 
ATOM     34  H   LIG d   1       7.216   1.841  -6.603  0.00  0.00     0.027 H 
ATOM     35  H   LIG d   1       6.717   1.820  -3.604  0.00  0.00     0.058 H 
ATOM     36  H   LIG d   1       8.342   3.709  -3.660  0.00  0.00     0.062 H 
ATOM     37  H   LIG d   1       9.821   3.760  -2.475  0.00  0.00     0.032 H 
ATOM     38  H   LIG d   1      11.130   2.785  -1.779  0.00  0.00     0.032 H 
ATOM     39  H   LIG d   1      13.847   5.144  -2.839  0.00  0.00     0.035 H 
ATOM     40  H   LIG d   1      13.536   3.602  -2.007  0.00  0.00     0.035 H 
ATOM     41  H   LIG d   1      12.152   3.033  -6.462  0.00  0.00     0.028 H 
ATOM     42  H   LIG d   1      13.317   1.713  -6.238  0.00  0.00     0.028 H 
ATOM     43  H   LIG d   1      11.310   0.838  -7.293  0.00  0.00     0.027 H 
ATOM     44  H   LIG d   1      11.498   0.184  -5.638  0.00  0.00     0.027 H 
ENDROOT
BRANCH  19  45
ATOM     45  C   LIG d   1      11.638   5.368  -1.227  0.00  0.00    -0.049 C 
ATOM     46  H   LIG d   1      12.627   5.673  -0.886  0.00  0.00     0.024 H 
ATOM     47  H   LIG d   1      10.999   6.246  -1.322  0.00  0.00     0.024 H 
ATOM     48  H   LIG d   1      11.202   4.678  -0.505  0.00  0.00     0.024 H 
ENDBRANCH  19  45
BRANCH  19  49
ATOM     49  C   LIG d   1      11.329   5.630  -3.671  0.00  0.00     0.314 C 
ATOM     50  O   LIG d   1      12.159   6.231  -4.310  0.00  0.00    -0.250 OA
BRANCH  49  51
ATOM     51  O   LIG d   1      10.024   5.814  -3.927  0.00  0.00    -0.459 OA
BRANCH  51  52
ATOM     52  C   LIG d   1       9.654   6.028  -5.289  0.00  0.00     0.132 C 
ATOM     53  H   LIG d   1      10.505   5.813  -5.936  0.00  0.00     0.075 H 
ATOM     54  H   LIG d   1       8.824   5.371  -5.549  0.00  0.00     0.075 H 
BRANCH  52  55
ATOM     55  C   LIG d   1       9.227   7.486  -5.479  0.00  0.00    -0.000 C 
ATOM     56  H   LIG d   1       9.775   7.919  -6.315  0.00  0.00     0.085 H 
ATOM     57  H   LIG d   1       8.157   7.527  -5.686  0.00  0.00     0.085 H 
BRANCH  55  58
ATOM     58  N   LIG d   1       9.519   8.244  -4.255  0.00  0.00     0.221 N 
ATOM     59  H   LIG d   1       9.816   7.611  -3.529  0.00  0.00     0.200 HD
ATOM     60  H   LIG d   1      10.253   8.912  -4.441  0.00  0.00     0.200 HD
ATOM     61  H   LIG d   1       8.687   8.733  -3.956  0.00  0.00     0.200 HD
ENDBRANCH  55  58
ENDBRANCH  52  55
ENDBRANCH  51  52
ENDBRANCH  49  51
ENDBRANCH  19  49
BRANCH  23  62
ATOM     62  C   LIG d   1      12.914   1.146  -3.691  0.00  0.00    -0.049 C 
ATOM     63  H   LIG d   1      12.373   0.263  -4.031  0.00  0.00     0.024 H 
ATOM     64  H   LIG d   1      13.975   1.026  -3.907  0.00  0.00     0.024 H 
ATOM     65  H   LIG d   1      12.771   1.269  -2.618  0.00  0.00     0.024 H 
ENDBRANCH  23  62
BRANCH  26  66
ATOM     66  C   LIG d   1       9.564   2.666  -6.951  0.00  0.00    -0.055 C 
ATOM     67  H   LIG d   1      10.022   2.375  -7.897  0.00  0.00     0.024 H 
ATOM     68  H   LIG d   1       8.483   2.733  -7.077  0.00  0.00     0.024 H 
ATOM     69  H   LIG d   1       9.955   3.634  -6.640  0.00  0.00     0.024 H 
ENDBRANCH  26  66
BRANCH  11  70
ATOM     70  C   LIG d   1       9.451  -0.757  -6.410  0.00  0.00    -0.058 C 
ATOM     71  H   LIG d   1       8.795  -1.601  -6.198  0.00  0.00     0.024 H 
ATOM     72  H   LIG d   1       9.611  -0.683  -7.486  0.00  0.00     0.024 H 
ATOM     73  H   LIG d   1      10.408  -0.905  -5.909  0.00  0.00     0.024 H 
ENDBRANCH  11  70
BRANCH   1  74
ATOM     74  C   LIG d   1       7.498  -2.060  -4.592  0.00  0.00    -0.059 C 
ATOM     75  H   LIG d   1       7.440  -2.573  -3.631  0.00  0.00     0.024 H 
ATOM     76  H   LIG d   1       6.862  -2.569  -5.315  0.00  0.00     0.024 H 
ATOM     77  H   LIG d   1       8.530  -2.067  -4.944  0.00  0.00     0.024 H 
ENDBRANCH   1  74
BRANCH   6  78
ATOM     78  C   LIG d   1       3.612  -0.129  -6.167  0.00  0.00    -0.057 C 
ATOM     79  H   LIG d   1       3.219   0.669  -5.536  0.00  0.00     0.024 H 
ATOM     80  H   LIG d   1       4.077   0.302  -7.052  0.00  0.00     0.024 H 
ATOM     81  H   LIG d   1       2.796  -0.787  -6.468  0.00  0.00     0.024 H 
ENDBRANCH   6  78
BRANCH   6  82
ATOM     82  C   LIG d   1       4.729  -2.329  -6.017  0.00  0.00    -0.057 C 
ATOM     83  H   LIG d   1       4.976  -2.228  -7.074  0.00  0.00     0.024 H 
ATOM     84  H   LIG d   1       5.496  -2.924  -5.521  0.00  0.00     0.024 H 
ATOM     85  H   LIG d   1       3.763  -2.822  -5.914  0.00  0.00     0.024 H 
ENDBRANCH   6  82
BRANCH   4  86
ATOM     86  O   LIG d   1       3.072  -2.019  -3.919  0.00  0.00    -0.391 OA
ATOM     87  H   LIG d   1       3.012  -2.560  -4.719  0.00  0.00     0.210 HD
ENDBRANCH   4  86
TORSDOF 13
ENDMDL
MODEL 2
REMARK VINA RESULT:      -5.9      5.281      8.297
REMARK  13 active torsions:
REMARK  status: ('A' for Active; 'I' for Inactive)
REMARK    1  A    between atoms: C_1  and  C_2 
REMARK    2  A    between atoms: C_5  and  O_40 
REMARK    3  A    between atoms: C_7  and  C_38 
REMARK    4  A    between atoms: C_7  and  C_39 
REMARK    5  A    between atoms: C_12  and  C_37 
REMARK    6  A    between atoms: C_20  and  C_30 
REMARK    7  A    between atoms: C_20  and  C_31 
REMARK    8  A    between atoms: C_24  and  C_29 
REMARK    9  A    between atoms: C_27  and  C_28 
REMARK   10  A    between atoms: C_31  and  O_33 
REMARK   11  A    between atoms: O_33  and  C_34 
REMARK   12  A    between atoms: C_34  and  C_35 
REMARK   13  A    between atoms: C_35  and  N_36 
ROOT
ATOM      1  C   LIG d   1       6.141  -8.018  -5.932  0.00  0.00    -0.022 C 
ATOM      2  C   LIG d   1       4.950  -8.558  -5.116  0.00  0.00    -0.044 C 
ATOM      3  C   LIG d   1       4.798 -10.053  -5.387  0.00  0.00    -0.026 C 
ATOM      4  C   LIG d   1       4.488 -10.303  -6.856  0.00  0.00     0.061 C 
ATOM      5  H   LIG d   1       3.495  -9.896  -7.087  0.00  0.00     0.060 H 
ATOM      6  C   LIG d   1       5.509  -9.664  -7.797  0.00  0.00    -0.006 C 
ATOM      7  C   LIG d   1       5.845  -8.243  -7.406  0.00  0.00    -0.028 C 
ATOM      8  H   LIG d   1       4.927  -7.638  -7.628  0.00  0.00     0.031 H 
ATOM      9  C   LIG d   1       6.949  -7.631  -8.263  0.00  0.00    -0.049 C 
ATOM     10  C   LIG d   1       6.936  -6.106  -8.044  0.00  0.00    -0.046 C 
ATOM     11  C   LIG d   1       7.257  -5.786  -6.580  0.00  0.00    -0.016 C 
ATOM     12  C   LIG d   1       6.269  -6.513  -5.675  0.00  0.00    -0.011 C 
ATOM     13  H   LIG d   1       6.572  -6.371  -4.642  0.00  0.00     0.035 H 
ATOM     14  C   LIG d   1       4.884  -5.918  -5.847  0.00  0.00    -0.080 C 
ATOM     15  C   LIG d   1       4.769  -4.584  -5.726  0.00  0.00    -0.062 C 
ATOM     16  C   LIG d   1       6.062  -3.907  -5.434  0.00  0.00    -0.041 C 
ATOM     17  C   LIG d   1       6.109  -3.033  -4.441  0.00  0.00    -0.052 C 
ATOM     18  C   LIG d   1       4.851  -2.768  -3.647  0.00  0.00    -0.014 C 
ATOM     19  C   LIG d   1       4.606  -1.265  -3.522  0.00  0.00     0.075 C 
ATOM     20  C   LIG d   1       5.818  -0.592  -2.872  0.00  0.00     0.022 C 
ATOM     21  C   LIG d   1       7.043  -0.874  -3.706  0.00  0.00     0.144 C 
ATOM     22  O   LIG d   1       7.760   0.029  -4.062  0.00  0.00    -0.296 OA
ATOM     23  C   LIG d   1       7.370  -2.295  -4.090  0.00  0.00     0.048 C 
ATOM     24  C   LIG d   1       8.338  -2.298  -5.268  0.00  0.00    -0.036 C 
ATOM     25  C   LIG d   1       8.523  -3.736  -5.771  0.00  0.00    -0.042 C 
ATOM     26  C   LIG d   1       7.213  -4.277  -6.322  0.00  0.00    -0.001 C 
ATOM     27  H   LIG d   1       5.144  -8.392  -4.058  0.00  0.00     0.027 H 
ATOM     28  H   LIG d   1       4.037  -8.050  -5.410  0.00  0.00     0.027 H 
ATOM     29  H   LIG d   1       5.673 -10.609  -5.075  0.00  0.00     0.029 H 
ATOM     30  H   LIG d   1       3.949 -10.422  -4.787  0.00  0.00     0.029 H 
ATOM     31  H   LIG d   1       7.920  -8.040  -8.022  0.00  0.00     0.027 H 
ATOM     32  H   LIG d   1       6.747  -7.811  -9.324  0.00  0.00     0.027 H 
ATOM     33  H   LIG d   1       7.698  -5.688  -8.700  0.00  0.00     0.027 H 
ATOM     34  H   LIG d   1       5.943  -5.750  -8.306  0.00  0.00     0.027 H 
ATOM     35  H   LIG d   1       4.025  -6.529  -6.080  0.00  0.00     0.058 H 
ATOM     36  H   LIG d   1       3.832  -4.056  -5.837  0.00  0.00     0.062 H 
ATOM     37  H   LIG d   1       3.996  -3.226  -4.141  0.00  0.00     0.032 H 
ATOM     38  H   LIG d   1       4.956  -3.197  -2.650  0.00  0.00     0.032 H 
ATOM     39  H   LIG d   1       5.653   0.484  -2.819  0.00  0.00     0.035 H 
ATOM     40  H   LIG d   1       5.959  -0.986  -1.866  0.00  0.00     0.035 H 
ATOM     41  H   LIG d   1       7.960  -1.661  -6.063  0.00  0.00     0.028 H 
ATOM     42  H   LIG d   1       9.308  -1.915  -4.937  0.00  0.00     0.028 H 
ATOM     43  H   LIG d   1       9.274  -3.721  -6.563  0.00  0.00     0.027 H 
ATOM     44  H   LIG d   1       8.872  -4.327  -4.928  0.00  0.00     0.027 H 
ENDROOT
BRANCH  19  45
ATOM     45  C   LIG d   1       3.369  -1.027  -2.652  0.00  0.00    -0.049 C 
ATOM     46  H   LIG d   1       2.788  -1.946  -2.585  0.00  0.00     0.024 H 
ATOM     47  H   LIG d   1       3.682  -0.721  -1.653  0.00  0.00     0.024 H 
ATOM     48  H   LIG d   1       2.758  -0.242  -3.098  0.00  0.00     0.024 H 
ENDBRANCH  19  45
BRANCH  19  49
ATOM     49  C   LIG d   1       4.374  -0.676  -4.889  0.00  0.00     0.314 C 
ATOM     50  O   LIG d   1       4.730   0.452  -5.130  0.00  0.00    -0.250 OA
BRANCH  49  51
ATOM     51  O   LIG d   1       3.770  -1.406  -5.841  0.00  0.00    -0.459 OA
BRANCH  51  52
ATOM     52  C   LIG d   1       4.026  -1.042  -7.198  0.00  0.00     0.132 C 
ATOM     53  H   LIG d   1       4.923  -0.424  -7.246  0.00  0.00     0.075 H 
ATOM     54  H   LIG d   1       4.172  -1.942  -7.795  0.00  0.00     0.075 H 
BRANCH  52  55
ATOM     55  C   LIG d   1       2.835  -0.253  -7.748  0.00  0.00    -0.000 C 
ATOM     56  H   LIG d   1       2.638  -0.561  -8.775  0.00  0.00     0.085 H 
ATOM     57  H   LIG d   1       1.956  -0.449  -7.135  0.00  0.00     0.085 H 
BRANCH  55  58
ATOM     58  N   LIG d   1       3.144   1.183  -7.717  0.00  0.00     0.221 N 
ATOM     59  H   LIG d   1       3.982   1.336  -7.178  0.00  0.00     0.200 HD
ATOM     60  H   LIG d   1       3.283   1.517  -8.659  0.00  0.00     0.200 HD
ATOM     61  H   LIG d   1       2.375   1.683  -7.293  0.00  0.00     0.200 HD
ENDBRANCH  55  58
ENDBRANCH  52  55
ENDBRANCH  51  52
ENDBRANCH  49  51
ENDBRANCH  19  49
BRANCH  23  62
ATOM     62  C   LIG d   1       8.025  -2.972  -2.886  0.00  0.00    -0.049 C 
ATOM     63  H   LIG d   1       7.265  -3.492  -2.303  0.00  0.00     0.024 H 
ATOM     64  H   LIG d   1       8.768  -3.690  -3.234  0.00  0.00     0.024 H 
ATOM     65  H   LIG d   1       8.509  -2.220  -2.264  0.00  0.00     0.024 H 
ENDBRANCH  23  62
BRANCH  26  66
ATOM     66  C   LIG d   1       6.973  -3.553  -7.652  0.00  0.00    -0.055 C 
ATOM     67  H   LIG d   1       6.921  -2.479  -7.475  0.00  0.00     0.024 H 
ATOM     68  H   LIG d   1       7.793  -3.770  -8.337  0.00  0.00     0.024 H 
ATOM     69  H   LIG d   1       6.035  -3.896  -8.088  0.00  0.00     0.024 H 
ENDBRANCH  26  66
BRANCH  11  70
ATOM     70  C   LIG d   1       8.699  -6.250  -6.322  0.00  0.00    -0.058 C 
ATOM     71  H   LIG d   1       9.137  -6.607  -7.254  0.00  0.00     0.024 H 
ATOM     72  H   LIG d   1       9.287  -5.415  -5.941  0.00  0.00     0.024 H 
ATOM     73  H   LIG d   1       8.695  -7.057  -5.590  0.00  0.00     0.024 H 
ENDBRANCH  11  70
BRANCH   1  74
ATOM     74  C   LIG d   1       7.379  -8.758  -5.438  0.00  0.00    -0.059 C 
ATOM     75  H   LIG d   1       7.315  -9.808  -5.730  0.00  0.00     0.024 H 
ATOM     76  H   LIG d   1       8.270  -8.313  -5.880  0.00  0.00     0.024 H 
ATOM     77  H   LIG d   1       7.436  -8.687  -4.352  0.00  0.00     0.024 H 
ENDBRANCH   1  74
BRANCH   6  78
ATOM     78  C   LIG d   1       4.845  -9.631  -9.197  0.00  0.00    -0.057 C 
ATOM     79  H   LIG d   1       4.507  -8.617  -9.415  0.00  0.00     0.024 H 
ATOM     80  H   LIG d   1       5.568  -9.942  -9.950  0.00  0.00     0.024 H 
ATOM     81  H   LIG d   1       3.991 -10.308  -9.211  0.00  0.00     0.024 H 
ENDBRANCH   6  78
BRANCH   6  82
ATOM     82  C   LIG d   1       6.743 -10.558  -7.914  0.00  0.00    -0.057 C 
ATOM     83  H   LIG d   1       7.623  -9.940  -8.094  0.00  0.00     0.024 H 
ATOM     84  H   LIG d   1       6.875 -11.118  -6.988  0.00  0.00     0.024 H 
ATOM     85  H   LIG d   1       6.611 -11.253  -8.743  0.00  0.00     0.024 H 
ENDBRANCH   6  82
BRANCH   4  86
ATOM     86  O   LIG d   1       4.456 -11.716  -7.096  0.00  0.00    -0.391 OA
ATOM     87  H   LIG d   1       4.804 -12.247  -6.367  0.00  0.00     0.210 HD
ENDBRANCH   4  86
TORSDOF 13
ENDMDL
MODEL 3
REMARK VINA RESULT:      -5.7      5.162      8.406
REMARK  13 active torsions:
REMARK  status: ('A' for Active; 'I' for Inactive)
REMARK    1  A    between atoms: C_1  and  C_2 
REMARK    2  A    between atoms: C_5  and  O_40 
REMARK    3  A    between atoms: C_7  and  C_38 
REMARK    4  A    between atoms: C_7  and  C_39 
REMARK    5  A    between atoms: C_12  and  C_37 
REMARK    6  A    between atoms: C_20  and  C_30 
REMARK    7  A    between atoms: C_20  and  C_31 
REMARK    8  A    between atoms: C_24  and  C_29 
REMARK    9  A    between atoms: C_27  and  C_28 
REMARK   10  A    between atoms: C_31  and  O_33 
REMARK   11  A    between atoms: O_33  and  C_34 
REMARK   12  A    between atoms: C_34  and  C_35 
REMARK   13  A    between atoms: C_35  and  N_36 
ROOT
ATOM      1  C   LIG d   1       2.927  -3.036 -11.807  0.00  0.00    -0.022 C 
ATOM      2  C   LIG d   1       3.116  -4.534 -11.495  0.00  0.00    -0.044 C 
ATOM      3  C   LIG d   1       2.410  -5.358 -12.569  0.00  0.00    -0.026 C 
ATOM      4  C   LIG d   1       0.914  -5.081 -12.562  0.00  0.00     0.061 C 
ATOM      5  H   LIG d   1       0.485  -5.458 -11.625  0.00  0.00     0.060 H 
ATOM      6  C   LIG d   1       0.583  -3.595 -12.690  0.00  0.00    -0.006 C 
ATOM      7  C   LIG d   1       1.438  -2.734 -11.788  0.00  0.00    -0.028 C 
ATOM      8  H   LIG d   1       1.096  -2.950 -10.742  0.00  0.00     0.031 H 
ATOM      9  C   LIG d   1       1.203  -1.239 -11.989  0.00  0.00    -0.049 C 
ATOM     10  C   LIG d   1       1.814  -0.492 -10.788  0.00  0.00    -0.046 C 
ATOM     11  C   LIG d   1       3.329  -0.720 -10.748  0.00  0.00    -0.016 C 
ATOM     12  C   LIG d   1       3.615  -2.218 -10.709  0.00  0.00    -0.011 C 
ATOM     13  H   LIG d   1       4.686  -2.370 -10.793  0.00  0.00     0.035 H 
ATOM     14  C   LIG d   1       3.158  -2.791  -9.381  0.00  0.00    -0.080 C 
ATOM     15  C   LIG d   1       3.595  -2.181  -8.265  0.00  0.00    -0.062 C 
ATOM     16  C   LIG d   1       4.477  -1.014  -8.541  0.00  0.00    -0.041 C 
ATOM     17  C   LIG d   1       5.627  -0.923  -7.893  0.00  0.00    -0.052 C 
ATOM     18  C   LIG d   1       5.994  -2.010  -6.909  0.00  0.00    -0.014 C 
ATOM     19  C   LIG d   1       6.437  -1.399  -5.580  0.00  0.00     0.075 C 
ATOM     20  C   LIG d   1       7.613  -0.447  -5.811  0.00  0.00     0.022 C 
ATOM     21  C   LIG d   1       7.195   0.624  -6.787  0.00  0.00     0.144 C 
ATOM     22  O   LIG d   1       7.362   1.790  -6.523  0.00  0.00    -0.296 OA
ATOM     23  C   LIG d   1       6.569   0.230  -8.100  0.00  0.00     0.048 C 
ATOM     24  C   LIG d   1       5.830   1.423  -8.697  0.00  0.00    -0.036 C 
ATOM     25  C   LIG d   1       5.045   0.970  -9.934  0.00  0.00    -0.042 C 
ATOM     26  C   LIG d   1       3.960  -0.021  -9.540  0.00  0.00    -0.001 C 
ATOM     27  H   LIG d   1       4.180  -4.762 -11.493  0.00  0.00     0.027 H 
ATOM     28  H   LIG d   1       2.684  -4.769 -10.528  0.00  0.00     0.027 H 
ATOM     29  H   LIG d   1       2.833  -5.184 -13.552  0.00  0.00     0.029 H 
ATOM     30  H   LIG d   1       2.566  -6.425 -12.335  0.00  0.00     0.029 H 
ATOM     31  H   LIG d   1       1.634  -0.884 -12.915  0.00  0.00     0.027 H 
ATOM     32  H   LIG d   1       0.130  -1.023 -11.997  0.00  0.00     0.027 H 
ATOM     33  H   LIG d   1       1.593   0.565 -10.930  0.00  0.00     0.027 H 
ATOM     34  H   LIG d   1       1.343  -0.883  -9.890  0.00  0.00     0.027 H 
ATOM     35  H   LIG d   1       2.493  -3.640  -9.324  0.00  0.00     0.058 H 
ATOM     36  H   LIG d   1       3.326  -2.501  -7.268  0.00  0.00     0.062 H 
ATOM     37  H   LIG d   1       5.137  -2.656  -6.732  0.00  0.00     0.032 H 
ATOM     38  H   LIG d   1       6.811  -2.607  -7.318  0.00  0.00     0.032 H 
ATOM     39  H   LIG d   1       7.901   0.014  -4.866  0.00  0.00     0.035 H 
ATOM     40  H   LIG d   1       8.460  -1.002  -6.214  0.00  0.00     0.035 H 
ATOM     41  H   LIG d   1       5.161   1.855  -7.957  0.00  0.00     0.028 H 
ATOM     42  H   LIG d   1       6.559   2.180  -9.002  0.00  0.00     0.028 H 
ATOM     43  H   LIG d   1       4.587   1.852 -10.384  0.00  0.00     0.027 H 
ATOM     44  H   LIG d   1       5.760   0.522 -10.620  0.00  0.00     0.027 H 
ENDROOT
BRANCH  19  45
ATOM     45  C   LIG d   1       6.872  -2.518  -4.630  0.00  0.00    -0.049 C 
ATOM     46  H   LIG d   1       6.934  -2.130  -3.615  0.00  0.00     0.024 H 
ATOM     47  H   LIG d   1       6.142  -3.328  -4.666  0.00  0.00     0.024 H 
ATOM     48  H   LIG d   1       7.848  -2.895  -4.936  0.00  0.00     0.024 H 
ENDBRANCH  19  45
BRANCH  19  49
ATOM     49  C   LIG d   1       5.288  -0.643  -4.965  0.00  0.00     0.314 C 
ATOM     50  O   LIG d   1       4.155  -1.031  -5.123  0.00  0.00    -0.250 OA
BRANCH  49  51
ATOM     51  O   LIG d   1       5.523   0.463  -4.241  0.00  0.00    -0.459 OA
BRANCH  51  52
ATOM     52  C   LIG d   1       5.418   0.344  -2.822  0.00  0.00     0.132 C 
ATOM     53  H   LIG d   1       5.144  -0.679  -2.562  0.00  0.00     0.075 H 
ATOM     54  H   LIG d   1       6.375   0.592  -2.364  0.00  0.00     0.075 H 
BRANCH  52  55
ATOM     55  C   LIG d   1       4.344   1.304  -2.306  0.00  0.00    -0.000 C 
ATOM     56  H   LIG d   1       3.697   0.782  -1.601  0.00  0.00     0.085 H 
ATOM     57  H   LIG d   1       4.820   2.147  -1.806  0.00  0.00     0.085 H 
BRANCH  55  58
ATOM     58  N   LIG d   1       3.543   1.794  -3.436  0.00  0.00     0.221 N 
ATOM     59  H   LIG d   1       2.633   1.360  -3.417  0.00  0.00     0.200 HD
ATOM     60  H   LIG d   1       3.440   2.796  -3.367  0.00  0.00     0.200 HD
ATOM     61  H   LIG d   1       4.007   1.563  -4.303  0.00  0.00     0.200 HD
ENDBRANCH  55  58
ENDBRANCH  52  55
ENDBRANCH  51  52
ENDBRANCH  49  51
ENDBRANCH  19  49
BRANCH  23  62
ATOM     62  C   LIG d   1       7.688  -0.206  -9.047  0.00  0.00    -0.049 C 
ATOM     63  H   LIG d   1       7.590  -1.270  -9.260  0.00  0.00     0.024 H 
ATOM     64  H   LIG d   1       7.616   0.358  -9.977  0.00  0.00     0.024 H 
ATOM     65  H   LIG d   1       8.653  -0.016  -8.580  0.00  0.00     0.024 H 
ENDBRANCH  23  62
BRANCH  26  66
ATOM     66  C   LIG d   1       2.880   0.789  -8.814  0.00  0.00    -0.055 C 
ATOM     67  H   LIG d   1       3.330   1.330  -7.982  0.00  0.00     0.024 H 
ATOM     68  H   LIG d   1       2.430   1.498  -9.509  0.00  0.00     0.024 H 
ATOM     69  H   LIG d   1       2.113   0.113  -8.436  0.00  0.00     0.024 H 
ENDBRANCH  26  66
BRANCH  11  70
ATOM     70  C   LIG d   1       3.918  -0.069 -12.009  0.00  0.00    -0.058 C 
ATOM     71  H   LIG d   1       3.740   1.005 -11.979  0.00  0.00     0.024 H 
ATOM     72  H   LIG d   1       4.990  -0.260 -12.050  0.00  0.00     0.024 H 
ATOM     73  H   LIG d   1       3.439  -0.492 -12.892  0.00  0.00     0.024 H 
ENDBRANCH  11  70
BRANCH   1  74
ATOM     74  C   LIG d   1       3.584  -2.787 -13.160  0.00  0.00    -0.059 C 
ATOM     75  H   LIG d   1       4.663  -2.922 -13.070  0.00  0.00     0.024 H 
ATOM     76  H   LIG d   1       3.189  -3.490 -13.891  0.00  0.00     0.024 H 
ATOM     77  H   LIG d   1       3.373  -1.767 -13.483  0.00  0.00     0.024 H 
ENDBRANCH   1  74
BRANCH   6  78
ATOM     78  C   LIG d   1      -0.892  -3.440 -12.241  0.00  0.00    -0.057 C 
ATOM     79  H   LIG d   1      -0.977  -3.682 -11.181  0.00  0.00     0.024 H 
ATOM     80  H   LIG d   1      -1.217  -2.413 -12.406  0.00  0.00     0.024 H 
ATOM     81  H   LIG d   1      -1.521  -4.117 -12.819  0.00  0.00     0.024 H 
ENDBRANCH   6  78
BRANCH   6  82
ATOM     82  C   LIG d   1       0.646  -3.169 -14.156  0.00  0.00    -0.057 C 
ATOM     83  H   LIG d   1       1.306  -2.307 -14.257  0.00  0.00     0.024 H 
ATOM     84  H   LIG d   1       1.031  -3.993 -14.757  0.00  0.00     0.024 H 
ATOM     85  H   LIG d   1      -0.353  -2.904 -14.500  0.00  0.00     0.024 H 
ENDBRANCH   6  82
BRANCH   4  86
ATOM     86  O   LIG d   1       0.299  -5.789 -13.647  0.00  0.00    -0.391 OA
ATOM     87  H   LIG d   1       0.796  -5.747 -14.475  0.00  0.00     0.210 HD
ENDBRANCH   4  86
TORSDOF 13
ENDMDL
MODEL 4
REMARK VINA RESULT:      -5.7      3.201      8.212
REMARK  13 active torsions:
REMARK  status: ('A' for Active; 'I' for Inactive)
REMARK    1  A    between atoms: C_1  and  C_2 
REMARK    2  A    between atoms: C_5  and  O_40 
REMARK    3  A    between atoms: C_7  and  C_38 
REMARK    4  A    between atoms: C_7  and  C_39 
REMARK    5  A    between atoms: C_12  and  C_37 
REMARK    6  A    between atoms: C_20  and  C_30 
REMARK    7  A    between atoms: C_20  and  C_31 
REMARK    8  A    between atoms: C_24  and  C_29 
REMARK    9  A    between atoms: C_27  and  C_28 
REMARK   10  A    between atoms: C_31  and  O_33 
REMARK   11  A    between atoms: O_33  and  C_34 
REMARK   12  A    between atoms: C_34  and  C_35 
REMARK   13  A    between atoms: C_35  and  N_36 
ROOT
ATOM      1  C   LIG d   1      10.782   8.451  -3.541  0.00  0.00    -0.022 C 
ATOM      2  C   LIG d   1       9.889   9.241  -4.518  0.00  0.00    -0.044 C 
ATOM      3  C   LIG d   1       9.796  10.691  -4.047  0.00  0.00    -0.026 C 
ATOM      4  C   LIG d   1       9.142  10.768  -2.675  0.00  0.00     0.061 C 
ATOM      5  H   LIG d   1       8.093  10.457  -2.760  0.00  0.00     0.060 H 
ATOM      6  C   LIG d   1       9.831   9.884  -1.636  0.00  0.00    -0.006 C 
ATOM      7  C   LIG d   1      10.137   8.502  -2.165  0.00  0.00    -0.028 C 
ATOM      8  H   LIG d   1       9.146   7.988  -2.274  0.00  0.00     0.031 H 
ATOM      9  C   LIG d   1      10.930   7.646  -1.182  0.00  0.00    -0.049 C 
ATOM     10  C   LIG d   1      10.849   6.179  -1.648  0.00  0.00    -0.046 C 
ATOM     11  C   LIG d   1      11.506   6.032  -3.024  0.00  0.00    -0.016 C 
ATOM     12  C   LIG d   1      10.847   6.994  -4.007  0.00  0.00    -0.011 C 
ATOM     13  H   LIG d   1      11.392   6.961  -4.945  0.00  0.00     0.035 H 
ATOM     14  C   LIG d   1       9.420   6.552  -4.274  0.00  0.00    -0.080 C 
ATOM     15  C   LIG d   1       9.230   5.273  -4.639  0.00  0.00    -0.062 C 
ATOM     16  C   LIG d   1      10.494   4.491  -4.720  0.00  0.00    -0.041 C 
ATOM     17  C   LIG d   1      10.722   3.766  -5.803  0.00  0.00    -0.052 C 
ATOM     18  C   LIG d   1       9.692   3.770  -6.909  0.00  0.00    -0.014 C 
ATOM     19  C   LIG d   1       9.364   2.341  -7.338  0.00  0.00     0.075 C 
ATOM     20  C   LIG d   1      10.642   1.624  -7.780  0.00  0.00     0.022 C 
ATOM     21  C   LIG d   1      11.631   1.634  -6.641  0.00  0.00     0.144 C 
ATOM     22  O   LIG d   1      12.157   0.610  -6.279  0.00  0.00    -0.296 OA
ATOM     23  C   LIG d   1      11.965   2.937  -5.959  0.00  0.00     0.048 C 
ATOM     24  C   LIG d   1      12.596   2.657  -4.599  0.00  0.00    -0.036 C 
ATOM     25  C   LIG d   1      12.764   3.977  -3.834  0.00  0.00    -0.042 C 
ATOM     26  C   LIG d   1      11.406   4.590  -3.532  0.00  0.00    -0.001 C 
ATOM     27  H   LIG d   1      10.333   9.203  -5.511  0.00  0.00     0.027 H 
ATOM     28  H   LIG d   1       8.892   8.812  -4.540  0.00  0.00     0.027 H 
ATOM     29  H   LIG d   1      10.765  11.175  -4.042  0.00  0.00     0.029 H 
ATOM     30  H   LIG d   1       9.163  11.240  -4.763  0.00  0.00     0.029 H 
ATOM     31  H   LIG d   1      11.962   7.964  -1.111  0.00  0.00     0.027 H 
ATOM     32  H   LIG d   1      10.479   7.698  -0.186  0.00  0.00     0.027 H 
ATOM     33  H   LIG d   1      11.380   5.584  -0.907  0.00  0.00     0.027 H 
ATOM     34  H   LIG d   1       9.796   5.914  -1.696  0.00  0.00     0.027 H 
ATOM     35  H   LIG d   1       8.583   7.224  -4.156  0.00  0.00     0.058 H 
ATOM     36  H   LIG d   1       8.256   4.852  -4.846  0.00  0.00     0.062 H 
ATOM     37  H   LIG d   1       8.780   4.254  -6.566  0.00  0.00     0.032 H 
ATOM     38  H   LIG d   1      10.085   4.319  -7.766  0.00  0.00     0.032 H 
ATOM     39  H   LIG d   1      10.409   0.593  -8.049  0.00  0.00     0.035 H 
ATOM     40  H   LIG d   1      11.069   2.134  -8.643  0.00  0.00     0.035 H 
ATOM     41  H   LIG d   1      11.976   1.966  -4.035  0.00  0.00     0.028 H 
ATOM     42  H   LIG d   1      13.583   2.209  -4.746  0.00  0.00     0.028 H 
ATOM     43  H   LIG d   1      13.283   3.760  -2.899  0.00  0.00     0.027 H 
ATOM     44  H   LIG d   1      13.365   4.633  -4.459  0.00  0.00     0.027 H 
ENDROOT
BRANCH  19  45
ATOM     45  C   LIG d   1       8.376   2.379  -8.507  0.00  0.00    -0.049 C 
ATOM     46  H   LIG d   1       8.926   2.425  -9.446  0.00  0.00     0.024 H 
ATOM     47  H   LIG d   1       7.760   1.479  -8.489  0.00  0.00     0.024 H 
ATOM     48  H   LIG d   1       7.739   3.258  -8.414  0.00  0.00     0.024 H 
ENDBRANCH  19  45
BRANCH  19  49
ATOM     49  C   LIG d   1       8.742   1.598  -6.183  0.00  0.00     0.314 C 
ATOM     50  O   LIG d   1       9.015   0.437  -5.994  0.00  0.00    -0.250 OA
BRANCH  49  51
ATOM     51  O   LIG d   1       7.883   2.228  -5.365  0.00  0.00    -0.459 OA
BRANCH  51  52
ATOM     52  C   LIG d   1       7.947   1.896  -3.978  0.00  0.00     0.132 C 
ATOM     53  H   LIG d   1       8.902   1.416  -3.763  0.00  0.00     0.075 H 
ATOM     54  H   LIG d   1       7.854   2.803  -3.382  0.00  0.00     0.075 H 
BRANCH  52  55
ATOM     55  C   LIG d   1       6.806   0.938  -3.629  0.00  0.00    -0.000 C 
ATOM     56  H   LIG d   1       6.321   1.269  -2.711  0.00  0.00     0.085 H 
ATOM     57  H   LIG d   1       6.078   0.929  -4.440  0.00  0.00     0.085 H 
BRANCH  55  58
ATOM     58  N   LIG d   1       7.345  -0.416  -3.439  0.00  0.00     0.221 N 
ATOM     59  H   LIG d   1       7.080  -0.759  -2.529  0.00  0.00     0.200 HD
ATOM     60  H   LIG d   1       6.975  -1.028  -4.151  0.00  0.00     0.200 HD
ATOM     61  H   LIG d   1       8.352  -0.390  -3.509  0.00  0.00     0.200 HD
ENDBRANCH  55  58
ENDBRANCH  52  55
ENDBRANCH  51  52
ENDBRANCH  49  51
ENDBRANCH  19  49
BRANCH  23  62
ATOM     62  C   LIG d   1      12.961   3.691  -6.840  0.00  0.00    -0.049 C 
ATOM     63  H   LIG d   1      12.451   4.512  -7.344  0.00  0.00     0.024 H 
ATOM     64  H   LIG d   1      13.764   4.090  -6.220  0.00  0.00     0.024 H 
ATOM     65  H   LIG d   1      13.377   3.012  -7.583  0.00  0.00     0.024 H 
ENDBRANCH  23  62
BRANCH  26  66
ATOM     66  C   LIG d   1      10.774   3.722  -2.439  0.00  0.00    -0.055 C 
ATOM     67  H   LIG d   1      10.609   2.716  -2.825  0.00  0.00     0.024 H 
ATOM     68  H   LIG d   1      11.443   3.675  -1.579  0.00  0.00     0.024 H 
ATOM     69  H   LIG d   1       9.822   4.155  -2.135  0.00  0.00     0.024 H 
ENDBRANCH  26  66
BRANCH  11  70
ATOM     70  C   LIG d   1      13.000   6.348  -2.847  0.00  0.00    -0.058 C 
ATOM     71  H   LIG d   1      13.588   5.698  -3.494  0.00  0.00     0.024 H 
ATOM     72  H   LIG d   1      13.185   7.389  -3.112  0.00  0.00     0.024 H 
ATOM     73  H   LIG d   1      13.285   6.181  -1.808  0.00  0.00     0.024 H 
ENDBRANCH  11  70
BRANCH   1  74
ATOM     74  C   LIG d   1      12.162   9.098  -3.592  0.00  0.00    -0.059 C 
ATOM     75  H   LIG d   1      12.540   9.229  -2.578  0.00  0.00     0.024 H 
ATOM     76  H   LIG d   1      12.842   8.459  -4.154  0.00  0.00     0.024 H 
ATOM     77  H   LIG d   1      12.089  10.070  -4.080  0.00  0.00     0.024 H 
ENDBRANCH   1  74
BRANCH   6  78
ATOM     78  C   LIG d   1       8.830   9.735  -0.462  0.00  0.00    -0.057 C 
ATOM     79  H   LIG d   1       8.502   8.698  -0.393  0.00  0.00     0.024 H 
ATOM     80  H   LIG d   1       9.316  10.025   0.470  0.00  0.00     0.024 H 
ATOM     81  H   LIG d   1       7.966  10.378  -0.636  0.00  0.00     0.024 H 
ENDBRANCH   6  78
BRANCH   6  82
ATOM     82  C   LIG d   1      11.063  10.596  -1.079  0.00  0.00    -0.057 C 
ATOM     83  H   LIG d   1      11.048  11.643  -1.382  0.00  0.00     0.024 H 
ATOM     84  H   LIG d   1      11.058  10.533   0.010  0.00  0.00     0.024 H 
ATOM     85  H   LIG d   1      11.963  10.119  -1.466  0.00  0.00     0.024 H 
ENDBRANCH   6  82
BRANCH   4  86
ATOM     86  O   LIG d   1       9.165  12.126  -2.218  0.00  0.00    -0.391 OA
ATOM     87  H   LIG d   1       8.684  12.272  -1.392  0.00  0.00     0.210 HD
ENDBRANCH   4  86
TORSDOF 13
ENDMDL
MODEL 5
REMARK VINA RESULT:      -5.4      6.179     10.505
REMARK  13 active torsions:
REMARK  status: ('A' for Active; 'I' for Inactive)
REMARK    1  A    between atoms: C_1  and  C_2 
REMARK    2  A    between atoms: C_5  and  O_40 
REMARK    3  A    between atoms: C_7  and  C_38 
REMARK    4  A    between atoms: C_7  and  C_39 
REMARK    5  A    between atoms: C_12  and  C_37 
REMARK    6  A    between atoms: C_20  and  C_30 
REMARK    7  A    between atoms: C_20  and  C_31 
REMARK    8  A    between atoms: C_24  and  C_29 
REMARK    9  A    between atoms: C_27  and  C_28 
REMARK   10  A    between atoms: C_31  and  O_33 
REMARK   11  A    between atoms: O_33  and  C_34 
REMARK   12  A    between atoms: C_34  and  C_35 
REMARK   13  A    between atoms: C_35  and  N_36 
ROOT
ATOM      1  C   LIG d   1       5.194  -1.262  -5.328  0.00  0.00    -0.022 C 
ATOM      2  C   LIG d   1       3.718  -0.964  -5.656  0.00  0.00    -0.044 C 
ATOM      3  C   LIG d   1       3.328   0.372  -5.027  0.00  0.00    -0.026 C 
ATOM      4  C   LIG d   1       3.448   0.307  -3.512  0.00  0.00     0.061 C 
ATOM      5  H   LIG d   1       2.696  -0.391  -3.122  0.00  0.00     0.060 H 
ATOM      6  C   LIG d   1       4.829  -0.150  -3.043  0.00  0.00    -0.006 C 
ATOM      7  C   LIG d   1       5.334  -1.347  -3.817  0.00  0.00    -0.028 C 
ATOM      8  H   LIG d   1       4.692  -2.211  -3.500  0.00  0.00     0.031 H 
ATOM      9  C   LIG d   1       6.759  -1.744  -3.443  0.00  0.00    -0.049 C 
ATOM     10  C   LIG d   1       7.020  -3.162  -3.986  0.00  0.00    -0.046 C 
ATOM     11  C   LIG d   1       6.927  -3.161  -5.515  0.00  0.00    -0.016 C 
ATOM     12  C   LIG d   1       5.568  -2.615  -5.939  0.00  0.00    -0.011 C 
ATOM     13  H   LIG d   1       5.555  -2.515  -7.020  0.00  0.00     0.035 H 
ATOM     14  C   LIG d   1       4.478  -3.594  -5.542  0.00  0.00    -0.080 C 
ATOM     15  C   LIG d   1       4.632  -4.874  -5.924  0.00  0.00    -0.062 C 
ATOM     16  C   LIG d   1       5.885  -5.111  -6.692  0.00  0.00    -0.041 C 
ATOM     17  C   LIG d   1       5.812  -5.781  -7.831  0.00  0.00    -0.052 C 
ATOM     18  C   LIG d   1       4.461  -6.269  -8.301  0.00  0.00    -0.014 C 
ATOM     19  C   LIG d   1       4.531  -7.745  -8.689  0.00  0.00     0.075 C 
ATOM     20  C   LIG d   1       5.595  -7.948  -9.771  0.00  0.00     0.022 C 
ATOM     21  C   LIG d   1       6.925  -7.460  -9.251  0.00  0.00     0.144 C 
ATOM     22  O   LIG d   1       7.900  -8.167  -9.310  0.00  0.00    -0.296 OA
ATOM     23  C   LIG d   1       7.029  -6.077  -8.660  0.00  0.00     0.048 C 
ATOM     24  C   LIG d   1       8.292  -5.974  -7.812  0.00  0.00    -0.036 C 
ATOM     25  C   LIG d   1       8.299  -4.633  -7.068  0.00  0.00    -0.042 C 
ATOM     26  C   LIG d   1       7.143  -4.567  -6.083  0.00  0.00    -0.001 C 
ATOM     27  H   LIG d   1       3.601  -0.912  -6.737  0.00  0.00     0.027 H 
ATOM     28  H   LIG d   1       3.082  -1.745  -5.251  0.00  0.00     0.027 H 
ATOM     29  H   LIG d   1       3.912   1.191  -5.428  0.00  0.00     0.029 H 
ATOM     30  H   LIG d   1       2.273   0.572  -5.282  0.00  0.00     0.029 H 
ATOM     31  H   LIG d   1       7.488  -1.048  -3.836  0.00  0.00     0.027 H 
ATOM     32  H   LIG d   1       6.867  -1.785  -2.354  0.00  0.00     0.027 H 
ATOM     33  H   LIG d   1       8.023  -3.441  -3.666  0.00  0.00     0.027 H 
ATOM     34  H   LIG d   1       6.266  -3.817  -3.556  0.00  0.00     0.027 H 
ATOM     35  H   LIG d   1       3.622  -3.289  -4.959  0.00  0.00     0.058 H 
ATOM     36  H   LIG d   1       3.922  -5.654  -5.689  0.00  0.00     0.062 H 
ATOM     37  H   LIG d   1       3.725  -6.147  -7.508  0.00  0.00     0.032 H 
ATOM     38  H   LIG d   1       4.147  -5.686  -9.168  0.00  0.00     0.032 H 
ATOM     39  H   LIG d   1       5.668  -9.008 -10.017  0.00  0.00     0.035 H 
ATOM     40  H   LIG d   1       5.321  -7.388 -10.664  0.00  0.00     0.035 H 
ATOM     41  H   LIG d   1       8.336  -6.801  -7.108  0.00  0.00     0.028 H 
ATOM     42  H   LIG d   1       9.168  -6.018  -8.466  0.00  0.00     0.028 H 
ATOM     43  H   LIG d   1       9.244  -4.552  -6.529  0.00  0.00     0.027 H 
ATOM     44  H   LIG d   1       8.223  -3.850  -7.820  0.00  0.00     0.027 H 
ENDROOT
BRANCH  19  45
ATOM     45  C   LIG d   1       3.170  -8.191  -9.229  0.00  0.00    -0.049 C 
ATOM     46  H   LIG d   1       3.268  -9.167  -9.701  0.00  0.00     0.024 H 
ATOM     47  H   LIG d   1       2.457  -8.254  -8.407  0.00  0.00     0.024 H 
ATOM     48  H   LIG d   1       2.816  -7.466  -9.962  0.00  0.00     0.024 H 
ENDBRANCH  19  45
BRANCH  19  49
ATOM     49  C   LIG d   1       4.880  -8.569  -7.476  0.00  0.00     0.314 C 
ATOM     50  O   LIG d   1       5.668  -9.479  -7.570  0.00  0.00    -0.250 OA
BRANCH  49  51
ATOM     51  O   LIG d   1       4.314  -8.291  -6.290  0.00  0.00    -0.459 OA
BRANCH  51  52
ATOM     52  C   LIG d   1       5.107  -8.518  -5.125  0.00  0.00     0.132 C 
ATOM     53  H   LIG d   1       6.098  -8.863  -5.420  0.00  0.00     0.075 H 
ATOM     54  H   LIG d   1       5.198  -7.590  -4.561  0.00  0.00     0.075 H 
BRANCH  52  55
ATOM     55  C   LIG d   1       4.437  -9.581  -4.250  0.00  0.00    -0.000 C 
ATOM     56  H   LIG d   1       5.066  -9.789  -3.385  0.00  0.00     0.085 H 
ATOM     57  H   LIG d   1       3.466  -9.216  -3.915  0.00  0.00     0.085 H 
BRANCH  55  58
ATOM     58  N   LIG d   1       4.254 -10.811  -5.031  0.00  0.00     0.221 N 
ATOM     59  H   LIG d   1       4.579 -11.602  -4.496  0.00  0.00     0.200 HD
ATOM     60  H   LIG d   1       3.275 -10.931  -5.247  0.00  0.00     0.200 HD
ATOM     61  H   LIG d   1       4.782 -10.747  -5.890  0.00  0.00     0.200 HD
ENDBRANCH  55  58
ENDBRANCH  52  55
ENDBRANCH  51  52
ENDBRANCH  49  51
ENDBRANCH  19  49
BRANCH  23  62
ATOM     62  C   LIG d   1       7.103  -5.074  -9.812  0.00  0.00    -0.049 C 
ATOM     63  H   LIG d   1       7.257  -4.072  -9.412  0.00  0.00     0.024 H 
ATOM     64  H   LIG d   1       7.935  -5.334 -10.467  0.00  0.00     0.024 H 
ATOM     65  H   LIG d   1       6.173  -5.101 -10.378  0.00  0.00     0.024 H 
ENDBRANCH  23  62
BRANCH  26  66
ATOM     66  C   LIG d   1       7.503  -5.516  -4.934  0.00  0.00    -0.055 C 
ATOM     67  H   LIG d   1       8.503  -5.281  -4.569  0.00  0.00     0.024 H 
ATOM     68  H   LIG d   1       6.783  -5.396  -4.124  0.00  0.00     0.024 H 
ATOM     69  H   LIG d   1       7.479  -6.545  -5.292  0.00  0.00     0.024 H 
ENDBRANCH  26  66
BRANCH  11  70
ATOM     70  C   LIG d   1       8.072  -2.279  -6.037  0.00  0.00    -0.058 C 
ATOM     71  H   LIG d   1       7.808  -1.882  -7.016  0.00  0.00     0.024 H 
ATOM     72  H   LIG d   1       8.241  -1.455  -5.344  0.00  0.00     0.024 H 
ATOM     73  H   LIG d   1       8.980  -2.877  -6.121  0.00  0.00     0.024 H 
ENDBRANCH  11  70
BRANCH   1  74
ATOM     74  C   LIG d   1       6.015  -0.140  -5.954  0.00  0.00    -0.059 C 
ATOM     75  H   LIG d   1       5.364   0.708  -6.171  0.00  0.00     0.024 H 
ATOM     76  H   LIG d   1       6.796   0.170  -5.262  0.00  0.00     0.024 H 
ATOM     77  H   LIG d   1       6.468  -0.495  -6.880  0.00  0.00     0.024 H 
ENDBRANCH   1  74
BRANCH   6  78
ATOM     78  C   LIG d   1       4.665  -0.574  -1.561  0.00  0.00    -0.057 C 
ATOM     79  H   LIG d   1       3.767  -1.183  -1.454  0.00  0.00     0.024 H 
ATOM     80  H   LIG d   1       5.535  -1.151  -1.249  0.00  0.00     0.024 H 
ATOM     81  H   LIG d   1       4.576   0.316  -0.937  0.00  0.00     0.024 H 
ENDBRANCH   6  78
BRANCH   6  82
ATOM     82  C   LIG d   1       5.804   1.026  -3.062  0.00  0.00    -0.057 C 
ATOM     83  H   LIG d   1       5.573   1.678  -3.904  0.00  0.00     0.024 H 
ATOM     84  H   LIG d   1       5.713   1.588  -2.132  0.00  0.00     0.024 H 
ATOM     85  H   LIG d   1       6.823   0.651  -3.161  0.00  0.00     0.024 H 
ENDBRANCH   6  82
BRANCH   4  86
ATOM     86  O   LIG d   1       3.178   1.603  -2.962  0.00  0.00    -0.391 OA
ATOM     87  H   LIG d   1       3.375   2.334  -3.562  0.00  0.00     0.210 HD
ENDBRANCH   4  86
TORSDOF 13
ENDMDL
MODEL 6
REMARK VINA RESULT:      -5.2      6.148      9.011
REMARK  13 active torsions:
REMARK  status: ('A' for Active; 'I' for Inactive)
REMARK    1  A    between atoms: C_1  and  C_2 
REMARK    2  A    between atoms: C_5  and  O_40 
REMARK    3  A    between atoms: C_7  and  C_38 
REMARK    4  A    between atoms: C_7  and  C_39 
REMARK    5  A    between atoms: C_12  and  C_37 
REMARK    6  A    between atoms: C_20  and  C_30 
REMARK    7  A    between atoms: C_20  and  C_31 
REMARK    8  A    between atoms: C_24  and  C_29 
REMARK    9  A    between atoms: C_27  and  C_28 
REMARK   10  A    between atoms: C_31  and  O_33 
REMARK   11  A    between atoms: O_33  and  C_34 
REMARK   12  A    between atoms: C_34  and  C_35 
REMARK   13  A    between atoms: C_35  and  N_36 
ROOT
ATOM      1  C   LIG d   1       6.012  -0.496  -8.315  0.00  0.00    -0.022 C 
ATOM      2  C   LIG d   1       6.420  -0.925  -9.738  0.00  0.00    -0.044 C 
ATOM      3  C   LIG d   1       5.874   0.091 -10.740  0.00  0.00    -0.026 C 
ATOM      4  C   LIG d   1       4.353   0.124 -10.697  0.00  0.00     0.061 C 
ATOM      5  H   LIG d   1       3.964  -0.835 -11.064  0.00  0.00     0.060 H 
ATOM      6  C   LIG d   1       3.803   0.370  -9.293  0.00  0.00    -0.006 C 
ATOM      7  C   LIG d   1       4.494  -0.473  -8.245  0.00  0.00    -0.028 C 
ATOM      8  H   LIG d   1       4.164  -1.528  -8.433  0.00  0.00     0.031 H 
ATOM      9  C   LIG d   1       4.038  -0.154  -6.824  0.00  0.00    -0.049 C 
ATOM     10  C   LIG d   1       4.500  -1.301  -5.904  0.00  0.00    -0.046 C 
ATOM     11  C   LIG d   1       6.030  -1.377  -5.893  0.00  0.00    -0.016 C 
ATOM     12  C   LIG d   1       6.540  -1.535  -7.321  0.00  0.00    -0.011 C 
ATOM     13  H   LIG d   1       7.624  -1.476  -7.313  0.00  0.00     0.035 H 
ATOM     14  C   LIG d   1       6.145  -2.898  -7.857  0.00  0.00    -0.080 C 
ATOM     15  C   LIG d   1       6.456  -3.968  -7.105  0.00  0.00    -0.062 C 
ATOM     16  C   LIG d   1       7.156  -3.614  -5.840  0.00  0.00    -0.041 C 
ATOM     17  C   LIG d   1       8.263  -4.267  -5.525  0.00  0.00    -0.052 C 
ATOM     18  C   LIG d   1       8.768  -5.337  -6.466  0.00  0.00    -0.014 C 
ATOM     19  C   LIG d   1       9.080  -6.619  -5.697  0.00  0.00     0.075 C 
ATOM     20  C   LIG d   1      10.103  -6.330  -4.595  0.00  0.00     0.022 C 
ATOM     21  C   LIG d   1       9.549  -5.269  -3.677  0.00  0.00     0.144 C 
ATOM     22  O   LIG d   1       9.530  -5.444  -2.483  0.00  0.00    -0.296 OA
ATOM     23  C   LIG d   1       9.022  -3.982  -4.260  0.00  0.00     0.048 C 
ATOM     24  C   LIG d   1       8.125  -3.286  -3.243  0.00  0.00    -0.036 C 
ATOM     25  C   LIG d   1       7.448  -2.078  -3.902  0.00  0.00    -0.042 C 
ATOM     26  C   LIG d   1       6.518  -2.535  -5.016  0.00  0.00    -0.001 C 
ATOM     27  H   LIG d   1       7.506  -0.958  -9.799  0.00  0.00     0.027 H 
ATOM     28  H   LIG d   1       6.006  -1.902  -9.965  0.00  0.00     0.027 H 
ATOM     29  H   LIG d   1       6.288   1.078 -10.576  0.00  0.00     0.029 H 
ATOM     30  H   LIG d   1       6.185  -0.228 -11.749  0.00  0.00     0.029 H 
ATOM     31  H   LIG d   1       4.433   0.792  -6.477  0.00  0.00     0.027 H 
ATOM     32  H   LIG d   1       2.945  -0.116  -6.777  0.00  0.00     0.027 H 
ATOM     33  H   LIG d   1       4.123  -1.075  -4.907  0.00  0.00     0.027 H 
ATOM     34  H   LIG d   1       4.072  -2.220  -6.295  0.00  0.00     0.027 H 
ATOM     35  H   LIG d   1       5.615  -3.013  -8.791  0.00  0.00     0.058 H 
ATOM     36  H   LIG d   1       6.215  -4.984  -7.388  0.00  0.00     0.062 H 
ATOM     37  H   LIG d   1       8.015  -5.553  -7.222  0.00  0.00     0.032 H 
ATOM     38  H   LIG d   1       9.675  -4.986  -6.959  0.00  0.00     0.032 H 
ATOM     39  H   LIG d   1      10.294  -7.240  -4.026  0.00  0.00     0.035 H 
ATOM     40  H   LIG d   1      11.033  -5.981  -5.042  0.00  0.00     0.035 H 
ATOM     41  H   LIG d   1       7.380  -3.982  -2.865  0.00  0.00     0.028 H 
ATOM     42  H   LIG d   1       8.736  -2.932  -2.407  0.00  0.00     0.028 H 
ATOM     43  H   LIG d   1       6.871  -1.556  -3.137  0.00  0.00     0.027 H 
ATOM     44  H   LIG d   1       8.239  -1.438  -4.285  0.00  0.00     0.027 H 
ENDROOT
BRANCH  19  45
ATOM     45  C   LIG d   1       9.658  -7.658  -6.662  0.00  0.00    -0.049 C 
ATOM     46  H   LIG d   1      10.468  -8.198  -6.173  0.00  0.00     0.024 H 
ATOM     47  H   LIG d   1       8.875  -8.360  -6.950  0.00  0.00     0.024 H 
ATOM     48  H   LIG d   1      10.040  -7.156  -7.550  0.00  0.00     0.024 H 
ENDBRANCH  19  45
BRANCH  19  49
ATOM     49  C   LIG d   1       7.814  -7.160  -5.083  0.00  0.00     0.314 C 
ATOM     50  O   LIG d   1       6.780  -7.129  -5.705  0.00  0.00    -0.250 OA
BRANCH  49  51
ATOM     51  O   LIG d   1       7.837  -7.676  -3.843  0.00  0.00    -0.459 OA
BRANCH  51  52
ATOM     52  C   LIG d   1       7.799  -9.100  -3.733  0.00  0.00     0.132 C 
ATOM     53  H   LIG d   1       6.774  -9.447  -3.869  0.00  0.00     0.075 H 
ATOM     54  H   LIG d   1       8.437  -9.541  -4.497  0.00  0.00     0.075 H 
BRANCH  52  55
ATOM     55  C   LIG d   1       8.298  -9.518  -2.348  0.00  0.00    -0.000 C 
ATOM     56  H   LIG d   1       7.505 -10.047  -1.820  0.00  0.00     0.085 H 
ATOM     57  H   LIG d   1       9.162 -10.174  -2.456  0.00  0.00     0.085 H 
BRANCH  55  58
ATOM     58  N   LIG d   1       8.683  -8.323  -1.586  0.00  0.00     0.221 N 
ATOM     59  H   LIG d   1       9.087  -7.641  -2.209  0.00  0.00     0.200 HD
ATOM     60  H   LIG d   1       7.866  -7.930  -1.141  0.00  0.00     0.200 HD
ATOM     61  H   LIG d   1       9.360  -8.577  -0.881  0.00  0.00     0.200 HD
ENDBRANCH  55  58
ENDBRANCH  52  55
ENDBRANCH  51  52
ENDBRANCH  49  51
ENDBRANCH  19  49
BRANCH  23  62
ATOM     62  C   LIG d   1      10.217  -3.086  -4.587  0.00  0.00    -0.049 C 
ATOM     63  H   LIG d   1      10.399  -3.101  -5.662  0.00  0.00     0.024 H 
ATOM     64  H   LIG d   1      10.003  -2.065  -4.270  0.00  0.00     0.024 H 
ATOM     65  H   LIG d   1      11.100  -3.452  -4.064  0.00  0.00     0.024 H 
ENDBRANCH  23  62
BRANCH  26  66
ATOM     66  C   LIG d   1       5.310  -3.182  -4.331  0.00  0.00    -0.055 C 
ATOM     67  H   LIG d   1       4.400  -2.667  -4.638  0.00  0.00     0.024 H 
ATOM     68  H   LIG d   1       5.248  -4.232  -4.617  0.00  0.00     0.024 H 
ATOM     69  H   LIG d   1       5.422  -3.106  -3.249  0.00  0.00     0.024 H 
ENDBRANCH  26  66
BRANCH  11  70
ATOM     70  C   LIG d   1       6.543  -0.077  -5.255  0.00  0.00    -0.058 C 
ATOM     71  H   LIG d   1       5.866   0.228  -4.457  0.00  0.00     0.024 H 
ATOM     72  H   LIG d   1       7.539  -0.241  -4.844  0.00  0.00     0.024 H 
ATOM     73  H   LIG d   1       6.586   0.706  -6.012  0.00  0.00     0.024 H 
ENDBRANCH  11  70
BRANCH   1  74
ATOM     74  C   LIG d   1       6.656   0.864  -8.069  0.00  0.00    -0.059 C 
ATOM     75  H   LIG d   1       7.214   0.838  -7.133  0.00  0.00     0.024 H 
ATOM     76  H   LIG d   1       7.332   1.100  -8.889  0.00  0.00     0.024 H 
ATOM     77  H   LIG d   1       5.879   1.627  -8.006  0.00  0.00     0.024 H 
ENDBRANCH   1  74
BRANCH   6  78
ATOM     78  C   LIG d   1       2.311  -0.047  -9.334  0.00  0.00    -0.057 C 
ATOM     79  H   LIG d   1       1.734   0.597  -8.669  0.00  0.00     0.024 H 
ATOM     80  H   LIG d   1       1.933   0.050 -10.351  0.00  0.00     0.024 H 
ATOM     81  H   LIG d   1       2.214  -1.084  -9.008  0.00  0.00     0.024 H 
ENDBRANCH   6  78
BRANCH   6  82
ATOM     82  C   LIG d   1       3.835   1.864  -8.973  0.00  0.00    -0.057 C 
ATOM     83  H   LIG d   1       3.061   2.096  -8.241  0.00  0.00     0.024 H 
ATOM     84  H   LIG d   1       4.811   2.126  -8.565  0.00  0.00     0.024 H 
ATOM     85  H   LIG d   1       3.657   2.434  -9.884  0.00  0.00     0.024 H 
ENDBRANCH   6  82
BRANCH   4  86
ATOM     86  O   LIG d   1       3.880   1.158 -11.569  0.00  0.00    -0.391 OA
ATOM     87  H   LIG d   1       4.566   1.775 -11.856  0.00  0.00     0.210 HD
ENDBRANCH   4  86
TORSDOF 13
ENDMDL
MODEL 7
REMARK VINA RESULT:      -5.2      5.612      8.531
REMARK  13 active torsions:
REMARK  status: ('A' for Active; 'I' for Inactive)
REMARK    1  A    between atoms: C_1  and  C_2 
REMARK    2  A    between atoms: C_5  and  O_40 
REMARK    3  A    between atoms: C_7  and  C_38 
REMARK    4  A    between atoms: C_7  and  C_39 
REMARK    5  A    between atoms: C_12  and  C_37 
REMARK    6  A    between atoms: C_20  and  C_30 
REMARK    7  A    between atoms: C_20  and  C_31 
REMARK    8  A    between atoms: C_24  and  C_29 
REMARK    9  A    between atoms: C_27  and  C_28 
REMARK   10  A    between atoms: C_31  and  O_33 
REMARK   11  A    between atoms: O_33  and  C_34 
REMARK   12  A    between atoms: C_34  and  C_35 
REMARK   13  A    between atoms: C_35  and  N_36 
ROOT
ATOM      1  C   LIG d   1       6.268  -1.303  -4.475  0.00  0.00    -0.022 C 
ATOM      2  C   LIG d   1       6.530   0.209  -4.618  0.00  0.00    -0.044 C 
ATOM      3  C   LIG d   1       6.255   0.890  -3.279  0.00  0.00    -0.026 C 
ATOM      4  C   LIG d   1       4.796   0.721  -2.881  0.00  0.00     0.061 C 
ATOM      5  H   LIG d   1       4.166   1.276  -3.588  0.00  0.00     0.060 H 
ATOM      6  C   LIG d   1       4.348  -0.739  -2.868  0.00  0.00    -0.006 C 
ATOM      7  C   LIG d   1       4.810  -1.496  -4.093  0.00  0.00    -0.028 C 
ATOM      8  H   LIG d   1       4.214  -1.087  -4.950  0.00  0.00     0.031 H 
ATOM      9  C   LIG d   1       4.473  -2.983  -4.040  0.00  0.00    -0.049 C 
ATOM     10  C   LIG d   1       4.632  -3.562  -5.460  0.00  0.00    -0.046 C 
ATOM     11  C   LIG d   1       6.089  -3.434  -5.915  0.00  0.00    -0.016 C 
ATOM     12  C   LIG d   1       6.521  -1.974  -5.829  0.00  0.00    -0.011 C 
ATOM     13  H   LIG d   1       7.583  -1.911  -6.045  0.00  0.00     0.035 H 
ATOM     14  C   LIG d   1       5.777  -1.158  -6.870  0.00  0.00    -0.080 C 
ATOM     15  C   LIG d   1       5.809  -1.604  -8.138  0.00  0.00    -0.062 C 
ATOM     16  C   LIG d   1       6.594  -2.858  -8.300  0.00  0.00    -0.041 C 
ATOM     17  C   LIG d   1       7.497  -2.919  -9.266  0.00  0.00    -0.052 C 
ATOM     18  C   LIG d   1       7.692  -1.712 -10.154  0.00  0.00    -0.014 C 
ATOM     19  C   LIG d   1       7.670  -2.123 -11.625  0.00  0.00     0.075 C 
ATOM     20  C   LIG d   1       8.747  -3.178 -11.887  0.00  0.00     0.022 C 
ATOM     21  C   LIG d   1       8.502  -4.365 -10.990  0.00  0.00     0.144 C 
ATOM     22  O   LIG d   1       8.455  -5.480 -11.450  0.00  0.00    -0.296 OA
ATOM     23  C   LIG d   1       8.321  -4.152  -9.508  0.00  0.00     0.048 C 
ATOM     24  C   LIG d   1       7.650  -5.374  -8.891  0.00  0.00    -0.036 C 
ATOM     25  C   LIG d   1       7.302  -5.079  -7.426  0.00  0.00    -0.042 C 
ATOM     26  C   LIG d   1       6.271  -3.965  -7.340  0.00  0.00    -0.001 C 
ATOM     27  H   LIG d   1       7.570   0.361  -4.903  0.00  0.00     0.027 H 
ATOM     28  H   LIG d   1       5.873   0.630  -5.371  0.00  0.00     0.027 H 
ATOM     29  H   LIG d   1       6.915   0.527  -2.500  0.00  0.00     0.029 H 
ATOM     30  H   LIG d   1       6.459   1.968  -3.399  0.00  0.00     0.029 H 
ATOM     31  H   LIG d   1       5.104  -3.516  -3.342  0.00  0.00     0.027 H 
ATOM     32  H   LIG d   1       3.428  -3.124  -3.745  0.00  0.00     0.027 H 
ATOM     33  H   LIG d   1       4.341  -4.610  -5.407  0.00  0.00     0.027 H 
ATOM     34  H   LIG d   1       3.974  -2.996  -6.115  0.00  0.00     0.027 H 
ATOM     35  H   LIG d   1       5.223  -0.269  -6.609  0.00  0.00     0.058 H 
ATOM     36  H   LIG d   1       5.307  -1.105  -8.955  0.00  0.00     0.062 H 
ATOM     37  H   LIG d   1       6.899  -0.988  -9.978  0.00  0.00     0.032 H 
ATOM     38  H   LIG d   1       8.653  -1.248  -9.927  0.00  0.00     0.032 H 
ATOM     39  H   LIG d   1       8.702  -3.495 -12.930  0.00  0.00     0.035 H 
ATOM     40  H   LIG d   1       9.731  -2.757 -11.680  0.00  0.00     0.035 H 
ATOM     41  H   LIG d   1       6.755  -5.631  -9.451  0.00  0.00     0.028 H 
ATOM     42  H   LIG d   1       8.344  -6.219  -8.923  0.00  0.00     0.028 H 
ATOM     43  H   LIG d   1       6.892  -5.991  -6.988  0.00  0.00     0.027 H 
ATOM     44  H   LIG d   1       8.228  -4.801  -6.928  0.00  0.00     0.027 H 
ENDROOT
BRANCH  19  45
ATOM     45  C   LIG d   1       7.943  -0.894 -12.497  0.00  0.00    -0.049 C 
ATOM     46  H   LIG d   1       8.683  -1.145 -13.256  0.00  0.00     0.024 H 
ATOM     47  H   LIG d   1       7.018  -0.580 -12.980  0.00  0.00     0.024 H 
ATOM     48  H   LIG d   1       8.322  -0.084 -11.873  0.00  0.00     0.024 H 
ENDBRANCH  19  45
BRANCH  19  49
ATOM     49  C   LIG d   1       6.315  -2.687 -11.971  0.00  0.00     0.314 C 
ATOM     50  O   LIG d   1       6.221  -3.585 -12.773  0.00  0.00    -0.250 OA
BRANCH  49  51
ATOM     51  O   LIG d   1       5.213  -2.190 -11.388  0.00  0.00    -0.459 OA
BRANCH  51  52
ATOM     52  C   LIG d   1       4.130  -3.095 -11.172  0.00  0.00     0.132 C 
ATOM     53  H   LIG d   1       3.762  -3.459 -12.132  0.00  0.00     0.075 H 
ATOM     54  H   LIG d   1       4.473  -3.937 -10.572  0.00  0.00     0.075 H 
BRANCH  52  55
ATOM     55  C   LIG d   1       2.999  -2.373 -10.435  0.00  0.00    -0.000 C 
ATOM     56  H   LIG d   1       3.423  -1.713  -9.678  0.00  0.00     0.085 H 
ATOM     57  H   LIG d   1       2.420  -1.785 -11.146  0.00  0.00     0.085 H 
BRANCH  55  58
ATOM     58  N   LIG d   1       2.125  -3.362  -9.790  0.00  0.00     0.221 N 
ATOM     59  H   LIG d   1       2.575  -4.264  -9.797  0.00  0.00     0.200 HD
ATOM     60  H   LIG d   1       1.946  -3.082  -8.837  0.00  0.00     0.200 HD
ATOM     61  H   LIG d   1       1.252  -3.418 -10.294  0.00  0.00     0.200 HD
ENDBRANCH  55  58
ENDBRANCH  52  55
ENDBRANCH  51  52
ENDBRANCH  49  51
ENDBRANCH  19  49
BRANCH  23  62
ATOM     62  C   LIG d   1       9.704  -3.957  -8.885  0.00  0.00    -0.049 C 
ATOM     63  H   LIG d   1      10.086  -2.971  -9.150  0.00  0.00     0.024 H 
ATOM     64  H   LIG d   1       9.627  -4.036  -7.800  0.00  0.00     0.024 H 
ATOM     65  H   LIG d   1      10.382  -4.723  -9.259  0.00  0.00     0.024 H 
ENDBRANCH  23  62
BRANCH  26  66
ATOM     66  C   LIG d   1       4.945  -4.568  -7.818  0.00  0.00    -0.055 C 
ATOM     67  H   LIG d   1       4.618  -4.054  -8.723  0.00  0.00     0.024 H 
ATOM     68  H   LIG d   1       5.083  -5.628  -8.031  0.00  0.00     0.024 H 
ATOM     69  H   LIG d   1       4.191  -4.449  -7.040  0.00  0.00     0.024 H 
ENDBRANCH  26  66
BRANCH  11  70
ATOM     70  C   LIG d   1       6.932  -4.323  -4.988  0.00  0.00    -0.058 C 
ATOM     71  H   LIG d   1       6.374  -5.227  -4.747  0.00  0.00     0.024 H 
ATOM     72  H   LIG d   1       7.862  -4.593  -5.488  0.00  0.00     0.024 H 
ATOM     73  H   LIG d   1       7.156  -3.780  -4.070  0.00  0.00     0.024 H 
ENDBRANCH  11  70
BRANCH   1  74
ATOM     74  C   LIG d   1       7.248  -1.818  -3.425  0.00  0.00    -0.059 C 
ATOM     75  H   LIG d   1       8.124  -2.237  -3.921  0.00  0.00     0.024 H 
ATOM     76  H   LIG d   1       7.554  -0.996  -2.779  0.00  0.00     0.024 H 
ATOM     77  H   LIG d   1       6.765  -2.591  -2.827  0.00  0.00     0.024 H 
ENDBRANCH   1  74
BRANCH   6  78
ATOM     78  C   LIG d   1       2.798  -0.717  -2.877  0.00  0.00    -0.057 C 
ATOM     79  H   LIG d   1       2.436  -0.242  -1.964  0.00  0.00     0.024 H 
ATOM     80  H   LIG d   1       2.447  -0.155  -3.742  0.00  0.00     0.024 H 
ATOM     81  H   LIG d   1       2.420  -1.738  -2.929  0.00  0.00     0.024 H 
ENDBRANCH   6  78
BRANCH   6  82
ATOM     82  C   LIG d   1       4.773  -1.406  -1.560  0.00  0.00    -0.057 C 
ATOM     83  H   LIG d   1       4.028  -1.206  -0.791  0.00  0.00     0.024 H 
ATOM     84  H   LIG d   1       4.859  -2.482  -1.712  0.00  0.00     0.024 H 
ATOM     85  H   LIG d   1       5.737  -1.006  -1.246  0.00  0.00     0.024 H 
ENDBRANCH   6  82
BRANCH   4  86
ATOM     86  O   LIG d   1       4.597   1.280  -1.576  0.00  0.00    -0.391 OA
ATOM     87  H   LIG d   1       4.385   2.223  -1.579  0.00  0.00     0.210 HD
ENDBRANCH   4  86
TORSDOF 13
ENDMDL
MODEL 8
REMARK VINA RESULT:      -5.1      1.838      2.528
REMARK  13 active torsions:
REMARK  status: ('A' for Active; 'I' for Inactive)
REMARK    1  A    between atoms: C_1  and  C_2 
REMARK    2  A    between atoms: C_5  and  O_40 
REMARK    3  A    between atoms: C_7  and  C_38 
REMARK    4  A    between atoms: C_7  and  C_39 
REMARK    5  A    between atoms: C_12  and  C_37 
REMARK    6  A    between atoms: C_20  and  C_30 
REMARK    7  A    between atoms: C_20  and  C_31 
REMARK    8  A    between atoms: C_24  and  C_29 
REMARK    9  A    between atoms: C_27  and  C_28 
REMARK   10  A    between atoms: C_31  and  O_33 
REMARK   11  A    between atoms: O_33  and  C_34 
REMARK   12  A    between atoms: C_34  and  C_35 
REMARK   13  A    between atoms: C_35  and  N_36 
ROOT
ATOM      1  C   LIG d   1       7.502  -1.688  -4.871  0.00  0.00    -0.022 C 
ATOM      2  C   LIG d   1       6.229  -1.207  -4.148  0.00  0.00    -0.044 C 
ATOM      3  C   LIG d   1       5.298  -2.399  -3.933  0.00  0.00    -0.026 C 
ATOM      4  C   LIG d   1       4.864  -2.987  -5.268  0.00  0.00     0.061 C 
ATOM      5  H   LIG d   1       4.233  -2.258  -5.792  0.00  0.00     0.060 H 
ATOM      6  C   LIG d   1       6.043  -3.352  -6.169  0.00  0.00    -0.006 C 
ATOM      7  C   LIG d   1       7.093  -2.266  -6.215  0.00  0.00    -0.028 C 
ATOM      8  H   LIG d   1       6.631  -1.416  -6.784  0.00  0.00     0.031 H 
ATOM      9  C   LIG d   1       8.330  -2.662  -7.016  0.00  0.00    -0.049 C 
ATOM     10  C   LIG d   1       9.136  -1.384  -7.318  0.00  0.00    -0.046 C 
ATOM     11  C   LIG d   1       9.616  -0.748  -6.009  0.00  0.00    -0.016 C 
ATOM     12  C   LIG d   1       8.417  -0.482  -5.105  0.00  0.00    -0.011 C 
ATOM     13  H   LIG d   1       8.777  -0.137  -4.141  0.00  0.00     0.035 H 
ATOM     14  C   LIG d   1       7.556   0.613  -5.708  0.00  0.00    -0.080 C 
ATOM     15  C   LIG d   1       8.171   1.757  -6.055  0.00  0.00    -0.062 C 
ATOM     16  C   LIG d   1       9.633   1.746  -5.778  0.00  0.00    -0.041 C 
ATOM     17  C   LIG d   1      10.165   2.775  -5.137  0.00  0.00    -0.052 C 
ATOM     18  C   LIG d   1       9.261   3.910  -4.712  0.00  0.00    -0.014 C 
ATOM     19  C   LIG d   1       9.855   5.252  -5.135  0.00  0.00     0.075 C 
ATOM     20  C   LIG d   1      11.256   5.412  -4.539  0.00  0.00     0.022 C 
ATOM     21  C   LIG d   1      12.122   4.266  -5.002  0.00  0.00     0.144 C 
ATOM     22  O   LIG d   1      13.199   4.478  -5.501  0.00  0.00    -0.296 OA
ATOM     23  C   LIG d   1      11.633   2.850  -4.831  0.00  0.00     0.048 C 
ATOM     24  C   LIG d   1      12.420   1.922  -5.750  0.00  0.00    -0.036 C 
ATOM     25  C   LIG d   1      11.799   0.519  -5.710  0.00  0.00    -0.042 C 
ATOM     26  C   LIG d   1      10.388   0.548  -6.275  0.00  0.00    -0.001 C 
ATOM     27  H   LIG d   1       6.510  -0.779  -3.187  0.00  0.00     0.027 H 
ATOM     28  H   LIG d   1       5.718  -0.463  -4.750  0.00  0.00     0.027 H 
ATOM     29  H   LIG d   1       5.752  -3.155  -3.305  0.00  0.00     0.029 H 
ATOM     30  H   LIG d   1       4.399  -2.036  -3.406  0.00  0.00     0.029 H 
ATOM     31  H   LIG d   1       8.942  -3.378  -6.484  0.00  0.00     0.027 H 
ATOM     32  H   LIG d   1       8.036  -3.098  -7.976  0.00  0.00     0.027 H 
ATOM     33  H   LIG d   1       9.986  -1.685  -7.928  0.00  0.00     0.027 H 
ATOM     34  H   LIG d   1       8.477  -0.706  -7.854  0.00  0.00     0.027 H 
ATOM     35  H   LIG d   1       6.498   0.480  -5.875  0.00  0.00     0.058 H 
ATOM     36  H   LIG d   1       7.656   2.597  -6.499  0.00  0.00     0.062 H 
ATOM     37  H   LIG d   1       8.281   3.797  -5.171  0.00  0.00     0.032 H 
ATOM     38  H   LIG d   1       9.148   3.894  -3.627  0.00  0.00     0.032 H 
ATOM     39  H   LIG d   1      11.690   6.354  -4.874  0.00  0.00     0.035 H 
ATOM     40  H   LIG d   1      11.193   5.410  -3.451  0.00  0.00     0.035 H 
ATOM     41  H   LIG d   1      12.417   2.311  -6.764  0.00  0.00     0.028 H 
ATOM     42  H   LIG d   1      13.454   1.858  -5.397  0.00  0.00     0.028 H 
ATOM     43  H   LIG d   1      12.421  -0.142  -6.315  0.00  0.00     0.027 H 
ATOM     44  H   LIG d   1      11.803   0.198  -4.671  0.00  0.00     0.027 H 
ENDROOT
BRANCH  19  45
ATOM     45  C   LIG d   1       8.958   6.383  -4.627  0.00  0.00    -0.049 C 
ATOM     46  H   LIG d   1       9.182   6.583  -3.580  0.00  0.00     0.024 H 
ATOM     47  H   LIG d   1       9.141   7.283  -5.216  0.00  0.00     0.024 H 
ATOM     48  H   LIG d   1       7.913   6.090  -4.727  0.00  0.00     0.024 H 
ENDBRANCH  19  45
BRANCH  19  49
ATOM     49  C   LIG d   1       9.935   5.317  -6.639  0.00  0.00     0.314 C 
ATOM     50  O   LIG d   1       9.425   4.451  -7.309  0.00  0.00    -0.250 OA
BRANCH  49  51
ATOM     51  O   LIG d   1      10.574   6.337  -7.233  0.00  0.00    -0.459 OA
BRANCH  51  52
ATOM     52  C   LIG d   1       9.853   7.060  -8.232  0.00  0.00     0.132 C 
ATOM     53  H   LIG d   1      10.510   7.266  -9.077  0.00  0.00     0.075 H 
ATOM     54  H   LIG d   1       9.003   6.467  -8.567  0.00  0.00     0.075 H 
BRANCH  52  55
ATOM     55  C   LIG d   1       9.352   8.381  -7.643  0.00  0.00    -0.000 C 
ATOM     56  H   LIG d   1       8.820   8.186  -6.713  0.00  0.00     0.085 H 
ATOM     57  H   LIG d   1      10.201   9.035  -7.445  0.00  0.00     0.085 H 
BRANCH  55  58
ATOM     58  N   LIG d   1       8.447   9.030  -8.600  0.00  0.00     0.221 N 
ATOM     59  H   LIG d   1       8.060   9.864  -8.186  0.00  0.00     0.200 HD
ATOM     60  H   LIG d   1       8.959   9.275  -9.435  0.00  0.00     0.200 HD
ATOM     61  H   LIG d   1       7.698   8.395  -8.839  0.00  0.00     0.200 HD
ENDBRANCH  55  58
ENDBRANCH  52  55
ENDBRANCH  51  52
ENDBRANCH  49  51
ENDBRANCH  19  49
BRANCH  23  62
ATOM     62  C   LIG d   1      11.860   2.443  -3.375  0.00  0.00    -0.049 C 
ATOM     63  H   LIG d   1      11.253   1.567  -3.144  0.00  0.00     0.024 H 
ATOM     64  H   LIG d   1      12.913   2.203  -3.225  0.00  0.00     0.024 H 
ATOM     65  H   LIG d   1      11.578   3.265  -2.719  0.00  0.00     0.024 H 
ENDBRANCH  23  62
BRANCH  26  66
ATOM     66  C   LIG d   1      10.534   0.736  -7.789  0.00  0.00    -0.055 C 
ATOM     67  H   LIG d   1       9.545   0.801  -8.244  0.00  0.00     0.024 H 
ATOM     68  H   LIG d   1      11.088   1.653  -7.990  0.00  0.00     0.024 H 
ATOM     69  H   LIG d   1      11.072  -0.113  -8.210  0.00  0.00     0.024 H 
ENDBRANCH  26  66
BRANCH  11  70
ATOM     70  C   LIG d   1      10.598  -1.737  -5.361  0.00  0.00    -0.058 C 
ATOM     71  H   LIG d   1      11.300  -1.191  -4.731  0.00  0.00     0.024 H 
ATOM     72  H   LIG d   1      10.045  -2.453  -4.753  0.00  0.00     0.024 H 
ATOM     73  H   LIG d   1      11.146  -2.267  -6.140  0.00  0.00     0.024 H 
ENDBRANCH  11  70
BRANCH   1  74
ATOM     74  C   LIG d   1       8.170  -2.702  -3.949  0.00  0.00    -0.059 C 
ATOM     75  H   LIG d   1       7.416  -3.166  -3.312  0.00  0.00     0.024 H 
ATOM     76  H   LIG d   1       8.663  -3.468  -4.546  0.00  0.00     0.024 H 
ATOM     77  H   LIG d   1       8.908  -2.196  -3.326  0.00  0.00     0.024 H 
ENDBRANCH   1  74
BRANCH   6  78
ATOM     78  C   LIG d   1       5.461  -3.516  -7.597  0.00  0.00    -0.057 C 
ATOM     79  H   LIG d   1       6.037  -4.267  -8.139  0.00  0.00     0.024 H 
ATOM     80  H   LIG d   1       4.421  -3.833  -7.532  0.00  0.00     0.024 H 
ATOM     81  H   LIG d   1       5.520  -2.564  -8.124  0.00  0.00     0.024 H 
ENDBRANCH   6  78
BRANCH   6  82
ATOM     82  C   LIG d   1       6.610  -4.712  -5.764  0.00  0.00    -0.057 C 
ATOM     83  H   LIG d   1       6.663  -4.775  -4.677  0.00  0.00     0.024 H 
ATOM     84  H   LIG d   1       5.962  -5.503  -6.142  0.00  0.00     0.024 H 
ATOM     85  H   LIG d   1       7.608  -4.829  -6.184  0.00  0.00     0.024 H 
ENDBRANCH   6  82
BRANCH   4  86
ATOM     86  O   LIG d   1       4.079  -4.163  -5.031  0.00  0.00    -0.391 OA
ATOM     87  H   LIG d   1       3.821  -4.633  -5.835  0.00  0.00     0.210 HD
ENDBRANCH   4  86
TORSDOF 13
ENDMDL
MODEL 9
REMARK VINA RESULT:      -4.9      3.837      9.085
REMARK  13 active torsions:
REMARK  status: ('A' for Active; 'I' for Inactive)
REMARK    1  A    between atoms: C_1  and  C_2 
REMARK    2  A    between atoms: C_5  and  O_40 
REMARK    3  A    between atoms: C_7  and  C_38 
REMARK    4  A    between atoms: C_7  and  C_39 
REMARK    5  A    between atoms: C_12  and  C_37 
REMARK    6  A    between atoms: C_20  and  C_30 
REMARK    7  A    between atoms: C_20  and  C_31 
REMARK    8  A    between atoms: C_24  and  C_29 
REMARK    9  A    between atoms: C_27  and  C_28 
REMARK   10  A    between atoms: C_31  and  O_33 
REMARK   11  A    between atoms: O_33  and  C_34 
REMARK   12  A    between atoms: C_34  and  C_35 
REMARK   13  A    between atoms: C_35  and  N_36 
ROOT
ATOM      1  C   LIG d   1      10.799   9.311  -1.989  0.00  0.00    -0.022 C 
ATOM      2  C   LIG d   1       9.459   9.338  -1.228  0.00  0.00    -0.044 C 
ATOM      3  C   LIG d   1       9.369  10.635  -0.425  0.00  0.00    -0.026 C 
ATOM      4  C   LIG d   1      10.479  10.701   0.613  0.00  0.00     0.061 C 
ATOM      5  H   LIG d   1      10.313   9.919   1.366  0.00  0.00     0.060 H 
ATOM      6  C   LIG d   1      11.870  10.511   0.010  0.00  0.00    -0.006 C 
ATOM      7  C   LIG d   1      11.923   9.360  -0.968  0.00  0.00    -0.028 C 
ATOM      8  H   LIG d   1      11.817   8.428  -0.353  0.00  0.00     0.031 H 
ATOM      9  C   LIG d   1      13.274   9.231  -1.667  0.00  0.00    -0.049 C 
ATOM     10  C   LIG d   1      13.342   7.838  -2.325  0.00  0.00    -0.046 C 
ATOM     11  C   LIG d   1      12.252   7.713  -3.396  0.00  0.00    -0.016 C 
ATOM     12  C   LIG d   1      10.891   7.996  -2.769  0.00  0.00    -0.011 C 
ATOM     13  H   LIG d   1      10.143   8.014  -3.555  0.00  0.00     0.035 H 
ATOM     14  C   LIG d   1      10.533   6.884  -1.801  0.00  0.00    -0.080 C 
ATOM     15  C   LIG d   1      10.608   5.622  -2.260  0.00  0.00    -0.062 C 
ATOM     16  C   LIG d   1      11.043   5.538  -3.680  0.00  0.00    -0.041 C 
ATOM     17  C   LIG d   1      10.344   4.784  -4.513  0.00  0.00    -0.052 C 
ATOM     18  C   LIG d   1       9.134   4.048  -3.984  0.00  0.00    -0.014 C 
ATOM     19  C   LIG d   1       9.178   2.580  -4.403  0.00  0.00     0.075 C 
ATOM     20  C   LIG d   1       9.261   2.475  -5.928  0.00  0.00     0.022 C 
ATOM     21  C   LIG d   1      10.488   3.211  -6.405  0.00  0.00     0.144 C 
ATOM     22  O   LIG d   1      11.276   2.671  -7.142  0.00  0.00    -0.296 OA
ATOM     23  C   LIG d   1      10.723   4.632  -5.959  0.00  0.00     0.048 C 
ATOM     24  C   LIG d   1      12.187   5.001  -6.170  0.00  0.00    -0.036 C 
ATOM     25  C   LIG d   1      12.461   6.377  -5.548  0.00  0.00    -0.042 C 
ATOM     26  C   LIG d   1      12.270   6.323  -4.040  0.00  0.00    -0.001 C 
ATOM     27  H   LIG d   1       8.644   9.292  -1.947  0.00  0.00     0.027 H 
ATOM     28  H   LIG d   1       9.401   8.496  -0.546  0.00  0.00     0.027 H 
ATOM     29  H   LIG d   1       9.385  11.507  -1.067  0.00  0.00     0.029 H 
ATOM     30  H   LIG d   1       8.400  10.640   0.103  0.00  0.00     0.029 H 
ATOM     31  H   LIG d   1      13.421  10.006  -2.407  0.00  0.00     0.027 H 
ATOM     32  H   LIG d   1      14.086   9.287  -0.936  0.00  0.00     0.027 H 
ATOM     33  H   LIG d   1      14.329   7.751  -2.775  0.00  0.00     0.027 H 
ATOM     34  H   LIG d   1      13.193   7.102  -1.539  0.00  0.00     0.027 H 
ATOM     35  H   LIG d   1      10.250   7.086  -0.779  0.00  0.00     0.058 H 
ATOM     36  H   LIG d   1      10.383   4.756  -1.654  0.00  0.00     0.062 H 
ATOM     37  H   LIG d   1       9.109   4.105  -2.898  0.00  0.00     0.032 H 
ATOM     38  H   LIG d   1       8.229   4.507  -4.384  0.00  0.00     0.032 H 
ATOM     39  H   LIG d   1       9.329   1.426  -6.219  0.00  0.00     0.035 H 
ATOM     40  H   LIG d   1       8.370   2.916  -6.374  0.00  0.00     0.035 H 
ATOM     41  H   LIG d   1      12.830   4.247  -5.725  0.00  0.00     0.028 H 
ATOM     42  H   LIG d   1      12.393   5.055  -7.243  0.00  0.00     0.028 H 
ATOM     43  H   LIG d   1      13.492   6.650  -5.776  0.00  0.00     0.027 H 
ATOM     44  H   LIG d   1      11.771   7.079  -6.010  0.00  0.00     0.027 H 
ENDROOT
BRANCH  19  45
ATOM     45  C   LIG d   1       7.906   1.879  -3.917  0.00  0.00    -0.049 C 
ATOM     46  H   LIG d   1       7.034   2.459  -4.217  0.00  0.00     0.024 H 
ATOM     47  H   LIG d   1       7.850   0.883  -4.358  0.00  0.00     0.024 H 
ATOM     48  H   LIG d   1       7.931   1.794  -2.831  0.00  0.00     0.024 H 
ENDBRANCH  19  45
BRANCH  19  49
ATOM     49  C   LIG d   1      10.380   1.914  -3.784  0.00  0.00     0.314 C 
ATOM     50  O   LIG d   1      10.766   2.258  -2.692  0.00  0.00    -0.250 OA
BRANCH  49  51
ATOM     51  O   LIG d   1      11.023   0.939  -4.446  0.00  0.00    -0.459 OA
BRANCH  51  52
ATOM     52  C   LIG d   1      12.409   0.760  -4.152  0.00  0.00     0.132 C 
ATOM     53  H   LIG d   1      13.008   1.311  -4.877  0.00  0.00     0.075 H 
ATOM     54  H   LIG d   1      12.619   1.131  -3.150  0.00  0.00     0.075 H 
BRANCH  52  55
ATOM     55  C   LIG d   1      12.758  -0.728  -4.228  0.00  0.00    -0.000 C 
ATOM     56  H   LIG d   1      13.276  -0.933  -5.165  0.00  0.00     0.085 H 
ATOM     57  H   LIG d   1      13.405  -0.992  -3.391  0.00  0.00     0.085 H 
BRANCH  55  58
ATOM     58  N   LIG d   1      11.525  -1.524  -4.164  0.00  0.00     0.221 N 
ATOM     59  H   LIG d   1      10.777  -1.022  -4.616  0.00  0.00     0.200 HD
ATOM     60  H   LIG d   1      11.670  -2.407  -4.632  0.00  0.00     0.200 HD
ATOM     61  H   LIG d   1      11.282  -1.691  -3.198  0.00  0.00     0.200 HD
ENDBRANCH  55  58
ENDBRANCH  52  55
ENDBRANCH  51  52
ENDBRANCH  49  51
ENDBRANCH  19  49
BRANCH  23  62
ATOM     62  C   LIG d   1       9.837   5.547  -6.805  0.00  0.00    -0.049 C 
ATOM     63  H   LIG d   1       9.988   5.323  -7.861  0.00  0.00     0.024 H 
ATOM     64  H   LIG d   1       8.791   5.380  -6.546  0.00  0.00     0.024 H 
ATOM     65  H   LIG d   1      10.098   6.586  -6.613  0.00  0.00     0.024 H 
ENDBRANCH  23  62
BRANCH  26  66
ATOM     66  C   LIG d   1      13.459   5.533  -3.483  0.00  0.00    -0.055 C 
ATOM     67  H   LIG d   1      13.176   5.072  -2.536  0.00  0.00     0.024 H 
ATOM     68  H   LIG d   1      13.745   4.757  -4.194  0.00  0.00     0.024 H 
ATOM     69  H   LIG d   1      14.300   6.207  -3.322  0.00  0.00     0.024 H 
ENDBRANCH  26  66
BRANCH  11  70
ATOM     70  C   LIG d   1      12.584   8.730  -4.498  0.00  0.00    -0.058 C 
ATOM     71  H   LIG d   1      13.657   8.921  -4.505  0.00  0.00     0.024 H 
ATOM     72  H   LIG d   1      12.280   8.330  -5.466  0.00  0.00     0.024 H 
ATOM     73  H   LIG d   1      12.051   9.661  -4.306  0.00  0.00     0.024 H 
ENDBRANCH  11  70
BRANCH   1  74
ATOM     74  C   LIG d   1      10.784  10.504  -2.939  0.00  0.00    -0.059 C 
ATOM     75  H   LIG d   1      11.796  10.694  -3.299  0.00  0.00     0.024 H 
ATOM     76  H   LIG d   1      10.133  10.287  -3.785  0.00  0.00     0.024 H 
ATOM     77  H   LIG d   1      10.416  11.384  -2.412  0.00  0.00     0.024 H 
ENDBRANCH   1  74
BRANCH   6  78
ATOM     78  C   LIG d   1      12.813  10.176   1.194  0.00  0.00    -0.057 C 
ATOM     79  H   LIG d   1      13.627  10.900   1.227  0.00  0.00     0.024 H 
ATOM     80  H   LIG d   1      12.253  10.216   2.128  0.00  0.00     0.024 H 
ATOM     81  H   LIG d   1      13.224   9.175   1.059  0.00  0.00     0.024 H 
ENDBRANCH   6  78
BRANCH   6  82
ATOM     82  C   LIG d   1      12.364  11.827  -0.590  0.00  0.00    -0.057 C 
ATOM     83  H   LIG d   1      11.624  12.607  -0.416  0.00  0.00     0.024 H 
ATOM     84  H   LIG d   1      13.306  12.109  -0.119  0.00  0.00     0.024 H 
ATOM     85  H   LIG d   1      12.516  11.702  -1.661  0.00  0.00     0.024 H 
ENDBRANCH   6  82
BRANCH   4  86
ATOM     86  O   LIG d   1      10.429  11.972   1.275  0.00  0.00    -0.391 OA
ATOM     87  H   LIG d   1      10.327  11.912   2.234  0.00  0.00     0.210 HD
ENDBRANCH   4  86
TORSDOF 13
ENDMDL
MODEL 10
REMARK VINA RESULT:      -4.9      6.073      9.865
REMARK  13 active torsions:
REMARK  status: ('A' for Active; 'I' for Inactive)
REMARK    1  A    between atoms: C_1  and  C_2 
REMARK    2  A    between atoms: C_5  and  O_40 
REMARK    3  A    between atoms: C_7  and  C_38 
REMARK    4  A    between atoms: C_7  and  C_39 
REMARK    5  A    between atoms: C_12  and  C_37 
REMARK    6  A    between atoms: C_20  and  C_30 
REMARK    7  A    between atoms: C_20  and  C_31 
REMARK    8  A    between atoms: C_24  and  C_29 
REMARK    9  A    between atoms: C_27  and  C_28 
REMARK   10  A    between atoms: C_31  and  O_33 
REMARK   11  A    between atoms: O_33  and  C_34 
REMARK   12  A    between atoms: C_34  and  C_35 
REMARK   13  A    between atoms: C_35  and  N_36 
ROOT
ATOM      1  C   LIG d   1       3.053  -5.981 -11.218  0.00  0.00    -0.022 C 
ATOM      2  C   LIG d   1       3.937  -6.864 -10.316  0.00  0.00    -0.044 C 
ATOM      3  C   LIG d   1       3.701  -8.331 -10.668  0.00  0.00    -0.026 C 
ATOM      4  C   LIG d   1       2.254  -8.720 -10.402  0.00  0.00     0.061 C 
ATOM      5  H   LIG d   1       2.066  -8.681  -9.321  0.00  0.00     0.060 H 
ATOM      6  C   LIG d   1       1.252  -7.806 -11.106  0.00  0.00    -0.006 C 
ATOM      7  C   LIG d   1       1.601  -6.343 -10.956  0.00  0.00    -0.028 C 
ATOM      8  H   LIG d   1       1.414  -6.092  -9.879  0.00  0.00     0.031 H 
ATOM      9  C   LIG d   1       0.678  -5.423 -11.751  0.00  0.00    -0.049 C 
ATOM     10  C   LIG d   1       0.871  -3.985 -11.231  0.00  0.00    -0.046 C 
ATOM     11  C   LIG d   1       2.311  -3.527 -11.484  0.00  0.00    -0.016 C 
ATOM     12  C   LIG d   1       3.277  -4.514 -10.839  0.00  0.00    -0.011 C 
ATOM     13  H   LIG d   1       4.291  -4.243 -11.117  0.00  0.00     0.035 H 
ATOM     14  C   LIG d   1       3.164  -4.428  -9.328  0.00  0.00    -0.080 C 
ATOM     15  C   LIG d   1       3.267  -3.208  -8.772  0.00  0.00    -0.062 C 
ATOM     16  C   LIG d   1       3.481  -2.125  -9.770  0.00  0.00    -0.041 C 
ATOM     17  C   LIG d   1       4.455  -1.253  -9.559  0.00  0.00    -0.052 C 
ATOM     18  C   LIG d   1       5.306  -1.402  -8.318  0.00  0.00    -0.014 C 
ATOM     19  C   LIG d   1       5.416  -0.068  -7.584  0.00  0.00     0.075 C 
ATOM     20  C   LIG d   1       5.993   0.996  -8.521  0.00  0.00     0.022 C 
ATOM     21  C   LIG d   1       5.104   1.118  -9.733  0.00  0.00     0.144 C 
ATOM     22  O   LIG d   1       4.697   2.197 -10.087  0.00  0.00    -0.296 OA
ATOM     23  C   LIG d   1       4.730  -0.121 -10.507  0.00  0.00     0.048 C 
ATOM     24  C   LIG d   1       3.505   0.163 -11.370  0.00  0.00    -0.036 C 
ATOM     25  C   LIG d   1       3.019  -1.143 -12.011  0.00  0.00    -0.042 C 
ATOM     26  C   LIG d   1       2.544  -2.113 -10.941  0.00  0.00    -0.001 C 
ATOM     27  H   LIG d   1       4.981  -6.607 -10.485  0.00  0.00     0.027 H 
ATOM     28  H   LIG d   1       3.680  -6.705  -9.273  0.00  0.00     0.027 H 
ATOM     29  H   LIG d   1       3.979  -8.548 -11.693  0.00  0.00     0.029 H 
ATOM     30  H   LIG d   1       4.349  -8.944 -10.020  0.00  0.00     0.029 H 
ATOM     31  H   LIG d   1       0.879  -5.471 -12.813  0.00  0.00     0.027 H 
ATOM     32  H   LIG d   1      -0.368  -5.696 -11.579  0.00  0.00     0.027 H 
ATOM     33  H   LIG d   1       0.170  -3.357 -11.778  0.00  0.00     0.027 H 
ATOM     34  H   LIG d   1       0.653  -3.995 -10.166  0.00  0.00     0.027 H 
ATOM     35  H   LIG d   1       2.985  -5.301  -8.718  0.00  0.00     0.058 H 
ATOM     36  H   LIG d   1       3.193  -3.032  -7.708  0.00  0.00     0.062 H 
ATOM     37  H   LIG d   1       4.864  -2.138  -7.650  0.00  0.00     0.032 H 
ATOM     38  H   LIG d   1       6.304  -1.737  -8.604  0.00  0.00     0.032 H 
ATOM     39  H   LIG d   1       6.035   1.955  -8.003  0.00  0.00     0.035 H 
ATOM     40  H   LIG d   1       6.998   0.708  -8.828  0.00  0.00     0.035 H 
ATOM     41  H   LIG d   1       2.719   0.608 -10.766  0.00  0.00     0.028 H 
ATOM     42  H   LIG d   1       3.780   0.863 -12.165  0.00  0.00     0.028 H 
ATOM     43  H   LIG d   1       2.191  -0.902 -12.679  0.00  0.00     0.027 H 
ATOM     44  H   LIG d   1       3.854  -1.553 -12.574  0.00  0.00     0.027 H 
ENDROOT
BRANCH  19  45
ATOM     45  C   LIG d   1       6.342  -0.232  -6.375  0.00  0.00    -0.049 C 
ATOM     46  H   LIG d   1       6.306   0.669  -5.764  0.00  0.00     0.024 H 
ATOM     47  H   LIG d   1       6.017  -1.087  -5.783  0.00  0.00     0.024 H 
ATOM     48  H   LIG d   1       7.363  -0.397  -6.720  0.00  0.00     0.024 H 
ENDBRANCH  19  45
BRANCH  19  49
ATOM     49  C   LIG d   1       4.052   0.362  -7.110  0.00  0.00     0.314 C 
ATOM     50  O   LIG d   1       3.583   1.409  -7.486  0.00  0.00    -0.250 OA
BRANCH  49  51
ATOM     51  O   LIG d   1       3.356  -0.421  -6.269  0.00  0.00    -0.459 OA
BRANCH  51  52
ATOM     52  C   LIG d   1       2.827   0.198  -5.096  0.00  0.00     0.132 C 
ATOM     53  H   LIG d   1       3.243   1.201  -4.994  0.00  0.00     0.075 H 
ATOM     54  H   LIG d   1       1.742   0.261  -5.175  0.00  0.00     0.075 H 
BRANCH  52  55
ATOM     55  C   LIG d   1       3.200  -0.634  -3.867  0.00  0.00    -0.000 C 
ATOM     56  H   LIG d   1       4.038  -0.166  -3.351  0.00  0.00     0.085 H 
ATOM     57  H   LIG d   1       2.345  -0.691  -3.194  0.00  0.00     0.085 H 
BRANCH  55  58
ATOM     58  N   LIG d   1       3.580  -1.988  -4.291  0.00  0.00     0.221 N 
ATOM     59  H   LIG d   1       4.519  -1.975  -4.658  0.00  0.00     0.200 HD
ATOM     60  H   LIG d   1       3.537  -2.614  -3.500  0.00  0.00     0.200 HD
ATOM     61  H   LIG d   1       2.944  -2.308  -5.007  0.00  0.00     0.200 HD
ENDBRANCH  55  58
ENDBRANCH  52  55
ENDBRANCH  51  52
ENDBRANCH  49  51
ENDBRANCH  19  49
BRANCH  23  62
ATOM     62  C   LIG d   1       5.911  -0.496 -11.402  0.00  0.00    -0.049 C 
ATOM     63  H   LIG d   1       6.630   0.324 -11.417  0.00  0.00     0.024 H 
ATOM     64  H   LIG d   1       6.393  -1.392 -11.011  0.00  0.00     0.024 H 
ATOM     65  H   LIG d   1       5.555  -0.686 -12.414  0.00  0.00     0.024 H 
ENDBRANCH  23  62
BRANCH  26  66
ATOM     66  C   LIG d   1       1.215  -1.558 -10.416  0.00  0.00    -0.055 C 
ATOM     67  H   LIG d   1       1.187  -1.652  -9.330  0.00  0.00     0.024 H 
ATOM     68  H   LIG d   1       1.125  -0.508 -10.693  0.00  0.00     0.024 H 
ATOM     69  H   LIG d   1       0.389  -2.121 -10.851  0.00  0.00     0.024 H 
ENDBRANCH  26  66
BRANCH  11  70
ATOM     70  C   LIG d   1       2.505  -3.467 -13.007  0.00  0.00    -0.058 C 
ATOM     71  H   LIG d   1       2.288  -2.459 -13.361  0.00  0.00     0.024 H 
ATOM     72  H   LIG d   1       3.535  -3.725 -13.253  0.00  0.00     0.024 H 
ATOM     73  H   LIG d   1       1.827  -4.173 -13.487  0.00  0.00     0.024 H 
ENDBRANCH  11  70
BRANCH   1  74
ATOM     74  C   LIG d   1       3.498  -6.243 -12.653  0.00  0.00    -0.059 C 
ATOM     75  H   LIG d   1       3.800  -5.303 -13.117  0.00  0.00     0.024 H 
ATOM     76  H   LIG d   1       4.340  -6.934 -12.653  0.00  0.00     0.024 H 
ATOM     77  H   LIG d   1       2.671  -6.675 -13.217  0.00  0.00     0.024 H 
ENDBRANCH   1  74
BRANCH   6  78
ATOM     78  C   LIG d   1      -0.114  -8.046 -10.414  0.00  0.00    -0.057 C 
ATOM     79  H   LIG d   1      -0.064  -7.699  -9.381  0.00  0.00     0.024 H 
ATOM     80  H   LIG d   1      -0.892  -7.498 -10.944  0.00  0.00     0.024 H 
ATOM     81  H   LIG d   1      -0.346  -9.111 -10.427  0.00  0.00     0.024 H 
ENDBRANCH   6  78
BRANCH   6  82
ATOM     82  C   LIG d   1       1.090  -8.233 -12.565  0.00  0.00    -0.057 C 
ATOM     83  H   LIG d   1       0.211  -7.748 -12.990  0.00  0.00     0.024 H 
ATOM     84  H   LIG d   1       1.975  -7.941 -13.129  0.00  0.00     0.024 H 
ATOM     85  H   LIG d   1       0.968  -9.315 -12.615  0.00  0.00     0.024 H 
ENDBRANCH   6  82
BRANCH   4  86
ATOM     86  O   LIG d   1       2.041 -10.068 -10.841  0.00  0.00    -0.391 OA
ATOM     87  H   LIG d   1       2.193 -10.203 -11.786  0.00  0.00     0.210 HD
ENDBRANCH   4  86
TORSDOF 13
ENDMDL
