MODEL 1
REMARK VINA RESULT:      -5.1      0.000      0.000
REMARK  6 active torsions:
REMARK  status: ('A' for Active; 'I' for Inactive)
REMARK    1  A    between atoms: C_1  and  N_2 
REMARK    2  A    between atoms: N_6  and  C_21 
REMARK    3  A    between atoms: N_9  and  C_20 
REMARK    4  A    between atoms: N_13  and  C_16 
REMARK    5  A    between atoms: C_16  and  C_17 
REMARK       I    between atoms: C_17  and  N_19 
REMARK    6  A    between atoms: C_21  and  C_22 
REMARK       I    between atoms: C_22  and  N_24 
ROOT
ATOM      1  N   LIG d   1      10.922   9.900  -3.336  0.00  0.00     0.234 N 
ATOM      2  C   LIG d   1      12.246   9.478  -2.843  0.00  0.00    -0.031 C 
ATOM      3  C   LIG d   1      12.091   8.636  -1.578  0.00  0.00     0.000 C 
ATOM      4  C   LIG d   1      12.857   7.320  -1.721  0.00  0.00     0.004 C 
ATOM      5  N   LIG d   1      11.951   6.214  -1.276  0.00  0.00    -0.293 N 
ATOM      6  C   LIG d   1      12.263   5.034  -2.163  0.00  0.00     0.012 C 
ATOM      7  C   LIG d   1      10.976   4.634  -2.858  0.00  0.00     0.011 C 
ATOM      8  N   LIG d   1      11.013   4.700  -4.349  0.00  0.00    -0.304 N 
ATOM      9  C   LIG d   1       9.618   5.120  -4.709  0.00  0.00    -0.000 C 
ATOM     10  C   LIG d   1       9.555   6.205  -5.770  0.00  0.00    -0.027 C 
ATOM     11  C   LIG d   1       9.503   7.575  -5.114  0.00  0.00     0.001 C 
ATOM     12  N   LIG d   1       9.232   8.657  -6.115  0.00  0.00    -0.289 N 
ATOM     13  C   LIG d   1       9.548   9.930  -5.384  0.00  0.00     0.040 C 
ATOM     14  C   LIG d   1      10.954   9.920  -4.811  0.00  0.00    -0.019 C 
ATOM     15  H   LIG d   1      12.752   8.897  -3.613  0.00  0.00     0.082 H 
ATOM     16  H   LIG d   1      12.839  10.364  -2.616  0.00  0.00     0.082 H 
ATOM     17  H   LIG d   1      12.491   9.192  -0.724  0.00  0.00     0.033 H 
ATOM     18  H   LIG d   1      11.034   8.424  -1.400  0.00  0.00     0.033 H 
ATOM     19  H   LIG d   1      13.148   7.157  -2.746  0.00  0.00     0.043 H 
ATOM     20  H   LIG d   1      13.724   7.324  -1.065  0.00  0.00     0.043 H 
ATOM     21  H   LIG d   1      13.114   5.242  -2.761  0.00  0.00     0.044 H 
ATOM     22  H   LIG d   1      12.545   4.225  -1.460  0.00  0.00     0.044 H 
ATOM     23  H   LIG d   1      10.732   3.594  -2.596  0.00  0.00     0.044 H 
ATOM     24  H   LIG d   1      10.162   5.268  -2.507  0.00  0.00     0.044 H 
ATOM     25  H   LIG d   1       9.105   4.222  -5.077  0.00  0.00     0.043 H 
ATOM     26  H   LIG d   1       9.117   5.456  -3.808  0.00  0.00     0.043 H 
ATOM     27  H   LIG d   1      10.325   6.106  -6.517  0.00  0.00     0.029 H 
ATOM     28  H   LIG d   1       8.599   6.071  -6.317  0.00  0.00     0.029 H 
ATOM     29  H   LIG d   1       8.657   7.599  -4.409  0.00  0.00     0.043 H 
ATOM     30  H   LIG d   1      10.402   7.817  -4.573  0.00  0.00     0.043 H 
ATOM     31  H   LIG d   1       9.432  10.749  -6.088  0.00  0.00     0.048 H 
ATOM     32  H   LIG d   1       8.810  10.027  -4.586  0.00  0.00     0.048 H 
ATOM     33  H   LIG d   1      11.477  10.837  -5.124  0.00  0.00     0.083 H 
ATOM     34  H   LIG d   1      11.547   9.072  -5.142  0.00  0.00     0.083 H 
ATOM     35  H   LIG d   1      10.218   9.261  -3.022  0.00  0.00     0.203 HD
ENDROOT
BRANCH   5  36
ATOM     36  C   LIG d   1      12.486   5.810   0.071  0.00  0.00     0.075 C 
ATOM     37  H   LIG d   1      12.716   4.745   0.064  0.00  0.00     0.052 H 
ATOM     38  H   LIG d   1      13.391   6.377   0.287  0.00  0.00     0.052 H 
BRANCH  36  39
ATOM     39  C   LIG d   1      11.449   6.094   1.128  0.00  0.00     0.225 C 
ATOM     40  O   LIG d   1      11.275   7.229   1.517  0.00  0.00    -0.275 OA
ATOM     41  N   LIG d   1      10.718   5.085   1.640  0.00  0.00    -0.328 N 
ATOM     42  H   LIG d   1      10.857   4.177   1.330  0.00  0.00     0.145 HD
ATOM     43  H   LIG d   1      10.051   5.267   2.322  0.00  0.00     0.145 HD
ENDBRANCH  36  39
ENDBRANCH   5  36
BRANCH   8  44
ATOM     44  C   LIG d   1      11.917   5.836  -4.714  0.00  0.00    -0.013 C 
ATOM     45  H   LIG d   1      12.568   5.534  -5.533  0.00  0.00     0.039 H 
ATOM     46  H   LIG d   1      11.318   6.692  -5.022  0.00  0.00     0.039 H 
ATOM     47  H   LIG d   1      12.523   6.110  -3.849  0.00  0.00     0.039 H 
ENDBRANCH   8  44
BRANCH   1  48
ATOM     48  C   LIG d   1      10.636  11.254  -2.838  0.00  0.00    -0.043 C 
ATOM     49  H   LIG d   1      11.465  11.915  -3.087  0.00  0.00     0.078 H 
ATOM     50  H   LIG d   1       9.722  11.627  -3.302  0.00  0.00     0.078 H 
ATOM     51  H   LIG d   1      10.507  11.225  -1.756  0.00  0.00     0.078 H 
ENDBRANCH   1  48
BRANCH  12  52
ATOM     52  C   LIG d   1      10.293   8.548  -7.174  0.00  0.00     0.076 C 
ATOM     53  H   LIG d   1      11.109   9.233  -6.944  0.00  0.00     0.052 H 
ATOM     54  H   LIG d   1      10.674   7.527  -7.202  0.00  0.00     0.052 H 
BRANCH  52  55
ATOM     55  C   LIG d   1       9.704   8.901  -8.515  0.00  0.00     0.225 C 
ATOM     56  O   LIG d   1      10.431   9.211  -9.434  0.00  0.00    -0.275 OA
ATOM     57  N   LIG d   1       8.368   8.873  -8.693  0.00  0.00    -0.328 N 
ATOM     58  H   LIG d   1       7.786   8.625  -7.957  0.00  0.00     0.145 HD
ATOM     59  H   LIG d   1       7.989   9.100  -9.555  0.00  0.00     0.145 HD
ENDBRANCH  52  55
ENDBRANCH  12  52
TORSDOF 6
ENDMDL
MODEL 2
REMARK VINA RESULT:      -5.1      2.500      7.492
REMARK  6 active torsions:
REMARK  status: ('A' for Active; 'I' for Inactive)
REMARK    1  A    between atoms: C_1  and  N_2 
REMARK    2  A    between atoms: N_6  and  C_21 
REMARK    3  A    between atoms: N_9  and  C_20 
REMARK    4  A    between atoms: N_13  and  C_16 
REMARK    5  A    between atoms: C_16  and  C_17 
REMARK       I    between atoms: C_17  and  N_19 
REMARK    6  A    between atoms: C_21  and  C_22 
REMARK       I    between atoms: C_22  and  N_24 
ROOT
ATOM      1  N   LIG d   1      10.083   7.684  -4.457  0.00  0.00     0.234 N 
ATOM      2  C   LIG d   1      11.202   8.242  -5.237  0.00  0.00    -0.031 C 
ATOM      3  C   LIG d   1      10.786   9.563  -5.881  0.00  0.00     0.000 C 
ATOM      4  C   LIG d   1      11.806  10.656  -5.556  0.00  0.00     0.004 C 
ATOM      5  N   LIG d   1      11.050  11.870  -5.114  0.00  0.00    -0.293 N 
ATOM      6  C   LIG d   1      11.892  12.522  -4.046  0.00  0.00     0.012 C 
ATOM      7  C   LIG d   1      11.047  12.608  -2.790  0.00  0.00     0.011 C 
ATOM      8  N   LIG d   1      11.596  11.885  -1.605  0.00  0.00    -0.304 N 
ATOM      9  C   LIG d   1      10.365  11.390  -0.904  0.00  0.00    -0.000 C 
ATOM     10  C   LIG d   1      10.460   9.948  -0.435  0.00  0.00    -0.027 C 
ATOM     11  C   LIG d   1       9.899   9.015  -1.495  0.00  0.00     0.001 C 
ATOM     12  N   LIG d   1       9.783   7.609  -0.989  0.00  0.00    -0.289 N 
ATOM     13  C   LIG d   1       9.549   6.786  -2.223  0.00  0.00     0.040 C 
ATOM     14  C   LIG d   1      10.631   7.008  -3.265  0.00  0.00    -0.019 C 
ATOM     15  H   LIG d   1      12.056   8.406  -4.581  0.00  0.00     0.082 H 
ATOM     16  H   LIG d   1      11.480   7.533  -6.017  0.00  0.00     0.082 H 
ATOM     17  H   LIG d   1      10.733   9.434  -6.967  0.00  0.00     0.033 H 
ATOM     18  H   LIG d   1       9.803   9.863  -5.512  0.00  0.00     0.033 H 
ATOM     19  H   LIG d   1      12.468  10.337  -4.768  0.00  0.00     0.043 H 
ATOM     20  H   LIG d   1      12.363  10.918  -6.452  0.00  0.00     0.043 H 
ATOM     21  H   LIG d   1      12.837  12.045  -3.985  0.00  0.00     0.044 H 
ATOM     22  H   LIG d   1      12.066  13.551  -4.419  0.00  0.00     0.044 H 
ATOM     23  H   LIG d   1      10.945  13.663  -2.494  0.00  0.00     0.044 H 
ATOM     24  H   LIG d   1      10.050  12.221  -2.996  0.00  0.00     0.044 H 
ATOM     25  H   LIG d   1      10.212  12.045  -0.037  0.00  0.00     0.043 H 
ATOM     26  H   LIG d   1       9.519  11.504  -1.573  0.00  0.00     0.043 H 
ATOM     27  H   LIG d   1      11.448   9.681  -0.097  0.00  0.00     0.029 H 
ATOM     28  H   LIG d   1       9.810   9.853   0.459  0.00  0.00     0.029 H 
ATOM     29  H   LIG d   1       8.872   9.332  -1.738  0.00  0.00     0.043 H 
ATOM     30  H   LIG d   1      10.477   9.013  -2.404  0.00  0.00     0.043 H 
ATOM     31  H   LIG d   1       9.525   5.743  -1.920  0.00  0.00     0.048 H 
ATOM     32  H   LIG d   1       8.574   7.075  -2.615  0.00  0.00     0.048 H 
ATOM     33  H   LIG d   1      11.031   6.033  -3.584  0.00  0.00     0.083 H 
ATOM     34  H   LIG d   1      11.464   7.603  -2.900  0.00  0.00     0.083 H 
ATOM     35  H   LIG d   1       9.461   8.416  -4.174  0.00  0.00     0.203 HD
ENDROOT
BRANCH   5  36
ATOM     36  C   LIG d   1      11.143  12.815  -6.281  0.00  0.00     0.075 C 
ATOM     37  H   LIG d   1      11.653  13.726  -5.969  0.00  0.00     0.052 H 
ATOM     38  H   LIG d   1      11.703  12.343  -7.088  0.00  0.00     0.052 H 
BRANCH  36  39
ATOM     39  C   LIG d   1       9.756  13.155  -6.763  0.00  0.00     0.225 C 
ATOM     40  O   LIG d   1       9.199  14.152  -6.356  0.00  0.00    -0.275 OA
ATOM     41  N   LIG d   1       9.135  12.349  -7.647  0.00  0.00    -0.328 N 
ATOM     42  H   LIG d   1       9.580  11.552  -7.973  0.00  0.00     0.145 HD
ATOM     43  H   LIG d   1       8.242  12.567  -7.957  0.00  0.00     0.145 HD
ENDBRANCH  36  39
ENDBRANCH   5  36
BRANCH   8  44
ATOM     44  C   LIG d   1      12.316  10.680  -2.124  0.00  0.00    -0.013 C 
ATOM     45  H   LIG d   1      12.444   9.958  -1.319  0.00  0.00     0.039 H 
ATOM     46  H   LIG d   1      11.736  10.228  -2.929  0.00  0.00     0.039 H 
ATOM     47  H   LIG d   1      13.294  10.977  -2.506  0.00  0.00     0.039 H 
ENDBRANCH   8  44
BRANCH   1  48
ATOM     48  C   LIG d   1       9.366   6.701  -5.285  0.00  0.00    -0.043 C 
ATOM     49  H   LIG d   1       8.347   6.591  -4.916  0.00  0.00     0.078 H 
ATOM     50  H   LIG d   1       9.344   7.044  -6.319  0.00  0.00     0.078 H 
ATOM     51  H   LIG d   1       9.877   5.739  -5.232  0.00  0.00     0.078 H 
ENDBRANCH   1  48
BRANCH  12  52
ATOM     52  C   LIG d   1      11.149   7.204  -0.509  0.00  0.00     0.076 C 
ATOM     53  H   LIG d   1      11.803   7.042  -1.366  0.00  0.00     0.052 H 
ATOM     54  H   LIG d   1      11.563   7.996   0.117  0.00  0.00     0.052 H 
BRANCH  52  55
ATOM     55  C   LIG d   1      11.045   5.933   0.292  0.00  0.00     0.225 C 
ATOM     56  O   LIG d   1      10.565   5.955   1.406  0.00  0.00    -0.275 OA
ATOM     57  N   LIG d   1      11.484   4.770  -0.228  0.00  0.00    -0.328 N 
ATOM     58  H   LIG d   1      11.868   4.752  -1.120  0.00  0.00     0.145 HD
ATOM     59  H   LIG d   1      11.417   3.952   0.286  0.00  0.00     0.145 HD
ENDBRANCH  52  55
ENDBRANCH  12  52
TORSDOF 6
ENDMDL
MODEL 3
REMARK VINA RESULT:      -5.1      2.370      4.398
REMARK  6 active torsions:
REMARK  status: ('A' for Active; 'I' for Inactive)
REMARK    1  A    between atoms: C_1  and  N_2 
REMARK    2  A    between atoms: N_6  and  C_21 
REMARK    3  A    between atoms: N_9  and  C_20 
REMARK    4  A    between atoms: N_13  and  C_16 
REMARK    5  A    between atoms: C_16  and  C_17 
REMARK       I    between atoms: C_17  and  N_19 
REMARK    6  A    between atoms: C_21  and  C_22 
REMARK       I    between atoms: C_22  and  N_24 
ROOT
ATOM      1  N   LIG d   1      10.450   7.976  -5.535  0.00  0.00     0.234 N 
ATOM      2  C   LIG d   1       9.473   7.334  -4.637  0.00  0.00    -0.031 C 
ATOM      3  C   LIG d   1      10.187   6.726  -3.431  0.00  0.00     0.000 C 
ATOM      4  C   LIG d   1       9.535   7.202  -2.132  0.00  0.00     0.004 C 
ATOM      5  N   LIG d   1      10.627   7.636  -1.205  0.00  0.00    -0.293 N 
ATOM      6  C   LIG d   1      10.079   8.812  -0.434  0.00  0.00     0.012 C 
ATOM      7  C   LIG d   1      11.006   9.986  -0.675  0.00  0.00     0.011 C 
ATOM      8  N   LIG d   1      10.370  11.177  -1.312  0.00  0.00    -0.304 N 
ATOM      9  C   LIG d   1      11.466  11.733  -2.174  0.00  0.00    -0.000 C 
ATOM     10  C   LIG d   1      11.012  12.131  -3.569  0.00  0.00    -0.027 C 
ATOM     11  C   LIG d   1      11.214  10.976  -4.534  0.00  0.00     0.001 C 
ATOM     12  N   LIG d   1      10.975  11.393  -5.953  0.00  0.00    -0.289 N 
ATOM     13  C   LIG d   1      10.881  10.100  -6.712  0.00  0.00     0.040 C 
ATOM     14  C   LIG d   1       9.827   9.176  -6.126  0.00  0.00    -0.019 C 
ATOM     15  H   LIG d   1       8.748   8.075  -4.300  0.00  0.00     0.082 H 
ATOM     16  H   LIG d   1       8.953   6.547  -5.183  0.00  0.00     0.082 H 
ATOM     17  H   LIG d   1      10.121   5.635  -3.487  0.00  0.00     0.033 H 
ATOM     18  H   LIG d   1      11.240   7.018  -3.437  0.00  0.00     0.033 H 
ATOM     19  H   LIG d   1       8.871   8.031  -2.320  0.00  0.00     0.043 H 
ATOM     20  H   LIG d   1       9.006   6.377  -1.661  0.00  0.00     0.043 H 
ATOM     21  H   LIG d   1       9.046   8.935  -0.641  0.00  0.00     0.044 H 
ATOM     22  H   LIG d   1      10.168   8.511   0.629  0.00  0.00     0.044 H 
ATOM     23  H   LIG d   1      11.416  10.327   0.287  0.00  0.00     0.044 H 
ATOM     24  H   LIG d   1      11.840   9.668  -1.300  0.00  0.00     0.044 H 
ATOM     25  H   LIG d   1      11.857  12.616  -1.653  0.00  0.00     0.043 H 
ATOM     26  H   LIG d   1      12.257  10.995  -2.241  0.00  0.00     0.043 H 
ATOM     27  H   LIG d   1      10.017  12.545  -3.583  0.00  0.00     0.029 H 
ATOM     28  H   LIG d   1      11.676  12.955  -3.904  0.00  0.00     0.029 H 
ATOM     29  H   LIG d   1      12.268  10.655  -4.488  0.00  0.00     0.043 H 
ATOM     30  H   LIG d   1      10.592  10.125  -4.310  0.00  0.00     0.043 H 
ATOM     31  H   LIG d   1      10.639  10.343  -7.743  0.00  0.00     0.048 H 
ATOM     32  H   LIG d   1      11.866   9.635  -6.667  0.00  0.00     0.048 H 
ATOM     33  H   LIG d   1       9.152   8.844  -6.930  0.00  0.00     0.083 H 
ATOM     34  H   LIG d   1       9.220   9.648  -5.359  0.00  0.00     0.083 H 
ATOM     35  H   LIG d   1      11.269   8.239  -5.021  0.00  0.00     0.203 HD
ENDROOT
BRANCH   5  36
ATOM     36  C   LIG d   1      10.711   6.536  -0.183  0.00  0.00     0.075 C 
ATOM     37  H   LIG d   1      10.605   6.959   0.815  0.00  0.00     0.052 H 
ATOM     38  H   LIG d   1       9.912   5.815  -0.359  0.00  0.00     0.052 H 
BRANCH  36  39
ATOM     39  C   LIG d   1      12.046   5.845  -0.298  0.00  0.00     0.225 C 
ATOM     40  O   LIG d   1      13.030   6.340   0.209  0.00  0.00    -0.275 OA
ATOM     41  N   LIG d   1      12.144   4.678  -0.964  0.00  0.00    -0.328 N 
ATOM     42  H   LIG d   1      11.357   4.282  -1.369  0.00  0.00     0.145 HD
ATOM     43  H   LIG d   1      13.003   4.234  -1.039  0.00  0.00     0.145 HD
ENDBRANCH  36  39
ENDBRANCH   5  36
BRANCH   8  44
ATOM     44  C   LIG d   1       9.309  10.663  -2.235  0.00  0.00    -0.013 C 
ATOM     45  H   LIG d   1       8.759  11.502  -2.660  0.00  0.00     0.039 H 
ATOM     46  H   LIG d   1       9.772  10.088  -3.037  0.00  0.00     0.039 H 
ATOM     47  H   LIG d   1       8.624  10.022  -1.679  0.00  0.00     0.039 H 
ENDBRANCH   8  44
BRANCH   1  48
ATOM     48  C   LIG d   1      10.804   7.034  -6.608  0.00  0.00    -0.043 C 
ATOM     49  H   LIG d   1      11.889   6.964  -6.685  0.00  0.00     0.078 H 
ATOM     50  H   LIG d   1      10.391   6.052  -6.380  0.00  0.00     0.078 H 
ATOM     51  H   LIG d   1      10.395   7.390  -7.554  0.00  0.00     0.078 H 
ENDBRANCH   1  48
BRANCH  12  52
ATOM     52  C   LIG d   1       9.591  11.975  -6.010  0.00  0.00     0.076 C 
ATOM     53  H   LIG d   1       8.891  11.218  -6.364  0.00  0.00     0.052 H 
ATOM     54  H   LIG d   1       9.295  12.304  -5.013  0.00  0.00     0.052 H 
BRANCH  52  55
ATOM     55  C   LIG d   1       9.578  13.151  -6.952  0.00  0.00     0.225 C 
ATOM     56  O   LIG d   1       9.015  13.064  -8.022  0.00  0.00    -0.275 OA
ATOM     57  N   LIG d   1      10.192  14.299  -6.605  0.00  0.00    -0.328 N 
ATOM     58  H   LIG d   1      10.643  14.368  -5.749  0.00  0.00     0.145 HD
ATOM     59  H   LIG d   1      10.184  15.056  -7.211  0.00  0.00     0.145 HD
ENDBRANCH  52  55
ENDBRANCH  12  52
TORSDOF 6
ENDMDL
MODEL 4
REMARK VINA RESULT:      -5.0      2.419      3.046
REMARK  6 active torsions:
REMARK  status: ('A' for Active; 'I' for Inactive)
REMARK    1  A    between atoms: C_1  and  N_2 
REMARK    2  A    between atoms: N_6  and  C_21 
REMARK    3  A    between atoms: N_9  and  C_20 
REMARK    4  A    between atoms: N_13  and  C_16 
REMARK    5  A    between atoms: C_16  and  C_17 
REMARK       I    between atoms: C_17  and  N_19 
REMARK    6  A    between atoms: C_21  and  C_22 
REMARK       I    between atoms: C_22  and  N_24 
ROOT
ATOM      1  N   LIG d   1      10.731  11.881  -2.157  0.00  0.00     0.234 N 
ATOM      2  C   LIG d   1      12.028  11.249  -1.854  0.00  0.00    -0.031 C 
ATOM      3  C   LIG d   1      11.810   9.933  -1.110  0.00  0.00     0.000 C 
ATOM      4  C   LIG d   1      12.575   8.801  -1.799  0.00  0.00     0.004 C 
ATOM      5  N   LIG d   1      11.644   7.637  -1.935  0.00  0.00    -0.293 N 
ATOM      6  C   LIG d   1      11.992   6.974  -3.245  0.00  0.00     0.012 C 
ATOM      7  C   LIG d   1      10.738   6.961  -4.096  0.00  0.00     0.011 C 
ATOM      8  N   LIG d   1      10.845   7.688  -5.395  0.00  0.00    -0.304 N 
ATOM      9  C   LIG d   1       9.471   8.260  -5.584  0.00  0.00    -0.000 C 
ATOM     10  C   LIG d   1       9.463   9.708  -6.045  0.00  0.00    -0.027 C 
ATOM     11  C   LIG d   1       9.387  10.638  -4.847  0.00  0.00     0.001 C 
ATOM     12  N   LIG d   1       9.169  12.061  -5.264  0.00  0.00    -0.289 N 
ATOM     13  C   LIG d   1       9.455  12.861  -4.026  0.00  0.00     0.040 C 
ATOM     14  C   LIG d   1      10.833  12.560  -3.463  0.00  0.00    -0.019 C 
ATOM     15  H   LIG d   1      12.567  11.062  -2.782  0.00  0.00     0.082 H 
ATOM     16  H   LIG d   1      12.614  11.923  -1.229  0.00  0.00     0.082 H 
ATOM     17  H   LIG d   1      12.171  10.036  -0.082  0.00  0.00     0.033 H 
ATOM     18  H   LIG d   1      10.745   9.690  -1.089  0.00  0.00     0.033 H 
ATOM     19  H   LIG d   1      12.913   9.109  -2.775  0.00  0.00     0.043 H 
ATOM     20  H   LIG d   1      13.410   8.489  -1.177  0.00  0.00     0.043 H 
ATOM     21  H   LIG d   1      12.871   7.406  -3.651  0.00  0.00     0.044 H 
ATOM     22  H   LIG d   1      12.236   5.928  -2.970  0.00  0.00     0.044 H 
ATOM     23  H   LIG d   1      10.476   5.921  -4.339  0.00  0.00     0.044 H 
ATOM     24  H   LIG d   1       9.911   7.390  -3.531  0.00  0.00     0.044 H 
ATOM     25  H   LIG d   1       8.971   7.637  -6.336  0.00  0.00     0.043 H 
ATOM     26  H   LIG d   1       8.930   8.169  -4.649  0.00  0.00     0.043 H 
ATOM     27  H   LIG d   1      10.268   9.935  -6.725  0.00  0.00     0.029 H 
ATOM     28  H   LIG d   1       8.533   9.857  -6.632  0.00  0.00     0.029 H 
ATOM     29  H   LIG d   1       8.508  10.365  -4.240  0.00  0.00     0.043 H 
ATOM     30  H   LIG d   1      10.261  10.588  -4.218  0.00  0.00     0.043 H 
ATOM     31  H   LIG d   1       9.377  13.912  -4.291  0.00  0.00     0.048 H 
ATOM     32  H   LIG d   1       8.681  12.609  -3.300  0.00  0.00     0.048 H 
ATOM     33  H   LIG d   1      11.375  13.506  -3.309  0.00  0.00     0.083 H 
ATOM     34  H   LIG d   1      11.437  11.936  -4.116  0.00  0.00     0.083 H 
ATOM     35  H   LIG d   1      10.009  11.186  -2.193  0.00  0.00     0.203 HD
ENDROOT
BRANCH   5  36
ATOM     36  C   LIG d   1      12.112   6.658  -0.894  0.00  0.00     0.075 C 
ATOM     37  H   LIG d   1      12.537   5.782  -1.384  0.00  0.00     0.052 H 
ATOM     38  H   LIG d   1      12.871   7.128  -0.268  0.00  0.00     0.052 H 
BRANCH  36  39
ATOM     39  C   LIG d   1      10.944   6.238  -0.038  0.00  0.00     0.225 C 
ATOM     40  O   LIG d   1       9.883   6.817  -0.134  0.00  0.00    -0.275 OA
ATOM     41  N   LIG d   1      11.081   5.220   0.834  0.00  0.00    -0.328 N 
ATOM     42  H   LIG d   1      11.929   4.758   0.912  0.00  0.00     0.145 HD
ATOM     43  H   LIG d   1      10.330   4.950   1.386  0.00  0.00     0.145 HD
ENDBRANCH  36  39
ENDBRANCH   5  36
BRANCH   8  44
ATOM     44  C   LIG d   1      11.771   8.843  -5.174  0.00  0.00    -0.013 C 
ATOM     45  H   LIG d   1      12.325   9.047  -6.089  0.00  0.00     0.039 H 
ATOM     46  H   LIG d   1      11.193   9.724  -4.895  0.00  0.00     0.039 H 
ATOM     47  H   LIG d   1      12.470   8.600  -4.372  0.00  0.00     0.039 H 
ENDBRANCH   8  44
BRANCH   1  48
ATOM     48  C   LIG d   1      10.428  12.874  -1.116  0.00  0.00    -0.043 C 
ATOM     49  H   LIG d   1      11.201  12.844  -0.349  0.00  0.00     0.078 H 
ATOM     50  H   LIG d   1      10.395  13.869  -1.560  0.00  0.00     0.078 H 
ATOM     51  H   LIG d   1       9.461  12.646  -0.665  0.00  0.00     0.078 H 
ENDBRANCH   1  48
BRANCH  12  52
ATOM     52  C   LIG d   1      10.278  12.412  -6.215  0.00  0.00     0.076 C 
ATOM     53  H   LIG d   1      11.115  12.833  -5.659  0.00  0.00     0.052 H 
ATOM     54  H   LIG d   1      10.606  11.513  -6.737  0.00  0.00     0.052 H 
BRANCH  52  55
ATOM     55  C   LIG d   1       9.781  13.422  -7.217  0.00  0.00     0.225 C 
ATOM     56  O   LIG d   1       9.049  13.072  -8.118  0.00  0.00    -0.275 OA
ATOM     57  N   LIG d   1      10.151  14.713  -7.112  0.00  0.00    -0.328 N 
ATOM     58  H   LIG d   1      10.738  14.993  -6.391  0.00  0.00     0.145 HD
ATOM     59  H   LIG d   1       9.831  15.363  -7.756  0.00  0.00     0.145 HD
ENDBRANCH  52  55
ENDBRANCH  12  52
TORSDOF 6
ENDMDL
MODEL 5
REMARK VINA RESULT:      -4.8      2.838      6.038
REMARK  6 active torsions:
REMARK  status: ('A' for Active; 'I' for Inactive)
REMARK    1  A    between atoms: C_1  and  N_2 
REMARK    2  A    between atoms: N_6  and  C_21 
REMARK    3  A    between atoms: N_9  and  C_20 
REMARK    4  A    between atoms: N_13  and  C_16 
REMARK    5  A    between atoms: C_16  and  C_17 
REMARK       I    between atoms: C_17  and  N_19 
REMARK    6  A    between atoms: C_21  and  C_22 
REMARK       I    between atoms: C_22  and  N_24 
ROOT
ATOM      1  N   LIG d   1      10.114   7.450  -6.174  0.00  0.00     0.234 N 
ATOM      2  C   LIG d   1      11.080   8.562  -6.116  0.00  0.00    -0.031 C 
ATOM      3  C   LIG d   1      10.397   9.826  -5.597  0.00  0.00     0.000 C 
ATOM      4  C   LIG d   1      11.193  10.421  -4.435  0.00  0.00     0.004 C 
ATOM      5  N   LIG d   1      10.227  10.740  -3.336  0.00  0.00    -0.293 N 
ATOM      6  C   LIG d   1      10.956  10.465  -2.044  0.00  0.00     0.012 C 
ATOM      7  C   LIG d   1      10.147   9.440  -1.275  0.00  0.00     0.011 C 
ATOM      8  N   LIG d   1      10.860   8.163  -0.976  0.00  0.00    -0.304 N 
ATOM      9  C   LIG d   1       9.770   7.134  -1.053  0.00  0.00    -0.000 C 
ATOM     10  C   LIG d   1      10.158   5.879  -1.818  0.00  0.00    -0.027 C 
ATOM     11  C   LIG d   1       9.759   6.012  -3.277  0.00  0.00     0.001 C 
ATOM     12  N   LIG d   1       9.935   4.721  -4.018  0.00  0.00    -0.289 N 
ATOM     13  C   LIG d   1       9.830   5.104  -5.466  0.00  0.00     0.040 C 
ATOM     14  C   LIG d   1      10.818   6.198  -5.835  0.00  0.00    -0.019 C 
ATOM     15  H   LIG d   1      11.905   8.293  -5.456  0.00  0.00     0.082 H 
ATOM     16  H   LIG d   1      11.469   8.747  -7.117  0.00  0.00     0.082 H 
ATOM     17  H   LIG d   1      10.339  10.561  -6.405  0.00  0.00     0.033 H 
ATOM     18  H   LIG d   1       9.384   9.589  -5.261  0.00  0.00     0.033 H 
ATOM     19  H   LIG d   1      11.927   9.717  -4.076  0.00  0.00     0.043 H 
ATOM     20  H   LIG d   1      11.662  11.350  -4.746  0.00  0.00     0.043 H 
ATOM     21  H   LIG d   1      11.978  10.257  -2.239  0.00  0.00     0.044 H 
ATOM     22  H   LIG d   1      10.915  11.425  -1.493  0.00  0.00     0.044 H 
ATOM     23  H   LIG d   1       9.850   9.867  -0.305  0.00  0.00     0.044 H 
ATOM     24  H   LIG d   1       9.239   9.204  -1.829  0.00  0.00     0.044 H 
ATOM     25  H   LIG d   1       9.517   6.866  -0.019  0.00  0.00     0.043 H 
ATOM     26  H   LIG d   1       8.900   7.590  -1.512  0.00  0.00     0.043 H 
ATOM     27  H   LIG d   1      11.188   5.600  -1.669  0.00  0.00     0.029 H 
ATOM     28  H   LIG d   1       9.565   5.043  -1.393  0.00  0.00     0.029 H 
ATOM     29  H   LIG d   1       8.683   6.245  -3.332  0.00  0.00     0.043 H 
ATOM     30  H   LIG d   1      10.300   6.788  -3.793  0.00  0.00     0.043 H 
ATOM     31  H   LIG d   1      10.019   4.211  -6.055  0.00  0.00     0.048 H 
ATOM     32  H   LIG d   1       8.806   5.441  -5.631  0.00  0.00     0.048 H 
ATOM     33  H   LIG d   1      11.390   5.883  -6.721  0.00  0.00     0.083 H 
ATOM     34  H   LIG d   1      11.529   6.420  -5.044  0.00  0.00     0.083 H 
ATOM     35  H   LIG d   1       9.370   7.606  -5.522  0.00  0.00     0.203 HD
ENDROOT
BRANCH   5  36
ATOM     36  C   LIG d   1      10.101  12.239  -3.372  0.00  0.00     0.075 C 
ATOM     37  H   LIG d   1      10.711  12.673  -2.581  0.00  0.00     0.052 H 
ATOM     38  H   LIG d   1      10.442  12.609  -4.339  0.00  0.00     0.052 H 
BRANCH  36  39
ATOM     39  C   LIG d   1       8.659  12.626  -3.165  0.00  0.00     0.225 C 
ATOM     40  O   LIG d   1       8.339  13.795  -3.164  0.00  0.00    -0.275 OA
ATOM     41  N   LIG d   1       7.726  11.671  -2.982  0.00  0.00    -0.328 N 
ATOM     42  H   LIG d   1       7.981  10.736  -2.982  0.00  0.00     0.145 HD
ATOM     43  H   LIG d   1       6.798  11.920  -2.848  0.00  0.00     0.145 HD
ENDBRANCH  36  39
ENDBRANCH   5  36
BRANCH   8  44
ATOM     44  C   LIG d   1      11.786   7.902  -2.123  0.00  0.00    -0.013 C 
ATOM     45  H   LIG d   1      11.876   6.828  -2.281  0.00  0.00     0.039 H 
ATOM     46  H   LIG d   1      11.390   8.370  -3.024  0.00  0.00     0.039 H 
ATOM     47  H   LIG d   1      12.768   8.320  -1.899  0.00  0.00     0.039 H 
ENDBRANCH   8  44
BRANCH   1  48
ATOM     48  C   LIG d   1       9.580   7.352  -7.541  0.00  0.00    -0.043 C 
ATOM     49  H   LIG d   1       9.390   6.306  -7.782  0.00  0.00     0.078 H 
ATOM     50  H   LIG d   1       8.649   7.916  -7.609  0.00  0.00     0.078 H 
ATOM     51  H   LIG d   1      10.305   7.761  -8.245  0.00  0.00     0.078 H 
ENDBRANCH   1  48
BRANCH  12  52
ATOM     52  C   LIG d   1      11.366   4.303  -3.832  0.00  0.00     0.076 C 
ATOM     53  H   LIG d   1      11.897   4.390  -4.780  0.00  0.00     0.052 H 
ATOM     54  H   LIG d   1      11.839   4.948  -3.091  0.00  0.00     0.052 H 
BRANCH  52  55
ATOM     55  C   LIG d   1      11.415   2.873  -3.358  0.00  0.00     0.225 C 
ATOM     56  O   LIG d   1      10.392   2.305  -3.042  0.00  0.00    -0.275 OA
ATOM     57  N   LIG d   1      12.595   2.227  -3.286  0.00  0.00    -0.328 N 
ATOM     58  H   LIG d   1      13.414   2.683  -3.538  0.00  0.00     0.145 HD
ATOM     59  H   LIG d   1      12.627   1.307  -2.981  0.00  0.00     0.145 HD
ENDBRANCH  52  55
ENDBRANCH  12  52
TORSDOF 6
ENDMDL
MODEL 6
REMARK VINA RESULT:      -4.8      2.538      7.350
REMARK  6 active torsions:
REMARK  status: ('A' for Active; 'I' for Inactive)
REMARK    1  A    between atoms: C_1  and  N_2 
REMARK    2  A    between atoms: N_6  and  C_21 
REMARK    3  A    between atoms: N_9  and  C_20 
REMARK    4  A    between atoms: N_13  and  C_16 
REMARK    5  A    between atoms: C_16  and  C_17 
REMARK       I    between atoms: C_17  and  N_19 
REMARK    6  A    between atoms: C_21  and  C_22 
REMARK       I    between atoms: C_22  and  N_24 
ROOT
ATOM      1  N   LIG d   1      10.246   7.626  -2.639  0.00  0.00     0.234 N 
ATOM      2  C   LIG d   1      11.355   7.399  -3.583  0.00  0.00    -0.031 C 
ATOM      3  C   LIG d   1      10.820   7.308  -5.011  0.00  0.00     0.000 C 
ATOM      4  C   LIG d   1      11.587   8.264  -5.926  0.00  0.00     0.004 C 
ATOM      5  N   LIG d   1      10.585   9.018  -6.742  0.00  0.00    -0.293 N 
ATOM      6  C   LIG d   1      11.146  10.407  -6.918  0.00  0.00     0.012 C 
ATOM      7  C   LIG d   1      10.130  11.383  -6.359  0.00  0.00     0.011 C 
ATOM      8  N   LIG d   1      10.619  12.232  -5.232  0.00  0.00    -0.304 N 
ATOM      9  C   LIG d   1       9.401  12.394  -4.370  0.00  0.00    -0.000 C 
ATOM     10  C   LIG d   1       9.668  12.215  -2.885  0.00  0.00    -0.027 C 
ATOM     11  C   LIG d   1       9.425  10.771  -2.481  0.00  0.00     0.001 C 
ATOM     12  N   LIG d   1       9.476  10.597  -0.993  0.00  0.00    -0.289 N 
ATOM     13  C   LIG d   1       9.559   9.111  -0.793  0.00  0.00     0.040 C 
ATOM     14  C   LIG d   1      10.725   8.502  -1.552  0.00  0.00    -0.019 C 
ATOM     15  H   LIG d   1      12.069   8.219  -3.509  0.00  0.00     0.082 H 
ATOM     16  H   LIG d   1      11.855   6.465  -3.325  0.00  0.00     0.082 H 
ATOM     17  H   LIG d   1      10.943   6.285  -5.377  0.00  0.00     0.033 H 
ATOM     18  H   LIG d   1       9.758   7.565  -5.026  0.00  0.00     0.033 H 
ATOM     19  H   LIG d   1      12.175   8.958  -5.347  0.00  0.00     0.043 H 
ATOM     20  H   LIG d   1      12.214   7.696  -6.609  0.00  0.00     0.043 H 
ATOM     21  H   LIG d   1      12.140  10.448  -6.549  0.00  0.00     0.044 H 
ATOM     22  H   LIG d   1      11.198  10.549  -8.016  0.00  0.00     0.044 H 
ATOM     23  H   LIG d   1       9.813  12.072  -7.156  0.00  0.00     0.044 H 
ATOM     24  H   LIG d   1       9.251  10.837  -6.020  0.00  0.00     0.044 H 
ATOM     25  H   LIG d   1       9.020  13.407  -4.551  0.00  0.00     0.043 H 
ATOM     26  H   LIG d   1       8.652  11.682  -4.697  0.00  0.00     0.043 H 
ATOM     27  H   LIG d   1      10.629  12.598  -2.583  0.00  0.00     0.029 H 
ATOM     28  H   LIG d   1       8.923  12.833  -2.344  0.00  0.00     0.029 H 
ATOM     29  H   LIG d   1       8.405  10.484  -2.782  0.00  0.00     0.043 H 
ATOM     30  H   LIG d   1      10.118  10.083  -2.937  0.00  0.00     0.043 H 
ATOM     31  H   LIG d   1       9.667   8.930   0.273  0.00  0.00     0.048 H 
ATOM     32  H   LIG d   1       8.615   8.692  -1.141  0.00  0.00     0.048 H 
ATOM     33  H   LIG d   1      11.323   7.886  -0.862  0.00  0.00     0.083 H 
ATOM     34  H   LIG d   1      11.387   9.244  -1.991  0.00  0.00     0.083 H 
ATOM     35  H   LIG d   1       9.477   8.063  -3.110  0.00  0.00     0.203 HD
ENDROOT
BRANCH   5  36
ATOM     36  C   LIG d   1      10.683   8.408  -8.114  0.00  0.00     0.075 C 
ATOM     37  H   LIG d   1      11.124   9.130  -8.801  0.00  0.00     0.052 H 
ATOM     38  H   LIG d   1      11.309   7.517  -8.072  0.00  0.00     0.052 H 
BRANCH  36  39
ATOM     39  C   LIG d   1       9.305   8.033  -8.597  0.00  0.00     0.225 C 
ATOM     40  O   LIG d   1       9.063   6.887  -8.908  0.00  0.00    -0.275 OA
ATOM     41  N   LIG d   1       8.343   8.973  -8.681  0.00  0.00    -0.328 N 
ATOM     42  H   LIG d   1       8.536   9.889  -8.433  0.00  0.00     0.145 HD
ATOM     43  H   LIG d   1       7.456   8.732  -8.992  0.00  0.00     0.145 HD
ENDBRANCH  36  39
ENDBRANCH   5  36
BRANCH   8  44
ATOM     44  C   LIG d   1      11.596  11.406  -4.455  0.00  0.00    -0.013 C 
ATOM     45  H   LIG d   1      11.939  11.969  -3.588  0.00  0.00     0.039 H 
ATOM     46  H   LIG d   1      11.112  10.487  -4.124  0.00  0.00     0.039 H 
ATOM     47  H   LIG d   1      12.448  11.159  -5.090  0.00  0.00     0.039 H 
ENDBRANCH   8  44
BRANCH   1  48
ATOM     48  C   LIG d   1       9.828   6.335  -2.073  0.00  0.00    -0.043 C 
ATOM     49  H   LIG d   1      10.443   5.539  -2.491  0.00  0.00     0.078 H 
ATOM     50  H   LIG d   1       9.948   6.357  -0.990  0.00  0.00     0.078 H 
ATOM     51  H   LIG d   1       8.781   6.152  -2.318  0.00  0.00     0.078 H 
ENDBRANCH   1  48
BRANCH  12  52
ATOM     52  C   LIG d   1      10.808  11.123  -0.537  0.00  0.00     0.076 C 
ATOM     53  H   LIG d   1      11.474  10.287  -0.318  0.00  0.00     0.052 H 
ATOM     54  H   LIG d   1      11.245  11.737  -1.325  0.00  0.00     0.052 H 
BRANCH  52  55
ATOM     55  C   LIG d   1      10.622  11.956   0.704  0.00  0.00     0.225 C 
ATOM     56  O   LIG d   1      11.246  11.692   1.710  0.00  0.00    -0.275 OA
ATOM     57  N   LIG d   1       9.763  12.994   0.697  0.00  0.00    -0.328 N 
ATOM     58  H   LIG d   1       9.264  13.204  -0.108  0.00  0.00     0.145 HD
ATOM     59  H   LIG d   1       9.643  13.530   1.495  0.00  0.00     0.145 HD
ENDBRANCH  52  55
ENDBRANCH  12  52
TORSDOF 6
ENDMDL
MODEL 7
REMARK VINA RESULT:      -4.8      2.133      4.293
REMARK  6 active torsions:
REMARK  status: ('A' for Active; 'I' for Inactive)
REMARK    1  A    between atoms: C_1  and  N_2 
REMARK    2  A    between atoms: N_6  and  C_21 
REMARK    3  A    between atoms: N_9  and  C_20 
REMARK    4  A    between atoms: N_13  and  C_16 
REMARK    5  A    between atoms: C_16  and  C_17 
REMARK       I    between atoms: C_17  and  N_19 
REMARK    6  A    between atoms: C_21  and  C_22 
REMARK       I    between atoms: C_22  and  N_24 
ROOT
ATOM      1  N   LIG d   1      10.052   6.468  -2.877  0.00  0.00     0.234 N 
ATOM      2  C   LIG d   1       9.195   7.042  -1.824  0.00  0.00    -0.031 C 
ATOM      3  C   LIG d   1      10.056   7.681  -0.736  0.00  0.00     0.000 C 
ATOM      4  C   LIG d   1       9.596   9.115  -0.469  0.00  0.00     0.004 C 
ATOM      5  N   LIG d   1      10.812   9.987  -0.442  0.00  0.00    -0.293 N 
ATOM      6  C   LIG d   1      10.397  11.304  -1.048  0.00  0.00     0.012 C 
ATOM      7  C   LIG d   1      11.304  11.566  -2.234  0.00  0.00     0.011 C 
ATOM      8  N   LIG d   1      10.609  11.695  -3.549  0.00  0.00    -0.304 N 
ATOM      9  C   LIG d   1      11.587  11.094  -4.516  0.00  0.00    -0.000 C 
ATOM     10  C   LIG d   1      10.955  10.156  -5.530  0.00  0.00    -0.027 C 
ATOM     11  C   LIG d   1      11.002   8.726  -5.019  0.00  0.00     0.001 C 
ATOM     12  N   LIG d   1      10.579   7.748  -6.073  0.00  0.00    -0.289 N 
ATOM     13  C   LIG d   1      10.358   6.465  -5.325  0.00  0.00     0.040 C 
ATOM     14  C   LIG d   1       9.377   6.639  -4.178  0.00  0.00    -0.019 C 
ATOM     15  H   LIG d   1       8.537   7.793  -2.260  0.00  0.00     0.082 H 
ATOM     16  H   LIG d   1       8.591   6.248  -1.386  0.00  0.00     0.082 H 
ATOM     17  H   LIG d   1       9.963   7.097   0.185  0.00  0.00     0.033 H 
ATOM     18  H   LIG d   1      11.103   7.687  -1.047  0.00  0.00     0.033 H 
ATOM     19  H   LIG d   1       8.928   9.452  -1.245  0.00  0.00     0.043 H 
ATOM     20  H   LIG d   1       9.121   9.175   0.507  0.00  0.00     0.043 H 
ATOM     21  H   LIG d   1       9.348  11.320  -1.204  0.00  0.00     0.044 H 
ATOM     22  H   LIG d   1      10.624  12.055  -0.265  0.00  0.00     0.044 H 
ATOM     23  H   LIG d   1      11.848  12.508  -2.073  0.00  0.00     0.044 H 
ATOM     24  H   LIG d   1      12.039  10.765  -2.312  0.00  0.00     0.044 H 
ATOM     25  H   LIG d   1      12.062  11.932  -5.043  0.00  0.00     0.043 H 
ATOM     26  H   LIG d   1      12.348  10.567  -3.952  0.00  0.00     0.043 H 
ATOM     27  H   LIG d   1       9.975  10.476  -5.844  0.00  0.00     0.029 H 
ATOM     28  H   LIG d   1      11.582  10.195  -6.444  0.00  0.00     0.029 H 
ATOM     29  H   LIG d   1      12.045   8.471  -4.774  0.00  0.00     0.043 H 
ATOM     30  H   LIG d   1      10.400   8.573  -4.138  0.00  0.00     0.043 H 
ATOM     31  H   LIG d   1       9.982   5.733  -6.034  0.00  0.00     0.048 H 
ATOM     32  H   LIG d   1      11.331   6.145  -4.951  0.00  0.00     0.048 H 
ATOM     33  H   LIG d   1       8.592   5.871  -4.254  0.00  0.00     0.083 H 
ATOM     34  H   LIG d   1       8.889   7.611  -4.174  0.00  0.00     0.083 H 
ATOM     35  H   LIG d   1      10.939   6.935  -2.892  0.00  0.00     0.203 HD
ENDROOT
BRANCH   5  36
ATOM     36  C   LIG d   1      11.015  10.303   1.015  0.00  0.00     0.075 C 
ATOM     37  H   LIG d   1      11.314  11.346   1.122  0.00  0.00     0.052 H 
ATOM     38  H   LIG d   1      10.083  10.135   1.556  0.00  0.00     0.052 H 
BRANCH  36  39
ATOM     39  C   LIG d   1      12.092   9.411   1.577  0.00  0.00     0.225 C 
ATOM     40  O   LIG d   1      11.793   8.466   2.276  0.00  0.00    -0.275 OA
ATOM     41  N   LIG d   1      13.386   9.665   1.303  0.00  0.00    -0.328 N 
ATOM     42  H   LIG d   1      13.625  10.420   0.745  0.00  0.00     0.145 HD
ATOM     43  H   LIG d   1      14.080   9.091   1.666  0.00  0.00     0.145 HD
ENDBRANCH  36  39
ENDBRANCH   5  36
BRANCH   8  44
ATOM     44  C   LIG d   1       9.422  10.783  -3.507  0.00  0.00    -0.013 C 
ATOM     45  H   LIG d   1       9.250  10.364  -4.497  0.00  0.00     0.039 H 
ATOM     46  H   LIG d   1       9.609   9.976  -2.798  0.00  0.00     0.039 H 
ATOM     47  H   LIG d   1       8.543  11.346  -3.192  0.00  0.00     0.039 H 
ENDBRANCH   8  44
BRANCH   1  48
ATOM     48  C   LIG d   1      10.239   5.034  -2.613  0.00  0.00    -0.043 C 
ATOM     49  H   LIG d   1      10.932   4.617  -3.343  0.00  0.00     0.078 H 
ATOM     50  H   LIG d   1      10.644   4.898  -1.610  0.00  0.00     0.078 H 
ATOM     51  H   LIG d   1       9.279   4.521  -2.689  0.00  0.00     0.078 H 
ENDBRANCH   1  48
BRANCH  12  52
ATOM     52  C   LIG d   1       9.210   8.167  -6.533  0.00  0.00     0.076 C 
ATOM     53  H   LIG d   1       8.468   7.466  -6.151  0.00  0.00     0.052 H 
ATOM     54  H   LIG d   1       8.992   9.166  -6.157  0.00  0.00     0.052 H 
BRANCH  52  55
ATOM     55  C   LIG d   1       9.167   8.174  -8.039  0.00  0.00     0.225 C 
ATOM     56  O   LIG d   1       9.807   7.358  -8.668  0.00  0.00    -0.275 OA
ATOM     57  N   LIG d   1       8.418   9.088  -8.687  0.00  0.00    -0.328 N 
ATOM     58  H   LIG d   1       7.907   9.741  -8.183  0.00  0.00     0.145 HD
ATOM     59  H   LIG d   1       8.390   9.093  -9.656  0.00  0.00     0.145 HD
ENDBRANCH  52  55
ENDBRANCH  12  52
TORSDOF 6
ENDMDL
MODEL 8
REMARK VINA RESULT:      -4.8      2.644      3.404
REMARK  6 active torsions:
REMARK  status: ('A' for Active; 'I' for Inactive)
REMARK    1  A    between atoms: C_1  and  N_2 
REMARK    2  A    between atoms: N_6  and  C_21 
REMARK    3  A    between atoms: N_9  and  C_20 
REMARK    4  A    between atoms: N_13  and  C_16 
REMARK    5  A    between atoms: C_16  and  C_17 
REMARK       I    between atoms: C_17  and  N_19 
REMARK    6  A    between atoms: C_21  and  C_22 
REMARK       I    between atoms: C_22  and  N_24 
ROOT
ATOM      1  N   LIG d   1       9.691   9.278  -2.297  0.00  0.00     0.234 N 
ATOM      2  C   LIG d   1      10.859   8.518  -1.815  0.00  0.00    -0.031 C 
ATOM      3  C   LIG d   1      10.508   7.036  -1.692  0.00  0.00     0.000 C 
ATOM      4  C   LIG d   1      11.540   6.183  -2.430  0.00  0.00     0.004 C 
ATOM      5  N   LIG d   1      10.797   5.187  -3.265  0.00  0.00    -0.293 N 
ATOM      6  C   LIG d   1      11.607   5.009  -4.525  0.00  0.00     0.012 C 
ATOM      7  C   LIG d   1      10.709   5.356  -5.696  0.00  0.00     0.011 C 
ATOM      8  N   LIG d   1      11.185   6.487  -6.547  0.00  0.00    -0.304 N 
ATOM      9  C   LIG d   1       9.911   7.154  -6.975  0.00  0.00    -0.000 C 
ATOM     10  C   LIG d   1       9.946   8.671  -6.881  0.00  0.00    -0.027 C 
ATOM     11  C   LIG d   1       9.409   9.123  -5.534  0.00  0.00     0.001 C 
ATOM     12  N   LIG d   1       9.234  10.611  -5.481  0.00  0.00    -0.289 N 
ATOM     13  C   LIG d   1       9.034  10.912  -4.024  0.00  0.00     0.040 C 
ATOM     14  C   LIG d   1      10.167  10.366  -3.172  0.00  0.00    -0.019 C 
ATOM     15  H   LIG d   1      11.687   8.643  -2.512  0.00  0.00     0.082 H 
ATOM     16  H   LIG d   1      11.153   8.901  -0.838  0.00  0.00     0.082 H 
ATOM     17  H   LIG d   1      10.500   6.755  -0.634  0.00  0.00     0.033 H 
ATOM     18  H   LIG d   1       9.517   6.853  -2.114  0.00  0.00     0.033 H 
ATOM     19  H   LIG d   1      12.158   6.797  -3.066  0.00  0.00     0.043 H 
ATOM     20  H   LIG d   1      12.144   5.633  -1.713  0.00  0.00     0.043 H 
ATOM     21  H   LIG d   1      12.536   5.514  -4.436  0.00  0.00     0.044 H 
ATOM     22  H   LIG d   1      11.825   3.923  -4.564  0.00  0.00     0.044 H 
ATOM     23  H   LIG d   1      10.622   4.482  -6.357  0.00  0.00     0.044 H 
ATOM     24  H   LIG d   1       9.713   5.599  -5.329  0.00  0.00     0.044 H 
ATOM     25  H   LIG d   1       9.737   6.859  -8.018  0.00  0.00     0.043 H 
ATOM     26  H   LIG d   1       9.100   6.768  -6.369  0.00  0.00     0.043 H 
ATOM     27  H   LIG d   1      10.911   9.083  -7.129  0.00  0.00     0.029 H 
ATOM     28  H   LIG d   1       9.255   9.061  -7.656  0.00  0.00     0.029 H 
ATOM     29  H   LIG d   1       8.403   8.698  -5.393  0.00  0.00     0.043 H 
ATOM     30  H   LIG d   1      10.027   8.815  -4.708  0.00  0.00     0.043 H 
ATOM     31  H   LIG d   1       8.969  11.991  -3.918  0.00  0.00     0.048 H 
ATOM     32  H   LIG d   1       8.085  10.458  -3.735  0.00  0.00     0.048 H 
ATOM     33  H   LIG d   1      10.555  11.171  -2.529  0.00  0.00     0.083 H 
ATOM     34  H   LIG d   1      10.999   9.982  -3.758  0.00  0.00     0.083 H 
ATOM     35  H   LIG d   1       9.077   8.676  -2.811  0.00  0.00     0.203 HD
ENDROOT
BRANCH   5  36
ATOM     36  C   LIG d   1      10.968   3.883  -2.534  0.00  0.00     0.075 C 
ATOM     37  H   LIG d   1      12.012   3.574  -2.582  0.00  0.00     0.052 H 
ATOM     38  H   LIG d   1      10.674   4.010  -1.491  0.00  0.00     0.052 H 
BRANCH  36  39
ATOM     39  C   LIG d   1      10.101   2.830  -3.176  0.00  0.00     0.225 C 
ATOM     40  O   LIG d   1       8.906   3.006  -3.273  0.00  0.00    -0.275 OA
ATOM     41  N   LIG d   1      10.657   1.695  -3.642  0.00  0.00    -0.328 N 
ATOM     42  H   LIG d   1      11.613   1.554  -3.564  0.00  0.00     0.145 HD
ATOM     43  H   LIG d   1      10.099   1.016  -4.055  0.00  0.00     0.145 HD
ENDBRANCH  36  39
ENDBRANCH   5  36
BRANCH   8  44
ATOM     44  C   LIG d   1      11.896   7.445  -5.642  0.00  0.00    -0.013 C 
ATOM     45  H   LIG d   1      12.806   7.796  -6.127  0.00  0.00     0.039 H 
ATOM     46  H   LIG d   1      11.246   8.294  -5.430  0.00  0.00     0.039 H 
ATOM     47  H   LIG d   1      12.151   6.942  -4.709  0.00  0.00     0.039 H 
ENDBRANCH   8  44
BRANCH   1  48
ATOM     48  C   LIG d   1       8.987   9.856  -1.143  0.00  0.00    -0.043 C 
ATOM     49  H   LIG d   1       9.508  10.754  -0.812  0.00  0.00     0.078 H 
ATOM     50  H   LIG d   1       7.967  10.112  -1.430  0.00  0.00     0.078 H 
ATOM     51  H   LIG d   1       8.964   9.130  -0.329  0.00  0.00     0.078 H 
ENDBRANCH   1  48
BRANCH  12  52
ATOM     52  C   LIG d   1      10.566  11.220  -5.821  0.00  0.00     0.076 C 
ATOM     53  H   LIG d   1      11.039  11.592  -4.912  0.00  0.00     0.052 H 
ATOM     54  H   LIG d   1      11.204  10.464  -6.279  0.00  0.00     0.052 H 
BRANCH  52  55
ATOM     55  C   LIG d   1      10.366  12.360  -6.786  0.00  0.00     0.225 C 
ATOM     56  O   LIG d   1      11.105  13.321  -6.750  0.00  0.00    -0.275 OA
ATOM     57  N   LIG d   1       9.367  12.311  -7.689  0.00  0.00    -0.328 N 
ATOM     58  H   LIG d   1       8.775  11.542  -7.717  0.00  0.00     0.145 HD
ATOM     59  H   LIG d   1       9.238  13.044  -8.310  0.00  0.00     0.145 HD
ENDBRANCH  52  55
ENDBRANCH  12  52
TORSDOF 6
ENDMDL
MODEL 9
REMARK VINA RESULT:      -4.6      6.966     10.548
REMARK  6 active torsions:
REMARK  status: ('A' for Active; 'I' for Inactive)
REMARK    1  A    between atoms: C_1  and  N_2 
REMARK    2  A    between atoms: N_6  and  C_21 
REMARK    3  A    between atoms: N_9  and  C_20 
REMARK    4  A    between atoms: N_13  and  C_16 
REMARK    5  A    between atoms: C_16  and  C_17 
REMARK       I    between atoms: C_17  and  N_19 
REMARK    6  A    between atoms: C_21  and  C_22 
REMARK       I    between atoms: C_22  and  N_24 
ROOT
ATOM      1  N   LIG d   1       4.755   0.626  -7.679  0.00  0.00     0.234 N 
ATOM      2  C   LIG d   1       5.655   0.441  -8.832  0.00  0.00    -0.031 C 
ATOM      3  C   LIG d   1       6.408   1.738  -9.124  0.00  0.00     0.000 C 
ATOM      4  C   LIG d   1       7.912   1.470  -9.206  0.00  0.00     0.004 C 
ATOM      5  N   LIG d   1       8.607   2.510  -8.385  0.00  0.00    -0.293 N 
ATOM      6  C   LIG d   1       9.796   1.825  -7.757  0.00  0.00     0.012 C 
ATOM      7  C   LIG d   1       9.666   1.973  -6.255  0.00  0.00     0.011 C 
ATOM      8  N   LIG d   1       9.582   0.691  -5.495  0.00  0.00    -0.304 N 
ATOM      9  C   LIG d   1       8.660   1.024  -4.359  0.00  0.00    -0.000 C 
ATOM     10  C   LIG d   1       7.604  -0.035  -4.089  0.00  0.00    -0.027 C 
ATOM     11  C   LIG d   1       6.333   0.288  -4.855  0.00  0.00     0.001 C 
ATOM     12  N   LIG d   1       5.203  -0.613  -4.456  0.00  0.00    -0.289 N 
ATOM     13  C   LIG d   1       4.161  -0.396  -5.515  0.00  0.00     0.040 C 
ATOM     14  C   LIG d   1       4.712  -0.632  -6.910  0.00  0.00    -0.019 C 
ATOM     15  H   LIG d   1       6.365  -0.356  -8.615  0.00  0.00     0.082 H 
ATOM     16  H   LIG d   1       5.062   0.165  -9.704  0.00  0.00     0.082 H 
ATOM     17  H   LIG d   1       6.065   2.148 -10.078  0.00  0.00     0.033 H 
ATOM     18  H   LIG d   1       6.213   2.467  -8.334  0.00  0.00     0.033 H 
ATOM     19  H   LIG d   1       8.147   0.491  -8.821  0.00  0.00     0.043 H 
ATOM     20  H   LIG d   1       8.250   1.576 -10.234  0.00  0.00     0.043 H 
ATOM     21  H   LIG d   1       9.908   0.849  -8.159  0.00  0.00     0.044 H 
ATOM     22  H   LIG d   1      10.668   2.420  -8.092  0.00  0.00     0.044 H 
ATOM     23  H   LIG d   1      10.544   2.510  -5.867  0.00  0.00     0.044 H 
ATOM     24  H   LIG d   1       8.782   2.567  -6.024  0.00  0.00     0.044 H 
ATOM     25  H   LIG d   1       9.290   1.143  -3.468  0.00  0.00     0.043 H 
ATOM     26  H   LIG d   1       8.183   1.973  -4.571  0.00  0.00     0.043 H 
ATOM     27  H   LIG d   1       7.967  -1.038  -4.247  0.00  0.00     0.029 H 
ATOM     28  H   LIG d   1       7.357   0.019  -3.009  0.00  0.00     0.029 H 
ATOM     29  H   LIG d   1       6.010   1.308  -4.591  0.00  0.00     0.043 H 
ATOM     30  H   LIG d   1       6.459   0.239  -5.923  0.00  0.00     0.043 H 
ATOM     31  H   LIG d   1       3.341  -1.079  -5.311  0.00  0.00     0.048 H 
ATOM     32  H   LIG d   1       3.813   0.633  -5.409  0.00  0.00     0.048 H 
ATOM     33  H   LIG d   1       4.051  -1.332  -7.445  0.00  0.00     0.083 H 
ATOM     34  H   LIG d   1       5.712  -1.056  -6.911  0.00  0.00     0.083 H 
ATOM     35  H   LIG d   1       5.090   1.368  -7.096  0.00  0.00     0.203 HD
ENDROOT
BRANCH   5  36
ATOM     36  C   LIG d   1       9.216   3.443  -9.397  0.00  0.00     0.075 C 
ATOM     37  H   LIG d   1      10.285   3.244  -9.476  0.00  0.00     0.052 H 
ATOM     38  H   LIG d   1       8.744   3.284 -10.367  0.00  0.00     0.052 H 
BRANCH  36  39
ATOM     39  C   LIG d   1       9.000   4.869  -8.960  0.00  0.00     0.225 C 
ATOM     40  O   LIG d   1       9.457   5.256  -7.905  0.00  0.00    -0.275 OA
ATOM     41  N   LIG d   1       8.298   5.713  -9.741  0.00  0.00    -0.328 N 
ATOM     42  H   LIG d   1       7.932   5.404 -10.584  0.00  0.00     0.145 HD
ATOM     43  H   LIG d   1       8.158   6.631  -9.460  0.00  0.00     0.145 HD
ENDBRANCH  36  39
ENDBRANCH   5  36
BRANCH   8  44
ATOM     44  C   LIG d   1       8.860  -0.288  -6.369  0.00  0.00    -0.013 C 
ATOM     45  H   LIG d   1       8.682  -1.208  -5.814  0.00  0.00     0.039 H 
ATOM     46  H   LIG d   1       7.908   0.139  -6.682  0.00  0.00     0.039 H 
ATOM     47  H   LIG d   1       9.467  -0.505  -7.249  0.00  0.00     0.039 H 
ENDBRANCH   8  44
BRANCH   1  48
ATOM     48  C   LIG d   1       3.405   0.940  -8.172  0.00  0.00    -0.043 C 
ATOM     49  H   LIG d   1       2.670   0.669  -7.415  0.00  0.00     0.078 H 
ATOM     50  H   LIG d   1       3.333   2.007  -8.382  0.00  0.00     0.078 H 
ATOM     51  H   LIG d   1       3.210   0.376  -9.085  0.00  0.00     0.078 H 
ENDBRANCH   1  48
BRANCH  12  52
ATOM     52  C   LIG d   1       5.677  -2.024  -4.666  0.00  0.00     0.076 C 
ATOM     53  H   LIG d   1       5.902  -2.180  -5.721  0.00  0.00     0.052 H 
ATOM     54  H   LIG d   1       6.576  -2.197  -4.074  0.00  0.00     0.052 H 
BRANCH  52  55
ATOM     55  C   LIG d   1       4.599  -2.986  -4.236  0.00  0.00     0.225 C 
ATOM     56  O   LIG d   1       4.094  -2.877  -3.139  0.00  0.00    -0.275 OA
ATOM     57  N   LIG d   1       4.198  -3.966  -5.069  0.00  0.00    -0.328 N 
ATOM     58  H   LIG d   1       4.603  -4.052  -5.946  0.00  0.00     0.145 HD
ATOM     59  H   LIG d   1       3.505  -4.584  -4.792  0.00  0.00     0.145 HD
ENDBRANCH  52  55
ENDBRANCH  12  52
TORSDOF 6
ENDMDL
MODEL 10
REMARK VINA RESULT:      -4.6      2.725      5.020
REMARK  6 active torsions:
REMARK  status: ('A' for Active; 'I' for Inactive)
REMARK    1  A    between atoms: C_1  and  N_2 
REMARK    2  A    between atoms: N_6  and  C_21 
REMARK    3  A    between atoms: N_9  and  C_20 
REMARK    4  A    between atoms: N_13  and  C_16 
REMARK    5  A    between atoms: C_16  and  C_17 
REMARK       I    between atoms: C_17  and  N_19 
REMARK    6  A    between atoms: C_21  and  C_22 
REMARK       I    between atoms: C_22  and  N_24 
ROOT
ATOM      1  N   LIG d   1      10.270   8.907  -5.719  0.00  0.00     0.234 N 
ATOM      2  C   LIG d   1       9.282   7.816  -5.799  0.00  0.00    -0.031 C 
ATOM      3  C   LIG d   1       9.990   6.463  -5.767  0.00  0.00     0.000 C 
ATOM      4  C   LIG d   1       9.374   5.568  -4.689  0.00  0.00     0.004 C 
ATOM      5  N   LIG d   1      10.495   4.966  -3.900  0.00  0.00    -0.293 N 
ATOM      6  C   LIG d   1      10.003   4.874  -2.477  0.00  0.00     0.012 C 
ATOM      7  C   LIG d   1      10.971   5.654  -1.609  0.00  0.00     0.011 C 
ATOM      8  N   LIG d   1      10.371   6.797  -0.860  0.00  0.00    -0.304 N 
ATOM      9  C   LIG d   1      11.474   7.814  -0.841  0.00  0.00    -0.000 C 
ATOM     10  C   LIG d   1      11.017   9.227  -1.160  0.00  0.00    -0.027 C 
ATOM     11  C   LIG d   1      11.162   9.501  -2.647  0.00  0.00     0.001 C 
ATOM     12  N   LIG d   1      10.919  10.944  -2.970  0.00  0.00    -0.289 N 
ATOM     13  C   LIG d   1      10.764  10.972  -4.464  0.00  0.00     0.040 C 
ATOM     14  C   LIG d   1       9.685  10.015  -4.940  0.00  0.00    -0.019 C 
ATOM     15  H   LIG d   1       8.591   7.890  -4.960  0.00  0.00     0.082 H 
ATOM     16  H   LIG d   1       8.725   7.909  -6.731  0.00  0.00     0.082 H 
ATOM     17  H   LIG d   1       9.882   5.976  -6.741  0.00  0.00     0.033 H 
ATOM     18  H   LIG d   1      11.053   6.605  -5.557  0.00  0.00     0.033 H 
ATOM     19  H   LIG d   1       8.740   6.143  -4.033  0.00  0.00     0.043 H 
ATOM     20  H   LIG d   1       8.821   4.757  -5.155  0.00  0.00     0.043 H 
ATOM     21  H   LIG d   1       8.973   5.121  -2.430  0.00  0.00     0.044 H 
ATOM     22  H   LIG d   1      10.095   3.800  -2.221  0.00  0.00     0.044 H 
ATOM     23  H   LIG d   1      11.407   4.980  -0.857  0.00  0.00     0.044 H 
ATOM     24  H   LIG d   1      11.783   6.038  -2.226  0.00  0.00     0.044 H 
ATOM     25  H   LIG d   1      11.906   7.791   0.167  0.00  0.00     0.043 H 
ATOM     26  H   LIG d   1      12.237   7.506  -1.548  0.00  0.00     0.043 H 
ATOM     27  H   LIG d   1      10.038   9.449  -0.767  0.00  0.00     0.029 H 
ATOM     28  H   LIG d   1      11.707   9.919  -0.634  0.00  0.00     0.029 H 
ATOM     29  H   LIG d   1      12.203   9.298  -2.946  0.00  0.00     0.043 H 
ATOM     30  H   LIG d   1      10.511   8.893  -3.253  0.00  0.00     0.043 H 
ATOM     31  H   LIG d   1      10.518  11.991  -4.748  0.00  0.00     0.048 H 
ATOM     32  H   LIG d   1      11.732  10.699  -4.886  0.00  0.00     0.048 H 
ATOM     33  H   LIG d   1       8.987  10.557  -5.596  0.00  0.00     0.083 H 
ATOM     34  H   LIG d   1       9.107   9.581  -4.128  0.00  0.00     0.083 H 
ATOM     35  H   LIG d   1      11.106   8.583  -5.272  0.00  0.00     0.203 HD
ENDROOT
BRANCH   5  36
ATOM     36  C   LIG d   1      10.552   3.535  -4.361  0.00  0.00     0.075 C 
ATOM     37  H   LIG d   1       9.687   2.996  -3.974  0.00  0.00     0.052 H 
ATOM     38  H   LIG d   1      10.543   3.504  -5.451  0.00  0.00     0.052 H 
BRANCH  36  39
ATOM     39  C   LIG d   1      11.816   2.893  -3.849  0.00  0.00     0.225 C 
ATOM     40  O   LIG d   1      12.885   3.440  -4.018  0.00  0.00    -0.275 OA
ATOM     41  N   LIG d   1      11.756   1.711  -3.206  0.00  0.00    -0.328 N 
ATOM     42  H   LIG d   1      10.902   1.273  -3.071  0.00  0.00     0.145 HD
ATOM     43  H   LIG d   1      12.570   1.297  -2.877  0.00  0.00     0.145 HD
ENDBRANCH  36  39
ENDBRANCH   5  36
BRANCH   8  44
ATOM     44  C   LIG d   1       9.278   7.356  -1.717  0.00  0.00    -0.013 C 
ATOM     45  H   LIG d   1       9.655   7.520  -2.725  0.00  0.00     0.039 H 
ATOM     46  H   LIG d   1       8.446   6.653  -1.749  0.00  0.00     0.039 H 
ATOM     47  H   LIG d   1       8.937   8.303  -1.297  0.00  0.00     0.039 H 
ENDBRANCH   8  44
BRANCH   1  48
ATOM     48  C   LIG d   1      10.573   9.378  -7.079  0.00  0.00    -0.043 C 
ATOM     49  H   LIG d   1      10.808   8.525  -7.715  0.00  0.00     0.078 H 
ATOM     50  H   LIG d   1       9.709   9.906  -7.483  0.00  0.00     0.078 H 
ATOM     51  H   LIG d   1      11.429  10.054  -7.048  0.00  0.00     0.078 H 
ENDBRANCH   1  48
BRANCH  12  52
ATOM     52  C   LIG d   1       9.556  11.288  -2.436  0.00  0.00     0.076 C 
ATOM     53  H   LIG d   1       8.792  10.845  -3.075  0.00  0.00     0.052 H 
ATOM     54  H   LIG d   1       9.454  10.895  -1.424  0.00  0.00     0.052 H 
BRANCH  52  55
ATOM     55  C   LIG d   1       9.388  12.785  -2.414  0.00  0.00     0.225 C 
ATOM     56  O   LIG d   1      10.274  13.488  -1.978  0.00  0.00    -0.275 OA
ATOM     57  N   LIG d   1       8.252  13.342  -2.877  0.00  0.00    -0.328 N 
ATOM     58  H   LIG d   1       7.542  12.778  -3.226  0.00  0.00     0.145 HD
ATOM     59  H   LIG d   1       8.143  14.305  -2.864  0.00  0.00     0.145 HD
ENDBRANCH  52  55
ENDBRANCH  12  52
TORSDOF 6
ENDMDL
