MODEL 1
REMARK VINA RESULT:      -6.4      0.000      0.000
REMARK  5 active torsions:
REMARK  status: ('A' for Active; 'I' for Inactive)
REMARK    1  A    between atoms: C_1  and  C_2 
REMARK    2  A    between atoms: C_13  and  C_15 
REMARK    3  A    between atoms: C_15  and  C_18 
REMARK    4  A    between atoms: C_22  and  C_29 
REMARK    5  A    between atoms: C_25  and  O_28 
ROOT
ATOM      1  C   LIG d   1       4.332  -0.451  -8.982  0.00  0.00    -0.025 C 
ATOM      2  C   LIG d   1       5.472  -1.324  -8.522  0.00  0.00    -0.047 C 
ATOM      3  C   LIG d   1       5.612  -1.293  -6.993  0.00  0.00    -0.049 C 
ATOM      4  C   LIG d   1       4.293  -0.942  -6.325  0.00  0.00    -0.029 C 
ATOM      5  H   LIG d   1       3.517  -1.634  -6.672  0.00  0.00     0.031 H 
ATOM      6  C   LIG d   1       3.882   0.496  -6.671  0.00  0.00    -0.031 C 
ATOM      7  H   LIG d   1       4.462   1.181  -6.023  0.00  0.00     0.031 H 
ATOM      8  C   LIG d   1       4.197   0.807  -8.100  0.00  0.00    -0.032 C 
ATOM      9  H   LIG d   1       5.163   1.358  -8.132  0.00  0.00     0.031 H 
ATOM     10  C   LIG d   1       3.172   1.639  -8.881  0.00  0.00    -0.049 C 
ATOM     11  C   LIG d   1       3.589   1.414 -10.361  0.00  0.00    -0.048 C 
ATOM     12  C   LIG d   1       4.553   0.202 -10.366  0.00  0.00    -0.020 C 
ATOM     13  H   LIG d   1       5.583   0.522 -10.462  0.00  0.00     0.032 H 
ATOM     14  C   LIG d   1       2.406   0.644  -6.300  0.00  0.00    -0.031 C 
ATOM     15  C   LIG d   1       2.265   0.290  -4.842  0.00  0.00    -0.084 C 
ATOM     16  C   LIG d   1       3.128  -0.423  -4.187  0.00  0.00    -0.065 C 
ATOM     17  C   LIG d   1       4.335  -1.083  -4.809  0.00  0.00    -0.008 C 
ATOM     18  C   LIG d   1       5.594  -0.478  -4.201  0.00  0.00    -0.041 C 
ATOM     19  C   LIG d   1       5.230   0.420  -3.020  0.00  0.00    -0.026 C 
ATOM     20  C   LIG d   1       4.307  -0.280  -2.029  0.00  0.00     0.059 C 
ATOM     21  H   LIG d   1       4.136   0.381  -1.173  0.00  0.00     0.060 H 
ATOM     22  C   LIG d   1       2.959  -0.601  -2.687  0.00  0.00    -0.005 C 
ATOM     23  H   LIG d   1       5.304  -2.357  -8.850  0.00  0.00     0.027 H 
ATOM     24  H   LIG d   1       6.409  -0.976  -8.977  0.00  0.00     0.027 H 
ATOM     25  H   LIG d   1       5.960  -2.271  -6.648  0.00  0.00     0.027 H 
ATOM     26  H   LIG d   1       6.370  -0.550  -6.722  0.00  0.00     0.027 H 
ATOM     27  H   LIG d   1       2.156   1.296  -8.704  0.00  0.00     0.027 H 
ATOM     28  H   LIG d   1       3.264   2.696  -8.621  0.00  0.00     0.027 H 
ATOM     29  H   LIG d   1       2.711   1.196 -10.968  0.00  0.00     0.027 H 
ATOM     30  H   LIG d   1       4.098   2.298 -10.744  0.00  0.00     0.027 H 
ATOM     31  H   LIG d   1       1.793  -0.028  -6.895  0.00  0.00     0.031 H 
ATOM     32  H   LIG d   1       2.087   1.674  -6.452  0.00  0.00     0.031 H 
ATOM     33  H   LIG d   1       1.415   0.683  -4.307  0.00  0.00     0.057 H 
ATOM     34  H   LIG d   1       6.252  -1.277  -3.858  0.00  0.00     0.027 H 
ATOM     35  H   LIG d   1       6.117   0.115  -4.951  0.00  0.00     0.027 H 
ATOM     36  H   LIG d   1       4.744   1.323  -3.392  0.00  0.00     0.029 H 
ATOM     37  H   LIG d   1       6.150   0.709  -2.504  0.00  0.00     0.029 H 
ATOM     38  H   LIG d   1       2.199   0.094  -2.320  0.00  0.00     0.034 H 
ATOM     39  H   LIG d   1       2.656  -1.620  -2.452  0.00  0.00     0.034 H 
ENDROOT
BRANCH  12  40
ATOM     40  C   LIG d   1       4.169  -0.787 -11.469  0.00  0.00     0.026 A 
ATOM     41  S   LIG d   1       5.330  -0.964 -12.852  0.00  0.00    -0.152 SA
ATOM     42  C   LIG d   1       4.930  -2.113 -11.506  0.00  0.00     0.009 A 
ATOM     43  H   LIG d   1       5.695  -2.264 -10.744  0.00  0.00     0.039 H 
ATOM     44  H   LIG d   1       4.359  -3.002 -11.772  0.00  0.00     0.039 H 
BRANCH  40  45
ATOM     45  C   LIG d   1       2.678  -0.835 -11.809  0.00  0.00    -0.049 C 
ATOM     46  H   LIG d   1       2.553  -0.880 -12.892  0.00  0.00     0.024 H 
ATOM     47  H   LIG d   1       2.231  -1.719 -11.356  0.00  0.00     0.024 H 
ATOM     48  H   LIG d   1       2.188   0.058 -11.424  0.00  0.00     0.024 H 
ENDBRANCH  40  45
ENDBRANCH  12  40
BRANCH   1  49
ATOM     49  C   LIG d   1       3.031  -1.250  -9.074  0.00  0.00    -0.059 C 
ATOM     50  H   LIG d   1       2.875  -1.800  -8.147  0.00  0.00     0.024 H 
ATOM     51  H   LIG d   1       2.196  -0.567  -9.236  0.00  0.00     0.024 H 
ATOM     52  H   LIG d   1       3.094  -1.951  -9.906  0.00  0.00     0.024 H 
ENDBRANCH   1  49
BRANCH  17  53
ATOM     53  C   LIG d   1       4.293  -2.579  -4.476  0.00  0.00    -0.056 C 
ATOM     54  H   LIG d   1       4.920  -2.775  -3.605  0.00  0.00     0.024 H 
ATOM     55  H   LIG d   1       3.267  -2.875  -4.258  0.00  0.00     0.024 H 
ATOM     56  H   LIG d   1       4.664  -3.152  -5.326  0.00  0.00     0.024 H 
ENDBRANCH  17  53
BRANCH  20  57
ATOM     57  O   LIG d   1       4.919  -1.483  -1.562  0.00  0.00    -0.392 OA
ATOM     58  H   LIG d   1       4.965  -1.553  -0.599  0.00  0.00     0.210 HD
ENDBRANCH  20  57
TORSDOF 5
ENDMDL
MODEL 2
REMARK VINA RESULT:      -6.2      3.326      6.756
REMARK  5 active torsions:
REMARK  status: ('A' for Active; 'I' for Inactive)
REMARK    1  A    between atoms: C_1  and  C_2 
REMARK    2  A    between atoms: C_13  and  C_15 
REMARK    3  A    between atoms: C_15  and  C_18 
REMARK    4  A    between atoms: C_22  and  C_29 
REMARK    5  A    between atoms: C_25  and  O_28 
ROOT
ATOM      1  C   LIG d   1       4.178  -0.878  -5.620  0.00  0.00    -0.025 C 
ATOM      2  C   LIG d   1       4.589  -2.249  -6.095  0.00  0.00    -0.047 C 
ATOM      3  C   LIG d   1       4.341  -2.410  -7.602  0.00  0.00    -0.049 C 
ATOM      4  C   LIG d   1       4.350  -1.066  -8.310  0.00  0.00    -0.029 C 
ATOM      5  H   LIG d   1       5.287  -0.543  -8.081  0.00  0.00     0.031 H 
ATOM      6  C   LIG d   1       3.165  -0.207  -7.847  0.00  0.00    -0.031 C 
ATOM      7  H   LIG d   1       2.263  -0.554  -8.388  0.00  0.00     0.031 H 
ATOM      8  C   LIG d   1       2.935  -0.371  -6.379  0.00  0.00    -0.032 C 
ATOM      9  H   LIG d   1       2.115  -1.108  -6.233  0.00  0.00     0.031 H 
ATOM     10  C   LIG d   1       2.563   0.887  -5.581  0.00  0.00    -0.049 C 
ATOM     11  C   LIG d   1       2.812   0.457  -4.109  0.00  0.00    -0.048 C 
ATOM     12  C   LIG d   1       3.651  -0.844  -4.167  0.00  0.00    -0.020 C 
ATOM     13  H   LIG d   1       3.036  -1.714  -3.977  0.00  0.00     0.032 H 
ATOM     14  C   LIG d   1       3.448   1.229  -8.290  0.00  0.00    -0.031 C 
ATOM     15  C   LIG d   1       3.660   1.212  -9.782  0.00  0.00    -0.084 C 
ATOM     16  C   LIG d   1       3.986   0.150 -10.452  0.00  0.00    -0.065 C 
ATOM     17  C   LIG d   1       4.298  -1.189  -9.827  0.00  0.00    -0.008 C 
ATOM     18  C   LIG d   1       3.262  -2.203 -10.294  0.00  0.00    -0.041 C 
ATOM     19  C   LIG d   1       2.395  -1.601 -11.399  0.00  0.00    -0.026 C 
ATOM     20  C   LIG d   1       3.233  -0.976 -12.509  0.00  0.00     0.059 C 
ATOM     21  H   LIG d   1       2.566  -0.624 -13.304  0.00  0.00     0.060 H 
ATOM     22  C   LIG d   1       4.035   0.215 -11.969  0.00  0.00    -0.005 C 
ATOM     23  H   LIG d   1       5.653  -2.412  -5.882  0.00  0.00     0.027 H 
ATOM     24  H   LIG d   1       4.018  -3.013  -5.551  0.00  0.00     0.027 H 
ATOM     25  H   LIG d   1       5.114  -3.061  -8.021  0.00  0.00     0.027 H 
ATOM     26  H   LIG d   1       3.372  -2.898  -7.751  0.00  0.00     0.027 H 
ATOM     27  H   LIG d   1       3.186   1.734  -5.852  0.00  0.00     0.027 H 
ATOM     28  H   LIG d   1       1.508   1.131  -5.728  0.00  0.00     0.027 H 
ATOM     29  H   LIG d   1       3.364   1.234  -3.581  0.00  0.00     0.027 H 
ATOM     30  H   LIG d   1       1.863   0.267  -3.609  0.00  0.00     0.027 H 
ATOM     31  H   LIG d   1       4.342   1.609  -7.803  0.00  0.00     0.031 H 
ATOM     32  H   LIG d   1       2.595   1.864  -8.056  0.00  0.00     0.031 H 
ATOM     33  H   LIG d   1       3.497   2.129 -10.325  0.00  0.00     0.057 H 
ATOM     34  H   LIG d   1       3.768  -3.091 -10.676  0.00  0.00     0.027 H 
ATOM     35  H   LIG d   1       2.623  -2.490  -9.458  0.00  0.00     0.027 H 
ATOM     36  H   LIG d   1       1.740  -0.842 -10.969  0.00  0.00     0.029 H 
ATOM     37  H   LIG d   1       1.775  -2.393 -11.828  0.00  0.00     0.029 H 
ATOM     38  H   LIG d   1       3.578   1.148 -12.310  0.00  0.00     0.034 H 
ATOM     39  H   LIG d   1       5.064   0.170 -12.322  0.00  0.00     0.034 H 
ENDROOT
BRANCH  12  40
ATOM     40  C   LIG d   1       4.829  -0.768  -3.192  0.00  0.00     0.026 A 
ATOM     41  S   LIG d   1       5.512   0.879  -2.858  0.00  0.00    -0.152 SA
ATOM     42  C   LIG d   1       4.536  -0.221  -1.794  0.00  0.00     0.009 A 
ATOM     43  H   LIG d   1       3.509   0.079  -1.588  0.00  0.00     0.039 H 
ATOM     44  H   LIG d   1       5.059  -0.690  -0.961  0.00  0.00     0.039 H 
BRANCH  40  45
ATOM     45  C   LIG d   1       5.828  -1.923  -3.288  0.00  0.00    -0.049 C 
ATOM     46  H   LIG d   1       5.568  -2.690  -2.557  0.00  0.00     0.024 H 
ATOM     47  H   LIG d   1       5.794  -2.350  -4.290  0.00  0.00     0.024 H 
ATOM     48  H   LIG d   1       6.832  -1.554  -3.085  0.00  0.00     0.024 H 
ENDBRANCH  40  45
ENDBRANCH  12  40
BRANCH   1  49
ATOM     49  C   LIG d   1       5.352   0.101  -5.686  0.00  0.00    -0.059 C 
ATOM     50  H   LIG d   1       5.000   1.107  -5.459  0.00  0.00     0.024 H 
ATOM     51  H   LIG d   1       6.110  -0.191  -4.960  0.00  0.00     0.024 H 
ATOM     52  H   LIG d   1       5.782   0.084  -6.687  0.00  0.00     0.024 H 
ENDBRANCH   1  49
BRANCH  17  53
ATOM     53  C   LIG d   1       5.682  -1.636 -10.310  0.00  0.00    -0.056 C 
ATOM     54  H   LIG d   1       5.574  -2.482 -10.990  0.00  0.00     0.024 H 
ATOM     55  H   LIG d   1       6.169  -0.813 -10.831  0.00  0.00     0.024 H 
ATOM     56  H   LIG d   1       6.288  -1.933  -9.453  0.00  0.00     0.024 H 
ENDBRANCH  17  53
BRANCH  20  57
ATOM     57  O   LIG d   1       4.121  -1.952 -13.057  0.00  0.00    -0.392 OA
ATOM     58  H   LIG d   1       4.898  -1.576 -13.492  0.00  0.00     0.210 HD
ENDBRANCH  20  57
TORSDOF 5
ENDMDL
MODEL 3
REMARK VINA RESULT:      -6.1      3.872      5.499
REMARK  5 active torsions:
REMARK  status: ('A' for Active; 'I' for Inactive)
REMARK    1  A    between atoms: C_1  and  C_2 
REMARK    2  A    between atoms: C_13  and  C_15 
REMARK    3  A    between atoms: C_15  and  C_18 
REMARK    4  A    between atoms: C_22  and  C_29 
REMARK    5  A    between atoms: C_25  and  O_28 
ROOT
ATOM      1  C   LIG d   1       6.774  -4.395  -5.978  0.00  0.00    -0.025 C 
ATOM      2  C   LIG d   1       5.274  -4.530  -5.917  0.00  0.00    -0.047 C 
ATOM      3  C   LIG d   1       4.664  -3.505  -4.949  0.00  0.00    -0.049 C 
ATOM      4  C   LIG d   1       5.562  -2.289  -4.795  0.00  0.00    -0.029 C 
ATOM      5  H   LIG d   1       5.778  -1.871  -5.786  0.00  0.00     0.031 H 
ATOM      6  C   LIG d   1       6.880  -2.679  -4.112  0.00  0.00    -0.031 C 
ATOM      7  H   LIG d   1       6.690  -2.752  -3.023  0.00  0.00     0.031 H 
ATOM      8  C   LIG d   1       7.358  -4.007  -4.604  0.00  0.00    -0.032 C 
ATOM      9  H   LIG d   1       7.056  -4.783  -3.866  0.00  0.00     0.031 H 
ATOM     10  C   LIG d   1       8.867  -4.168  -4.840  0.00  0.00    -0.049 C 
ATOM     11  C   LIG d   1       8.952  -5.452  -5.711  0.00  0.00    -0.048 C 
ATOM     12  C   LIG d   1       7.519  -5.725  -6.232  0.00  0.00    -0.020 C 
ATOM     13  H   LIG d   1       7.047  -6.525  -5.675  0.00  0.00     0.032 H 
ATOM     14  C   LIG d   1       7.861  -1.527  -4.336  0.00  0.00    -0.031 C 
ATOM     15  C   LIG d   1       7.224  -0.274  -3.793  0.00  0.00    -0.084 C 
ATOM     16  C   LIG d   1       5.948  -0.137  -3.605  0.00  0.00    -0.065 C 
ATOM     17  C   LIG d   1       4.914  -1.166  -3.997  0.00  0.00    -0.008 C 
ATOM     18  C   LIG d   1       4.220  -1.669  -2.739  0.00  0.00    -0.041 C 
ATOM     19  C   LIG d   1       4.630  -0.821  -1.535  0.00  0.00    -0.026 C 
ATOM     20  C   LIG d   1       4.475   0.671  -1.804  0.00  0.00     0.059 C 
ATOM     21  H   LIG d   1       4.714   1.225  -0.890  0.00  0.00     0.060 H 
ATOM     22  C   LIG d   1       5.428   1.116  -2.920  0.00  0.00    -0.005 C 
ATOM     23  H   LIG d   1       4.847  -4.385  -6.917  0.00  0.00     0.027 H 
ATOM     24  H   LIG d   1       5.009  -5.542  -5.584  0.00  0.00     0.027 H 
ATOM     25  H   LIG d   1       3.682  -3.202  -5.326  0.00  0.00     0.027 H 
ATOM     26  H   LIG d   1       4.519  -3.981  -3.974  0.00  0.00     0.027 H 
ATOM     27  H   LIG d   1       9.286  -3.312  -5.361  0.00  0.00     0.027 H 
ATOM     28  H   LIG d   1       9.384  -4.323  -3.890  0.00  0.00     0.027 H 
ATOM     29  H   LIG d   1       9.629  -5.290  -6.549  0.00  0.00     0.027 H 
ATOM     30  H   LIG d   1       9.297  -6.291  -5.107  0.00  0.00     0.027 H 
ATOM     31  H   LIG d   1       8.063  -1.399  -5.395  0.00  0.00     0.031 H 
ATOM     32  H   LIG d   1       8.788  -1.721  -3.798  0.00  0.00     0.031 H 
ATOM     33  H   LIG d   1       7.873   0.541  -3.512  0.00  0.00     0.057 H 
ATOM     34  H   LIG d   1       3.139  -1.609  -2.871  0.00  0.00     0.027 H 
ATOM     35  H   LIG d   1       4.499  -2.707  -2.553  0.00  0.00     0.027 H 
ATOM     36  H   LIG d   1       5.668  -1.037  -1.280  0.00  0.00     0.029 H 
ATOM     37  H   LIG d   1       3.999  -1.094  -0.684  0.00  0.00     0.029 H 
ATOM     38  H   LIG d   1       6.266   1.669  -2.486  0.00  0.00     0.034 H 
ATOM     39  H   LIG d   1       4.908   1.755  -3.631  0.00  0.00     0.034 H 
ENDROOT
BRANCH  12  40
ATOM     40  C   LIG d   1       7.541  -6.026  -7.733  0.00  0.00     0.026 A 
ATOM     41  S   LIG d   1       6.957  -7.664  -8.249  0.00  0.00    -0.152 SA
ATOM     42  C   LIG d   1       6.193  -6.031  -8.456  0.00  0.00     0.009 A 
ATOM     43  H   LIG d   1       5.309  -5.822  -7.854  0.00  0.00     0.039 H 
ATOM     44  H   LIG d   1       6.173  -5.622  -9.466  0.00  0.00     0.039 H 
BRANCH  40  45
ATOM     45  C   LIG d   1       8.733  -5.445  -8.496  0.00  0.00    -0.049 C 
ATOM     46  H   LIG d   1       9.523  -6.194  -8.560  0.00  0.00     0.024 H 
ATOM     47  H   LIG d   1       8.418  -5.162  -9.499  0.00  0.00     0.024 H 
ATOM     48  H   LIG d   1       9.107  -4.567  -7.971  0.00  0.00     0.024 H 
ENDBRANCH  40  45
ENDBRANCH  12  40
BRANCH   1  49
ATOM     49  C   LIG d   1       7.194  -3.434  -7.091  0.00  0.00    -0.059 C 
ATOM     50  H   LIG d   1       7.557  -2.505  -6.652  0.00  0.00     0.024 H 
ATOM     51  H   LIG d   1       7.987  -3.890  -7.684  0.00  0.00     0.024 H 
ATOM     52  H   LIG d   1       6.338  -3.224  -7.731  0.00  0.00     0.024 H 
ENDBRANCH   1  49
BRANCH  17  53
ATOM     53  C   LIG d   1       3.876  -0.487  -4.898  0.00  0.00    -0.056 C 
ATOM     54  H   LIG d   1       2.873  -0.748  -4.558  0.00  0.00     0.024 H 
ATOM     55  H   LIG d   1       4.005   0.594  -4.852  0.00  0.00     0.024 H 
ATOM     56  H   LIG d   1       4.011  -0.825  -5.926  0.00  0.00     0.024 H 
ENDBRANCH  17  53
BRANCH  20  57
ATOM     57  O   LIG d   1       3.125   0.961  -2.174  0.00  0.00    -0.392 OA
ATOM     58  H   LIG d   1       2.863   0.591  -3.028  0.00  0.00     0.210 HD
ENDBRANCH  20  57
TORSDOF 5
ENDMDL
MODEL 4
REMARK VINA RESULT:      -5.8      3.478      6.943
REMARK  5 active torsions:
REMARK  status: ('A' for Active; 'I' for Inactive)
REMARK    1  A    between atoms: C_1  and  C_2 
REMARK    2  A    between atoms: C_13  and  C_15 
REMARK    3  A    between atoms: C_15  and  C_18 
REMARK    4  A    between atoms: C_22  and  C_29 
REMARK    5  A    between atoms: C_25  and  O_28 
ROOT
ATOM      1  C   LIG d   1       4.531  -0.519  -5.713  0.00  0.00    -0.025 C 
ATOM      2  C   LIG d   1       3.185   0.084  -6.026  0.00  0.00    -0.047 C 
ATOM      3  C   LIG d   1       2.895   0.039  -7.534  0.00  0.00    -0.049 C 
ATOM      4  C   LIG d   1       3.669  -1.081  -8.211  0.00  0.00    -0.029 C 
ATOM      5  H   LIG d   1       3.453  -2.028  -7.703  0.00  0.00     0.031 H 
ATOM      6  C   LIG d   1       5.177  -0.804  -8.150  0.00  0.00    -0.031 C 
ATOM      7  H   LIG d   1       5.421  -0.073  -8.944  0.00  0.00     0.031 H 
ATOM      8  C   LIG d   1       5.554  -0.217  -6.827  0.00  0.00    -0.032 C 
ATOM      9  H   LIG d   1       5.626   0.886  -6.942  0.00  0.00     0.031 H 
ATOM     10  C   LIG d   1       6.868  -0.695  -6.194  0.00  0.00    -0.049 C 
ATOM     11  C   LIG d   1       6.735  -0.235  -4.716  0.00  0.00    -0.048 C 
ATOM     12  C   LIG d   1       5.244   0.122  -4.499  0.00  0.00    -0.020 C 
ATOM     13  H   LIG d   1       5.094   1.194  -4.508  0.00  0.00     0.032 H 
ATOM     14  C   LIG d   1       5.890  -2.114  -8.489  0.00  0.00    -0.031 C 
ATOM     15  C   LIG d   1       5.393  -2.566  -9.839  0.00  0.00    -0.084 C 
ATOM     16  C   LIG d   1       4.277  -2.169 -10.366  0.00  0.00    -0.065 C 
ATOM     17  C   LIG d   1       3.271  -1.285  -9.667  0.00  0.00    -0.008 C 
ATOM     18  C   LIG d   1       3.156   0.027 -10.430  0.00  0.00    -0.041 C 
ATOM     19  C   LIG d   1       3.911  -0.065 -11.755  0.00  0.00    -0.026 C 
ATOM     20  C   LIG d   1       3.528  -1.308 -12.549  0.00  0.00     0.059 C 
ATOM     21  H   LIG d   1       4.044  -1.288 -13.515  0.00  0.00     0.060 H 
ATOM     22  C   LIG d   1       3.942  -2.576 -11.791  0.00  0.00    -0.005 C 
ATOM     23  H   LIG d   1       2.399  -0.462  -5.489  0.00  0.00     0.027 H 
ATOM     24  H   LIG d   1       3.161   1.128  -5.686  0.00  0.00     0.027 H 
ATOM     25  H   LIG d   1       1.821  -0.102  -7.685  0.00  0.00     0.027 H 
ATOM     26  H   LIG d   1       3.176   1.000  -7.978  0.00  0.00     0.027 H 
ATOM     27  H   LIG d   1       6.978  -1.774  -6.260  0.00  0.00     0.027 H 
ATOM     28  H   LIG d   1       7.719  -0.199  -6.667  0.00  0.00     0.027 H 
ATOM     29  H   LIG d   1       7.026  -1.044  -4.046  0.00  0.00     0.027 H 
ATOM     30  H   LIG d   1       7.359   0.640  -4.539  0.00  0.00     0.027 H 
ATOM     31  H   LIG d   1       5.662  -2.875  -7.748  0.00  0.00     0.031 H 
ATOM     32  H   LIG d   1       6.965  -1.949  -8.539  0.00  0.00     0.031 H 
ATOM     33  H   LIG d   1       6.022  -3.230 -10.411  0.00  0.00     0.057 H 
ATOM     34  H   LIG d   1       2.105   0.242 -10.628  0.00  0.00     0.027 H 
ATOM     35  H   LIG d   1       3.578   0.838  -9.836  0.00  0.00     0.027 H 
ATOM     36  H   LIG d   1       4.983  -0.077 -11.557  0.00  0.00     0.029 H 
ATOM     37  H   LIG d   1       3.678   0.822 -12.353  0.00  0.00     0.029 H 
ATOM     38  H   LIG d   1       4.826  -3.012 -12.264  0.00  0.00     0.034 H 
ATOM     39  H   LIG d   1       3.134  -3.306 -11.803  0.00  0.00     0.034 H 
ENDROOT
BRANCH  12  40
ATOM     40  C   LIG d   1       4.722  -0.506  -3.205  0.00  0.00     0.026 A 
ATOM     41  S   LIG d   1       4.415   0.618  -1.814  0.00  0.00    -0.152 SA
ATOM     42  C   LIG d   1       3.246  -0.280  -2.872  0.00  0.00     0.009 A 
ATOM     43  H   LIG d   1       2.667   0.314  -3.579  0.00  0.00     0.039 H 
ATOM     44  H   LIG d   1       2.710  -1.112  -2.416  0.00  0.00     0.039 H 
BRANCH  40  45
ATOM     45  C   LIG d   1       5.305  -1.880  -2.867  0.00  0.00    -0.049 C 
ATOM     46  H   LIG d   1       5.338  -2.492  -3.769  0.00  0.00     0.024 H 
ATOM     47  H   LIG d   1       6.313  -1.759  -2.472  0.00  0.00     0.024 H 
ATOM     48  H   LIG d   1       4.679  -2.367  -2.121  0.00  0.00     0.024 H 
ENDBRANCH  40  45
ENDBRANCH  12  40
BRANCH   1  49
ATOM     49  C   LIG d   1       4.407  -2.014  -5.413  0.00  0.00    -0.059 C 
ATOM     50  H   LIG d   1       5.290  -2.350  -4.869  0.00  0.00     0.024 H 
ATOM     51  H   LIG d   1       3.518  -2.190  -4.807  0.00  0.00     0.024 H 
ATOM     52  H   LIG d   1       4.325  -2.566  -6.348  0.00  0.00     0.024 H 
ENDBRANCH   1  49
BRANCH  17  53
ATOM     53  C   LIG d   1       1.911  -1.992  -9.687  0.00  0.00    -0.056 C 
ATOM     54  H   LIG d   1       2.001  -2.937 -10.225  0.00  0.00     0.024 H 
ATOM     55  H   LIG d   1       1.586  -2.186  -8.666  0.00  0.00     0.024 H 
ATOM     56  H   LIG d   1       1.179  -1.358 -10.188  0.00  0.00     0.024 H 
ENDBRANCH  17  53
BRANCH  20  57
ATOM     57  O   LIG d   1       2.119  -1.321 -12.784  0.00  0.00    -0.392 OA
ATOM     58  H   LIG d   1       1.812  -2.080 -13.298  0.00  0.00     0.210 HD
ENDBRANCH  20  57
TORSDOF 5
ENDMDL
MODEL 5
REMARK VINA RESULT:      -5.6      3.751      5.504
REMARK  5 active torsions:
REMARK  status: ('A' for Active; 'I' for Inactive)
REMARK    1  A    between atoms: C_1  and  C_2 
REMARK    2  A    between atoms: C_13  and  C_15 
REMARK    3  A    between atoms: C_15  and  C_18 
REMARK    4  A    between atoms: C_22  and  C_29 
REMARK    5  A    between atoms: C_25  and  O_28 
ROOT
ATOM      1  C   LIG d   1       7.916  -3.593  -5.392  0.00  0.00    -0.025 C 
ATOM      2  C   LIG d   1       8.124  -3.517  -3.900  0.00  0.00    -0.047 C 
ATOM      3  C   LIG d   1       7.309  -2.370  -3.285  0.00  0.00    -0.049 C 
ATOM      4  C   LIG d   1       6.101  -2.030  -4.141  0.00  0.00    -0.029 C 
ATOM      5  H   LIG d   1       5.509  -2.938  -4.308  0.00  0.00     0.031 H 
ATOM      6  C   LIG d   1       6.545  -1.460  -5.495  0.00  0.00    -0.031 C 
ATOM      7  H   LIG d   1       6.814  -0.396  -5.344  0.00  0.00     0.031 H 
ATOM      8  C   LIG d   1       7.747  -2.188  -6.006  0.00  0.00    -0.032 C 
ATOM      9  H   LIG d   1       8.650  -1.589  -5.758  0.00  0.00     0.031 H 
ATOM     10  C   LIG d   1       7.800  -2.488  -7.511  0.00  0.00    -0.049 C 
ATOM     11  C   LIG d   1       8.908  -3.571  -7.616  0.00  0.00    -0.048 C 
ATOM     12  C   LIG d   1       9.149  -4.094  -6.178  0.00  0.00    -0.020 C 
ATOM     13  H   LIG d   1      10.052  -3.673  -5.755  0.00  0.00     0.032 H 
ATOM     14  C   LIG d   1       5.331  -1.506  -6.424  0.00  0.00    -0.031 C 
ATOM     15  C   LIG d   1       4.220  -0.736  -5.758  0.00  0.00    -0.084 C 
ATOM     16  C   LIG d   1       4.172  -0.494  -4.485  0.00  0.00    -0.065 C 
ATOM     17  C   LIG d   1       5.161  -1.032  -3.478  0.00  0.00    -0.008 C 
ATOM     18  C   LIG d   1       5.904   0.138  -2.846  0.00  0.00    -0.041 C 
ATOM     19  C   LIG d   1       5.260   1.459  -3.263  0.00  0.00    -0.026 C 
ATOM     20  C   LIG d   1       3.752   1.458  -3.043  0.00  0.00     0.059 C 
ATOM     21  H   LIG d   1       3.354   2.448  -3.291  0.00  0.00     0.060 H 
ATOM     22  C   LIG d   1       3.080   0.412  -3.941  0.00  0.00    -0.005 C 
ATOM     23  H   LIG d   1       7.826  -4.465  -3.435  0.00  0.00     0.027 H 
ATOM     24  H   LIG d   1       9.189  -3.358  -3.685  0.00  0.00     0.027 H 
ATOM     25  H   LIG d   1       6.988  -2.662  -2.280  0.00  0.00     0.027 H 
ATOM     26  H   LIG d   1       7.952  -1.489  -3.191  0.00  0.00     0.027 H 
ATOM     27  H   LIG d   1       6.849  -2.863  -7.880  0.00  0.00     0.027 H 
ATOM     28  H   LIG d   1       8.094  -1.594  -8.066  0.00  0.00     0.027 H 
ATOM     29  H   LIG d   1       8.575  -4.386  -8.258  0.00  0.00     0.027 H 
ATOM     30  H   LIG d   1       9.823  -3.132  -8.012  0.00  0.00     0.027 H 
ATOM     31  H   LIG d   1       5.013  -2.531  -6.585  0.00  0.00     0.031 H 
ATOM     32  H   LIG d   1       5.575  -1.035  -7.375  0.00  0.00     0.031 H 
ATOM     33  H   LIG d   1       3.439  -0.335  -6.385  0.00  0.00     0.057 H 
ATOM     34  H   LIG d   1       5.869   0.046  -1.760  0.00  0.00     0.027 H 
ATOM     35  H   LIG d   1       6.945   0.132  -3.170  0.00  0.00     0.027 H 
ATOM     36  H   LIG d   1       5.472   1.645  -4.317  0.00  0.00     0.029 H 
ATOM     37  H   LIG d   1       5.703   2.266  -2.672  0.00  0.00     0.029 H 
ATOM     38  H   LIG d   1       2.574   0.914  -4.771  0.00  0.00     0.034 H 
ATOM     39  H   LIG d   1       2.351  -0.163  -3.373  0.00  0.00     0.034 H 
ENDROOT
BRANCH  12  40
ATOM     40  C   LIG d   1       9.184  -5.624  -6.161  0.00  0.00     0.026 A 
ATOM     41  S   LIG d   1      10.702  -6.402  -5.543  0.00  0.00    -0.152 SA
ATOM     42  C   LIG d   1       9.052  -6.304  -4.796  0.00  0.00     0.009 A 
ATOM     43  H   LIG d   1       8.942  -5.652  -3.930  0.00  0.00     0.039 H 
ATOM     44  H   LIG d   1       8.473  -7.226  -4.759  0.00  0.00     0.039 H 
BRANCH  40  45
ATOM     45  C   LIG d   1       8.490  -6.305  -7.343  0.00  0.00    -0.049 C 
ATOM     46  H   LIG d   1       9.195  -6.407  -8.168  0.00  0.00     0.024 H 
ATOM     47  H   LIG d   1       8.141  -7.291  -7.039  0.00  0.00     0.024 H 
ATOM     48  H   LIG d   1       7.642  -5.701  -7.662  0.00  0.00     0.024 H 
ENDBRANCH  40  45
ENDBRANCH  12  40
BRANCH   1  49
ATOM     49  C   LIG d   1       6.760  -4.532  -5.738  0.00  0.00    -0.059 C 
ATOM     50  H   LIG d   1       7.100  -5.566  -5.676  0.00  0.00     0.024 H 
ATOM     51  H   LIG d   1       5.942  -4.376  -5.035  0.00  0.00     0.024 H 
ATOM     52  H   LIG d   1       6.414  -4.324  -6.750  0.00  0.00     0.024 H 
ENDBRANCH   1  49
BRANCH  17  53
ATOM     53  C   LIG d   1       4.382  -1.773  -2.386  0.00  0.00    -0.056 C 
ATOM     54  H   LIG d   1       5.001  -2.574  -1.978  0.00  0.00     0.024 H 
ATOM     55  H   LIG d   1       4.119  -1.077  -1.590  0.00  0.00     0.024 H 
ATOM     56  H   LIG d   1       3.473  -2.198  -2.812  0.00  0.00     0.024 H 
ENDBRANCH  17  53
BRANCH  20  57
ATOM     57  O   LIG d   1       3.461   1.180  -1.672  0.00  0.00    -0.392 OA
ATOM     58  H   LIG d   1       4.246   1.084  -1.115  0.00  0.00     0.210 HD
ENDBRANCH  20  57
TORSDOF 5
ENDMDL
MODEL 6
REMARK VINA RESULT:      -5.5      3.786      5.435
REMARK  5 active torsions:
REMARK  status: ('A' for Active; 'I' for Inactive)
REMARK    1  A    between atoms: C_1  and  C_2 
REMARK    2  A    between atoms: C_13  and  C_15 
REMARK    3  A    between atoms: C_15  and  C_18 
REMARK    4  A    between atoms: C_22  and  C_29 
REMARK    5  A    between atoms: C_25  and  O_28 
ROOT
ATOM      1  C   LIG d   1       6.464  -4.207  -6.218  0.00  0.00    -0.025 C 
ATOM      2  C   LIG d   1       6.941  -2.950  -6.902  0.00  0.00    -0.047 C 
ATOM      3  C   LIG d   1       6.210  -1.713  -6.359  0.00  0.00    -0.049 C 
ATOM      4  C   LIG d   1       5.701  -1.948  -4.947  0.00  0.00    -0.029 C 
ATOM      5  H   LIG d   1       6.535  -2.269  -4.311  0.00  0.00     0.031 H 
ATOM      6  C   LIG d   1       4.614  -3.031  -4.941  0.00  0.00    -0.031 C 
ATOM      7  H   LIG d   1       3.665  -2.562  -5.270  0.00  0.00     0.031 H 
ATOM      8  C   LIG d   1       4.958  -4.131  -5.893  0.00  0.00    -0.032 C 
ATOM      9  H   LIG d   1       4.406  -3.958  -6.842  0.00  0.00     0.031 H 
ATOM     10  C   LIG d   1       4.654  -5.568  -5.446  0.00  0.00    -0.049 C 
ATOM     11  C   LIG d   1       5.490  -6.429  -6.434  0.00  0.00    -0.048 C 
ATOM     12  C   LIG d   1       6.492  -5.465  -7.116  0.00  0.00    -0.020 C 
ATOM     13  H   LIG d   1       6.169  -5.211  -8.117  0.00  0.00     0.032 H 
ATOM     14  C   LIG d   1       4.432  -3.479  -3.490  0.00  0.00    -0.031 C 
ATOM     15  C   LIG d   1       4.098  -2.257  -2.675  0.00  0.00    -0.084 C 
ATOM     16  C   LIG d   1       4.366  -1.044  -3.049  0.00  0.00    -0.065 C 
ATOM     17  C   LIG d   1       5.138  -0.690  -4.298  0.00  0.00    -0.008 C 
ATOM     18  C   LIG d   1       4.225   0.091  -5.235  0.00  0.00    -0.041 C 
ATOM     19  C   LIG d   1       2.922   0.450  -4.523  0.00  0.00    -0.026 C 
ATOM     20  C   LIG d   1       3.169   1.105  -3.169  0.00  0.00     0.059 C 
ATOM     21  H   LIG d   1       2.208   1.403  -2.736  0.00  0.00     0.060 H 
ATOM     22  C   LIG d   1       3.859   0.121  -2.216  0.00  0.00    -0.005 C 
ATOM     23  H   LIG d   1       8.020  -2.831  -6.748  0.00  0.00     0.027 H 
ATOM     24  H   LIG d   1       6.762  -3.029  -7.982  0.00  0.00     0.027 H 
ATOM     25  H   LIG d   1       6.895  -0.861  -6.375  0.00  0.00     0.027 H 
ATOM     26  H   LIG d   1       5.367  -1.482  -7.019  0.00  0.00     0.027 H 
ATOM     27  H   LIG d   1       4.960  -5.743  -4.418  0.00  0.00     0.027 H 
ATOM     28  H   LIG d   1       3.590  -5.785  -5.566  0.00  0.00     0.027 H 
ATOM     29  H   LIG d   1       6.029  -7.204  -5.890  0.00  0.00     0.027 H 
ATOM     30  H   LIG d   1       4.837  -6.880  -7.180  0.00  0.00     0.027 H 
ATOM     31  H   LIG d   1       5.346  -3.926  -3.112  0.00  0.00     0.031 H 
ATOM     32  H   LIG d   1       3.611  -4.191  -3.422  0.00  0.00     0.031 H 
ATOM     33  H   LIG d   1       3.575  -2.400  -1.742  0.00  0.00     0.057 H 
ATOM     34  H   LIG d   1       4.727   1.005  -5.553  0.00  0.00     0.027 H 
ATOM     35  H   LIG d   1       3.995  -0.513  -6.114  0.00  0.00     0.027 H 
ATOM     36  H   LIG d   1       2.327  -0.454  -4.385  0.00  0.00     0.029 H 
ATOM     37  H   LIG d   1       2.359   1.144  -5.154  0.00  0.00     0.029 H 
ATOM     38  H   LIG d   1       3.137  -0.244  -1.480  0.00  0.00     0.034 H 
ATOM     39  H   LIG d   1       4.682   0.609  -1.697  0.00  0.00     0.034 H 
ENDROOT
BRANCH  12  40
ATOM     40  C   LIG d   1       7.900  -6.066  -7.117  0.00  0.00     0.026 A 
ATOM     41  S   LIG d   1       8.298  -7.227  -5.781  0.00  0.00    -0.152 SA
ATOM     42  C   LIG d   1       8.028  -7.528  -7.550  0.00  0.00     0.009 A 
ATOM     43  H   LIG d   1       7.107  -8.042  -7.826  0.00  0.00     0.039 H 
ATOM     44  H   LIG d   1       8.903  -7.792  -8.143  0.00  0.00     0.039 H 
BRANCH  40  45
ATOM     45  C   LIG d   1       9.013  -5.114  -7.560  0.00  0.00    -0.049 C 
ATOM     46  H   LIG d   1       9.082  -4.284  -6.856  0.00  0.00     0.024 H 
ATOM     47  H   LIG d   1       9.961  -5.650  -7.583  0.00  0.00     0.024 H 
ATOM     48  H   LIG d   1       8.789  -4.729  -8.553  0.00  0.00     0.024 H 
ENDBRANCH  40  45
ENDBRANCH  12  40
BRANCH   1  49
ATOM     49  C   LIG d   1       7.319  -4.522  -4.990  0.00  0.00    -0.059 C 
ATOM     50  H   LIG d   1       7.463  -5.600  -4.914  0.00  0.00     0.024 H 
ATOM     51  H   LIG d   1       8.288  -4.032  -5.086  0.00  0.00     0.024 H 
ATOM     52  H   LIG d   1       6.816  -4.159  -4.094  0.00  0.00     0.024 H 
ENDBRANCH   1  49
BRANCH  17  53
ATOM     53  C   LIG d   1       6.319   0.202  -3.899  0.00  0.00    -0.056 C 
ATOM     54  H   LIG d   1       6.696  -0.109  -2.924  0.00  0.00     0.024 H 
ATOM     55  H   LIG d   1       7.112   0.110  -4.641  0.00  0.00     0.024 H 
ATOM     56  H   LIG d   1       5.989   1.240  -3.847  0.00  0.00     0.024 H 
ENDBRANCH  17  53
BRANCH  20  57
ATOM     57  O   LIG d   1       3.978   2.271  -3.333  0.00  0.00    -0.392 OA
ATOM     58  H   LIG d   1       3.590   3.074  -2.960  0.00  0.00     0.210 HD
ENDBRANCH  20  57
TORSDOF 5
ENDMDL
MODEL 7
REMARK VINA RESULT:      -5.4     10.113     12.273
REMARK  5 active torsions:
REMARK  status: ('A' for Active; 'I' for Inactive)
REMARK    1  A    between atoms: C_1  and  C_2 
REMARK    2  A    between atoms: C_13  and  C_15 
REMARK    3  A    between atoms: C_15  and  C_18 
REMARK    4  A    between atoms: C_22  and  C_29 
REMARK    5  A    between atoms: C_25  and  O_28 
ROOT
ATOM      1  C   LIG d   1       7.473  -9.798  -2.992  0.00  0.00    -0.025 C 
ATOM      2  C   LIG d   1       8.273  -8.609  -3.462  0.00  0.00    -0.047 C 
ATOM      3  C   LIG d   1       9.393  -8.266  -2.469  0.00  0.00    -0.049 C 
ATOM      4  C   LIG d   1       9.801  -9.484  -1.656  0.00  0.00    -0.029 C 
ATOM      5  H   LIG d   1      10.065 -10.302  -2.337  0.00  0.00     0.031 H 
ATOM      6  C   LIG d   1       8.649  -9.934  -0.747  0.00  0.00    -0.031 C 
ATOM      7  H   LIG d   1       8.637  -9.270   0.140  0.00  0.00     0.031 H 
ATOM      8  C   LIG d   1       7.338  -9.810  -1.456  0.00  0.00    -0.032 C 
ATOM      9  H   LIG d   1       6.860  -8.856  -1.141  0.00  0.00     0.031 H 
ATOM     10  C   LIG d   1       6.310 -10.928  -1.233  0.00  0.00    -0.049 C 
ATOM     11  C   LIG d   1       5.297 -10.711  -2.391  0.00  0.00    -0.048 C 
ATOM     12  C   LIG d   1       5.984  -9.761  -3.403  0.00  0.00    -0.020 C 
ATOM     13  H   LIG d   1       5.601  -8.752  -3.312  0.00  0.00     0.032 H 
ATOM     14  C   LIG d   1       8.980 -11.347  -0.266  0.00  0.00    -0.031 C 
ATOM     15  C   LIG d   1      10.324 -11.294   0.413  0.00  0.00    -0.084 C 
ATOM     16  C   LIG d   1      11.196 -10.354   0.215  0.00  0.00    -0.065 C 
ATOM     17  C   LIG d   1      11.033  -9.241  -0.794  0.00  0.00    -0.008 C 
ATOM     18  C   LIG d   1      10.975  -7.911  -0.055  0.00  0.00    -0.041 C 
ATOM     19  C   LIG d   1      11.321  -8.112   1.420  0.00  0.00    -0.026 C 
ATOM     20  C   LIG d   1      12.614  -8.897   1.605  0.00  0.00     0.059 C 
ATOM     21  H   LIG d   1      12.849  -8.951   2.673  0.00  0.00     0.060 H 
ATOM     22  C   LIG d   1      12.460 -10.322   1.057  0.00  0.00    -0.005 C 
ATOM     23  H   LIG d   1       8.712  -8.822  -4.445  0.00  0.00     0.027 H 
ATOM     24  H   LIG d   1       7.610  -7.740  -3.572  0.00  0.00     0.027 H 
ATOM     25  H   LIG d   1      10.253  -7.879  -3.023  0.00  0.00     0.027 H 
ATOM     26  H   LIG d   1       9.041  -7.477  -1.796  0.00  0.00     0.027 H 
ATOM     27  H   LIG d   1       6.767 -11.912  -1.291  0.00  0.00     0.027 H 
ATOM     28  H   LIG d   1       5.812 -10.799  -0.269  0.00  0.00     0.027 H 
ATOM     29  H   LIG d   1       5.068 -11.663  -2.870  0.00  0.00     0.027 H 
ATOM     30  H   LIG d   1       4.384 -10.255  -2.009  0.00  0.00     0.027 H 
ATOM     31  H   LIG d   1       9.027 -12.035  -1.105  0.00  0.00     0.031 H 
ATOM     32  H   LIG d   1       8.230 -11.680   0.449  0.00  0.00     0.031 H 
ATOM     33  H   LIG d   1      10.558 -12.064   1.131  0.00  0.00     0.057 H 
ATOM     34  H   LIG d   1      11.687  -7.216  -0.500  0.00  0.00     0.027 H 
ATOM     35  H   LIG d   1       9.972  -7.491  -0.130  0.00  0.00     0.027 H 
ATOM     36  H   LIG d   1      10.503  -8.641   1.912  0.00  0.00     0.029 H 
ATOM     37  H   LIG d   1      11.432  -7.131   1.890  0.00  0.00     0.029 H 
ATOM     38  H   LIG d   1      12.362 -11.025   1.889  0.00  0.00     0.034 H 
ATOM     39  H   LIG d   1      13.327 -10.594   0.459  0.00  0.00     0.034 H 
ENDROOT
BRANCH  12  40
ATOM     40  C   LIG d   1       5.829 -10.291  -4.830  0.00  0.00     0.026 A 
ATOM     41  S   LIG d   1       4.889  -9.260  -5.990  0.00  0.00    -0.152 SA
ATOM     42  C   LIG d   1       6.668  -9.612  -5.915  0.00  0.00     0.009 A 
ATOM     43  H   LIG d   1       7.317  -8.796  -5.597  0.00  0.00     0.039 H 
ATOM     44  H   LIG d   1       7.076 -10.253  -6.696  0.00  0.00     0.039 H 
BRANCH  40  45
ATOM     45  C   LIG d   1       5.644 -11.805  -4.945  0.00  0.00    -0.049 C 
ATOM     46  H   LIG d   1       6.597 -12.303  -4.763  0.00  0.00     0.024 H 
ATOM     47  H   LIG d   1       4.914 -12.138  -4.208  0.00  0.00     0.024 H 
ATOM     48  H   LIG d   1       5.290 -12.053  -5.945  0.00  0.00     0.024 H 
ENDBRANCH  40  45
ENDBRANCH  12  40
BRANCH   1  49
ATOM     49  C   LIG d   1       8.051 -11.102  -3.545  0.00  0.00    -0.059 C 
ATOM     50  H   LIG d   1       7.402 -11.932  -3.269  0.00  0.00     0.024 H 
ATOM     51  H   LIG d   1       8.118 -11.037  -4.630  0.00  0.00     0.024 H 
ATOM     52  H   LIG d   1       9.044 -11.264  -3.128  0.00  0.00     0.024 H 
ENDBRANCH   1  49
BRANCH  17  53
ATOM     53  C   LIG d   1      12.259  -9.243  -1.716  0.00  0.00    -0.056 C 
ATOM     54  H   LIG d   1      11.938  -9.396  -2.747  0.00  0.00     0.024 H 
ATOM     55  H   LIG d   1      12.776  -8.288  -1.635  0.00  0.00     0.024 H 
ATOM     56  H   LIG d   1      12.933 -10.047  -1.422  0.00  0.00     0.024 H 
ENDBRANCH  17  53
BRANCH  20  57
ATOM     57  O   LIG d   1      13.686  -8.232   0.934  0.00  0.00    -0.392 OA
ATOM     58  H   LIG d   1      13.405  -7.489   0.384  0.00  0.00     0.210 HD
ENDBRANCH  20  57
TORSDOF 5
ENDMDL
MODEL 8
REMARK VINA RESULT:      -5.3      4.512      7.307
REMARK  5 active torsions:
REMARK  status: ('A' for Active; 'I' for Inactive)
REMARK    1  A    between atoms: C_1  and  C_2 
REMARK    2  A    between atoms: C_13  and  C_15 
REMARK    3  A    between atoms: C_15  and  C_18 
REMARK    4  A    between atoms: C_22  and  C_29 
REMARK    5  A    between atoms: C_25  and  O_28 
ROOT
ATOM      1  C   LIG d   1       6.118  -0.165  -3.820  0.00  0.00    -0.025 C 
ATOM      2  C   LIG d   1       6.815   1.123  -3.461  0.00  0.00    -0.047 C 
ATOM      3  C   LIG d   1       8.242   1.157  -4.027  0.00  0.00    -0.049 C 
ATOM      4  C   LIG d   1       8.374   0.258  -5.245  0.00  0.00    -0.029 C 
ATOM      5  H   LIG d   1       7.612   0.535  -5.983  0.00  0.00     0.031 H 
ATOM      6  C   LIG d   1       8.186  -1.213  -4.850  0.00  0.00    -0.031 C 
ATOM      7  H   LIG d   1       9.137  -1.570  -4.408  0.00  0.00     0.031 H 
ATOM      8  C   LIG d   1       7.102  -1.352  -3.830  0.00  0.00    -0.032 C 
ATOM      9  H   LIG d   1       7.575  -1.420  -2.825  0.00  0.00     0.031 H 
ATOM     10  C   LIG d   1       6.156  -2.553  -3.968  0.00  0.00    -0.049 C 
ATOM     11  C   LIG d   1       4.960  -2.167  -3.055  0.00  0.00    -0.048 C 
ATOM     12  C   LIG d   1       5.103  -0.653  -2.761  0.00  0.00    -0.020 C 
ATOM     13  H   LIG d   1       5.499  -0.484  -1.767  0.00  0.00     0.032 H 
ATOM     14  C   LIG d   1       7.949  -1.999  -6.140  0.00  0.00    -0.031 C 
ATOM     15  C   LIG d   1       9.122  -1.743  -7.051  0.00  0.00    -0.084 C 
ATOM     16  C   LIG d   1       9.914  -0.722  -6.939  0.00  0.00    -0.065 C 
ATOM     17  C   LIG d   1       9.715   0.404  -5.952  0.00  0.00    -0.008 C 
ATOM     18  C   LIG d   1      10.888   0.419  -4.981  0.00  0.00    -0.041 C 
ATOM     19  C   LIG d   1      11.975  -0.547  -5.451  0.00  0.00    -0.026 C 
ATOM     20  C   LIG d   1      12.345  -0.328  -6.913  0.00  0.00     0.059 C 
ATOM     21  H   LIG d   1      13.172  -0.996  -7.176  0.00  0.00     0.060 H 
ATOM     22  C   LIG d   1      11.148  -0.637  -7.821  0.00  0.00    -0.005 C 
ATOM     23  H   LIG d   1       6.247   1.975  -3.854  0.00  0.00     0.027 H 
ATOM     24  H   LIG d   1       6.858   1.225  -2.368  0.00  0.00     0.027 H 
ATOM     25  H   LIG d   1       8.495   2.188  -4.291  0.00  0.00     0.027 H 
ATOM     26  H   LIG d   1       8.940   0.827  -3.250  0.00  0.00     0.027 H 
ATOM     27  H   LIG d   1       5.834  -2.694  -4.996  0.00  0.00     0.027 H 
ATOM     28  H   LIG d   1       6.637  -3.460  -3.595  0.00  0.00     0.027 H 
ATOM     29  H   LIG d   1       4.019  -2.359  -3.570  0.00  0.00     0.027 H 
ATOM     30  H   LIG d   1       5.001  -2.734  -2.126  0.00  0.00     0.027 H 
ATOM     31  H   LIG d   1       7.036  -1.668  -6.627  0.00  0.00     0.031 H 
ATOM     32  H   LIG d   1       7.891  -3.064  -5.920  0.00  0.00     0.031 H 
ATOM     33  H   LIG d   1       9.334  -2.472  -7.818  0.00  0.00     0.057 H 
ATOM     34  H   LIG d   1      11.301   1.427  -4.925  0.00  0.00     0.027 H 
ATOM     35  H   LIG d   1      10.550   0.118  -3.989  0.00  0.00     0.027 H 
ATOM     36  H   LIG d   1      11.626  -1.572  -5.315  0.00  0.00     0.029 H 
ATOM     37  H   LIG d   1      12.866  -0.399  -4.834  0.00  0.00     0.029 H 
ATOM     38  H   LIG d   1      11.306  -1.596  -8.321  0.00  0.00     0.034 H 
ATOM     39  H   LIG d   1      11.030   0.142  -8.572  0.00  0.00     0.034 H 
ENDROOT
BRANCH  12  40
ATOM     40  C   LIG d   1       3.765   0.063  -2.959  0.00  0.00     0.026 A 
ATOM     41  S   LIG d   1       2.934  -0.181  -4.553  0.00  0.00    -0.152 SA
ATOM     42  C   LIG d   1       2.504  -0.801  -2.903  0.00  0.00     0.009 A 
ATOM     43  H   LIG d   1       2.644  -1.867  -2.726  0.00  0.00     0.039 H 
ATOM     44  H   LIG d   1       1.627  -0.362  -2.426  0.00  0.00     0.039 H 
BRANCH  40  45
ATOM     45  C   LIG d   1       3.676   1.459  -2.340  0.00  0.00    -0.049 C 
ATOM     46  H   LIG d   1       3.305   1.381  -1.318  0.00  0.00     0.024 H 
ATOM     47  H   LIG d   1       4.665   1.917  -2.333  0.00  0.00     0.024 H 
ATOM     48  H   LIG d   1       2.996   2.074  -2.927  0.00  0.00     0.024 H 
ENDBRANCH  40  45
ENDBRANCH  12  40
BRANCH   1  49
ATOM     49  C   LIG d   1       5.349  -0.025  -5.135  0.00  0.00    -0.059 C 
ATOM     50  H   LIG d   1       6.033  -0.156  -5.973  0.00  0.00     0.024 H 
ATOM     51  H   LIG d   1       4.568  -0.784  -5.181  0.00  0.00     0.024 H 
ATOM     52  H   LIG d   1       4.896   0.965  -5.187  0.00  0.00     0.024 H 
ENDBRANCH   1  49
BRANCH  17  53
ATOM     53  C   LIG d   1       9.696   1.727  -6.727  0.00  0.00    -0.056 C 
ATOM     54  H   LIG d   1       9.682   2.560  -6.023  0.00  0.00     0.024 H 
ATOM     55  H   LIG d   1      10.586   1.796  -7.351  0.00  0.00     0.024 H 
ATOM     56  H   LIG d   1       8.807   1.767  -7.356  0.00  0.00     0.024 H 
ENDBRANCH  17  53
BRANCH  20  57
ATOM     57  O   LIG d   1      12.769   1.022  -7.110  0.00  0.00    -0.392 OA
ATOM     58  H   LIG d   1      12.473   1.409  -7.945  0.00  0.00     0.210 HD
ENDBRANCH  20  57
TORSDOF 5
ENDMDL
MODEL 9
REMARK VINA RESULT:      -5.2      9.930     11.964
REMARK  5 active torsions:
REMARK  status: ('A' for Active; 'I' for Inactive)
REMARK    1  A    between atoms: C_1  and  C_2 
REMARK    2  A    between atoms: C_13  and  C_15 
REMARK    3  A    between atoms: C_15  and  C_18 
REMARK    4  A    between atoms: C_22  and  C_29 
REMARK    5  A    between atoms: C_25  and  O_28 
ROOT
ATOM      1  C   LIG d   1      10.638   5.876  -3.249  0.00  0.00    -0.025 C 
ATOM      2  C   LIG d   1      10.090   5.648  -1.863  0.00  0.00    -0.047 C 
ATOM      3  C   LIG d   1      10.151   6.933  -1.025  0.00  0.00    -0.049 C 
ATOM      4  C   LIG d   1      10.144   8.170  -1.909  0.00  0.00    -0.029 C 
ATOM      5  H   LIG d   1       9.275   8.132  -2.576  0.00  0.00     0.031 H 
ATOM      6  C   LIG d   1      11.426   8.235  -2.750  0.00  0.00    -0.031 C 
ATOM      7  H   LIG d   1      12.236   8.627  -2.104  0.00  0.00     0.031 H 
ATOM      8  C   LIG d   1      11.814   6.873  -3.230  0.00  0.00    -0.032 C 
ATOM      9  H   LIG d   1      12.598   6.473  -2.550  0.00  0.00     0.031 H 
ATOM     10  C   LIG d   1      12.353   6.760  -4.663  0.00  0.00    -0.049 C 
ATOM     11  C   LIG d   1      12.251   5.238  -4.959  0.00  0.00    -0.048 C 
ATOM     12  C   LIG d   1      11.331   4.639  -3.866  0.00  0.00    -0.020 C 
ATOM     13  H   LIG d   1      11.908   4.124  -3.109  0.00  0.00     0.032 H 
ATOM     14  C   LIG d   1      11.183   9.256  -3.862  0.00  0.00    -0.031 C 
ATOM     15  C   LIG d   1      10.799  10.558  -3.209  0.00  0.00    -0.084 C 
ATOM     16  C   LIG d   1      10.333  10.650  -2.002  0.00  0.00    -0.065 C 
ATOM     17  C   LIG d   1      10.013   9.466  -1.121  0.00  0.00    -0.008 C 
ATOM     18  C   LIG d   1      10.922   9.502   0.100  0.00  0.00    -0.041 C 
ATOM     19  C   LIG d   1      11.691  10.822   0.147  0.00  0.00    -0.026 C 
ATOM     20  C   LIG d   1      10.771  12.028  -0.008  0.00  0.00     0.059 C 
ATOM     21  H   LIG d   1      11.361  12.943   0.103  0.00  0.00     0.060 H 
ATOM     22  C   LIG d   1      10.112  12.025  -1.393  0.00  0.00    -0.005 C 
ATOM     23  H   LIG d   1       9.050   5.305  -1.926  0.00  0.00     0.027 H 
ATOM     24  H   LIG d   1      10.672   4.863  -1.362  0.00  0.00     0.027 H 
ATOM     25  H   LIG d   1       9.296   6.954  -0.343  0.00  0.00     0.027 H 
ATOM     26  H   LIG d   1      11.064   6.919  -0.420  0.00  0.00     0.027 H 
ATOM     27  H   LIG d   1      11.757   7.337  -5.364  0.00  0.00     0.027 H 
ATOM     28  H   LIG d   1      13.397   7.081  -4.701  0.00  0.00     0.027 H 
ATOM     29  H   LIG d   1      11.813   5.078  -5.944  0.00  0.00     0.027 H 
ATOM     30  H   LIG d   1      13.238   4.780  -4.909  0.00  0.00     0.027 H 
ATOM     31  H   LIG d   1      10.378   8.927  -4.512  0.00  0.00     0.031 H 
ATOM     32  H   LIG d   1      12.095   9.399  -4.439  0.00  0.00     0.031 H 
ATOM     33  H   LIG d   1      10.955  11.468  -3.767  0.00  0.00     0.057 H 
ATOM     34  H   LIG d   1      10.321   9.402   1.005  0.00  0.00     0.027 H 
ATOM     35  H   LIG d   1      11.634   8.678   0.054  0.00  0.00     0.027 H 
ATOM     36  H   LIG d   1      12.437  10.831  -0.648  0.00  0.00     0.029 H 
ATOM     37  H   LIG d   1      12.207  10.892   1.109  0.00  0.00     0.029 H 
ATOM     38  H   LIG d   1      10.584  12.783  -2.023  0.00  0.00     0.034 H 
ATOM     39  H   LIG d   1       9.049  12.241  -1.308  0.00  0.00     0.034 H 
ENDROOT
BRANCH  12  40
ATOM     40  C   LIG d   1      10.280   3.718  -4.492  0.00  0.00     0.026 A 
ATOM     41  S   LIG d   1      10.475   1.938  -4.204  0.00  0.00    -0.152 SA
ATOM     42  C   LIG d   1       9.249   3.102  -3.545  0.00  0.00     0.009 A 
ATOM     43  H   LIG d   1       9.333   3.359  -2.490  0.00  0.00     0.039 H 
ATOM     44  H   LIG d   1       8.230   3.007  -3.920  0.00  0.00     0.039 H 
BRANCH  40  45
ATOM     45  C   LIG d   1       9.783   4.144  -5.875  0.00  0.00    -0.049 C 
ATOM     46  H   LIG d   1      10.585   4.021  -6.604  0.00  0.00     0.024 H 
ATOM     47  H   LIG d   1       8.934   3.525  -6.161  0.00  0.00     0.024 H 
ATOM     48  H   LIG d   1       9.477   5.189  -5.845  0.00  0.00     0.024 H 
ENDBRANCH  40  45
ENDBRANCH  12  40
BRANCH   1  49
ATOM     49  C   LIG d   1       9.528   6.288  -4.217  0.00  0.00    -0.059 C 
ATOM     50  H   LIG d   1       8.780   5.498  -4.271  0.00  0.00     0.024 H 
ATOM     51  H   LIG d   1       9.061   7.208  -3.864  0.00  0.00     0.024 H 
ATOM     52  H   LIG d   1       9.953   6.454  -5.206  0.00  0.00     0.024 H 
ENDBRANCH   1  49
BRANCH  17  53
ATOM     53  C   LIG d   1       8.556   9.589  -0.658  0.00  0.00    -0.056 C 
ATOM     54  H   LIG d   1       7.929   9.874  -1.504  0.00  0.00     0.024 H 
ATOM     55  H   LIG d   1       8.218   8.632  -0.262  0.00  0.00     0.024 H 
ATOM     56  H   LIG d   1       8.485  10.350   0.119  0.00  0.00     0.024 H 
ENDBRANCH  17  53
BRANCH  20  57
ATOM     57  O   LIG d   1       9.766  12.006   1.008  0.00  0.00    -0.392 OA
ATOM     58  H   LIG d   1       9.338  11.146   1.120  0.00  0.00     0.210 HD
ENDBRANCH  20  57
TORSDOF 5
ENDMDL
MODEL 10
REMARK VINA RESULT:      -5.2      4.387      6.455
REMARK  5 active torsions:
REMARK  status: ('A' for Active; 'I' for Inactive)
REMARK    1  A    between atoms: C_1  and  C_2 
REMARK    2  A    between atoms: C_13  and  C_15 
REMARK    3  A    between atoms: C_15  and  C_18 
REMARK    4  A    between atoms: C_22  and  C_29 
REMARK    5  A    between atoms: C_25  and  O_28 
ROOT
ATOM      1  C   LIG d   1       8.522  -4.509  -5.468  0.00  0.00    -0.025 C 
ATOM      2  C   LIG d   1       7.223  -5.123  -5.923  0.00  0.00    -0.047 C 
ATOM      3  C   LIG d   1       6.019  -4.382  -5.322  0.00  0.00    -0.049 C 
ATOM      4  C   LIG d   1       6.374  -2.947  -4.970  0.00  0.00    -0.029 C 
ATOM      5  H   LIG d   1       6.788  -2.449  -5.855  0.00  0.00     0.031 H 
ATOM      6  C   LIG d   1       7.411  -2.913  -3.838  0.00  0.00    -0.031 C 
ATOM      7  H   LIG d   1       6.876  -3.080  -2.883  0.00  0.00     0.031 H 
ATOM      8  C   LIG d   1       8.423  -3.999  -4.016  0.00  0.00    -0.032 C 
ATOM      9  H   LIG d   1       8.135  -4.855  -3.366  0.00  0.00     0.031 H 
ATOM     10  C   LIG d   1       9.885  -3.657  -3.695  0.00  0.00    -0.049 C 
ATOM     11  C   LIG d   1      10.674  -4.815  -4.367  0.00  0.00    -0.048 C 
ATOM     12  C   LIG d   1       9.685  -5.518  -5.330  0.00  0.00    -0.020 C 
ATOM     13  H   LIG d   1       9.320  -6.445  -4.906  0.00  0.00     0.032 H 
ATOM     14  C   LIG d   1       7.994  -1.500  -3.804  0.00  0.00    -0.031 C 
ATOM     15  C   LIG d   1       6.848  -0.538  -3.628  0.00  0.00    -0.084 C 
ATOM     16  C   LIG d   1       5.615  -0.826  -3.910  0.00  0.00    -0.065 C 
ATOM     17  C   LIG d   1       5.167  -2.120  -4.548  0.00  0.00    -0.008 C 
ATOM     18  C   LIG d   1       4.263  -2.862  -3.573  0.00  0.00    -0.041 C 
ATOM     19  C   LIG d   1       3.928  -1.967  -2.380  0.00  0.00    -0.026 C 
ATOM     20  C   LIG d   1       3.421  -0.597  -2.814  0.00  0.00     0.059 C 
ATOM     21  H   LIG d   1       3.131  -0.026  -1.926  0.00  0.00     0.060 H 
ATOM     22  C   LIG d   1       4.520   0.169  -3.561  0.00  0.00    -0.005 C 
ATOM     23  H   LIG d   1       7.160  -5.090  -7.018  0.00  0.00     0.027 H 
ATOM     24  H   LIG d   1       7.187  -6.177  -5.617  0.00  0.00     0.027 H 
ATOM     25  H   LIG d   1       5.196  -4.400  -6.042  0.00  0.00     0.027 H 
ATOM     26  H   LIG d   1       5.691  -4.911  -4.421  0.00  0.00     0.027 H 
ATOM     27  H   LIG d   1      10.173  -2.695  -4.109  0.00  0.00     0.027 H 
ATOM     28  H   LIG d   1      10.049  -3.668  -2.615  0.00  0.00     0.027 H 
ATOM     29  H   LIG d   1      11.519  -4.415  -4.927  0.00  0.00     0.027 H 
ATOM     30  H   LIG d   1      11.023  -5.517  -3.611  0.00  0.00     0.027 H 
ATOM     31  H   LIG d   1       8.511  -1.278  -4.733  0.00  0.00     0.031 H 
ATOM     32  H   LIG d   1       8.678  -1.402  -2.963  0.00  0.00     0.031 H 
ATOM     33  H   LIG d   1       7.063   0.433  -3.210  0.00  0.00     0.057 H 
ATOM     34  H   LIG d   1       3.341  -3.150  -4.079  0.00  0.00     0.027 H 
ATOM     35  H   LIG d   1       4.767  -3.759  -3.213  0.00  0.00     0.027 H 
ATOM     36  H   LIG d   1       4.818  -1.845  -1.761  0.00  0.00     0.029 H 
ATOM     37  H   LIG d   1       3.154  -2.457  -1.782  0.00  0.00     0.029 H 
ATOM     38  H   LIG d   1       4.929   0.948  -2.912  0.00  0.00     0.034 H 
ATOM     39  H   LIG d   1       4.117   0.629  -4.462  0.00  0.00     0.034 H 
ENDROOT
BRANCH  12  40
ATOM     40  C   LIG d   1      10.335  -5.746  -6.697  0.00  0.00     0.026 A 
ATOM     41  S   LIG d   1      10.541  -7.467  -7.231  0.00  0.00    -0.152 SA
ATOM     42  C   LIG d   1       9.413  -6.182  -7.837  0.00  0.00     0.009 A 
ATOM     43  H   LIG d   1       8.356  -6.302  -7.599  0.00  0.00     0.039 H 
ATOM     44  H   LIG d   1       9.622  -5.771  -8.825  0.00  0.00     0.039 H 
BRANCH  40  45
ATOM     45  C   LIG d   1      11.462  -4.773  -7.052  0.00  0.00    -0.049 C 
ATOM     46  H   LIG d   1      11.212  -3.777  -6.685  0.00  0.00     0.024 H 
ATOM     47  H   LIG d   1      12.389  -5.108  -6.589  0.00  0.00     0.024 H 
ATOM     48  H   LIG d   1      11.587  -4.741  -8.133  0.00  0.00     0.024 H 
ENDBRANCH  40  45
ENDBRANCH  12  40
BRANCH   1  49
ATOM     49  C   LIG d   1       8.991  -3.428  -6.443  0.00  0.00    -0.059 C 
ATOM     50  H   LIG d   1       8.147  -3.092  -7.046  0.00  0.00     0.024 H 
ATOM     51  H   LIG d   1       9.396  -2.585  -5.884  0.00  0.00     0.024 H 
ATOM     52  H   LIG d   1       9.763  -3.836  -7.094  0.00  0.00     0.024 H 
ENDBRANCH   1  49
BRANCH  17  53
ATOM     53  C   LIG d   1       4.364  -1.783  -5.810  0.00  0.00    -0.056 C 
ATOM     54  H   LIG d   1       4.458  -0.718  -6.027  0.00  0.00     0.024 H 
ATOM     55  H   LIG d   1       4.749  -2.359  -6.651  0.00  0.00     0.024 H 
ATOM     56  H   LIG d   1       3.315  -2.031  -5.650  0.00  0.00     0.024 H 
ENDBRANCH  17  53
BRANCH  20  57
ATOM     57  O   LIG d   1       2.276  -0.746  -3.655  0.00  0.00    -0.392 OA
ATOM     58  H   LIG d   1       1.439  -0.805  -3.174  0.00  0.00     0.210 HD
ENDBRANCH  20  57
TORSDOF 5
ENDMDL
