MODEL 1
REMARK VINA RESULT:      -7.1      0.000      0.000
REMARK  8 active torsions:
REMARK  status: ('A' for Active; 'I' for Inactive)
REMARK    1  A    between atoms: C_9  and  C_11 
REMARK    2  A    between atoms: C_16  and  O_22 
REMARK    3  A    between atoms: O_22  and  C_23 
REMARK    4  A    between atoms: C_25  and  O_38 
REMARK    5  A    between atoms: C_27  and  O_37 
REMARK    6  A    between atoms: C_29  and  O_36 
REMARK    7  A    between atoms: C_31  and  C_34 
REMARK    8  A    between atoms: C_34  and  O_35 
ROOT
ATOM      1  C   LIG d   1       8.264   1.998  -4.475  0.00  0.00     0.082 A 
ATOM      2  C   LIG d   1       8.989   2.677  -3.546  0.00  0.00     0.105 A 
ATOM      3  O   LIG d   1       9.809   3.679  -3.869  0.00  0.00    -0.462 OA
ATOM      4  C   LIG d   1       9.996   4.106  -5.134  0.00  0.00     0.142 A 
ATOM      5  C   LIG d   1      10.866   5.154  -5.403  0.00  0.00     0.023 A 
ATOM      6  C   LIG d   1      11.046   5.580  -6.709  0.00  0.00     0.128 A 
ATOM      7  C   LIG d   1      10.362   4.967  -7.756  0.00  0.00    -0.019 A 
ATOM      8  C   LIG d   1       9.503   3.935  -7.507  0.00  0.00    -0.044 A 
ATOM      9  C   LIG d   1       9.310   3.495  -6.197  0.00  0.00     0.065 A 
ATOM     10  C   LIG d   1       8.396   2.379  -5.892  0.00  0.00     0.202 A 
ATOM     11  O   LIG d   1       7.776   1.803  -6.769  0.00  0.00    -0.286 OA
ATOM     12  H   LIG d   1       8.897   2.396  -2.507  0.00  0.00     0.104 H 
ATOM     13  H   LIG d   1      11.401   5.636  -4.598  0.00  0.00     0.069 H 
ATOM     14  H   LIG d   1      10.511   5.310  -8.769  0.00  0.00     0.065 H 
ATOM     15  H   LIG d   1       8.974   3.462  -8.321  0.00  0.00     0.063 H 
ENDROOT
BRANCH   6  16
ATOM     16  O   LIG d   1      11.898   6.605  -6.970  0.00  0.00    -0.461 OA
BRANCH  16  17
ATOM     17  C   LIG d   1      11.326   7.805  -7.495  0.00  0.00     0.231 C 
ATOM     18  H   LIG d   1      10.251   7.672  -7.617  0.00  0.00     0.108 H 
ATOM     19  O   LIG d   1      11.917   8.100  -8.762  0.00  0.00    -0.331 OA
ATOM     20  C   LIG d   1      11.395   9.273  -9.390  0.00  0.00     0.114 C 
ATOM     21  C   LIG d   1      11.663  10.489  -8.499  0.00  0.00     0.112 C 
ATOM     22  H   LIG d   1      10.321   9.160  -9.537  0.00  0.00     0.065 H 
ATOM     23  C   LIG d   1      11.027  10.255  -7.124  0.00  0.00     0.115 C 
ATOM     24  H   LIG d   1      12.737  10.628  -8.383  0.00  0.00     0.065 H 
ATOM     25  C   LIG d   1      11.590   8.961  -6.527  0.00  0.00     0.145 C 
ATOM     26  H   LIG d   1      11.261  11.092  -6.466  0.00  0.00     0.065 H 
ATOM     27  H   LIG d   1      12.664   9.069  -6.372  0.00  0.00     0.068 H 
BRANCH  20  28
ATOM     28  C   LIG d   1      12.078   9.474 -10.744  0.00  0.00     0.073 C 
ATOM     29  H   LIG d   1      12.942  10.126 -10.622  0.00  0.00     0.058 H 
ATOM     30  H   LIG d   1      12.402   8.509 -11.134  0.00  0.00     0.058 H 
BRANCH  28  31
ATOM     31  O   LIG d   1      11.156  10.071 -11.658  0.00  0.00    -0.392 OA
ATOM     32  H   LIG d   1      10.838   9.470 -12.345  0.00  0.00     0.209 HD
ENDBRANCH  28  31
ENDBRANCH  20  28
BRANCH  21  33
ATOM     33  O   LIG d   1      11.091  11.655  -9.096  0.00  0.00    -0.387 OA
ATOM     34  H   LIG d   1      11.040  11.618 -10.061  0.00  0.00     0.210 HD
ENDBRANCH  21  33
BRANCH  23  35
ATOM     35  O   LIG d   1       9.610  10.139  -7.267  0.00  0.00    -0.386 OA
ATOM     36  H   LIG d   1       9.181  10.939  -7.600  0.00  0.00     0.210 HD
ENDBRANCH  23  35
BRANCH  25  37
ATOM     37  O   LIG d   1      10.951   8.694  -5.277  0.00  0.00    -0.383 OA
ATOM     38  H   LIG d   1      11.151   7.821  -4.912  0.00  0.00     0.210 HD
ENDBRANCH  25  37
ENDBRANCH  16  17
ENDBRANCH   6  16
BRANCH   1  39
ATOM     39  C   LIG d   1       7.366   0.893  -4.071  0.00  0.00     0.078 A 
ATOM     40  C   LIG d   1       7.845  -0.427  -4.100  0.00  0.00    -0.035 A 
ATOM     41  C   LIG d   1       7.027  -1.453  -3.730  0.00  0.00    -0.051 A 
ATOM     42  H   LIG d   1       8.858  -0.629  -4.415  0.00  0.00     0.064 H 
ATOM     43  C   LIG d   1       5.713  -1.147  -3.324  0.00  0.00     0.000 A 
ATOM     44  H   LIG d   1       7.379  -2.474  -3.747  0.00  0.00     0.062 H 
ATOM     45  C   LIG d   1       5.289   0.205  -3.316  0.00  0.00     0.072 A 
ATOM     46  C   LIG d   1       4.819  -2.157  -2.932  0.00  0.00    -0.053 A 
ATOM     47  C   LIG d   1       3.976   0.507  -2.911  0.00  0.00    -0.036 A 
ATOM     48  N   LIG d   1       6.133   1.171  -3.690  0.00  0.00    -0.246 NA
ATOM     49  C   LIG d   1       3.137  -0.497  -2.536  0.00  0.00    -0.060 A 
ATOM     50  H   LIG d   1       3.636   1.532  -2.899  0.00  0.00     0.064 H 
ATOM     51  C   LIG d   1       3.555  -1.825  -2.546  0.00  0.00    -0.061 A 
ATOM     52  H   LIG d   1       2.130  -0.259  -2.227  0.00  0.00     0.062 H 
ATOM     53  H   LIG d   1       2.869  -2.603  -2.245  0.00  0.00     0.062 H 
ATOM     54  H   LIG d   1       5.132  -3.191  -2.935  0.00  0.00     0.062 H 
ENDBRANCH   1  39
TORSDOF 8
ENDMDL
MODEL 2
REMARK VINA RESULT:      -7.0      1.500      2.243
REMARK  8 active torsions:
REMARK  status: ('A' for Active; 'I' for Inactive)
REMARK    1  A    between atoms: C_9  and  C_11 
REMARK    2  A    between atoms: C_16  and  O_22 
REMARK    3  A    between atoms: O_22  and  C_23 
REMARK    4  A    between atoms: C_25  and  O_38 
REMARK    5  A    between atoms: C_27  and  O_37 
REMARK    6  A    between atoms: C_29  and  O_36 
REMARK    7  A    between atoms: C_31  and  C_34 
REMARK    8  A    between atoms: C_34  and  O_35 
ROOT
ATOM      1  C   LIG d   1       7.946   1.357  -5.351  0.00  0.00     0.082 A 
ATOM      2  C   LIG d   1       8.140   1.241  -6.693  0.00  0.00     0.105 A 
ATOM      3  O   LIG d   1       8.921   2.077  -7.379  0.00  0.00    -0.462 OA
ATOM      4  C   LIG d   1       9.583   3.106  -6.814  0.00  0.00     0.142 A 
ATOM      5  C   LIG d   1      10.381   3.942  -7.585  0.00  0.00     0.023 A 
ATOM      6  C   LIG d   1      11.054   4.995  -6.988  0.00  0.00     0.128 A 
ATOM      7  C   LIG d   1      10.939   5.224  -5.618  0.00  0.00    -0.019 A 
ATOM      8  C   LIG d   1      10.159   4.412  -4.846  0.00  0.00    -0.044 A 
ATOM      9  C   LIG d   1       9.475   3.346  -5.433  0.00  0.00     0.065 A 
ATOM     10  C   LIG d   1       8.619   2.453  -4.632  0.00  0.00     0.202 A 
ATOM     11  O   LIG d   1       8.478   2.610  -3.432  0.00  0.00    -0.286 OA
ATOM     12  H   LIG d   1       7.644   0.442  -7.223  0.00  0.00     0.104 H 
ATOM     13  H   LIG d   1      10.476   3.771  -8.648  0.00  0.00     0.069 H 
ATOM     14  H   LIG d   1      11.470   6.048  -5.165  0.00  0.00     0.065 H 
ATOM     15  H   LIG d   1      10.073   4.593  -3.785  0.00  0.00     0.063 H 
ENDROOT
BRANCH   6  16
ATOM     16  O   LIG d   1      11.832   5.810  -7.745  0.00  0.00    -0.461 OA
BRANCH  16  17
ATOM     17  C   LIG d   1      11.163   6.805  -8.523  0.00  0.00     0.231 C 
ATOM     18  H   LIG d   1      10.243   7.103  -8.020  0.00  0.00     0.108 H 
ATOM     19  O   LIG d   1      10.850   6.271  -9.811  0.00  0.00    -0.331 OA
ATOM     20  C   LIG d   1      10.153   7.181 -10.666  0.00  0.00     0.114 C 
ATOM     21  C   LIG d   1      11.024   8.415 -10.914  0.00  0.00     0.112 C 
ATOM     22  H   LIG d   1       9.220   7.484 -10.190  0.00  0.00     0.065 H 
ATOM     23  C   LIG d   1      11.375   9.061  -9.569  0.00  0.00     0.115 C 
ATOM     24  H   LIG d   1      11.940   8.119 -11.425  0.00  0.00     0.065 H 
ATOM     25  C   LIG d   1      12.074   8.024  -8.684  0.00  0.00     0.145 C 
ATOM     26  H   LIG d   1      12.041   9.907  -9.734  0.00  0.00     0.065 H 
ATOM     27  H   LIG d   1      13.011   7.720  -9.151  0.00  0.00     0.068 H 
BRANCH  20  28
ATOM     28  C   LIG d   1       9.848   6.496 -12.000  0.00  0.00     0.073 C 
ATOM     29  H   LIG d   1      10.673   6.663 -12.691  0.00  0.00     0.058 H 
ATOM     30  H   LIG d   1       9.719   5.426 -11.837  0.00  0.00     0.058 H 
BRANCH  28  31
ATOM     31  O   LIG d   1       8.647   7.041 -12.551  0.00  0.00    -0.392 OA
ATOM     32  H   LIG d   1       8.794   7.666 -13.274  0.00  0.00     0.209 HD
ENDBRANCH  28  31
ENDBRANCH  20  28
BRANCH  21  33
ATOM     33  O   LIG d   1      10.307   9.352 -11.720  0.00  0.00    -0.387 OA
ATOM     34  H   LIG d   1       9.703   8.944 -12.355  0.00  0.00     0.210 HD
ENDBRANCH  21  33
BRANCH  23  35
ATOM     35  O   LIG d   1      10.179   9.509  -8.928  0.00  0.00    -0.386 OA
ATOM     36  H   LIG d   1      10.283  10.336  -8.437  0.00  0.00     0.210 HD
ENDBRANCH  23  35
BRANCH  25  37
ATOM     37  O   LIG d   1      12.343   8.593  -7.401  0.00  0.00    -0.383 OA
ATOM     38  H   LIG d   1      12.816   8.002  -6.800  0.00  0.00     0.210 HD
ENDBRANCH  25  37
ENDBRANCH  16  17
ENDBRANCH   6  16
BRANCH   1  39
ATOM     39  C   LIG d   1       7.071   0.406  -4.631  0.00  0.00     0.078 A 
ATOM     40  C   LIG d   1       7.606  -0.810  -4.176  0.00  0.00    -0.035 A 
ATOM     41  C   LIG d   1       6.810  -1.695  -3.511  0.00  0.00    -0.051 A 
ATOM     42  H   LIG d   1       8.645  -1.045  -4.353  0.00  0.00     0.064 H 
ATOM     43  C   LIG d   1       5.460  -1.351  -3.300  0.00  0.00     0.000 A 
ATOM     44  H   LIG d   1       7.205  -2.635  -3.156  0.00  0.00     0.062 H 
ATOM     45  C   LIG d   1       4.980  -0.109  -3.782  0.00  0.00     0.072 A 
ATOM     46  C   LIG d   1       4.586  -2.217  -2.623  0.00  0.00    -0.053 A 
ATOM     47  C   LIG d   1       3.631   0.232  -3.571  0.00  0.00    -0.036 A 
ATOM     48  N   LIG d   1       5.805   0.720  -4.429  0.00  0.00    -0.246 NA
ATOM     49  C   LIG d   1       2.813  -0.631  -2.910  0.00  0.00    -0.060 A 
ATOM     50  H   LIG d   1       3.248   1.175  -3.932  0.00  0.00     0.064 H 
ATOM     51  C   LIG d   1       3.287  -1.852  -2.437  0.00  0.00    -0.061 A 
ATOM     52  H   LIG d   1       1.779  -0.365  -2.750  0.00  0.00     0.062 H 
ATOM     53  H   LIG d   1       2.616  -2.520  -1.916  0.00  0.00     0.062 H 
ATOM     54  H   LIG d   1       4.942  -3.167  -2.251  0.00  0.00     0.062 H 
ENDBRANCH   1  39
TORSDOF 8
ENDMDL
MODEL 3
REMARK VINA RESULT:      -6.9      1.238      2.423
REMARK  8 active torsions:
REMARK  status: ('A' for Active; 'I' for Inactive)
REMARK    1  A    between atoms: C_9  and  C_11 
REMARK    2  A    between atoms: C_16  and  O_22 
REMARK    3  A    between atoms: O_22  and  C_23 
REMARK    4  A    between atoms: C_25  and  O_38 
REMARK    5  A    between atoms: C_27  and  O_37 
REMARK    6  A    between atoms: C_29  and  O_36 
REMARK    7  A    between atoms: C_31  and  C_34 
REMARK    8  A    between atoms: C_34  and  O_35 
ROOT
ATOM      1  C   LIG d   1       8.232   2.039  -4.662  0.00  0.00     0.082 A 
ATOM      2  C   LIG d   1       8.988   2.773  -3.802  0.00  0.00     0.105 A 
ATOM      3  O   LIG d   1       9.822   3.729  -4.216  0.00  0.00    -0.462 OA
ATOM      4  C   LIG d   1       9.994   4.052  -5.514  0.00  0.00     0.142 A 
ATOM      5  C   LIG d   1      10.879   5.058  -5.879  0.00  0.00     0.023 A 
ATOM      6  C   LIG d   1      11.043   5.377  -7.217  0.00  0.00     0.128 A 
ATOM      7  C   LIG d   1      10.327   4.698  -8.201  0.00  0.00    -0.019 A 
ATOM      8  C   LIG d   1       9.452   3.707  -7.858  0.00  0.00    -0.044 A 
ATOM      9  C   LIG d   1       9.276   3.374  -6.514  0.00  0.00     0.065 A 
ATOM     10  C   LIG d   1       8.345   2.306  -6.107  0.00  0.00     0.202 A 
ATOM     11  O   LIG d   1       7.698   1.676  -6.925  0.00  0.00    -0.286 OA
ATOM     12  H   LIG d   1       8.910   2.576  -2.743  0.00  0.00     0.104 H 
ATOM     13  H   LIG d   1      11.438   5.589  -5.123  0.00  0.00     0.069 H 
ATOM     14  H   LIG d   1      10.464   4.958  -9.241  0.00  0.00     0.065 H 
ATOM     15  H   LIG d   1       8.899   3.184  -8.623  0.00  0.00     0.063 H 
ENDROOT
BRANCH   6  16
ATOM     16  O   LIG d   1      11.910   6.360  -7.572  0.00  0.00    -0.461 OA
BRANCH  16  17
ATOM     17  C   LIG d   1      11.495   7.706  -7.332  0.00  0.00     0.231 C 
ATOM     18  H   LIG d   1      12.250   8.393  -7.716  0.00  0.00     0.108 H 
ATOM     19  O   LIG d   1      11.331   7.912  -5.928  0.00  0.00    -0.331 OA
ATOM     20  C   LIG d   1      10.940   9.241  -5.575  0.00  0.00     0.114 C 
ATOM     21  C   LIG d   1       9.586   9.559  -6.215  0.00  0.00     0.112 C 
ATOM     22  H   LIG d   1      11.687   9.948  -5.935  0.00  0.00     0.065 H 
ATOM     23  C   LIG d   1       9.695   9.388  -7.734  0.00  0.00     0.115 C 
ATOM     24  H   LIG d   1       8.829   8.879  -5.826  0.00  0.00     0.065 H 
ATOM     25  C   LIG d   1      10.164   7.963  -8.043  0.00  0.00     0.145 C 
ATOM     26  H   LIG d   1       8.720   9.559  -8.191  0.00  0.00     0.065 H 
ATOM     27  H   LIG d   1       9.418   7.250  -7.690  0.00  0.00     0.068 H 
BRANCH  20  28
ATOM     28  C   LIG d   1      10.823   9.352  -4.054  0.00  0.00     0.073 C 
ATOM     29  H   LIG d   1      11.532   8.671  -3.584  0.00  0.00     0.058 H 
ATOM     30  H   LIG d   1      11.042  10.374  -3.746  0.00  0.00     0.058 H 
BRANCH  28  31
ATOM     31  O   LIG d   1       9.495   9.008  -3.652  0.00  0.00    -0.392 OA
ATOM     32  H   LIG d   1       9.406   8.819  -2.707  0.00  0.00     0.209 HD
ENDBRANCH  28  31
ENDBRANCH  20  28
BRANCH  21  33
ATOM     33  O   LIG d   1       9.219  10.907  -5.912  0.00  0.00    -0.387 OA
ATOM     34  H   LIG d   1       8.281  11.099  -6.047  0.00  0.00     0.210 HD
ENDBRANCH  21  33
BRANCH  23  35
ATOM     35  O   LIG d   1      10.639  10.326  -8.254  0.00  0.00    -0.386 OA
ATOM     36  H   LIG d   1      10.296  10.870  -8.976  0.00  0.00     0.210 HD
ENDBRANCH  23  35
BRANCH  25  37
ATOM     37  O   LIG d   1      10.338   7.813  -9.454  0.00  0.00    -0.383 OA
ATOM     38  H   LIG d   1      11.228   7.537  -9.713  0.00  0.00     0.210 HD
ENDBRANCH  25  37
ENDBRANCH  16  17
ENDBRANCH   6  16
BRANCH   1  39
ATOM     39  C   LIG d   1       7.320   0.989  -4.157  0.00  0.00     0.078 A 
ATOM     40  C   LIG d   1       7.795  -0.327  -4.023  0.00  0.00    -0.035 A 
ATOM     41  C   LIG d   1       6.965  -1.303  -3.559  0.00  0.00    -0.051 A 
ATOM     42  H   LIG d   1       8.815  -0.564  -4.287  0.00  0.00     0.064 H 
ATOM     43  C   LIG d   1       5.642  -0.952  -3.225  0.00  0.00     0.000 A 
ATOM     44  H   LIG d   1       7.313  -2.320  -3.451  0.00  0.00     0.062 H 
ATOM     45  C   LIG d   1       5.223   0.392  -3.382  0.00  0.00     0.072 A 
ATOM     46  C   LIG d   1       4.735  -1.909  -2.742  0.00  0.00    -0.053 A 
ATOM     47  C   LIG d   1       3.901   0.740  -3.048  0.00  0.00    -0.036 A 
ATOM     48  N   LIG d   1       6.079   1.309  -3.842  0.00  0.00    -0.246 NA
ATOM     49  C   LIG d   1       3.049  -0.214  -2.582  0.00  0.00    -0.060 A 
ATOM     50  H   LIG d   1       3.565   1.760  -3.162  0.00  0.00     0.064 H 
ATOM     51  C   LIG d   1       3.463  -1.535  -2.430  0.00  0.00    -0.061 A 
ATOM     52  H   LIG d   1       2.036   0.059  -2.328  0.00  0.00     0.062 H 
ATOM     53  H   LIG d   1       2.767  -2.273  -2.059  0.00  0.00     0.062 H 
ATOM     54  H   LIG d   1       5.044  -2.937  -2.619  0.00  0.00     0.062 H 
ENDBRANCH   1  39
TORSDOF 8
ENDMDL
MODEL 4
REMARK VINA RESULT:      -6.8      8.369     10.370
REMARK  8 active torsions:
REMARK  status: ('A' for Active; 'I' for Inactive)
REMARK    1  A    between atoms: C_9  and  C_11 
REMARK    2  A    between atoms: C_16  and  O_22 
REMARK    3  A    between atoms: O_22  and  C_23 
REMARK    4  A    between atoms: C_25  and  O_38 
REMARK    5  A    between atoms: C_27  and  O_37 
REMARK    6  A    between atoms: C_29  and  O_36 
REMARK    7  A    between atoms: C_31  and  C_34 
REMARK    8  A    between atoms: C_34  and  O_35 
ROOT
ATOM      1  C   LIG d   1       4.054  -0.488  -8.807  0.00  0.00     0.082 A 
ATOM      2  C   LIG d   1       5.231  -0.017  -9.301  0.00  0.00     0.105 A 
ATOM      3  O   LIG d   1       5.522  -0.038 -10.603  0.00  0.00    -0.462 OA
ATOM      4  C   LIG d   1       4.685  -0.524 -11.542  0.00  0.00     0.142 A 
ATOM      5  C   LIG d   1       5.049  -0.518 -12.883  0.00  0.00     0.023 A 
ATOM      6  C   LIG d   1       4.177  -1.021 -13.834  0.00  0.00     0.128 A 
ATOM      7  C   LIG d   1       2.937  -1.535 -13.459  0.00  0.00    -0.019 A 
ATOM      8  C   LIG d   1       2.565  -1.548 -12.146  0.00  0.00    -0.044 A 
ATOM      9  C   LIG d   1       3.432  -1.044 -11.175  0.00  0.00     0.065 A 
ATOM     10  C   LIG d   1       3.066  -1.048  -9.747  0.00  0.00     0.202 A 
ATOM     11  O   LIG d   1       1.998  -1.489  -9.362  0.00  0.00    -0.286 OA
ATOM     12  H   LIG d   1       5.958   0.389  -8.614  0.00  0.00     0.104 H 
ATOM     13  H   LIG d   1       6.008  -0.122 -13.182  0.00  0.00     0.069 H 
ATOM     14  H   LIG d   1       2.267  -1.924 -14.212  0.00  0.00     0.065 H 
ATOM     15  H   LIG d   1       1.604  -1.947 -11.859  0.00  0.00     0.063 H 
ENDROOT
BRANCH   6  16
ATOM     16  O   LIG d   1       4.536  -1.015 -15.144  0.00  0.00    -0.461 OA
BRANCH  16  17
ATOM     17  C   LIG d   1       4.332   0.203 -15.864  0.00  0.00     0.231 C 
ATOM     18  H   LIG d   1       4.196   1.024 -15.160  0.00  0.00     0.108 H 
ATOM     19  O   LIG d   1       3.170   0.082 -16.687  0.00  0.00    -0.331 OA
ATOM     20  C   LIG d   1       2.860   1.259 -17.435  0.00  0.00     0.114 C 
ATOM     21  C   LIG d   1       4.021   1.582 -18.380  0.00  0.00     0.112 C 
ATOM     22  H   LIG d   1       2.705   2.094 -16.752  0.00  0.00     0.065 H 
ATOM     23  C   LIG d   1       5.303   1.758 -17.558  0.00  0.00     0.115 C 
ATOM     24  H   LIG d   1       4.153   0.767 -19.090  0.00  0.00     0.065 H 
ATOM     25  C   LIG d   1       5.553   0.484 -16.744  0.00  0.00     0.145 C 
ATOM     26  H   LIG d   1       6.145   1.932 -18.228  0.00  0.00     0.065 H 
ATOM     27  H   LIG d   1       5.715  -0.355 -17.422  0.00  0.00     0.068 H 
BRANCH  20  28
ATOM     28  C   LIG d   1       1.589   1.024 -18.253  0.00  0.00     0.073 C 
ATOM     29  H   LIG d   1       1.857   0.769 -19.277  0.00  0.00     0.058 H 
ATOM     30  H   LIG d   1       1.019   0.207 -17.812  0.00  0.00     0.058 H 
BRANCH  28  31
ATOM     31  O   LIG d   1       0.795   2.213 -18.252  0.00  0.00    -0.392 OA
ATOM     32  H   LIG d   1      -0.026   2.137 -17.746  0.00  0.00     0.209 HD
ENDBRANCH  28  31
ENDBRANCH  20  28
BRANCH  21  33
ATOM     33  O   LIG d   1       3.740   2.792 -19.087  0.00  0.00    -0.387 OA
ATOM     34  H   LIG d   1       3.839   3.592 -18.554  0.00  0.00     0.210 HD
ENDBRANCH  21  33
BRANCH  23  35
ATOM     35  O   LIG d   1       5.156   2.869 -16.673  0.00  0.00    -0.386 OA
ATOM     36  H   LIG d   1       4.674   2.664 -15.860  0.00  0.00     0.210 HD
ENDBRANCH  23  35
BRANCH  25  37
ATOM     37  O   LIG d   1       6.707   0.662 -15.920  0.00  0.00    -0.383 OA
ATOM     38  H   LIG d   1       6.715   0.104 -15.129  0.00  0.00     0.210 HD
ENDBRANCH  25  37
ENDBRANCH  16  17
ENDBRANCH   6  16
BRANCH   1  39
ATOM     39  C   LIG d   1       3.774  -0.444  -7.355  0.00  0.00     0.078 A 
ATOM     40  C   LIG d   1       2.900   0.534  -6.853  0.00  0.00    -0.035 A 
ATOM     41  C   LIG d   1       2.635   0.586  -5.517  0.00  0.00    -0.051 A 
ATOM     42  H   LIG d   1       2.441   1.246  -7.523  0.00  0.00     0.064 H 
ATOM     43  C   LIG d   1       3.253  -0.361  -4.676  0.00  0.00     0.000 A 
ATOM     44  H   LIG d   1       1.966   1.332  -5.114  0.00  0.00     0.062 H 
ATOM     45  C   LIG d   1       4.124  -1.324  -5.243  0.00  0.00     0.072 A 
ATOM     46  C   LIG d   1       3.023  -0.364  -3.291  0.00  0.00    -0.053 A 
ATOM     47  C   LIG d   1       4.741  -2.267  -4.401  0.00  0.00    -0.036 A 
ATOM     48  N   LIG d   1       4.349  -1.327  -6.560  0.00  0.00    -0.246 NA
ATOM     49  C   LIG d   1       4.495  -2.242  -3.063  0.00  0.00    -0.060 A 
ATOM     50  H   LIG d   1       5.408  -3.008  -4.816  0.00  0.00     0.064 H 
ATOM     51  C   LIG d   1       3.639  -1.293  -2.508  0.00  0.00    -0.061 A 
ATOM     52  H   LIG d   1       4.971  -2.967  -2.422  0.00  0.00     0.062 H 
ATOM     53  H   LIG d   1       3.461  -1.294  -1.443  0.00  0.00     0.062 H 
ATOM     54  H   LIG d   1       2.361   0.366  -2.849  0.00  0.00     0.062 H 
ENDBRANCH   1  39
TORSDOF 8
ENDMDL
MODEL 5
REMARK VINA RESULT:      -6.8      4.230      5.726
REMARK  8 active torsions:
REMARK  status: ('A' for Active; 'I' for Inactive)
REMARK    1  A    between atoms: C_9  and  C_11 
REMARK    2  A    between atoms: C_16  and  O_22 
REMARK    3  A    between atoms: O_22  and  C_23 
REMARK    4  A    between atoms: C_25  and  O_38 
REMARK    5  A    between atoms: C_27  and  O_37 
REMARK    6  A    between atoms: C_29  and  O_36 
REMARK    7  A    between atoms: C_31  and  C_34 
REMARK    8  A    between atoms: C_34  and  O_35 
ROOT
ATOM      1  C   LIG d   1       7.062   0.241  -5.165  0.00  0.00     0.082 A 
ATOM      2  C   LIG d   1       6.986   0.700  -3.886  0.00  0.00     0.105 A 
ATOM      3  O   LIG d   1       7.698   1.743  -3.456  0.00  0.00    -0.462 OA
ATOM      4  C   LIG d   1       8.553   2.432  -4.238  0.00  0.00     0.142 A 
ATOM      5  C   LIG d   1       9.266   3.508  -3.728  0.00  0.00     0.023 A 
ATOM      6  C   LIG d   1      10.140   4.205  -4.546  0.00  0.00     0.128 A 
ATOM      7  C   LIG d   1      10.311   3.835  -5.878  0.00  0.00    -0.019 A 
ATOM      8  C   LIG d   1       9.616   2.780  -6.395  0.00  0.00    -0.044 A 
ATOM      9  C   LIG d   1       8.732   2.068  -5.584  0.00  0.00     0.065 A 
ATOM     10  C   LIG d   1       7.971   0.918  -6.107  0.00  0.00     0.202 A 
ATOM     11  O   LIG d   1       8.085   0.548  -7.262  0.00  0.00    -0.286 OA
ATOM     12  H   LIG d   1       6.323   0.202  -3.194  0.00  0.00     0.104 H 
ATOM     13  H   LIG d   1       9.139   3.802  -2.696  0.00  0.00     0.069 H 
ATOM     14  H   LIG d   1      10.995   4.388  -6.505  0.00  0.00     0.065 H 
ATOM     15  H   LIG d   1       9.752   2.496  -7.428  0.00  0.00     0.063 H 
ENDROOT
BRANCH   6  16
ATOM     16  O   LIG d   1      10.836   5.256  -4.043  0.00  0.00    -0.461 OA
BRANCH  16  17
ATOM     17  C   LIG d   1      10.740   5.484  -2.636  0.00  0.00     0.231 C 
ATOM     18  H   LIG d   1      10.144   4.693  -2.179  0.00  0.00     0.108 H 
ATOM     19  O   LIG d   1      10.118   6.748  -2.398  0.00  0.00    -0.331 OA
ATOM     20  C   LIG d   1       9.950   7.064  -1.014  0.00  0.00     0.114 C 
ATOM     21  C   LIG d   1      11.321   7.127  -0.336  0.00  0.00     0.112 C 
ATOM     22  H   LIG d   1       9.344   6.294  -0.537  0.00  0.00     0.065 H 
ATOM     23  C   LIG d   1      12.038   5.786  -0.525  0.00  0.00     0.115 C 
ATOM     24  H   LIG d   1      11.915   7.923  -0.785  0.00  0.00     0.065 H 
ATOM     25  C   LIG d   1      12.143   5.482  -2.023  0.00  0.00     0.145 C 
ATOM     26  H   LIG d   1      13.037   5.842  -0.094  0.00  0.00     0.065 H 
ATOM     27  H   LIG d   1      12.753   6.246  -2.507  0.00  0.00     0.068 H 
BRANCH  20  28
ATOM     28  C   LIG d   1       9.253   8.420  -0.881  0.00  0.00     0.073 C 
ATOM     29  H   LIG d   1       9.521   8.874   0.071  0.00  0.00     0.058 H 
ATOM     30  H   LIG d   1       9.568   9.071  -1.696  0.00  0.00     0.058 H 
BRANCH  28  31
ATOM     31  O   LIG d   1       7.837   8.235  -0.940  0.00  0.00    -0.392 OA
ATOM     32  H   LIG d   1       7.561   7.308  -0.946  0.00  0.00     0.209 HD
ENDBRANCH  28  31
ENDBRANCH  20  28
BRANCH  21  33
ATOM     33  O   LIG d   1      11.153   7.386   1.059  0.00  0.00    -0.387 OA
ATOM     34  H   LIG d   1      10.600   8.155   1.253  0.00  0.00     0.210 HD
ENDBRANCH  21  33
BRANCH  23  35
ATOM     35  O   LIG d   1      11.294   4.752   0.121  0.00  0.00    -0.386 OA
ATOM     36  H   LIG d   1      10.755   5.059   0.864  0.00  0.00     0.210 HD
ENDBRANCH  23  35
BRANCH  25  37
ATOM     37  O   LIG d   1      12.746   4.200  -2.210  0.00  0.00    -0.383 OA
ATOM     38  H   LIG d   1      12.734   3.890  -3.126  0.00  0.00     0.210 HD
ENDBRANCH  25  37
ENDBRANCH  16  17
ENDBRANCH   6  16
BRANCH   1  39
ATOM     39  C   LIG d   1       6.252  -0.919  -5.599  0.00  0.00     0.078 A 
ATOM     40  C   LIG d   1       5.070  -0.698  -6.325  0.00  0.00    -0.035 A 
ATOM     41  C   LIG d   1       4.315  -1.759  -6.730  0.00  0.00    -0.051 A 
ATOM     42  H   LIG d   1       4.758   0.309  -6.560  0.00  0.00     0.064 H 
ATOM     43  C   LIG d   1       4.757  -3.057  -6.404  0.00  0.00     0.000 A 
ATOM     44  H   LIG d   1       3.403  -1.607  -7.288  0.00  0.00     0.062 H 
ATOM     45  C   LIG d   1       5.959  -3.214  -5.671  0.00  0.00     0.072 A 
ATOM     46  C   LIG d   1       4.027  -4.192  -6.791  0.00  0.00    -0.053 A 
ATOM     47  C   LIG d   1       6.397  -4.510  -5.346  0.00  0.00    -0.036 A 
ATOM     48  N   LIG d   1       6.658  -2.138  -5.298  0.00  0.00    -0.246 NA
ATOM     49  C   LIG d   1       5.665  -5.589  -5.738  0.00  0.00    -0.060 A 
ATOM     50  H   LIG d   1       7.310  -4.649  -4.787  0.00  0.00     0.064 H 
ATOM     51  C   LIG d   1       4.483  -5.432  -6.457  0.00  0.00    -0.061 A 
ATOM     52  H   LIG d   1       6.005  -6.581  -5.485  0.00  0.00     0.062 H 
ATOM     53  H   LIG d   1       3.919  -6.304  -6.756  0.00  0.00     0.062 H 
ATOM     54  H   LIG d   1       3.109  -4.083  -7.350  0.00  0.00     0.062 H 
ENDBRANCH   1  39
TORSDOF 8
ENDMDL
MODEL 6
REMARK VINA RESULT:      -6.8      8.394     13.531
REMARK  8 active torsions:
REMARK  status: ('A' for Active; 'I' for Inactive)
REMARK    1  A    between atoms: C_9  and  C_11 
REMARK    2  A    between atoms: C_16  and  O_22 
REMARK    3  A    between atoms: O_22  and  C_23 
REMARK    4  A    between atoms: C_25  and  O_38 
REMARK    5  A    between atoms: C_27  and  O_37 
REMARK    6  A    between atoms: C_29  and  O_36 
REMARK    7  A    between atoms: C_31  and  C_34 
REMARK    8  A    between atoms: C_34  and  O_35 
ROOT
ATOM      1  C   LIG d   1       3.744  -1.605  -7.638  0.00  0.00     0.082 A 
ATOM      2  C   LIG d   1       4.046  -2.887  -7.983  0.00  0.00     0.105 A 
ATOM      3  O   LIG d   1       3.544  -3.473  -9.071  0.00  0.00    -0.462 OA
ATOM      4  C   LIG d   1       2.699  -2.859  -9.922  0.00  0.00     0.142 A 
ATOM      5  C   LIG d   1       2.211  -3.527 -11.038  0.00  0.00     0.023 A 
ATOM      6  C   LIG d   1       1.343  -2.880 -11.902  0.00  0.00     0.128 A 
ATOM      7  C   LIG d   1       0.954  -1.564 -11.663  0.00  0.00    -0.019 A 
ATOM      8  C   LIG d   1       1.425  -0.893 -10.570  0.00  0.00    -0.044 A 
ATOM      9  C   LIG d   1       2.300  -1.531  -9.691  0.00  0.00     0.065 A 
ATOM     10  C   LIG d   1       2.823  -0.840  -8.497  0.00  0.00     0.202 A 
ATOM     11  O   LIG d   1       2.512   0.308  -8.236  0.00  0.00    -0.286 OA
ATOM     12  H   LIG d   1       4.717  -3.451  -7.352  0.00  0.00     0.104 H 
ATOM     13  H   LIG d   1       2.508  -4.547 -11.232  0.00  0.00     0.069 H 
ATOM     14  H   LIG d   1       0.277  -1.071 -12.345  0.00  0.00     0.065 H 
ATOM     15  H   LIG d   1       1.121   0.127 -10.388  0.00  0.00     0.063 H 
ENDROOT
BRANCH   6  16
ATOM     16  O   LIG d   1       0.868  -3.535 -12.992  0.00  0.00    -0.461 OA
BRANCH  16  17
ATOM     17  C   LIG d   1      -0.025  -4.626 -12.753  0.00  0.00     0.231 C 
ATOM     18  H   LIG d   1      -0.807  -4.629 -13.513  0.00  0.00     0.108 H 
ATOM     19  O   LIG d   1      -0.616  -4.484 -11.460  0.00  0.00    -0.331 OA
ATOM     20  C   LIG d   1      -1.549  -5.515 -11.130  0.00  0.00     0.114 C 
ATOM     21  C   LIG d   1      -0.833  -6.868 -11.126  0.00  0.00     0.112 C 
ATOM     22  H   LIG d   1      -2.351  -5.530 -11.868  0.00  0.00     0.065 H 
ATOM     23  C   LIG d   1      -0.197  -7.103 -12.500  0.00  0.00     0.115 C 
ATOM     24  H   LIG d   1      -0.058  -6.869 -10.361  0.00  0.00     0.065 H 
ATOM     25  C   LIG d   1       0.753  -5.943 -12.816  0.00  0.00     0.145 C 
ATOM     26  H   LIG d   1       0.362  -8.039 -12.488  0.00  0.00     0.065 H 
ATOM     27  H   LIG d   1       1.561  -5.925 -12.084  0.00  0.00     0.068 H 
BRANCH  20  28
ATOM     28  C   LIG d   1      -2.137  -5.246  -9.743  0.00  0.00     0.073 C 
ATOM     29  H   LIG d   1      -2.130  -4.175  -9.546  0.00  0.00     0.058 H 
ATOM     30  H   LIG d   1      -3.161  -5.616  -9.704  0.00  0.00     0.058 H 
BRANCH  28  31
ATOM     31  O   LIG d   1      -1.351  -5.917  -8.755  0.00  0.00    -0.392 OA
ATOM     32  H   LIG d   1      -1.711  -5.856  -7.859  0.00  0.00     0.209 HD
ENDBRANCH  28  31
ENDBRANCH  20  28
BRANCH  21  33
ATOM     33  O   LIG d   1      -1.776  -7.907 -10.853  0.00  0.00    -0.387 OA
ATOM     34  H   LIG d   1      -1.387  -8.792 -10.819  0.00  0.00     0.210 HD
ENDBRANCH  21  33
BRANCH  23  35
ATOM     35  O   LIG d   1      -1.220  -7.168 -13.496  0.00  0.00    -0.386 OA
ATOM     36  H   LIG d   1      -1.848  -7.892 -13.367  0.00  0.00     0.210 HD
ENDBRANCH  23  35
BRANCH  25  37
ATOM     37  O   LIG d   1       1.298  -6.115 -14.126  0.00  0.00    -0.383 OA
ATOM     38  H   LIG d   1       1.392  -7.040 -14.395  0.00  0.00     0.210 HD
ENDBRANCH  25  37
ENDBRANCH  16  17
ENDBRANCH   6  16
BRANCH   1  39
ATOM     39  C   LIG d   1       4.324  -0.995  -6.422  0.00  0.00     0.078 A 
ATOM     40  C   LIG d   1       5.716  -0.823  -6.336  0.00  0.00    -0.035 A 
ATOM     41  C   LIG d   1       6.263  -0.262  -5.221  0.00  0.00    -0.051 A 
ATOM     42  H   LIG d   1       6.352  -1.135  -7.152  0.00  0.00     0.064 H 
ATOM     43  C   LIG d   1       5.399   0.133  -4.179  0.00  0.00     0.000 A 
ATOM     44  H   LIG d   1       7.331  -0.124  -5.138  0.00  0.00     0.062 H 
ATOM     45  C   LIG d   1       4.004  -0.067  -4.326  0.00  0.00     0.072 A 
ATOM     46  C   LIG d   1       5.897   0.716  -3.003  0.00  0.00    -0.053 A 
ATOM     47  C   LIG d   1       3.145   0.327  -3.285  0.00  0.00    -0.036 A 
ATOM     48  N   LIG d   1       3.523  -0.623  -5.441  0.00  0.00    -0.246 NA
ATOM     49  C   LIG d   1       3.661   0.891  -2.159  0.00  0.00    -0.060 A 
ATOM     50  H   LIG d   1       2.078   0.183  -3.379  0.00  0.00     0.064 H 
ATOM     51  C   LIG d   1       5.033   1.084  -2.016  0.00  0.00    -0.061 A 
ATOM     52  H   LIG d   1       2.997   1.191  -1.362  0.00  0.00     0.062 H 
ATOM     53  H   LIG d   1       5.418   1.533  -1.112  0.00  0.00     0.062 H 
ATOM     54  H   LIG d   1       6.959   0.871  -2.882  0.00  0.00     0.062 H 
ENDBRANCH   1  39
TORSDOF 8
ENDMDL
MODEL 7
REMARK VINA RESULT:      -6.8      3.642      4.757
REMARK  8 active torsions:
REMARK  status: ('A' for Active; 'I' for Inactive)
REMARK    1  A    between atoms: C_9  and  C_11 
REMARK    2  A    between atoms: C_16  and  O_22 
REMARK    3  A    between atoms: O_22  and  C_23 
REMARK    4  A    between atoms: C_25  and  O_38 
REMARK    5  A    between atoms: C_27  and  O_37 
REMARK    6  A    between atoms: C_29  and  O_36 
REMARK    7  A    between atoms: C_31  and  C_34 
REMARK    8  A    between atoms: C_34  and  O_35 
ROOT
ATOM      1  C   LIG d   1       7.649   0.973  -5.452  0.00  0.00     0.082 A 
ATOM      2  C   LIG d   1       7.580   1.081  -4.097  0.00  0.00     0.105 A 
ATOM      3  O   LIG d   1       8.188   2.059  -3.424  0.00  0.00    -0.462 OA
ATOM      4  C   LIG d   1       8.921   3.022  -4.017  0.00  0.00     0.142 A 
ATOM      5  C   LIG d   1       9.530   4.014  -3.258  0.00  0.00     0.023 A 
ATOM      6  C   LIG d   1      10.280   4.995  -3.883  0.00  0.00     0.128 A 
ATOM      7  C   LIG d   1      10.431   4.999  -5.268  0.00  0.00    -0.019 A 
ATOM      8  C   LIG d   1       9.838   4.032  -6.028  0.00  0.00    -0.044 A 
ATOM      9  C   LIG d   1       9.079   3.036  -5.413  0.00  0.00     0.065 A 
ATOM     10  C   LIG d   1       8.431   1.971  -6.202  0.00  0.00     0.202 A 
ATOM     11  O   LIG d   1       8.533   1.922  -7.415  0.00  0.00    -0.286 OA
ATOM     12  H   LIG d   1       7.011   0.347  -3.545  0.00  0.00     0.104 H 
ATOM     13  H   LIG d   1       9.419   4.019  -2.183  0.00  0.00     0.069 H 
ATOM     14  H   LIG d   1      11.018   5.771  -5.743  0.00  0.00     0.065 H 
ATOM     15  H   LIG d   1       9.957   4.038  -7.101  0.00  0.00     0.063 H 
ENDROOT
BRANCH   6  16
ATOM     16  O   LIG d   1      10.875   5.963  -3.138  0.00  0.00    -0.461 OA
BRANCH  16  17
ATOM     17  C   LIG d   1      10.041   7.027  -2.674  0.00  0.00     0.231 C 
ATOM     18  H   LIG d   1       8.994   6.732  -2.759  0.00  0.00     0.108 H 
ATOM     19  O   LIG d   1      10.273   8.194  -3.465  0.00  0.00    -0.331 OA
ATOM     20  C   LIG d   1       9.467   9.316  -3.099  0.00  0.00     0.114 C 
ATOM     21  C   LIG d   1       9.772   9.712  -1.652  0.00  0.00     0.112 C 
ATOM     22  H   LIG d   1       8.413   9.052  -3.189  0.00  0.00     0.065 H 
ATOM     23  C   LIG d   1       9.514   8.510  -0.737  0.00  0.00     0.115 C 
ATOM     24  H   LIG d   1      10.815  10.015  -1.568  0.00  0.00     0.065 H 
ATOM     25  C   LIG d   1      10.369   7.330  -1.210  0.00  0.00     0.145 C 
ATOM     26  H   LIG d   1       9.783   8.767   0.287  0.00  0.00     0.065 H 
ATOM     27  H   LIG d   1      11.425   7.585  -1.118  0.00  0.00     0.068 H 
BRANCH  20  28
ATOM     28  C   LIG d   1       9.779  10.493  -4.025  0.00  0.00     0.073 C 
ATOM     29  H   LIG d   1      10.505  11.149  -3.548  0.00  0.00     0.058 H 
ATOM     30  H   LIG d   1      10.188  10.118  -4.963  0.00  0.00     0.058 H 
BRANCH  28  31
ATOM     31  O   LIG d   1       8.579  11.223  -4.288  0.00  0.00    -0.392 OA
ATOM     32  H   LIG d   1       8.584  11.699  -5.130  0.00  0.00     0.209 HD
ENDBRANCH  28  31
ENDBRANCH  20  28
BRANCH  21  33
ATOM     33  O   LIG d   1       8.926  10.796  -1.264  0.00  0.00    -0.387 OA
ATOM     34  H   LIG d   1       9.401  11.552  -0.893  0.00  0.00     0.210 HD
ENDBRANCH  21  33
BRANCH  23  35
ATOM     35  O   LIG d   1       8.132   8.153  -0.795  0.00  0.00    -0.386 OA
ATOM     36  H   LIG d   1       7.632   8.388  -0.002  0.00  0.00     0.210 HD
ENDBRANCH  23  35
BRANCH  25  37
ATOM     37  O   LIG d   1      10.084   6.181  -0.409  0.00  0.00    -0.383 OA
ATOM     38  H   LIG d   1       9.146   5.948  -0.375  0.00  0.00     0.210 HD
ENDBRANCH  25  37
ENDBRANCH  16  17
ENDBRANCH   6  16
BRANCH   1  39
ATOM     39  C   LIG d   1       6.958  -0.130  -6.157  0.00  0.00     0.078 A 
ATOM     40  C   LIG d   1       7.579  -1.387  -6.240  0.00  0.00    -0.035 A 
ATOM     41  C   LIG d   1       6.953  -2.411  -6.887  0.00  0.00    -0.051 A 
ATOM     42  H   LIG d   1       8.550  -1.543  -5.794  0.00  0.00     0.064 H 
ATOM     43  C   LIG d   1       5.686  -2.167  -7.455  0.00  0.00     0.000 A 
ATOM     44  H   LIG d   1       7.417  -3.383  -6.962  0.00  0.00     0.062 H 
ATOM     45  C   LIG d   1       5.112  -0.877  -7.336  0.00  0.00     0.072 A 
ATOM     46  C   LIG d   1       4.988  -3.177  -8.136  0.00  0.00    -0.053 A 
ATOM     47  C   LIG d   1       3.848  -0.637  -7.905  0.00  0.00    -0.036 A 
ATOM     48  N   LIG d   1       5.772   0.090  -6.691  0.00  0.00    -0.246 NA
ATOM     49  C   LIG d   1       3.199  -1.639  -8.556  0.00  0.00    -0.060 A 
ATOM     50  H   LIG d   1       3.396   0.340  -7.824  0.00  0.00     0.064 H 
ATOM     51  C   LIG d   1       3.766  -2.906  -8.673  0.00  0.00    -0.061 A 
ATOM     52  H   LIG d   1       2.229  -1.449  -8.991  0.00  0.00     0.062 H 
ATOM     53  H   LIG d   1       3.230  -3.685  -9.196  0.00  0.00     0.062 H 
ATOM     54  H   LIG d   1       5.417  -4.164  -8.232  0.00  0.00     0.062 H 
ENDBRANCH   1  39
TORSDOF 8
ENDMDL
MODEL 8
REMARK VINA RESULT:      -6.7      2.266      3.052
REMARK  8 active torsions:
REMARK  status: ('A' for Active; 'I' for Inactive)
REMARK    1  A    between atoms: C_9  and  C_11 
REMARK    2  A    between atoms: C_16  and  O_22 
REMARK    3  A    between atoms: O_22  and  C_23 
REMARK    4  A    between atoms: C_25  and  O_38 
REMARK    5  A    between atoms: C_27  and  O_37 
REMARK    6  A    between atoms: C_29  and  O_36 
REMARK    7  A    between atoms: C_31  and  C_34 
REMARK    8  A    between atoms: C_34  and  O_35 
ROOT
ATOM      1  C   LIG d   1       9.140   2.663  -4.267  0.00  0.00     0.082 A 
ATOM      2  C   LIG d   1       9.579   3.158  -3.078  0.00  0.00     0.105 A 
ATOM      3  O   LIG d   1      10.051   4.399  -2.948  0.00  0.00    -0.462 OA
ATOM      4  C   LIG d   1      10.139   5.270  -3.974  0.00  0.00     0.142 A 
ATOM      5  C   LIG d   1      10.641   6.549  -3.772  0.00  0.00     0.023 A 
ATOM      6  C   LIG d   1      10.725   7.431  -4.837  0.00  0.00     0.128 A 
ATOM      7  C   LIG d   1      10.309   7.047  -6.110  0.00  0.00    -0.019 A 
ATOM      8  C   LIG d   1       9.812   5.794  -6.324  0.00  0.00    -0.044 A 
ATOM      9  C   LIG d   1       9.721   4.894  -5.262  0.00  0.00     0.065 A 
ATOM     10  C   LIG d   1       9.196   3.530  -5.458  0.00  0.00     0.202 A 
ATOM     11  O   LIG d   1       8.823   3.139  -6.550  0.00  0.00    -0.286 OA
ATOM     12  H   LIG d   1       9.543   2.523  -2.205  0.00  0.00     0.104 H 
ATOM     13  H   LIG d   1      10.966   6.855  -2.789  0.00  0.00     0.069 H 
ATOM     14  H   LIG d   1      10.378   7.745  -6.931  0.00  0.00     0.065 H 
ATOM     15  H   LIG d   1       9.490   5.500  -7.312  0.00  0.00     0.063 H 
ENDROOT
BRANCH   6  16
ATOM     16  O   LIG d   1      11.217   8.680  -4.637  0.00  0.00    -0.461 OA
BRANCH  16  17
ATOM     17  C   LIG d   1      10.285   9.762  -4.703  0.00  0.00     0.231 C 
ATOM     18  H   LIG d   1       9.273   9.365  -4.791  0.00  0.00     0.108 H 
ATOM     19  O   LIG d   1      10.578  10.576  -5.841  0.00  0.00    -0.331 OA
ATOM     20  C   LIG d   1       9.685  11.678  -6.015  0.00  0.00     0.114 C 
ATOM     21  C   LIG d   1       9.770  12.600  -4.796  0.00  0.00     0.112 C 
ATOM     22  H   LIG d   1       8.666  11.306  -6.120  0.00  0.00     0.065 H 
ATOM     23  C   LIG d   1       9.435  11.797  -3.534  0.00  0.00     0.115 C 
ATOM     24  H   LIG d   1      10.779  13.004  -4.713  0.00  0.00     0.065 H 
ATOM     25  C   LIG d   1      10.394  10.606  -3.431  0.00  0.00     0.145 C 
ATOM     26  H   LIG d   1       9.549  12.433  -2.656  0.00  0.00     0.065 H 
ATOM     27  H   LIG d   1      11.416  10.970  -3.321  0.00  0.00     0.068 H 
BRANCH  20  28
ATOM     28  C   LIG d   1      10.076  12.458  -7.272  0.00  0.00     0.073 C 
ATOM     29  H   LIG d   1      10.668  13.327  -6.991  0.00  0.00     0.058 H 
ATOM     30  H   LIG d   1      10.662  11.816  -7.930  0.00  0.00     0.058 H 
BRANCH  28  31
ATOM     31  O   LIG d   1       8.895  12.886  -7.954  0.00  0.00    -0.392 OA
ATOM     32  H   LIG d   1       8.740  12.433  -8.794  0.00  0.00     0.209 HD
ENDBRANCH  28  31
ENDBRANCH  20  28
BRANCH  21  33
ATOM     33  O   LIG d   1       8.836  13.671  -4.941  0.00  0.00    -0.387 OA
ATOM     34  H   LIG d   1       9.149  14.393  -5.502  0.00  0.00     0.210 HD
ENDBRANCH  21  33
BRANCH  23  35
ATOM     35  O   LIG d   1       8.090  11.323  -3.613  0.00  0.00    -0.386 OA
ATOM     36  H   LIG d   1       7.903  10.572  -3.032  0.00  0.00     0.210 HD
ENDBRANCH  23  35
BRANCH  25  37
ATOM     37  O   LIG d   1      10.046   9.809  -2.297  0.00  0.00    -0.383 OA
ATOM     38  H   LIG d   1      10.108   8.856  -2.451  0.00  0.00     0.210 HD
ENDBRANCH  25  37
ENDBRANCH  16  17
ENDBRANCH   6  16
BRANCH   1  39
ATOM     39  C   LIG d   1       8.624   1.280  -4.364  0.00  0.00     0.078 A 
ATOM     40  C   LIG d   1       9.364   0.319  -5.072  0.00  0.00    -0.035 A 
ATOM     41  C   LIG d   1       8.899  -0.959  -5.169  0.00  0.00    -0.051 A 
ATOM     42  H   LIG d   1      10.299   0.591  -5.540  0.00  0.00     0.064 H 
ATOM     43  C   LIG d   1       7.676  -1.274  -4.544  0.00  0.00     0.000 A 
ATOM     44  H   LIG d   1       9.455  -1.710  -5.711  0.00  0.00     0.062 H 
ATOM     45  C   LIG d   1       6.977  -0.260  -3.843  0.00  0.00     0.072 A 
ATOM     46  C   LIG d   1       7.140  -2.571  -4.605  0.00  0.00    -0.053 A 
ATOM     47  C   LIG d   1       5.756  -0.577  -3.221  0.00  0.00    -0.036 A 
ATOM     48  N   LIG d   1       7.479   0.976  -3.782  0.00  0.00    -0.246 NA
ATOM     49  C   LIG d   1       5.266  -1.845  -3.300  0.00  0.00    -0.060 A 
ATOM     50  H   LIG d   1       5.209   0.183  -2.683  0.00  0.00     0.064 H 
ATOM     51  C   LIG d   1       5.955  -2.839  -3.990  0.00  0.00    -0.061 A 
ATOM     52  H   LIG d   1       4.329  -2.083  -2.821  0.00  0.00     0.062 H 
ATOM     53  H   LIG d   1       5.544  -3.837  -4.039  0.00  0.00     0.062 H 
ATOM     54  H   LIG d   1       7.665  -3.351  -5.137  0.00  0.00     0.062 H 
ENDBRANCH   1  39
TORSDOF 8
ENDMDL
MODEL 9
REMARK VINA RESULT:      -6.7      6.206      9.388
REMARK  8 active torsions:
REMARK  status: ('A' for Active; 'I' for Inactive)
REMARK    1  A    between atoms: C_9  and  C_11 
REMARK    2  A    between atoms: C_16  and  O_22 
REMARK    3  A    between atoms: O_22  and  C_23 
REMARK    4  A    between atoms: C_25  and  O_38 
REMARK    5  A    between atoms: C_27  and  O_37 
REMARK    6  A    between atoms: C_29  and  O_36 
REMARK    7  A    between atoms: C_31  and  C_34 
REMARK    8  A    between atoms: C_34  and  O_35 
ROOT
ATOM      1  C   LIG d   1       9.799   7.603  -9.015  0.00  0.00     0.082 A 
ATOM      2  C   LIG d   1       8.901   8.343  -8.310  0.00  0.00     0.105 A 
ATOM      3  O   LIG d   1       8.940   8.439  -6.980  0.00  0.00    -0.462 OA
ATOM      4  C   LIG d   1       9.863   7.819  -6.217  0.00  0.00     0.142 A 
ATOM      5  C   LIG d   1       9.848   7.960  -4.836  0.00  0.00     0.023 A 
ATOM      6  C   LIG d   1      10.803   7.315  -4.068  0.00  0.00     0.128 A 
ATOM      7  C   LIG d   1      11.781   6.524  -4.669  0.00  0.00    -0.019 A 
ATOM      8  C   LIG d   1      11.809   6.376  -6.026  0.00  0.00    -0.044 A 
ATOM      9  C   LIG d   1      10.854   7.020  -6.813  0.00  0.00     0.065 A 
ATOM     10  C   LIG d   1      10.850   6.877  -8.281  0.00  0.00     0.202 A 
ATOM     11  O   LIG d   1      11.678   6.195  -8.859  0.00  0.00    -0.286 OA
ATOM     12  H   LIG d   1       8.128   8.872  -8.846  0.00  0.00     0.104 H 
ATOM     13  H   LIG d   1       9.094   8.570  -4.362  0.00  0.00     0.069 H 
ATOM     14  H   LIG d   1      12.520   6.028  -4.058  0.00  0.00     0.065 H 
ATOM     15  H   LIG d   1      12.569   5.763  -6.488  0.00  0.00     0.063 H 
ENDROOT
BRANCH   6  16
ATOM     16  O   LIG d   1      10.785   7.454  -2.717  0.00  0.00    -0.461 OA
BRANCH  16  17
ATOM     17  C   LIG d   1      10.259   8.678  -2.199  0.00  0.00     0.231 C 
ATOM     18  H   LIG d   1       9.668   9.174  -2.969  0.00  0.00     0.108 H 
ATOM     19  O   LIG d   1      11.335   9.529  -1.801  0.00  0.00    -0.331 OA
ATOM     20  C   LIG d   1      10.917  10.796  -1.289  0.00  0.00     0.114 C 
ATOM     21  C   LIG d   1      10.057  10.582  -0.041  0.00  0.00     0.112 C 
ATOM     22  H   LIG d   1      10.335  11.320  -2.047  0.00  0.00     0.065 H 
ATOM     23  C   LIG d   1       8.859   9.697  -0.403  0.00  0.00     0.115 C 
ATOM     24  H   LIG d   1      10.649  10.094   0.732  0.00  0.00     0.065 H 
ATOM     25  C   LIG d   1       9.371   8.378  -0.989  0.00  0.00     0.145 C 
ATOM     26  H   LIG d   1       8.272   9.494   0.493  0.00  0.00     0.065 H 
ATOM     27  H   LIG d   1       9.950   7.845  -0.234  0.00  0.00     0.068 H 
BRANCH  20  28
ATOM     28  C   LIG d   1      12.147  11.629  -0.922  0.00  0.00     0.073 C 
ATOM     29  H   LIG d   1      12.464  11.383   0.090  0.00  0.00     0.058 H 
ATOM     30  H   LIG d   1      12.955  11.410  -1.620  0.00  0.00     0.058 H 
BRANCH  28  31
ATOM     31  O   LIG d   1      11.820  13.019  -0.995  0.00  0.00    -0.392 OA
ATOM     32  H   LIG d   1      11.622  13.330  -1.889  0.00  0.00     0.209 HD
ENDBRANCH  28  31
ENDBRANCH  20  28
BRANCH  21  33
ATOM     33  O   LIG d   1       9.589  11.844   0.440  0.00  0.00    -0.387 OA
ATOM     34  H   LIG d   1       8.719  11.807   0.859  0.00  0.00     0.210 HD
ENDBRANCH  21  33
BRANCH  23  35
ATOM     35  O   LIG d   1       8.045  10.366  -1.368  0.00  0.00    -0.386 OA
ATOM     36  H   LIG d   1       8.251  10.134  -2.284  0.00  0.00     0.210 HD
ENDBRANCH  23  35
BRANCH  25  37
ATOM     37  O   LIG d   1       8.262   7.573  -1.396  0.00  0.00    -0.383 OA
ATOM     38  H   LIG d   1       7.507   8.081  -1.724  0.00  0.00     0.210 HD
ENDBRANCH  25  37
ENDBRANCH  16  17
ENDBRANCH   6  16
BRANCH   1  39
ATOM     39  C   LIG d   1       9.718   7.525 -10.491  0.00  0.00     0.078 A 
ATOM     40  C   LIG d   1       9.209   6.361 -11.090  0.00  0.00    -0.035 A 
ATOM     41  C   LIG d   1       9.129   6.276 -12.448  0.00  0.00    -0.051 A 
ATOM     42  H   LIG d   1       8.882   5.534 -10.476  0.00  0.00     0.064 H 
ATOM     43  C   LIG d   1       9.565   7.376 -13.213  0.00  0.00     0.000 A 
ATOM     44  H   LIG d   1       8.741   5.388 -12.924  0.00  0.00     0.062 H 
ATOM     45  C   LIG d   1      10.068   8.523 -12.550  0.00  0.00     0.072 A 
ATOM     46  C   LIG d   1       9.511   7.354 -14.616  0.00  0.00    -0.053 A 
ATOM     47  C   LIG d   1      10.503   9.619 -13.316  0.00  0.00    -0.036 A 
ATOM     48  N   LIG d   1      10.124   8.551 -11.215  0.00  0.00    -0.246 NA
ATOM     49  C   LIG d   1      10.435   9.564 -14.674  0.00  0.00    -0.060 A 
ATOM     50  H   LIG d   1      10.890  10.501 -12.827  0.00  0.00     0.064 H 
ATOM     51  C   LIG d   1       9.941   8.435 -15.323  0.00  0.00    -0.061 A 
ATOM     52  H   LIG d   1      10.771  10.408 -15.257  0.00  0.00     0.062 H 
ATOM     53  H   LIG d   1       9.899   8.416 -16.402  0.00  0.00     0.062 H 
ATOM     54  H   LIG d   1       9.129   6.484 -15.131  0.00  0.00     0.062 H 
ENDBRANCH   1  39
TORSDOF 8
ENDMDL
