MODEL 1
REMARK VINA RESULT:      -5.9      0.000      0.000
REMARK  7 active torsions:
REMARK  status: ('A' for Active; 'I' for Inactive)
REMARK    1  A    between atoms: C_4  and  N_7 
REMARK    2  A    between atoms: N_7  and  C_8 
REMARK    3  A    between atoms: C_10  and  O_23 
REMARK    4  A    between atoms: C_12  and  O_22 
REMARK    5  A    between atoms: C_14  and  O_21 
REMARK    6  A    between atoms: C_16  and  C_19 
REMARK    7  A    between atoms: C_19  and  O_20 
ROOT
ATOM      1  C   LIG d   1       4.265  -0.478  -6.970  0.00  0.00     0.152 C 
ATOM      2  H   LIG d   1       5.179  -0.817  -6.479  0.00  0.00     0.083 H 
ATOM      3  C   LIG d   1       3.780  -1.554  -7.944  0.00  0.00     0.126 C 
ATOM      4  H   LIG d   1       3.535  -2.461  -7.392  0.00  0.00     0.066 H 
ATOM      5  C   LIG d   1       2.531  -1.046  -8.673  0.00  0.00     0.113 C 
ATOM      6  H   LIG d   1       1.731  -0.879  -7.951  0.00  0.00     0.065 H 
ATOM      7  C   LIG d   1       2.867   0.271  -9.379  0.00  0.00     0.112 C 
ATOM      8  H   LIG d   1       1.970   0.668  -9.855  0.00  0.00     0.065 H 
ATOM      9  C   LIG d   1       3.388   1.276  -8.350  0.00  0.00     0.112 C 
ATOM     10  H   LIG d   1       2.608   1.484  -7.617  0.00  0.00     0.065 H 
ATOM     11  O   LIG d   1       4.530   0.730  -7.687  0.00  0.00    -0.348 OA
ENDROOT
BRANCH   1  12
ATOM     12  N   LIG d   1       3.232  -0.230  -5.961  0.00  0.00    -0.317 N 
ATOM     13  H   LIG d   1       2.333   0.009  -6.236  0.00  0.00     0.149 HD
BRANCH  12  14
ATOM     14  C   LIG d   1       3.542  -0.337  -4.603  0.00  0.00     0.029 A 
ATOM     15  C   LIG d   1       4.056  -1.525  -4.097  0.00  0.00    -0.041 A 
ATOM     16  C   LIG d   1       4.355  -1.628  -2.754  0.00  0.00    -0.060 A 
ATOM     17  H   LIG d   1       4.215  -2.367  -4.754  0.00  0.00     0.064 H 
ATOM     18  C   LIG d   1       4.156  -0.548  -1.913  0.00  0.00    -0.062 A 
ATOM     19  H   LIG d   1       4.750  -2.553  -2.360  0.00  0.00     0.062 H 
ATOM     20  C   LIG d   1       3.645   0.635  -2.414  0.00  0.00    -0.060 A 
ATOM     21  H   LIG d   1       4.396  -0.631  -0.864  0.00  0.00     0.062 H 
ATOM     22  C   LIG d   1       3.339   0.744  -3.756  0.00  0.00    -0.041 A 
ATOM     23  H   LIG d   1       3.487   1.476  -1.754  0.00  0.00     0.062 H 
ATOM     24  H   LIG d   1       2.939   1.670  -4.145  0.00  0.00     0.064 H 
ENDBRANCH  12  14
ENDBRANCH   1  12
BRANCH   3  25
ATOM     25  O   LIG d   1       4.807  -1.835  -8.897  0.00  0.00    -0.385 OA
ATOM     26  H   LIG d   1       4.596  -2.560  -9.500  0.00  0.00     0.210 HD
ENDBRANCH   3  25
BRANCH   9  27
ATOM     27  C   LIG d   1       3.783   2.574  -9.058  0.00  0.00     0.073 C 
ATOM     28  H   LIG d   1       3.192   2.686  -9.966  0.00  0.00     0.058 H 
ATOM     29  H   LIG d   1       3.596   3.420  -8.396  0.00  0.00     0.058 H 
BRANCH  27  30
ATOM     30  O   LIG d   1       5.170   2.530  -9.395  0.00  0.00    -0.392 OA
ATOM     31  H   LIG d   1       5.702   3.211  -8.961  0.00  0.00     0.209 HD
ENDBRANCH  27  30
ENDBRANCH   9  27
BRANCH   5  32
ATOM     32  O   LIG d   1       2.111  -2.013  -9.637  0.00  0.00    -0.386 OA
ATOM     33  H   LIG d   1       2.758  -2.715  -9.796  0.00  0.00     0.210 HD
ENDBRANCH   5  32
BRANCH   7  34
ATOM     34  O   LIG d   1       3.870   0.038 -10.371  0.00  0.00    -0.387 OA
ATOM     35  H   LIG d   1       4.661   0.584 -10.266  0.00  0.00     0.210 HD
ENDBRANCH   7  34
TORSDOF 7
ENDMDL
MODEL 2
REMARK VINA RESULT:      -5.6      3.016      5.860
REMARK  7 active torsions:
REMARK  status: ('A' for Active; 'I' for Inactive)
REMARK    1  A    between atoms: C_4  and  N_7 
REMARK    2  A    between atoms: N_7  and  C_8 
REMARK    3  A    between atoms: C_10  and  O_23 
REMARK    4  A    between atoms: C_12  and  O_22 
REMARK    5  A    between atoms: C_14  and  O_21 
REMARK    6  A    between atoms: C_16  and  C_19 
REMARK    7  A    between atoms: C_19  and  O_20 
ROOT
ATOM      1  C   LIG d   1       3.446  -0.056  -5.004  0.00  0.00     0.152 C 
ATOM      2  H   LIG d   1       2.704   0.705  -5.248  0.00  0.00     0.083 H 
ATOM      3  C   LIG d   1       2.943  -0.900  -3.831  0.00  0.00     0.126 C 
ATOM      4  H   LIG d   1       2.029  -1.419  -4.120  0.00  0.00     0.066 H 
ATOM      5  C   LIG d   1       4.017  -1.928  -3.454  0.00  0.00     0.113 C 
ATOM      6  H   LIG d   1       4.183  -2.605  -4.293  0.00  0.00     0.065 H 
ATOM      7  C   LIG d   1       5.319  -1.191  -3.126  0.00  0.00     0.112 C 
ATOM      8  H   LIG d   1       6.104  -1.917  -2.910  0.00  0.00     0.065 H 
ATOM      9  C   LIG d   1       5.729  -0.334  -4.326  0.00  0.00     0.112 C 
ATOM     10  H   LIG d   1       5.922  -0.979  -5.184  0.00  0.00     0.065 H 
ATOM     11  O   LIG d   1       4.676   0.577  -4.642  0.00  0.00    -0.348 OA
ENDROOT
BRANCH   1  12
ATOM     12  N   LIG d   1       3.664  -0.917  -6.168  0.00  0.00    -0.317 N 
ATOM     13  H   LIG d   1       4.061  -1.795  -6.054  0.00  0.00     0.149 HD
BRANCH  12  14
ATOM     14  C   LIG d   1       3.301  -0.474  -7.443  0.00  0.00     0.029 A 
ATOM     15  C   LIG d   1       3.025   0.870  -7.661  0.00  0.00    -0.041 A 
ATOM     16  C   LIG d   1       2.661   1.302  -8.920  0.00  0.00    -0.060 A 
ATOM     17  H   LIG d   1       3.092   1.574  -6.844  0.00  0.00     0.064 H 
ATOM     18  C   LIG d   1       2.581   0.402  -9.966  0.00  0.00    -0.062 A 
ATOM     19  H   LIG d   1       2.443   2.347  -9.089  0.00  0.00     0.062 H 
ATOM     20  C   LIG d   1       2.854  -0.937  -9.752  0.00  0.00    -0.060 A 
ATOM     21  H   LIG d   1       2.300   0.744 -10.951  0.00  0.00     0.062 H 
ATOM     22  C   LIG d   1       3.214  -1.377  -8.494  0.00  0.00    -0.041 A 
ATOM     23  H   LIG d   1       2.786  -1.638 -10.571  0.00  0.00     0.062 H 
ATOM     24  H   LIG d   1       3.427  -2.423  -8.328  0.00  0.00     0.064 H 
ENDBRANCH  12  14
ENDBRANCH   1  12
BRANCH   3  25
ATOM     25  O   LIG d   1       2.680  -0.053  -2.710  0.00  0.00    -0.385 OA
ATOM     26  H   LIG d   1       2.077  -0.439  -2.060  0.00  0.00     0.210 HD
ENDBRANCH   3  25
BRANCH   9  27
ATOM     27  C   LIG d   1       6.997   0.451  -3.983  0.00  0.00     0.073 C 
ATOM     28  H   LIG d   1       7.620  -0.140  -3.312  0.00  0.00     0.058 H 
ATOM     29  H   LIG d   1       7.549   0.666  -4.898  0.00  0.00     0.058 H 
BRANCH  27  30
ATOM     30  O   LIG d   1       6.639   1.677  -3.344  0.00  0.00    -0.392 OA
ATOM     31  H   LIG d   1       5.753   1.673  -2.954  0.00  0.00     0.209 HD
ENDBRANCH  27  30
ENDBRANCH   9  27
BRANCH   5  32
ATOM     32  O   LIG d   1       3.588  -2.674  -2.313  0.00  0.00    -0.386 OA
ATOM     33  H   LIG d   1       4.313  -3.038  -1.788  0.00  0.00     0.210 HD
ENDBRANCH   5  32
BRANCH   7  34
ATOM     34  O   LIG d   1       5.118  -0.351  -1.986  0.00  0.00    -0.387 OA
ATOM     35  H   LIG d   1       4.458   0.342  -2.119  0.00  0.00     0.210 HD
ENDBRANCH   7  34
TORSDOF 7
ENDMDL
MODEL 3
REMARK VINA RESULT:      -5.6      1.364      3.098
REMARK  7 active torsions:
REMARK  status: ('A' for Active; 'I' for Inactive)
REMARK    1  A    between atoms: C_4  and  N_7 
REMARK    2  A    between atoms: N_7  and  C_8 
REMARK    3  A    between atoms: C_10  and  O_23 
REMARK    4  A    between atoms: C_12  and  O_22 
REMARK    5  A    between atoms: C_14  and  O_21 
REMARK    6  A    between atoms: C_16  and  C_19 
REMARK    7  A    between atoms: C_19  and  O_20 
ROOT
ATOM      1  C   LIG d   1       3.023   0.422  -7.221  0.00  0.00     0.152 C 
ATOM      2  H   LIG d   1       2.232   0.828  -6.588  0.00  0.00     0.083 H 
ATOM      3  C   LIG d   1       3.503   1.503  -8.193  0.00  0.00     0.126 C 
ATOM      4  H   LIG d   1       3.929   2.334  -7.632  0.00  0.00     0.066 H 
ATOM      5  C   LIG d   1       4.570   0.908  -9.118  0.00  0.00     0.113 C 
ATOM      6  H   LIG d   1       5.433   0.599  -8.527  0.00  0.00     0.065 H 
ATOM      7  C   LIG d   1       3.982  -0.307  -9.842  0.00  0.00     0.112 C 
ATOM      8  H   LIG d   1       4.752  -0.770 -10.461  0.00  0.00     0.065 H 
ATOM      9  C   LIG d   1       3.483  -1.317  -8.806  0.00  0.00     0.112 C 
ATOM     10  H   LIG d   1       4.323  -1.665  -8.203  0.00  0.00     0.065 H 
ATOM     11  O   LIG d   1       2.517  -0.692  -7.959  0.00  0.00    -0.348 OA
ENDROOT
BRANCH   1  12
ATOM     12  N   LIG d   1       4.143  -0.015  -6.384  0.00  0.00    -0.317 N 
ATOM     13  H   LIG d   1       5.054   0.089  -6.700  0.00  0.00     0.149 HD
BRANCH  12  14
ATOM     14  C   LIG d   1       3.899  -0.580  -5.129  0.00  0.00     0.029 A 
ATOM     15  C   LIG d   1       2.944  -0.022  -4.288  0.00  0.00    -0.041 A 
ATOM     16  C   LIG d   1       2.710  -0.580  -3.047  0.00  0.00    -0.060 A 
ATOM     17  H   LIG d   1       2.390   0.850  -4.603  0.00  0.00     0.064 H 
ATOM     18  C   LIG d   1       3.415  -1.700  -2.646  0.00  0.00    -0.062 A 
ATOM     19  H   LIG d   1       1.971  -0.144  -2.391  0.00  0.00     0.062 H 
ATOM     20  C   LIG d   1       4.366  -2.257  -3.481  0.00  0.00    -0.060 A 
ATOM     21  H   LIG d   1       3.226  -2.137  -1.677  0.00  0.00     0.062 H 
ATOM     22  C   LIG d   1       4.609  -1.701  -4.722  0.00  0.00    -0.041 A 
ATOM     23  H   LIG d   1       4.918  -3.130  -3.163  0.00  0.00     0.062 H 
ATOM     24  H   LIG d   1       5.353  -2.138  -5.373  0.00  0.00     0.064 H 
ENDBRANCH  12  14
ENDBRANCH   1  12
BRANCH   3  25
ATOM     25  O   LIG d   1       2.400   1.967  -8.974  0.00  0.00    -0.385 OA
ATOM     26  H   LIG d   1       1.858   2.634  -8.530  0.00  0.00     0.210 HD
ENDBRANCH   3  25
BRANCH   9  27
ATOM     27  C   LIG d   1       2.840  -2.507  -9.521  0.00  0.00     0.073 C 
ATOM     28  H   LIG d   1       3.395  -2.725 -10.433  0.00  0.00     0.058 H 
ATOM     29  H   LIG d   1       2.860  -3.378  -8.866  0.00  0.00     0.058 H 
BRANCH  27  30
ATOM     30  O   LIG d   1       1.487  -2.190  -9.850  0.00  0.00    -0.392 OA
ATOM     31  H   LIG d   1       0.960  -2.952 -10.128  0.00  0.00     0.209 HD
ENDBRANCH  27  30
ENDBRANCH   9  27
BRANCH   5  32
ATOM     32  O   LIG d   1       4.973   1.887 -10.077  0.00  0.00    -0.386 OA
ATOM     33  H   LIG d   1       4.357   2.627 -10.166  0.00  0.00     0.210 HD
ENDBRANCH   5  32
BRANCH   7  34
ATOM     34  O   LIG d   1       2.892   0.110 -10.667  0.00  0.00    -0.387 OA
ATOM     35  H   LIG d   1       2.132   0.446 -10.174  0.00  0.00     0.210 HD
ENDBRANCH   7  34
TORSDOF 7
ENDMDL
MODEL 4
REMARK VINA RESULT:      -5.5      3.009      5.895
REMARK  7 active torsions:
REMARK  status: ('A' for Active; 'I' for Inactive)
REMARK    1  A    between atoms: C_4  and  N_7 
REMARK    2  A    between atoms: N_7  and  C_8 
REMARK    3  A    between atoms: C_10  and  O_23 
REMARK    4  A    between atoms: C_12  and  O_22 
REMARK    5  A    between atoms: C_14  and  O_21 
REMARK    6  A    between atoms: C_16  and  C_19 
REMARK    7  A    between atoms: C_19  and  O_20 
ROOT
ATOM      1  C   LIG d   1       3.993  -0.764  -5.693  0.00  0.00     0.152 C 
ATOM      2  H   LIG d   1       3.155  -1.078  -6.316  0.00  0.00     0.083 H 
ATOM      3  C   LIG d   1       4.795  -1.993  -5.259  0.00  0.00     0.126 C 
ATOM      4  H   LIG d   1       5.210  -2.487  -6.137  0.00  0.00     0.066 H 
ATOM      5  C   LIG d   1       5.936  -1.548  -4.336  0.00  0.00     0.113 C 
ATOM      6  H   LIG d   1       6.616  -0.897  -4.885  0.00  0.00     0.065 H 
ATOM      7  C   LIG d   1       5.346  -0.787  -3.146  0.00  0.00     0.112 C 
ATOM      8  H   LIG d   1       6.154  -0.419  -2.512  0.00  0.00     0.065 H 
ATOM      9  C   LIG d   1       4.522   0.395  -3.662  0.00  0.00     0.112 C 
ATOM     10  H   LIG d   1       5.173   1.082  -4.205  0.00  0.00     0.065 H 
ATOM     11  O   LIG d   1       3.500  -0.084  -4.537  0.00  0.00    -0.348 OA
ENDROOT
BRANCH   1  12
ATOM     12  N   LIG d   1       4.858   0.139  -6.458  0.00  0.00    -0.317 N 
ATOM     13  H   LIG d   1       5.729   0.386  -6.110  0.00  0.00     0.149 HD
BRANCH  12  14
ATOM     14  C   LIG d   1       4.428   0.642  -7.689  0.00  0.00     0.029 A 
ATOM     15  C   LIG d   1       3.100   1.013  -7.863  0.00  0.00    -0.041 A 
ATOM     16  C   LIG d   1       2.678   1.505  -9.082  0.00  0.00    -0.060 A 
ATOM     17  H   LIG d   1       2.399   0.912  -7.048  0.00  0.00     0.064 H 
ATOM     18  C   LIG d   1       3.576   1.640 -10.125  0.00  0.00    -0.062 A 
ATOM     19  H   LIG d   1       1.645   1.789  -9.219  0.00  0.00     0.062 H 
ATOM     20  C   LIG d   1       4.898   1.271  -9.954  0.00  0.00    -0.060 A 
ATOM     21  H   LIG d   1       3.244   2.029 -11.075  0.00  0.00     0.062 H 
ATOM     22  C   LIG d   1       5.326   0.774  -8.739  0.00  0.00    -0.041 A 
ATOM     23  H   LIG d   1       5.596   1.374 -10.772  0.00  0.00     0.062 H 
ATOM     24  H   LIG d   1       6.359   0.486  -8.607  0.00  0.00     0.064 H 
ENDBRANCH  12  14
ENDBRANCH   1  12
BRANCH   3  25
ATOM     25  O   LIG d   1       3.940  -2.898  -4.558  0.00  0.00    -0.385 OA
ATOM     26  H   LIG d   1       3.023  -2.889  -4.864  0.00  0.00     0.210 HD
ENDBRANCH   3  25
BRANCH   9  27
ATOM     27  C   LIG d   1       3.880   1.126  -2.480  0.00  0.00     0.073 C 
ATOM     28  H   LIG d   1       3.681   2.160  -2.758  0.00  0.00     0.058 H 
ATOM     29  H   LIG d   1       2.945   0.633  -2.214  0.00  0.00     0.058 H 
BRANCH  27  30
ATOM     30  O   LIG d   1       4.770   1.096  -1.363  0.00  0.00    -0.392 OA
ATOM     31  H   LIG d   1       4.448   1.582  -0.591  0.00  0.00     0.209 HD
ENDBRANCH  27  30
ENDBRANCH   9  27
BRANCH   5  32
ATOM     32  O   LIG d   1       6.647  -2.695  -3.866  0.00  0.00    -0.386 OA
ATOM     33  H   LIG d   1       6.076  -3.429  -3.599  0.00  0.00     0.210 HD
ENDBRANCH   5  32
BRANCH   7  34
ATOM     34  O   LIG d   1       4.505  -1.660  -2.388  0.00  0.00    -0.387 OA
ATOM     35  H   LIG d   1       4.791  -1.787  -1.474  0.00  0.00     0.210 HD
ENDBRANCH   7  34
TORSDOF 7
ENDMDL
MODEL 5
REMARK VINA RESULT:      -5.4      5.204      6.425
REMARK  7 active torsions:
REMARK  status: ('A' for Active; 'I' for Inactive)
REMARK    1  A    between atoms: C_4  and  N_7 
REMARK    2  A    between atoms: N_7  and  C_8 
REMARK    3  A    between atoms: C_10  and  O_23 
REMARK    4  A    between atoms: C_12  and  O_22 
REMARK    5  A    between atoms: C_14  and  O_21 
REMARK    6  A    between atoms: C_16  and  C_19 
REMARK    7  A    between atoms: C_19  and  O_20 
ROOT
ATOM      1  C   LIG d   1       8.426   1.020  -4.238  0.00  0.00     0.152 C 
ATOM      2  H   LIG d   1       8.517  -0.019  -3.919  0.00  0.00     0.083 H 
ATOM      3  C   LIG d   1       8.877   1.148  -5.695  0.00  0.00     0.126 C 
ATOM      4  H   LIG d   1       8.223   0.554  -6.332  0.00  0.00     0.066 H 
ATOM      5  C   LIG d   1       8.804   2.620  -6.117  0.00  0.00     0.113 C 
ATOM      6  H   LIG d   1       7.770   2.962  -6.067  0.00  0.00     0.065 H 
ATOM      7  C   LIG d   1       9.666   3.454  -5.165  0.00  0.00     0.112 C 
ATOM      8  H   LIG d   1       9.576   4.510  -5.424  0.00  0.00     0.065 H 
ATOM      9  C   LIG d   1       9.185   3.237  -3.728  0.00  0.00     0.112 C 
ATOM     10  H   LIG d   1       8.156   3.584  -3.633  0.00  0.00     0.065 H 
ATOM     11  O   LIG d   1       9.249   1.846  -3.411  0.00  0.00    -0.348 OA
ENDROOT
BRANCH   1  12
ATOM     12  N   LIG d   1       7.030   1.448  -4.119  0.00  0.00    -0.317 N 
ATOM     13  H   LIG d   1       6.733   2.260  -4.557  0.00  0.00     0.149 HD
BRANCH  12  14
ATOM     14  C   LIG d   1       6.127   0.685  -3.374  0.00  0.00     0.029 A 
ATOM     15  C   LIG d   1       5.162   1.312  -2.595  0.00  0.00    -0.041 A 
ATOM     16  C   LIG d   1       4.275   0.556  -1.857  0.00  0.00    -0.060 A 
ATOM     17  H   LIG d   1       5.110   2.391  -2.565  0.00  0.00     0.064 H 
ATOM     18  C   LIG d   1       4.338  -0.826  -1.900  0.00  0.00    -0.062 A 
ATOM     19  H   LIG d   1       3.528   1.043  -1.248  0.00  0.00     0.062 H 
ATOM     20  C   LIG d   1       5.297  -1.453  -2.674  0.00  0.00    -0.060 A 
ATOM     21  H   LIG d   1       3.640  -1.415  -1.325  0.00  0.00     0.062 H 
ATOM     22  C   LIG d   1       6.191  -0.701  -3.411  0.00  0.00    -0.041 A 
ATOM     23  H   LIG d   1       5.346  -2.531  -2.702  0.00  0.00     0.062 H 
ATOM     24  H   LIG d   1       6.940  -1.193  -4.015  0.00  0.00     0.064 H 
ENDBRANCH  12  14
ENDBRANCH   1  12
BRANCH   3  25
ATOM     25  O   LIG d   1      10.222   0.681  -5.822  0.00  0.00    -0.385 OA
ATOM     26  H   LIG d   1      10.328  -0.043  -6.453  0.00  0.00     0.210 HD
ENDBRANCH   3  25
BRANCH   9  27
ATOM     27  C   LIG d   1      10.080   4.022  -2.766  0.00  0.00     0.073 C 
ATOM     28  H   LIG d   1      10.674   4.741  -3.328  0.00  0.00     0.058 H 
ATOM     29  H   LIG d   1       9.459   4.549  -2.042  0.00  0.00     0.058 H 
BRANCH  27  30
ATOM     30  O   LIG d   1      10.949   3.118  -2.081  0.00  0.00    -0.392 OA
ATOM     31  H   LIG d   1      11.002   3.271  -1.127  0.00  0.00     0.209 HD
ENDBRANCH  27  30
ENDBRANCH   9  27
BRANCH   5  32
ATOM     32  O   LIG d   1       9.292   2.761  -7.452  0.00  0.00    -0.386 OA
ATOM     33  H   LIG d   1       8.605   2.969  -8.101  0.00  0.00     0.210 HD
ENDBRANCH   5  32
BRANCH   7  34
ATOM     34  O   LIG d   1      11.032   3.049  -5.278  0.00  0.00    -0.387 OA
ATOM     35  H   LIG d   1      11.565   3.617  -5.850  0.00  0.00     0.210 HD
ENDBRANCH   7  34
TORSDOF 7
ENDMDL
MODEL 6
REMARK VINA RESULT:      -5.4      1.538      2.290
REMARK  7 active torsions:
REMARK  status: ('A' for Active; 'I' for Inactive)
REMARK    1  A    between atoms: C_4  and  N_7 
REMARK    2  A    between atoms: N_7  and  C_8 
REMARK    3  A    between atoms: C_10  and  O_23 
REMARK    4  A    between atoms: C_12  and  O_22 
REMARK    5  A    between atoms: C_14  and  O_21 
REMARK    6  A    between atoms: C_16  and  C_19 
REMARK    7  A    between atoms: C_19  and  O_20 
ROOT
ATOM      1  C   LIG d   1       3.844  -0.635  -6.658  0.00  0.00     0.152 C 
ATOM      2  H   LIG d   1       3.472  -1.588  -6.280  0.00  0.00     0.083 H 
ATOM      3  C   LIG d   1       2.777   0.013  -7.544  0.00  0.00     0.126 C 
ATOM      4  H   LIG d   1       1.888   0.223  -6.950  0.00  0.00     0.066 H 
ATOM      5  C   LIG d   1       3.328   1.322  -8.119  0.00  0.00     0.113 C 
ATOM      6  H   LIG d   1       3.539   2.018  -7.306  0.00  0.00     0.065 H 
ATOM      7  C   LIG d   1       4.621   1.025  -8.886  0.00  0.00     0.112 C 
ATOM      8  H   LIG d   1       5.050   1.958  -9.252  0.00  0.00     0.065 H 
ATOM      9  C   LIG d   1       5.616   0.337  -7.948  0.00  0.00     0.112 C 
ATOM     10  H   LIG d   1       5.866   1.010  -7.127  0.00  0.00     0.065 H 
ATOM     11  O   LIG d   1       5.030  -0.856  -7.424  0.00  0.00    -0.348 OA
ENDROOT
BRANCH   1  12
ATOM     12  N   LIG d   1       4.148   0.252  -5.532  0.00  0.00    -0.317 N 
ATOM     13  H   LIG d   1       4.302   1.197  -5.687  0.00  0.00     0.149 HD
BRANCH  12  14
ATOM     14  C   LIG d   1       4.218  -0.264  -4.235  0.00  0.00     0.029 A 
ATOM     15  C   LIG d   1       4.495   0.577  -3.165  0.00  0.00    -0.041 A 
ATOM     16  C   LIG d   1       4.569   0.063  -1.886  0.00  0.00    -0.060 A 
ATOM     17  H   LIG d   1       4.658   1.632  -3.335  0.00  0.00     0.064 H 
ATOM     18  C   LIG d   1       4.356  -1.286  -1.668  0.00  0.00    -0.062 A 
ATOM     19  H   LIG d   1       4.789   0.716  -1.054  0.00  0.00     0.062 H 
ATOM     20  C   LIG d   1       4.079  -2.126  -2.731  0.00  0.00    -0.060 A 
ATOM     21  H   LIG d   1       4.409  -1.684  -0.666  0.00  0.00     0.062 H 
ATOM     22  C   LIG d   1       4.009  -1.619  -4.013  0.00  0.00    -0.041 A 
ATOM     23  H   LIG d   1       3.917  -3.180  -2.557  0.00  0.00     0.062 H 
ATOM     24  H   LIG d   1       3.794  -2.277  -4.843  0.00  0.00     0.064 H 
ENDBRANCH  12  14
ENDBRANCH   1  12
BRANCH   3  25
ATOM     25  O   LIG d   1       2.441  -0.874  -8.613  0.00  0.00    -0.385 OA
ATOM     26  H   LIG d   1       2.160  -0.425  -9.422  0.00  0.00     0.210 HD
ENDBRANCH   3  25
BRANCH   9  27
ATOM     27  C   LIG d   1       6.887  -0.017  -8.723  0.00  0.00     0.073 C 
ATOM     28  H   LIG d   1       7.737  -0.027  -8.042  0.00  0.00     0.058 H 
ATOM     29  H   LIG d   1       6.773  -1.002  -9.177  0.00  0.00     0.058 H 
BRANCH  27  30
ATOM     30  O   LIG d   1       7.107   0.956  -9.746  0.00  0.00    -0.392 OA
ATOM     31  H   LIG d   1       7.917   1.471  -9.631  0.00  0.00     0.209 HD
ENDBRANCH  27  30
ENDBRANCH   9  27
BRANCH   5  32
ATOM     32  O   LIG d   1       2.368   1.899  -9.006  0.00  0.00    -0.386 OA
ATOM     33  H   LIG d   1       2.355   2.866  -8.995  0.00  0.00     0.210 HD
ENDBRANCH   5  32
BRANCH   7  34
ATOM     34  O   LIG d   1       4.333   0.165  -9.991  0.00  0.00    -0.387 OA
ATOM     35  H   LIG d   1       3.396  -0.049 -10.090  0.00  0.00     0.210 HD
ENDBRANCH   7  34
TORSDOF 7
ENDMDL
MODEL 7
REMARK VINA RESULT:      -5.1      9.347     11.224
REMARK  7 active torsions:
REMARK  status: ('A' for Active; 'I' for Inactive)
REMARK    1  A    between atoms: C_4  and  N_7 
REMARK    2  A    between atoms: N_7  and  C_8 
REMARK    3  A    between atoms: C_10  and  O_23 
REMARK    4  A    between atoms: C_12  and  O_22 
REMARK    5  A    between atoms: C_14  and  O_21 
REMARK    6  A    between atoms: C_16  and  C_19 
REMARK    7  A    between atoms: C_19  and  O_20 
ROOT
ATOM      1  C   LIG d   1       9.819   5.867  -3.706  0.00  0.00     0.152 C 
ATOM      2  H   LIG d   1       9.060   5.322  -4.268  0.00  0.00     0.083 H 
ATOM      3  C   LIG d   1      10.735   4.873  -2.988  0.00  0.00     0.126 C 
ATOM      4  H   LIG d   1      11.253   4.258  -3.724  0.00  0.00     0.066 H 
ATOM      5  C   LIG d   1      11.762   5.647  -2.155  0.00  0.00     0.113 C 
ATOM      6  H   LIG d   1      12.390   6.247  -2.815  0.00  0.00     0.065 H 
ATOM      7  C   LIG d   1      11.021   6.567  -1.179  0.00  0.00     0.112 C 
ATOM      8  H   LIG d   1      11.744   7.162  -0.620  0.00  0.00     0.065 H 
ATOM      9  C   LIG d   1      10.094   7.495  -1.967  0.00  0.00     0.112 C 
ATOM     10  H   LIG d   1      10.688   8.126  -2.629  0.00  0.00     0.065 H 
ATOM     11  O   LIG d   1       9.186   6.712  -2.743  0.00  0.00    -0.348 OA
ENDROOT
BRANCH   1  12
ATOM     12  N   LIG d   1      10.612   6.686  -4.627  0.00  0.00    -0.317 N 
ATOM     13  H   LIG d   1      11.481   7.021  -4.353  0.00  0.00     0.149 HD
BRANCH  12  14
ATOM     14  C   LIG d   1      10.118   6.985  -5.899  0.00  0.00     0.029 A 
ATOM     15  C   LIG d   1      10.165   6.028  -6.906  0.00  0.00    -0.041 A 
ATOM     16  C   LIG d   1       9.681   6.329  -8.163  0.00  0.00    -0.060 A 
ATOM     17  H   LIG d   1      10.584   5.053  -6.706  0.00  0.00     0.064 H 
ATOM     18  C   LIG d   1       9.139   7.576  -8.419  0.00  0.00    -0.062 A 
ATOM     19  H   LIG d   1       9.721   5.587  -8.948  0.00  0.00     0.062 H 
ATOM     20  C   LIG d   1       9.091   8.529  -7.418  0.00  0.00    -0.060 A 
ATOM     21  H   LIG d   1       8.757   7.806  -9.401  0.00  0.00     0.062 H 
ATOM     22  C   LIG d   1       9.578   8.237  -6.159  0.00  0.00    -0.041 A 
ATOM     23  H   LIG d   1       8.671   9.503  -7.622  0.00  0.00     0.062 H 
ATOM     24  H   LIG d   1       9.541   8.983  -5.379  0.00  0.00     0.064 H 
ENDBRANCH  12  14
ENDBRANCH   1  12
BRANCH   3  25
ATOM     25  O   LIG d   1       9.955   4.039  -2.130  0.00  0.00    -0.385 OA
ATOM     26  H   LIG d   1      10.293   3.981  -1.225  0.00  0.00     0.210 HD
ENDBRANCH   3  25
BRANCH   9  27
ATOM     27  C   LIG d   1       9.306   8.375  -0.994  0.00  0.00     0.073 C 
ATOM     28  H   LIG d   1       9.753   8.311  -0.003  0.00  0.00     0.058 H 
ATOM     29  H   LIG d   1       9.331   9.409  -1.339  0.00  0.00     0.058 H 
BRANCH  27  30
ATOM     30  O   LIG d   1       7.951   7.926  -0.937  0.00  0.00    -0.392 OA
ATOM     31  H   LIG d   1       7.739   7.233  -1.578  0.00  0.00     0.209 HD
ENDBRANCH  27  30
ENDBRANCH   9  27
BRANCH   5  32
ATOM     32  O   LIG d   1      12.576   4.729  -1.423  0.00  0.00    -0.386 OA
ATOM     33  H   LIG d   1      12.711   3.882  -1.869  0.00  0.00     0.210 HD
ENDBRANCH   5  32
BRANCH   7  34
ATOM     34  O   LIG d   1      10.249   5.777  -0.272  0.00  0.00    -0.387 OA
ATOM     35  H   LIG d   1      10.034   6.226   0.557  0.00  0.00     0.210 HD
ENDBRANCH   7  34
TORSDOF 7
ENDMDL
MODEL 8
REMARK VINA RESULT:      -5.0      2.816      5.809
REMARK  7 active torsions:
REMARK  status: ('A' for Active; 'I' for Inactive)
REMARK    1  A    between atoms: C_4  and  N_7 
REMARK    2  A    between atoms: N_7  and  C_8 
REMARK    3  A    between atoms: C_10  and  O_23 
REMARK    4  A    between atoms: C_12  and  O_22 
REMARK    5  A    between atoms: C_14  and  O_21 
REMARK    6  A    between atoms: C_16  and  C_19 
REMARK    7  A    between atoms: C_19  and  O_20 
ROOT
ATOM      1  C   LIG d   1       4.028  -0.033  -6.059  0.00  0.00     0.152 C 
ATOM      2  H   LIG d   1       3.736   0.804  -6.694  0.00  0.00     0.083 H 
ATOM      3  C   LIG d   1       3.140  -0.060  -4.812  0.00  0.00     0.126 C 
ATOM      4  H   LIG d   1       2.103  -0.221  -5.107  0.00  0.00     0.066 H 
ATOM      5  C   LIG d   1       3.594  -1.202  -3.896  0.00  0.00     0.113 C 
ATOM      6  H   LIG d   1       3.461  -2.156  -4.409  0.00  0.00     0.065 H 
ATOM      7  C   LIG d   1       5.074  -1.007  -3.553  0.00  0.00     0.112 C 
ATOM      8  H   LIG d   1       5.421  -1.845  -2.947  0.00  0.00     0.065 H 
ATOM      9  C   LIG d   1       5.887  -0.943  -4.849  0.00  0.00     0.112 C 
ATOM     10  H   LIG d   1       5.793  -1.888  -5.384  0.00  0.00     0.065 H 
ATOM     11  O   LIG d   1       5.394   0.119  -5.667  0.00  0.00    -0.348 OA
ENDROOT
BRANCH   1  12
ATOM     12  N   LIG d   1       3.869  -1.287  -6.799  0.00  0.00    -0.317 N 
ATOM     13  H   LIG d   1       4.210  -2.116  -6.428  0.00  0.00     0.149 HD
BRANCH  12  14
ATOM     14  C   LIG d   1       3.226  -1.289  -8.040  0.00  0.00     0.029 A 
ATOM     15  C   LIG d   1       3.269  -2.421  -8.845  0.00  0.00    -0.041 A 
ATOM     16  C   LIG d   1       2.638  -2.417 -10.072  0.00  0.00    -0.060 A 
ATOM     17  H   LIG d   1       3.801  -3.300  -8.512  0.00  0.00     0.064 H 
ATOM     18  C   LIG d   1       1.952  -1.293 -10.497  0.00  0.00    -0.062 A 
ATOM     19  H   LIG d   1       2.675  -3.295 -10.700  0.00  0.00     0.062 H 
ATOM     20  C   LIG d   1       1.908  -0.165  -9.698  0.00  0.00    -0.060 A 
ATOM     21  H   LIG d   1       1.455  -1.295 -11.455  0.00  0.00     0.062 H 
ATOM     22  C   LIG d   1       2.541  -0.160  -8.471  0.00  0.00    -0.041 A 
ATOM     23  H   LIG d   1       1.375   0.712 -10.034  0.00  0.00     0.062 H 
ATOM     24  H   LIG d   1       2.506   0.722  -7.848  0.00  0.00     0.064 H 
ENDBRANCH  12  14
ENDBRANCH   1  12
BRANCH   3  25
ATOM     25  O   LIG d   1       3.254   1.183  -4.117  0.00  0.00    -0.385 OA
ATOM     26  H   LIG d   1       2.692   1.885  -4.473  0.00  0.00     0.210 HD
ENDBRANCH   3  25
BRANCH   9  27
ATOM     27  C   LIG d   1       7.359  -0.689  -4.516  0.00  0.00     0.073 C 
ATOM     28  H   LIG d   1       7.985  -1.078  -5.318  0.00  0.00     0.058 H 
ATOM     29  H   LIG d   1       7.527   0.383  -4.410  0.00  0.00     0.058 H 
BRANCH  27  30
ATOM     30  O   LIG d   1       7.690  -1.346  -3.291  0.00  0.00    -0.392 OA
ATOM     31  H   LIG d   1       8.620  -1.603  -3.221  0.00  0.00     0.209 HD
ENDBRANCH  27  30
ENDBRANCH   9  27
BRANCH   5  32
ATOM     32  O   LIG d   1       2.820  -1.192  -2.696  0.00  0.00    -0.386 OA
ATOM     33  H   LIG d   1       2.745  -2.056  -2.269  0.00  0.00     0.210 HD
ENDBRANCH   5  32
BRANCH   7  34
ATOM     34  O   LIG d   1       5.240   0.211  -2.824  0.00  0.00    -0.387 OA
ATOM     35  H   LIG d   1       4.958   1.000  -3.307  0.00  0.00     0.210 HD
ENDBRANCH   7  34
TORSDOF 7
ENDMDL
MODEL 9
REMARK VINA RESULT:      -5.0     10.081     11.891
REMARK  7 active torsions:
REMARK  status: ('A' for Active; 'I' for Inactive)
REMARK    1  A    between atoms: C_4  and  N_7 
REMARK    2  A    between atoms: N_7  and  C_8 
REMARK    3  A    between atoms: C_10  and  O_23 
REMARK    4  A    between atoms: C_12  and  O_22 
REMARK    5  A    between atoms: C_14  and  O_21 
REMARK    6  A    between atoms: C_16  and  C_19 
REMARK    7  A    between atoms: C_19  and  O_20 
ROOT
ATOM      1  C   LIG d   1      10.819   5.704  -0.749  0.00  0.00     0.152 C 
ATOM      2  H   LIG d   1      10.437   4.748  -0.388  0.00  0.00     0.083 H 
ATOM      3  C   LIG d   1      12.051   6.101   0.067  0.00  0.00     0.126 C 
ATOM      4  H   LIG d   1      12.838   5.361  -0.074  0.00  0.00     0.066 H 
ATOM      5  C   LIG d   1      12.548   7.472  -0.406  0.00  0.00     0.113 C 
ATOM      6  H   LIG d   1      12.859   7.406  -1.449  0.00  0.00     0.065 H 
ATOM      7  C   LIG d   1      11.408   8.487  -0.275  0.00  0.00     0.112 C 
ATOM      8  H   LIG d   1      11.735   9.453  -0.661  0.00  0.00     0.065 H 
ATOM      9  C   LIG d   1      10.202   7.997  -1.078  0.00  0.00     0.112 C 
ATOM     10  H   LIG d   1      10.468   7.934  -2.133  0.00  0.00     0.065 H 
ATOM     11  O   LIG d   1       9.811   6.706  -0.608  0.00  0.00    -0.348 OA
ENDROOT
BRANCH   1  12
ATOM     12  N   LIG d   1      11.189   5.579  -2.161  0.00  0.00    -0.317 N 
ATOM     13  H   LIG d   1      11.945   6.076  -2.511  0.00  0.00     0.149 HD
BRANCH  12  14
ATOM     14  C   LIG d   1      10.453   4.743  -3.005  0.00  0.00     0.029 A 
ATOM     15  C   LIG d   1      10.311   3.395  -2.699  0.00  0.00    -0.041 A 
ATOM     16  C   LIG d   1       9.588   2.571  -3.537  0.00  0.00    -0.060 A 
ATOM     17  H   LIG d   1      10.770   2.992  -1.808  0.00  0.00     0.064 H 
ATOM     18  C   LIG d   1       8.995   3.087  -4.675  0.00  0.00    -0.062 A 
ATOM     19  H   LIG d   1       9.481   1.522  -3.302  0.00  0.00     0.062 H 
ATOM     20  C   LIG d   1       9.134   4.428  -4.983  0.00  0.00    -0.060 A 
ATOM     21  H   LIG d   1       8.426   2.442  -5.326  0.00  0.00     0.062 H 
ATOM     22  C   LIG d   1       9.860   5.257  -4.150  0.00  0.00    -0.041 A 
ATOM     23  H   LIG d   1       8.673   4.828  -5.874  0.00  0.00     0.062 H 
ATOM     24  H   LIG d   1       9.969   6.305  -4.392  0.00  0.00     0.064 H 
ENDBRANCH  12  14
ENDBRANCH   1  12
BRANCH   3  25
ATOM     25  O   LIG d   1      11.704   6.172   1.452  0.00  0.00    -0.385 OA
ATOM     26  H   LIG d   1      11.520   5.313   1.855  0.00  0.00     0.210 HD
ENDBRANCH   3  25
BRANCH   9  27
ATOM     27  C   LIG d   1       9.039   8.977  -0.903  0.00  0.00     0.073 C 
ATOM     28  H   LIG d   1       9.153   9.510   0.041  0.00  0.00     0.058 H 
ATOM     29  H   LIG d   1       9.039   9.691  -1.726  0.00  0.00     0.058 H 
BRANCH  27  30
ATOM     30  O   LIG d   1       7.806   8.256  -0.898  0.00  0.00    -0.392 OA
ATOM     31  H   LIG d   1       7.904   7.308  -1.064  0.00  0.00     0.209 HD
ENDBRANCH  27  30
ENDBRANCH   9  27
BRANCH   5  32
ATOM     32  O   LIG d   1      13.653   7.886   0.398  0.00  0.00    -0.386 OA
ATOM     33  H   LIG d   1      14.029   8.740   0.140  0.00  0.00     0.210 HD
ENDBRANCH   5  32
BRANCH   7  34
ATOM     34  O   LIG d   1      11.044   8.622   1.101  0.00  0.00    -0.387 OA
ATOM     35  H   LIG d   1      11.672   8.217   1.715  0.00  0.00     0.210 HD
ENDBRANCH   7  34
TORSDOF 7
ENDMDL
MODEL 10
REMARK VINA RESULT:      -4.9     12.327     14.173
REMARK  7 active torsions:
REMARK  status: ('A' for Active; 'I' for Inactive)
REMARK    1  A    between atoms: C_4  and  N_7 
REMARK    2  A    between atoms: N_7  and  C_8 
REMARK    3  A    between atoms: C_10  and  O_23 
REMARK    4  A    between atoms: C_12  and  O_22 
REMARK    5  A    between atoms: C_14  and  O_21 
REMARK    6  A    between atoms: C_16  and  C_19 
REMARK    7  A    between atoms: C_19  and  O_20 
ROOT
ATOM      1  C   LIG d   1       9.934  10.348  -0.074  0.00  0.00     0.152 C 
ATOM      2  H   LIG d   1       9.331   9.835   0.677  0.00  0.00     0.083 H 
ATOM      3  C   LIG d   1      10.499  11.640   0.521  0.00  0.00     0.126 C 
ATOM      4  H   LIG d   1      11.156  11.400   1.356  0.00  0.00     0.066 H 
ATOM      5  C   LIG d   1      11.294  12.384  -0.558  0.00  0.00     0.113 C 
ATOM      6  H   LIG d   1      12.142  11.774  -0.872  0.00  0.00     0.065 H 
ATOM      7  C   LIG d   1      10.380  12.646  -1.759  0.00  0.00     0.112 C 
ATOM      8  H   LIG d   1      10.952  13.126  -2.554  0.00  0.00     0.065 H 
ATOM      9  C   LIG d   1       9.819  11.316  -2.265  0.00  0.00     0.112 C 
ATOM     10  H   LIG d   1      10.638  10.681  -2.605  0.00  0.00     0.065 H 
ATOM     11  O   LIG d   1       9.119  10.662  -1.206  0.00  0.00    -0.348 OA
ENDROOT
BRANCH   1  12
ATOM     12  N   LIG d   1      11.036   9.479  -0.492  0.00  0.00    -0.317 N 
ATOM     13  H   LIG d   1      11.793   9.852  -0.972  0.00  0.00     0.149 HD
BRANCH  12  14
ATOM     14  C   LIG d   1      10.998   8.112  -0.201  0.00  0.00     0.029 A 
ATOM     15  C   LIG d   1      10.714   7.194  -1.204  0.00  0.00    -0.041 A 
ATOM     16  C   LIG d   1      10.671   5.846  -0.911  0.00  0.00    -0.060 A 
ATOM     17  H   LIG d   1      10.521   7.536  -2.210  0.00  0.00     0.064 H 
ATOM     18  C   LIG d   1      10.923   5.408   0.376  0.00  0.00    -0.062 A 
ATOM     19  H   LIG d   1      10.446   5.132  -1.690  0.00  0.00     0.062 H 
ATOM     20  C   LIG d   1      11.207   6.319   1.377  0.00  0.00    -0.060 A 
ATOM     21  H   LIG d   1      10.894   4.352   0.601  0.00  0.00     0.062 H 
ATOM     22  C   LIG d   1      11.246   7.670   1.092  0.00  0.00    -0.041 A 
ATOM     23  H   LIG d   1      11.399   5.974   2.382  0.00  0.00     0.062 H 
ATOM     24  H   LIG d   1      11.467   8.381   1.874  0.00  0.00     0.064 H 
ENDBRANCH  12  14
ENDBRANCH   1  12
BRANCH   3  25
ATOM     25  O   LIG d   1       9.426  12.466   0.977  0.00  0.00    -0.385 OA
ATOM     26  H   LIG d   1       8.611  11.981   1.167  0.00  0.00     0.210 HD
ENDBRANCH   3  25
BRANCH   9  27
ATOM     27  C   LIG d   1       8.858  11.576  -3.427  0.00  0.00     0.073 C 
ATOM     28  H   LIG d   1       9.086  12.541  -3.877  0.00  0.00     0.058 H 
ATOM     29  H   LIG d   1       8.971  10.790  -4.174  0.00  0.00     0.058 H 
BRANCH  27  30
ATOM     30  O   LIG d   1       7.514  11.581  -2.941  0.00  0.00    -0.392 OA
ATOM     31  H   LIG d   1       7.251  10.758  -2.506  0.00  0.00     0.209 HD
ENDBRANCH  27  30
ENDBRANCH   9  27
BRANCH   5  32
ATOM     32  O   LIG d   1      11.766  13.627  -0.035  0.00  0.00    -0.386 OA
ATOM     33  H   LIG d   1      12.354  14.108  -0.634  0.00  0.00     0.210 HD
ENDBRANCH   5  32
BRANCH   7  34
ATOM     34  O   LIG d   1       9.304  13.499  -1.363  0.00  0.00    -0.387 OA
ATOM     35  H   LIG d   1       8.980  14.077  -2.067  0.00  0.00     0.210 HD
ENDBRANCH   7  34
TORSDOF 7
ENDMDL
