MODEL 1
REMARK VINA RESULT:      -6.1      0.000      0.000
REMARK  7 active torsions:
REMARK  status: ('A' for Active; 'I' for Inactive)
REMARK    1  A    between atoms: CD1_1  and  CG1_2 
REMARK    2  A    between atoms: CG1_2  and  CB_3 
REMARK    3  A    between atoms: CB_3  and  CG2_5 
REMARK    4  A    between atoms: CB_3  and  CA_6 
REMARK       I    between atoms: CA_6  and  C_8 
REMARK       I    between atoms: CA_6  and  N_10 
REMARK       I    between atoms: N_10  and  C_11 
REMARK       I    between atoms: C_11  and  N_13 
REMARK    5  A    between atoms: N_13  and  C_14 
REMARK    6  A    between atoms: C_17  and  O_20 
REMARK    7  A    between atoms: O_20  and  C_21 
ROOT
ATOM      1  CA  ILE d   1       5.353  -0.224  -3.842  0.00  0.00     0.067 C 
ATOM      2  HA  ILE d   1       5.009   0.784  -4.074  0.00  0.00     0.056 H 
ATOM      3  C   ILE d   1       6.846  -0.302  -4.034  0.00  0.00     0.062 C 
ATOM      4  O   ILE d   1       7.340  -1.288  -4.526  0.00  0.00    -0.548 OA
ATOM      5  N   ILE d   1       4.695  -1.182  -4.734  0.00  0.00    -0.291 N 
ATOM      6  H   ILE d   1       4.458  -2.065  -4.408  0.00  0.00     0.151 HD
ATOM      7  OXT ILE d   1       7.625   0.725  -3.659  0.00  0.00    -0.548 OA
ATOM      8  C   UNK d   0       4.419  -0.837  -6.008  0.00  0.00     0.304 C 
ATOM      9  O   UNK d   0       4.716   0.269  -6.416  0.00  0.00    -0.253 OA
ATOM     10  N   UNK d   0       3.814  -1.719  -6.828  0.00  0.00    -0.270 N 
ATOM     11  H   UNK d   0       3.508  -2.572  -6.482  0.00  0.00     0.156 HD
ENDROOT
BRANCH   1  12
ATOM     12  CB  ILE d   1       5.007  -0.560  -2.390  0.00  0.00    -0.020 C 
ATOM     13  HB  ILE d   1       5.886  -0.974  -1.894  0.00  0.00     0.032 H 
BRANCH  12  14
ATOM     14  CG1 ILE d   1       4.564   0.712  -1.664  0.00  0.00    -0.051 C 
ATOM     15 1HG1 ILE d   1       4.098   0.445  -0.716  0.00  0.00     0.027 H 
ATOM     16 2HG1 ILE d   1       5.431   1.345  -1.478  0.00  0.00     0.027 H 
BRANCH  14  17
ATOM     17  CD1 ILE d   1       3.557   1.470  -2.531  0.00  0.00    -0.065 C 
ATOM     18 1HD1 ILE d   1       3.312   0.873  -3.410  0.00  0.00     0.023 H 
ATOM     19 2HD1 ILE d   1       2.650   1.657  -1.956  0.00  0.00     0.023 H 
ATOM     20 3HD1 ILE d   1       3.990   2.420  -2.846  0.00  0.00     0.023 H 
ENDBRANCH  14  17
ENDBRANCH  12  14
BRANCH  12  21
ATOM     21  CG2 ILE d   1       3.873  -1.585  -2.359  0.00  0.00    -0.060 C 
ATOM     22 1HG2 ILE d   1       3.528  -1.777  -3.375  0.00  0.00     0.023 H 
ATOM     23 2HG2 ILE d   1       4.235  -2.514  -1.917  0.00  0.00     0.023 H 
ATOM     24 3HG2 ILE d   1       3.048  -1.197  -1.762  0.00  0.00     0.023 H 
ENDBRANCH  12  21
ENDBRANCH   1  12
BRANCH  10  25
ATOM     25  C   UNK d   0       3.627  -1.403  -8.181  0.00  0.00     0.035 A 
ATOM     26  C   UNK d   0       2.492  -0.712  -8.582  0.00  0.00    -0.037 A 
ATOM     27  C   UNK d   0       2.308  -0.403  -9.916  0.00  0.00    -0.018 A 
ATOM     28  H   UNK d   0       1.752  -0.418  -7.852  0.00  0.00     0.064 H 
ATOM     29  C   UNK d   0       3.257  -0.781 -10.853  0.00  0.00     0.120 A 
ATOM     30  H   UNK d   0       1.425   0.135 -10.228  0.00  0.00     0.066 H 
ATOM     31  C   UNK d   0       4.392  -1.471 -10.452  0.00  0.00    -0.018 A 
ATOM     32  C   UNK d   0       4.577  -1.781  -9.119  0.00  0.00    -0.037 A 
ATOM     33  H   UNK d   0       5.131  -1.766 -11.183  0.00  0.00     0.066 H 
ATOM     34  H   UNK d   0       5.459  -2.323  -8.809  0.00  0.00     0.064 H 
BRANCH  29  35
ATOM     35  O   UNK d   0       3.075  -0.476 -12.166  0.00  0.00    -0.495 OA
BRANCH  35  36
ATOM     36  C   UNK d   0       4.219  -0.566 -13.018  0.00  0.00     0.079 C 
ATOM     37  H   UNK d   0       3.893  -0.651 -14.054  0.00  0.00     0.066 H 
ATOM     38  H   UNK d   0       4.830   0.329 -12.901  0.00  0.00     0.066 H 
ATOM     39  H   UNK d   0       4.805  -1.444 -12.748  0.00  0.00     0.066 H 
ENDBRANCH  35  36
ENDBRANCH  29  35
ENDBRANCH  10  25
TORSDOF 9
ENDMDL
MODEL 2
REMARK VINA RESULT:      -6.0      1.975      2.653
REMARK  7 active torsions:
REMARK  status: ('A' for Active; 'I' for Inactive)
REMARK    1  A    between atoms: CD1_1  and  CG1_2 
REMARK    2  A    between atoms: CG1_2  and  CB_3 
REMARK    3  A    between atoms: CB_3  and  CG2_5 
REMARK    4  A    between atoms: CB_3  and  CA_6 
REMARK       I    between atoms: CA_6  and  C_8 
REMARK       I    between atoms: CA_6  and  N_10 
REMARK       I    between atoms: N_10  and  C_11 
REMARK       I    between atoms: C_11  and  N_13 
REMARK    5  A    between atoms: N_13  and  C_14 
REMARK    6  A    between atoms: C_17  and  O_20 
REMARK    7  A    between atoms: O_20  and  C_21 
ROOT
ATOM      1  CA  ILE d   1       4.565  -0.526  -3.829  0.00  0.00     0.067 C 
ATOM      2  HA  ILE d   1       5.312  -1.167  -4.298  0.00  0.00     0.056 H 
ATOM      3  C   ILE d   1       3.448  -1.377  -3.280  0.00  0.00     0.062 C 
ATOM      4  O   ILE d   1       2.303  -1.002  -3.374  0.00  0.00    -0.548 OA
ATOM      5  N   ILE d   1       4.027   0.405  -4.823  0.00  0.00    -0.291 N 
ATOM      6  H   ILE d   1       3.782   1.306  -4.560  0.00  0.00     0.151 HD
ATOM      7  OXT ILE d   1       3.726  -2.549  -2.688  0.00  0.00    -0.548 OA
ATOM      8  C   UNK d   0       3.872   0.010  -6.102  0.00  0.00     0.304 C 
ATOM      9  O   UNK d   0       4.180  -1.119  -6.432  0.00  0.00    -0.253 OA
ATOM     10  N   UNK d   0       3.377   0.868  -7.016  0.00  0.00    -0.270 N 
ATOM     11  H   UNK d   0       3.205   1.791  -6.772  0.00  0.00     0.156 HD
ENDROOT
BRANCH   1  12
ATOM     12  CB  ILE d   1       5.213   0.262  -2.689  0.00  0.00    -0.020 C 
ATOM     13  HB  ILE d   1       5.640  -0.432  -1.964  0.00  0.00     0.032 H 
BRANCH  12  14
ATOM     14  CG1 ILE d   1       6.320   1.156  -3.252  0.00  0.00    -0.051 C 
ATOM     15 1HG1 ILE d   1       5.907   1.799  -4.030  0.00  0.00     0.027 H 
ATOM     16 2HG1 ILE d   1       6.732   1.771  -2.453  0.00  0.00     0.027 H 
BRANCH  14  17
ATOM     17  CD1 ILE d   1       7.427   0.284  -3.847  0.00  0.00    -0.065 C 
ATOM     18 1HD1 ILE d   1       8.339   0.406  -3.262  0.00  0.00     0.023 H 
ATOM     19 2HD1 ILE d   1       7.119  -0.761  -3.825  0.00  0.00     0.023 H 
ATOM     20 3HD1 ILE d   1       7.613   0.586  -4.878  0.00  0.00     0.023 H 
ENDBRANCH  14  17
ENDBRANCH  12  14
BRANCH  12  21
ATOM     21  CG2 ILE d   1       4.156   1.130  -2.004  0.00  0.00    -0.060 C 
ATOM     22 1HG2 ILE d   1       4.268   2.164  -2.329  0.00  0.00     0.023 H 
ATOM     23 2HG2 ILE d   1       3.163   0.769  -2.271  0.00  0.00     0.023 H 
ATOM     24 3HG2 ILE d   1       4.284   1.072  -0.923  0.00  0.00     0.023 H 
ENDBRANCH  12  21
ENDBRANCH   1  12
BRANCH  10  25
ATOM     25  C   UNK d   0       3.112   0.427  -8.320  0.00  0.00     0.035 A 
ATOM     26  C   UNK d   0       2.025  -0.399  -8.567  0.00  0.00    -0.037 A 
ATOM     27  C   UNK d   0       1.765  -0.833  -9.852  0.00  0.00    -0.018 A 
ATOM     28  H   UNK d   0       1.382  -0.703  -7.754  0.00  0.00     0.064 H 
ATOM     29  C   UNK d   0       2.590  -0.443 -10.896  0.00  0.00     0.120 A 
ATOM     30  H   UNK d   0       0.919  -1.476 -10.043  0.00  0.00     0.066 H 
ATOM     31  C   UNK d   0       3.677   0.384 -10.650  0.00  0.00    -0.018 A 
ATOM     32  C   UNK d   0       3.938   0.819  -9.366  0.00  0.00    -0.037 A 
ATOM     33  H   UNK d   0       4.319   0.688 -11.464  0.00  0.00     0.066 H 
ATOM     34  H   UNK d   0       4.787   1.458  -9.175  0.00  0.00     0.064 H 
BRANCH  29  35
ATOM     35  O   UNK d   0       2.333  -0.870 -12.161  0.00  0.00    -0.495 OA
BRANCH  35  36
ATOM     36  C   UNK d   0       1.256  -1.794 -12.328  0.00  0.00     0.079 C 
ATOM     37  H   UNK d   0       1.068  -2.307 -11.385  0.00  0.00     0.066 H 
ATOM     38  H   UNK d   0       0.359  -1.254 -12.634  0.00  0.00     0.066 H 
ATOM     39  H   UNK d   0       1.518  -2.524 -13.093  0.00  0.00     0.066 H 
ENDBRANCH  35  36
ENDBRANCH  29  35
ENDBRANCH  10  25
TORSDOF 9
ENDMDL
MODEL 3
REMARK VINA RESULT:      -5.1      2.157      3.045
REMARK  7 active torsions:
REMARK  status: ('A' for Active; 'I' for Inactive)
REMARK    1  A    between atoms: CD1_1  and  CG1_2 
REMARK    2  A    between atoms: CG1_2  and  CB_3 
REMARK    3  A    between atoms: CB_3  and  CG2_5 
REMARK    4  A    between atoms: CB_3  and  CA_6 
REMARK       I    between atoms: CA_6  and  C_8 
REMARK       I    between atoms: CA_6  and  N_10 
REMARK       I    between atoms: N_10  and  C_11 
REMARK       I    between atoms: C_11  and  N_13 
REMARK    5  A    between atoms: N_13  and  C_14 
REMARK    6  A    between atoms: C_17  and  O_20 
REMARK    7  A    between atoms: O_20  and  C_21 
ROOT
ATOM      1  CA  ILE d   1       4.487  -0.572  -4.339  0.00  0.00     0.067 C 
ATOM      2  HA  ILE d   1       4.341  -1.600  -4.671  0.00  0.00     0.056 H 
ATOM      3  C   ILE d   1       3.147   0.060  -4.061  0.00  0.00     0.062 C 
ATOM      4  O   ILE d   1       2.946   1.210  -4.371  0.00  0.00    -0.548 OA
ATOM      5  N   ILE d   1       5.176   0.186  -5.386  0.00  0.00    -0.291 N 
ATOM      6  H   ILE d   1       5.812   0.879  -5.145  0.00  0.00     0.151 HD
ATOM      7  OXT ILE d   1       2.178  -0.655  -3.468  0.00  0.00    -0.548 OA
ATOM      8  C   UNK d   0       4.926  -0.077  -6.684  0.00  0.00     0.304 C 
ATOM      9  O   UNK d   0       4.129  -0.945  -6.986  0.00  0.00    -0.253 OA
ATOM     10  N   UNK d   0       5.560   0.621  -7.647  0.00  0.00    -0.270 N 
ATOM     11  H   UNK d   0       6.252   1.258  -7.408  0.00  0.00     0.156 HD
ENDROOT
BRANCH   1  12
ATOM     12  CB  ILE d   1       5.330  -0.562  -3.063  0.00  0.00    -0.020 C 
ATOM     13  HB  ILE d   1       5.034  -1.395  -2.425  0.00  0.00     0.032 H 
BRANCH  12  14
ATOM     14  CG1 ILE d   1       6.809  -0.700  -3.428  0.00  0.00    -0.051 C 
ATOM     15 1HG1 ILE d   1       6.987  -0.243  -4.402  0.00  0.00     0.027 H 
ATOM     16 2HG1 ILE d   1       7.418  -0.201  -2.675  0.00  0.00     0.027 H 
BRANCH  14  17
ATOM     17  CD1 ILE d   1       7.185  -2.182  -3.486  0.00  0.00    -0.065 C 
ATOM     18 1HD1 ILE d   1       8.204  -2.284  -3.856  0.00  0.00     0.023 H 
ATOM     19 2HD1 ILE d   1       7.116  -2.614  -2.487  0.00  0.00     0.023 H 
ATOM     20 3HD1 ILE d   1       6.500  -2.705  -4.155  0.00  0.00     0.023 H 
ENDBRANCH  14  17
ENDBRANCH  12  14
BRANCH  12  21
ATOM     21  CG2 ILE d   1       5.111   0.755  -2.316  0.00  0.00    -0.060 C 
ATOM     22 1HG2 ILE d   1       5.820   0.829  -1.493  0.00  0.00     0.023 H 
ATOM     23 2HG2 ILE d   1       5.260   1.590  -3.001  0.00  0.00     0.023 H 
ATOM     24 3HG2 ILE d   1       4.094   0.785  -1.924  0.00  0.00     0.023 H 
ENDBRANCH  12  21
ENDBRANCH   1  12
BRANCH  10  25
ATOM     25  C   UNK d   0       5.222   0.425  -8.993  0.00  0.00     0.035 A 
ATOM     26  C   UNK d   0       5.825  -0.591  -9.721  0.00  0.00    -0.037 A 
ATOM     27  C   UNK d   0       5.491  -0.781 -11.048  0.00  0.00    -0.018 A 
ATOM     28  H   UNK d   0       6.556  -1.231  -9.251  0.00  0.00     0.064 H 
ATOM     29  C   UNK d   0       4.552   0.042 -11.651  0.00  0.00     0.120 A 
ATOM     30  H   UNK d   0       5.961  -1.572 -11.614  0.00  0.00     0.066 H 
ATOM     31  C   UNK d   0       3.948   1.057 -10.924  0.00  0.00    -0.018 A 
ATOM     32  C   UNK d   0       4.281   1.249  -9.598  0.00  0.00    -0.037 A 
ATOM     33  H   UNK d   0       3.217   1.698 -11.396  0.00  0.00     0.066 H 
ATOM     34  H   UNK d   0       3.814   2.043  -9.033  0.00  0.00     0.064 H 
BRANCH  29  35
ATOM     35  O   UNK d   0       4.223  -0.147 -12.958  0.00  0.00    -0.495 OA
BRANCH  35  36
ATOM     36  C   UNK d   0       3.432  -1.296 -13.269  0.00  0.00     0.079 C 
ATOM     37  H   UNK d   0       3.276  -1.348 -14.346  0.00  0.00     0.066 H 
ATOM     38  H   UNK d   0       3.950  -2.195 -12.932  0.00  0.00     0.066 H 
ATOM     39  H   UNK d   0       2.469  -1.221 -12.765  0.00  0.00     0.066 H 
ENDBRANCH  35  36
ENDBRANCH  29  35
ENDBRANCH  10  25
TORSDOF 9
ENDMDL
MODEL 4
REMARK VINA RESULT:      -5.1      4.581      7.688
REMARK  7 active torsions:
REMARK  status: ('A' for Active; 'I' for Inactive)
REMARK    1  A    between atoms: CD1_1  and  CG1_2 
REMARK    2  A    between atoms: CG1_2  and  CB_3 
REMARK    3  A    between atoms: CB_3  and  CG2_5 
REMARK    4  A    between atoms: CB_3  and  CA_6 
REMARK       I    between atoms: CA_6  and  C_8 
REMARK       I    between atoms: CA_6  and  N_10 
REMARK       I    between atoms: N_10  and  C_11 
REMARK       I    between atoms: C_11  and  N_13 
REMARK    5  A    between atoms: N_13  and  C_14 
REMARK    6  A    between atoms: C_17  and  O_20 
REMARK    7  A    between atoms: O_20  and  C_21 
ROOT
ATOM      1  CA  ILE d   1       5.953   0.178  -3.869  0.00  0.00     0.067 C 
ATOM      2  HA  ILE d   1       5.867   0.440  -4.923  0.00  0.00     0.056 H 
ATOM      3  C   ILE d   1       4.990   1.014  -3.065  0.00  0.00     0.062 C 
ATOM      4  O   ILE d   1       5.322   1.449  -1.988  0.00  0.00    -0.548 OA
ATOM      5  N   ILE d   1       7.320   0.434  -3.412  0.00  0.00    -0.291 N 
ATOM      6  H   ILE d   1       7.728  -0.148  -2.752  0.00  0.00     0.151 HD
ATOM      7  OXT ILE d   1       3.764   1.274  -3.545  0.00  0.00    -0.548 OA
ATOM      8  C   UNK d   0       8.013   1.478  -3.909  0.00  0.00     0.304 C 
ATOM      9  O   UNK d   0       7.503   2.208  -4.737  0.00  0.00    -0.253 OA
ATOM     10  N   UNK d   0       9.272   1.713  -3.488  0.00  0.00    -0.270 N 
ATOM     11  H   UNK d   0       9.707   1.088  -2.887  0.00  0.00     0.156 HD
ENDROOT
BRANCH   1  12
ATOM     12  CB  ILE d   1       5.621  -1.303  -3.682  0.00  0.00    -0.020 C 
ATOM     13  HB  ILE d   1       6.531  -1.896  -3.786  0.00  0.00     0.032 H 
BRANCH  12  14
ATOM     14  CG1 ILE d   1       5.027  -1.522  -2.290  0.00  0.00    -0.051 C 
ATOM     15 1HG1 ILE d   1       5.715  -2.120  -1.691  0.00  0.00     0.027 H 
ATOM     16 2HG1 ILE d   1       4.868  -0.558  -1.807  0.00  0.00     0.027 H 
BRANCH  14  17
ATOM     17  CD1 ILE d   1       3.691  -2.256  -2.414  0.00  0.00    -0.065 C 
ATOM     18 1HD1 ILE d   1       2.955  -1.784  -1.764  0.00  0.00     0.023 H 
ATOM     19 2HD1 ILE d   1       3.345  -2.210  -3.447  0.00  0.00     0.023 H 
ATOM     20 3HD1 ILE d   1       3.820  -3.298  -2.122  0.00  0.00     0.023 H 
ENDBRANCH  14  17
ENDBRANCH  12  14
BRANCH  12  21
ATOM     21  CG2 ILE d   1       4.607  -1.737  -4.743  0.00  0.00    -0.060 C 
ATOM     22 1HG2 ILE d   1       4.162  -0.855  -5.202  0.00  0.00     0.023 H 
ATOM     23 2HG2 ILE d   1       5.112  -2.329  -5.506  0.00  0.00     0.023 H 
ATOM     24 3HG2 ILE d   1       3.827  -2.337  -4.276  0.00  0.00     0.023 H 
ENDBRANCH  12  21
ENDBRANCH   1  12
BRANCH  10  25
ATOM     25  C   UNK d   0       9.953   2.860  -3.920  0.00  0.00     0.035 A 
ATOM     26  C   UNK d   0      10.773   2.802  -5.038  0.00  0.00    -0.037 A 
ATOM     27  C   UNK d   0      11.444   3.932  -5.461  0.00  0.00    -0.018 A 
ATOM     28  H   UNK d   0      10.887   1.872  -5.576  0.00  0.00     0.064 H 
ATOM     29  C   UNK d   0      11.297   5.125  -4.770  0.00  0.00     0.120 A 
ATOM     30  H   UNK d   0      12.082   3.886  -6.332  0.00  0.00     0.066 H 
ATOM     31  C   UNK d   0      10.477   5.184  -3.653  0.00  0.00    -0.018 A 
ATOM     32  C   UNK d   0       9.806   4.055  -3.228  0.00  0.00    -0.037 A 
ATOM     33  H   UNK d   0      10.364   6.114  -3.115  0.00  0.00     0.066 H 
ATOM     34  H   UNK d   0       9.172   4.100  -2.355  0.00  0.00     0.064 H 
BRANCH  29  35
ATOM     35  O   UNK d   0      11.959   6.238  -5.188  0.00  0.00    -0.495 OA
BRANCH  35  36
ATOM     36  C   UNK d   0      11.518   7.491  -4.661  0.00  0.00     0.079 C 
ATOM     37  H   UNK d   0      10.588   7.347  -4.113  0.00  0.00     0.066 H 
ATOM     38  H   UNK d   0      12.279   7.889  -3.989  0.00  0.00     0.066 H 
ATOM     39  H   UNK d   0      11.354   8.192  -5.479  0.00  0.00     0.066 H 
ENDBRANCH  35  36
ENDBRANCH  29  35
ENDBRANCH  10  25
TORSDOF 9
ENDMDL
MODEL 5
REMARK VINA RESULT:      -5.0      3.897      6.664
REMARK  7 active torsions:
REMARK  status: ('A' for Active; 'I' for Inactive)
REMARK    1  A    between atoms: CD1_1  and  CG1_2 
REMARK    2  A    between atoms: CG1_2  and  CB_3 
REMARK    3  A    between atoms: CB_3  and  CG2_5 
REMARK    4  A    between atoms: CB_3  and  CA_6 
REMARK       I    between atoms: CA_6  and  C_8 
REMARK       I    between atoms: CA_6  and  N_10 
REMARK       I    between atoms: N_10  and  C_11 
REMARK       I    between atoms: C_11  and  N_13 
REMARK    5  A    between atoms: N_13  and  C_14 
REMARK    6  A    between atoms: C_17  and  O_20 
REMARK    7  A    between atoms: O_20  and  C_21 
ROOT
ATOM      1  CA  ILE d   1       4.555  -0.732  -4.350  0.00  0.00     0.067 C 
ATOM      2  HA  ILE d   1       4.776  -0.963  -5.392  0.00  0.00     0.056 H 
ATOM      3  C   ILE d   1       3.561   0.399  -4.287  0.00  0.00     0.062 C 
ATOM      4  O   ILE d   1       3.677   1.258  -3.446  0.00  0.00    -0.548 OA
ATOM      5  N   ILE d   1       5.788  -0.336  -3.666  0.00  0.00    -0.291 N 
ATOM      6  H   ILE d   1       5.925  -0.575  -2.736  0.00  0.00     0.151 HD
ATOM      7  OXT ILE d   1       2.547   0.452  -5.166  0.00  0.00    -0.548 OA
ATOM      8  C   UNK d   0       6.733   0.360  -4.329  0.00  0.00     0.304 C 
ATOM      9  O   UNK d   0       6.562   0.660  -5.495  0.00  0.00    -0.253 OA
ATOM     10  N   UNK d   0       7.868   0.724  -3.699  0.00  0.00    -0.270 N 
ATOM     11  H   UNK d   0       8.039   0.419  -2.794  0.00  0.00     0.156 HD
ENDROOT
BRANCH   1  12
ATOM     12  CB  ILE d   1       3.967  -1.967  -3.667  0.00  0.00    -0.020 C 
ATOM     13  HB  ILE d   1       2.916  -2.068  -3.940  0.00  0.00     0.032 H 
BRANCH  12  14
ATOM     14  CG1 ILE d   1       4.732  -3.213  -4.117  0.00  0.00    -0.051 C 
ATOM     15 1HG1 ILE d   1       5.758  -3.160  -3.751  0.00  0.00     0.027 H 
ATOM     16 2HG1 ILE d   1       4.248  -4.102  -3.716  0.00  0.00     0.027 H 
BRANCH  14  17
ATOM     17  CD1 ILE d   1       4.740  -3.282  -5.645  0.00  0.00    -0.065 C 
ATOM     18 1HD1 ILE d   1       5.592  -3.875  -5.977  0.00  0.00     0.023 H 
ATOM     19 2HD1 ILE d   1       3.817  -3.747  -5.993  0.00  0.00     0.023 H 
ATOM     20 3HD1 ILE d   1       4.816  -2.275  -6.055  0.00  0.00     0.023 H 
ENDBRANCH  14  17
ENDBRANCH  12  14
BRANCH  12  21
ATOM     21  CG2 ILE d   1       4.086  -1.816  -2.149  0.00  0.00    -0.060 C 
ATOM     22 1HG2 ILE d   1       5.134  -1.690  -1.877  0.00  0.00     0.023 H 
ATOM     23 2HG2 ILE d   1       3.518  -0.944  -1.825  0.00  0.00     0.023 H 
ATOM     24 3HG2 ILE d   1       3.690  -2.707  -1.663  0.00  0.00     0.023 H 
ENDBRANCH  12  21
ENDBRANCH   1  12
BRANCH  10  25
ATOM     25  C   UNK d   0       8.801   1.541  -4.352  0.00  0.00     0.035 A 
ATOM     26  C   UNK d   0       9.871   0.972  -5.029  0.00  0.00    -0.037 A 
ATOM     27  C   UNK d   0      10.790   1.779  -5.670  0.00  0.00    -0.018 A 
ATOM     28  H   UNK d   0       9.985  -0.102  -5.052  0.00  0.00     0.064 H 
ATOM     29  C   UNK d   0      10.643   3.157  -5.640  0.00  0.00     0.120 A 
ATOM     30  H   UNK d   0      11.622   1.335  -6.197  0.00  0.00     0.066 H 
ATOM     31  C   UNK d   0       9.574   3.727  -4.964  0.00  0.00    -0.018 A 
ATOM     32  C   UNK d   0       8.654   2.922  -4.322  0.00  0.00    -0.037 A 
ATOM     33  H   UNK d   0       9.460   4.802  -4.941  0.00  0.00     0.066 H 
ATOM     34  H   UNK d   0       7.824   3.367  -3.792  0.00  0.00     0.064 H 
BRANCH  29  35
ATOM     35  O   UNK d   0      11.548   3.951  -6.272  0.00  0.00    -0.495 OA
BRANCH  35  36
ATOM     36  C   UNK d   0      11.366   5.364  -6.158  0.00  0.00     0.079 C 
ATOM     37  H   UNK d   0      11.923   5.867  -6.947  0.00  0.00     0.066 H 
ATOM     38  H   UNK d   0      10.306   5.602  -6.253  0.00  0.00     0.066 H 
ATOM     39  H   UNK d   0      11.728   5.699  -5.187  0.00  0.00     0.066 H 
ENDBRANCH  35  36
ENDBRANCH  29  35
ENDBRANCH  10  25
TORSDOF 9
ENDMDL
MODEL 6
REMARK VINA RESULT:      -5.0      3.603      7.028
REMARK  7 active torsions:
REMARK  status: ('A' for Active; 'I' for Inactive)
REMARK    1  A    between atoms: CD1_1  and  CG1_2 
REMARK    2  A    between atoms: CG1_2  and  CB_3 
REMARK    3  A    between atoms: CB_3  and  CG2_5 
REMARK    4  A    between atoms: CB_3  and  CA_6 
REMARK       I    between atoms: CA_6  and  C_8 
REMARK       I    between atoms: CA_6  and  N_10 
REMARK       I    between atoms: N_10  and  C_11 
REMARK       I    between atoms: C_11  and  N_13 
REMARK    5  A    between atoms: N_13  and  C_14 
REMARK    6  A    between atoms: C_17  and  O_20 
REMARK    7  A    between atoms: O_20  and  C_21 
ROOT
ATOM      1  CA  ILE d   1       4.832  -1.054  -4.374  0.00  0.00     0.067 C 
ATOM      2  HA  ILE d   1       5.294  -1.465  -3.476  0.00  0.00     0.056 H 
ATOM      3  C   ILE d   1       5.037  -2.007  -5.524  0.00  0.00     0.062 C 
ATOM      4  O   ILE d   1       5.286  -1.578  -6.626  0.00  0.00    -0.548 OA
ATOM      5  N   ILE d   1       5.448   0.236  -4.693  0.00  0.00    -0.291 N 
ATOM      6  H   ILE d   1       4.912   0.948  -5.076  0.00  0.00     0.151 HD
ATOM      7  OXT ILE d   1       4.943  -3.331  -5.324  0.00  0.00    -0.548 OA
ATOM      8  C   UNK d   0       6.760   0.434  -4.455  0.00  0.00     0.304 C 
ATOM      9  O   UNK d   0       7.432  -0.458  -3.975  0.00  0.00    -0.253 OA
ATOM     10  N   UNK d   0       7.326   1.621  -4.749  0.00  0.00    -0.270 N 
ATOM     11  H   UNK d   0       6.775   2.358  -5.059  0.00  0.00     0.156 HD
ENDROOT
BRANCH   1  12
ATOM     12  CB  ILE d   1       3.334  -0.859  -4.134  0.00  0.00    -0.020 C 
ATOM     13  HB  ILE d   1       2.771  -1.525  -4.789  0.00  0.00     0.032 H 
BRANCH  12  14
ATOM     14  CG1 ILE d   1       3.005  -1.180  -2.675  0.00  0.00    -0.051 C 
ATOM     15 1HG1 ILE d   1       2.605  -0.290  -2.189  0.00  0.00     0.027 H 
ATOM     16 2HG1 ILE d   1       2.266  -1.980  -2.637  0.00  0.00     0.027 H 
BRANCH  14  17
ATOM     17  CD1 ILE d   1       4.277  -1.627  -1.951  0.00  0.00    -0.065 C 
ATOM     18 1HD1 ILE d   1       4.717  -0.776  -1.432  0.00  0.00     0.023 H 
ATOM     19 2HD1 ILE d   1       4.030  -2.405  -1.229  0.00  0.00     0.023 H 
ATOM     20 3HD1 ILE d   1       4.990  -2.018  -2.677  0.00  0.00     0.023 H 
ENDBRANCH  14  17
ENDBRANCH  12  14
BRANCH  12  21
ATOM     21  CG2 ILE d   1       2.954   0.592  -4.434  0.00  0.00    -0.060 C 
ATOM     22 1HG2 ILE d   1       1.891   0.737  -4.244  0.00  0.00     0.023 H 
ATOM     23 2HG2 ILE d   1       3.532   1.259  -3.794  0.00  0.00     0.023 H 
ATOM     24 3HG2 ILE d   1       3.171   0.816  -5.479  0.00  0.00     0.023 H 
ENDBRANCH  12  21
ENDBRANCH   1  12
BRANCH  10  25
ATOM     25  C   UNK d   0       8.710   1.793  -4.606  0.00  0.00     0.035 A 
ATOM     26  C   UNK d   0       9.568   1.386  -5.618  0.00  0.00    -0.037 A 
ATOM     27  C   UNK d   0      10.932   1.555  -5.475  0.00  0.00    -0.018 A 
ATOM     28  H   UNK d   0       9.171   0.936  -6.516  0.00  0.00     0.064 H 
ATOM     29  C   UNK d   0      11.442   2.132  -4.322  0.00  0.00     0.120 A 
ATOM     30  H   UNK d   0      11.600   1.238  -6.263  0.00  0.00     0.066 H 
ATOM     31  C   UNK d   0      10.585   2.540  -3.311  0.00  0.00    -0.018 A 
ATOM     32  C   UNK d   0       9.221   2.372  -3.452  0.00  0.00    -0.037 A 
ATOM     33  H   UNK d   0      10.983   2.990  -2.413  0.00  0.00     0.066 H 
ATOM     34  H   UNK d   0       8.554   2.684  -2.662  0.00  0.00     0.064 H 
BRANCH  29  35
ATOM     35  O   UNK d   0      12.785   2.299  -4.183  0.00  0.00    -0.495 OA
BRANCH  35  36
ATOM     36  C   UNK d   0      13.233   3.546  -3.649  0.00  0.00     0.079 C 
ATOM     37  H   UNK d   0      13.044   4.340  -4.372  0.00  0.00     0.066 H 
ATOM     38  H   UNK d   0      12.693   3.760  -2.726  0.00  0.00     0.066 H 
ATOM     39  H   UNK d   0      14.300   3.490  -3.441  0.00  0.00     0.066 H 
ENDBRANCH  35  36
ENDBRANCH  29  35
ENDBRANCH  10  25
TORSDOF 9
ENDMDL
MODEL 7
REMARK VINA RESULT:      -4.9      3.876      7.564
REMARK  7 active torsions:
REMARK  status: ('A' for Active; 'I' for Inactive)
REMARK    1  A    between atoms: CD1_1  and  CG1_2 
REMARK    2  A    between atoms: CG1_2  and  CB_3 
REMARK    3  A    between atoms: CB_3  and  CG2_5 
REMARK    4  A    between atoms: CB_3  and  CA_6 
REMARK       I    between atoms: CA_6  and  C_8 
REMARK       I    between atoms: CA_6  and  N_10 
REMARK       I    between atoms: N_10  and  C_11 
REMARK       I    between atoms: C_11  and  N_13 
REMARK    5  A    between atoms: N_13  and  C_14 
REMARK    6  A    between atoms: C_17  and  O_20 
REMARK    7  A    between atoms: O_20  and  C_21 
ROOT
ATOM      1  CA  ILE d   1       4.856  -0.177  -3.940  0.00  0.00     0.067 C 
ATOM      2  HA  ILE d   1       4.414   0.692  -3.453  0.00  0.00     0.056 H 
ATOM      3  C   ILE d   1       5.264  -1.183  -2.895  0.00  0.00     0.062 C 
ATOM      4  O   ILE d   1       6.298  -1.797  -3.019  0.00  0.00    -0.548 OA
ATOM      5  N   ILE d   1       6.034   0.239  -4.704  0.00  0.00    -0.291 N 
ATOM      6  H   ILE d   1       6.248  -0.200  -5.543  0.00  0.00     0.151 HD
ATOM      7  OXT ILE d   1       4.479  -1.399  -1.828  0.00  0.00    -0.548 OA
ATOM      8  C   UNK d   0       6.823   1.230  -4.242  0.00  0.00     0.304 C 
ATOM      9  O   UNK d   0       6.555   1.780  -3.191  0.00  0.00    -0.253 OA
ATOM     10  N   UNK d   0       7.906   1.612  -4.946  0.00  0.00    -0.270 N 
ATOM     11  H   UNK d   0       8.077   1.228  -5.821  0.00  0.00     0.156 HD
ENDROOT
BRANCH   1  12
ATOM     12  CB  ILE d   1       3.832  -0.808  -4.885  0.00  0.00    -0.020 C 
ATOM     13  HB  ILE d   1       3.277  -1.583  -4.354  0.00  0.00     0.032 H 
BRANCH  12  14
ATOM     14  CG1 ILE d   1       2.862   0.267  -5.377  0.00  0.00    -0.051 C 
ATOM     15 1HG1 ILE d   1       1.854   0.032  -5.032  0.00  0.00     0.027 H 
ATOM     16 2HG1 ILE d   1       3.164   1.237  -4.985  0.00  0.00     0.027 H 
BRANCH  14  17
ATOM     17  CD1 ILE d   1       2.879   0.308  -6.907  0.00  0.00    -0.065 C 
ATOM     18 1HD1 ILE d   1       1.988   0.822  -7.267  0.00  0.00     0.023 H 
ATOM     19 2HD1 ILE d   1       3.767   0.841  -7.246  0.00  0.00     0.023 H 
ATOM     20 3HD1 ILE d   1       2.895  -0.710  -7.297  0.00  0.00     0.023 H 
ENDBRANCH  14  17
ENDBRANCH  12  14
BRANCH  12  21
ATOM     21  CG2 ILE d   1       4.556  -1.428  -6.081  0.00  0.00    -0.060 C 
ATOM     22 1HG2 ILE d   1       5.448  -0.845  -6.309  0.00  0.00     0.023 H 
ATOM     23 2HG2 ILE d   1       4.842  -2.453  -5.841  0.00  0.00     0.023 H 
ATOM     24 3HG2 ILE d   1       3.893  -1.431  -6.946  0.00  0.00     0.023 H 
ENDBRANCH  12  21
ENDBRANCH   1  12
BRANCH  10  25
ATOM     25  C   UNK d   0       8.788   2.564  -4.415  0.00  0.00     0.035 A 
ATOM     26  C   UNK d   0       9.676   2.205  -3.411  0.00  0.00    -0.037 A 
ATOM     27  C   UNK d   0      10.543   3.144  -2.889  0.00  0.00    -0.018 A 
ATOM     28  H   UNK d   0       9.689   1.191  -3.038  0.00  0.00     0.064 H 
ATOM     29  C   UNK d   0      10.527   4.445  -3.367  0.00  0.00     0.120 A 
ATOM     30  H   UNK d   0      11.235   2.864  -2.107  0.00  0.00     0.066 H 
ATOM     31  C   UNK d   0       9.640   4.805  -4.371  0.00  0.00    -0.018 A 
ATOM     32  C   UNK d   0       8.772   3.867  -4.895  0.00  0.00    -0.037 A 
ATOM     33  H   UNK d   0       9.627   5.819  -4.744  0.00  0.00     0.066 H 
ATOM     34  H   UNK d   0       8.078   4.149  -5.673  0.00  0.00     0.064 H 
BRANCH  29  35
ATOM     35  O   UNK d   0      11.382   5.370  -2.852  0.00  0.00    -0.495 OA
BRANCH  35  36
ATOM     36  C   UNK d   0      11.520   5.405  -1.430  0.00  0.00     0.079 C 
ATOM     37  H   UNK d   0      12.549   5.655  -1.172  0.00  0.00     0.066 H 
ATOM     38  H   UNK d   0      10.848   6.159  -1.019  0.00  0.00     0.066 H 
ATOM     39  H   UNK d   0      11.267   4.430  -1.016  0.00  0.00     0.066 H 
ENDBRANCH  35  36
ENDBRANCH  29  35
ENDBRANCH  10  25
TORSDOF 9
ENDMDL
MODEL 8
REMARK VINA RESULT:      -4.7     12.103     14.393
REMARK  7 active torsions:
REMARK  status: ('A' for Active; 'I' for Inactive)
REMARK    1  A    between atoms: CD1_1  and  CG1_2 
REMARK    2  A    between atoms: CG1_2  and  CB_3 
REMARK    3  A    between atoms: CB_3  and  CG2_5 
REMARK    4  A    between atoms: CB_3  and  CA_6 
REMARK       I    between atoms: CA_6  and  C_8 
REMARK       I    between atoms: CA_6  and  N_10 
REMARK       I    between atoms: N_10  and  C_11 
REMARK       I    between atoms: C_11  and  N_13 
REMARK    5  A    between atoms: N_13  and  C_14 
REMARK    6  A    between atoms: C_17  and  O_20 
REMARK    7  A    between atoms: O_20  and  C_21 
ROOT
ATOM      1  CA  ILE d   1      -4.659   4.052 -14.259  0.00  0.00     0.067 C 
ATOM      2  HA  ILE d   1      -4.150   3.760 -15.178  0.00  0.00     0.056 H 
ATOM      3  C   ILE d   1      -6.079   4.447 -14.576  0.00  0.00     0.062 C 
ATOM      4  O   ILE d   1      -6.583   5.388 -14.011  0.00  0.00    -0.548 OA
ATOM      5  N   ILE d   1      -3.960   5.186 -13.653  0.00  0.00    -0.291 N 
ATOM      6  H   ILE d   1      -3.909   5.265 -12.687  0.00  0.00     0.151 HD
ATOM      7  OXT ILE d   1      -6.782   3.754 -15.486  0.00  0.00    -0.548 OA
ATOM      8  C   UNK d   0      -3.388   6.122 -14.436  0.00  0.00     0.304 C 
ATOM      9  O   UNK d   0      -3.452   6.025 -15.646  0.00  0.00    -0.253 OA
ATOM     10  N   UNK d   0      -2.744   7.166 -13.877  0.00  0.00    -0.270 N 
ATOM     11  H   UNK d   0      -2.626   7.205 -12.915  0.00  0.00     0.156 HD
ENDROOT
BRANCH   1  12
ATOM     12  CB  ILE d   1      -4.664   2.874 -13.283  0.00  0.00    -0.020 C 
ATOM     13  HB  ILE d   1      -5.386   2.128 -13.616  0.00  0.00     0.032 H 
BRANCH  12  14
ATOM     14  CG1 ILE d   1      -3.269   2.247 -13.234  0.00  0.00    -0.051 C 
ATOM     15 1HG1 ILE d   1      -2.566   2.958 -12.799  0.00  0.00     0.027 H 
ATOM     16 2HG1 ILE d   1      -3.298   1.344 -12.624  0.00  0.00     0.027 H 
BRANCH  14  17
ATOM     17  CD1 ILE d   1      -2.820   1.890 -14.652  0.00  0.00    -0.065 C 
ATOM     18 1HD1 ILE d   1      -2.478   0.855 -14.675  0.00  0.00     0.023 H 
ATOM     19 2HD1 ILE d   1      -3.657   2.011 -15.340  0.00  0.00     0.023 H 
ATOM     20 3HD1 ILE d   1      -2.005   2.549 -14.952  0.00  0.00     0.023 H 
ENDBRANCH  14  17
ENDBRANCH  12  14
BRANCH  12  21
ATOM     21  CG2 ILE d   1      -5.049   3.369 -11.888  0.00  0.00    -0.060 C 
ATOM     22 1HG2 ILE d   1      -4.659   2.683 -11.137  0.00  0.00     0.023 H 
ATOM     23 2HG2 ILE d   1      -4.629   4.362 -11.727  0.00  0.00     0.023 H 
ATOM     24 3HG2 ILE d   1      -6.135   3.418 -11.806  0.00  0.00     0.023 H 
ENDBRANCH  12  21
ENDBRANCH   1  12
BRANCH  10  25
ATOM     25  C   UNK d   0      -2.245   8.197 -14.686  0.00  0.00     0.035 A 
ATOM     26  C   UNK d   0      -0.914   8.190 -15.078  0.00  0.00    -0.037 A 
ATOM     27  C   UNK d   0      -0.424   9.206 -15.874  0.00  0.00    -0.018 A 
ATOM     28  H   UNK d   0      -0.262   7.390 -14.760  0.00  0.00     0.064 H 
ATOM     29  C   UNK d   0      -1.262  10.233 -16.282  0.00  0.00     0.120 A 
ATOM     30  H   UNK d   0       0.612   9.200 -16.179  0.00  0.00     0.066 H 
ATOM     31  C   UNK d   0      -2.592  10.241 -15.891  0.00  0.00    -0.018 A 
ATOM     32  C   UNK d   0      -3.084   9.225 -15.095  0.00  0.00    -0.037 A 
ATOM     33  H   UNK d   0      -3.244  11.041 -16.209  0.00  0.00     0.066 H 
ATOM     34  H   UNK d   0      -4.119   9.234 -14.786  0.00  0.00     0.064 H 
BRANCH  29  35
ATOM     35  O   UNK d   0      -0.778  11.233 -17.067  0.00  0.00    -0.495 OA
BRANCH  35  36
ATOM     36  C   UNK d   0       0.532  11.719 -16.765  0.00  0.00     0.079 C 
ATOM     37  H   UNK d   0       1.061  11.938 -17.693  0.00  0.00     0.066 H 
ATOM     38  H   UNK d   0       0.453  12.629 -16.169  0.00  0.00     0.066 H 
ATOM     39  H   UNK d   0       1.080  10.964 -16.203  0.00  0.00     0.066 H 
ENDBRANCH  35  36
ENDBRANCH  29  35
ENDBRANCH  10  25
TORSDOF 9
ENDMDL
MODEL 9
REMARK VINA RESULT:      -4.7      4.363      6.479
REMARK  7 active torsions:
REMARK  status: ('A' for Active; 'I' for Inactive)
REMARK    1  A    between atoms: CD1_1  and  CG1_2 
REMARK    2  A    between atoms: CG1_2  and  CB_3 
REMARK    3  A    between atoms: CB_3  and  CG2_5 
REMARK    4  A    between atoms: CB_3  and  CA_6 
REMARK       I    between atoms: CA_6  and  C_8 
REMARK       I    between atoms: CA_6  and  N_10 
REMARK       I    between atoms: N_10  and  C_11 
REMARK       I    between atoms: C_11  and  N_13 
REMARK    5  A    between atoms: N_13  and  C_14 
REMARK    6  A    between atoms: C_17  and  O_20 
REMARK    7  A    between atoms: O_20  and  C_21 
ROOT
ATOM      1  CA  ILE d   1       5.761  -0.890  -3.095  0.00  0.00     0.067 C 
ATOM      2  HA  ILE d   1       6.652  -1.210  -2.554  0.00  0.00     0.056 H 
ATOM      3  C   ILE d   1       5.570  -1.763  -4.308  0.00  0.00     0.062 C 
ATOM      4  O   ILE d   1       5.197  -1.276  -5.349  0.00  0.00    -0.548 OA
ATOM      5  N   ILE d   1       5.921   0.504  -3.516  0.00  0.00    -0.291 N 
ATOM      6  H   ILE d   1       5.153   1.096  -3.534  0.00  0.00     0.151 HD
ATOM      7  OXT ILE d   1       5.812  -3.081  -4.231  0.00  0.00    -0.548 OA
ATOM      8  C   UNK d   0       7.135   0.963  -3.879  0.00  0.00     0.304 C 
ATOM      9  O   UNK d   0       8.098   0.221  -3.856  0.00  0.00    -0.253 OA
ATOM     10  N   UNK d   0       7.281   2.246  -4.267  0.00  0.00    -0.270 N 
ATOM     11  H   UNK d   0       6.531   2.858  -4.211  0.00  0.00     0.156 HD
ENDROOT
BRANCH   1  12
ATOM     12  CB  ILE d   1       4.540  -1.010  -2.181  0.00  0.00    -0.020 C 
ATOM     13  HB  ILE d   1       4.855  -0.935  -1.140  0.00  0.00     0.032 H 
BRANCH  12  14
ATOM     14  CG1 ILE d   1       3.554   0.117  -2.497  0.00  0.00    -0.051 C 
ATOM     15 1HG1 ILE d   1       3.197   0.558  -1.566  0.00  0.00     0.027 H 
ATOM     16 2HG1 ILE d   1       4.053   0.880  -3.094  0.00  0.00     0.027 H 
BRANCH  14  17
ATOM     17  CD1 ILE d   1       2.368  -0.448  -3.282  0.00  0.00    -0.065 C 
ATOM     18 1HD1 ILE d   1       1.968  -1.317  -2.760  0.00  0.00     0.023 H 
ATOM     19 2HD1 ILE d   1       1.592   0.313  -3.366  0.00  0.00     0.023 H 
ATOM     20 3HD1 ILE d   1       2.698  -0.741  -4.278  0.00  0.00     0.023 H 
ENDBRANCH  14  17
ENDBRANCH  12  14
BRANCH  12  21
ATOM     21  CG2 ILE d   1       3.861  -2.361  -2.413  0.00  0.00    -0.060 C 
ATOM     22 1HG2 ILE d   1       4.085  -2.713  -3.419  0.00  0.00     0.023 H 
ATOM     23 2HG2 ILE d   1       4.231  -3.082  -1.684  0.00  0.00     0.023 H 
ATOM     24 3HG2 ILE d   1       2.783  -2.250  -2.298  0.00  0.00     0.023 H 
ENDBRANCH  12  21
ENDBRANCH   1  12
BRANCH  10  25
ATOM     25  C   UNK d   0       8.518   2.696  -4.749  0.00  0.00     0.035 A 
ATOM     26  C   UNK d   0       9.411   3.325  -3.893  0.00  0.00    -0.037 A 
ATOM     27  C   UNK d   0      10.629   3.769  -4.370  0.00  0.00    -0.018 A 
ATOM     28  H   UNK d   0       9.153   3.470  -2.854  0.00  0.00     0.064 H 
ATOM     29  C   UNK d   0      10.960   3.584  -5.704  0.00  0.00     0.120 A 
ATOM     30  H   UNK d   0      11.323   4.259  -3.703  0.00  0.00     0.066 H 
ATOM     31  C   UNK d   0      10.069   2.954  -6.560  0.00  0.00    -0.018 A 
ATOM     32  C   UNK d   0       8.851   2.510  -6.084  0.00  0.00    -0.037 A 
ATOM     33  H   UNK d   0      10.328   2.810  -7.599  0.00  0.00     0.066 H 
ATOM     34  H   UNK d   0       8.155   2.024  -6.753  0.00  0.00     0.064 H 
BRANCH  29  35
ATOM     35  O   UNK d   0      12.160   4.020  -6.173  0.00  0.00    -0.495 OA
BRANCH  35  36
ATOM     36  C   UNK d   0      12.329   4.057  -7.591  0.00  0.00     0.079 C 
ATOM     37  H   UNK d   0      13.163   4.713  -7.841  0.00  0.00     0.066 H 
ATOM     38  H   UNK d   0      12.535   3.051  -7.958  0.00  0.00     0.066 H 
ATOM     39  H   UNK d   0      11.418   4.434  -8.056  0.00  0.00     0.066 H 
ENDBRANCH  35  36
ENDBRANCH  29  35
ENDBRANCH  10  25
TORSDOF 9
ENDMDL
MODEL 10
REMARK VINA RESULT:      -4.7      4.732      6.690
REMARK  7 active torsions:
REMARK  status: ('A' for Active; 'I' for Inactive)
REMARK    1  A    between atoms: CD1_1  and  CG1_2 
REMARK    2  A    between atoms: CG1_2  and  CB_3 
REMARK    3  A    between atoms: CB_3  and  CG2_5 
REMARK    4  A    between atoms: CB_3  and  CA_6 
REMARK       I    between atoms: CA_6  and  C_8 
REMARK       I    between atoms: CA_6  and  N_10 
REMARK       I    between atoms: N_10  and  C_11 
REMARK       I    between atoms: C_11  and  N_13 
REMARK    5  A    between atoms: N_13  and  C_14 
REMARK    6  A    between atoms: C_17  and  O_20 
REMARK    7  A    between atoms: O_20  and  C_21 
ROOT
ATOM      1  CA  ILE d   1       9.107   3.660  -5.002  0.00  0.00     0.067 C 
ATOM      2  HA  ILE d   1       8.097   3.948  -5.295  0.00  0.00     0.056 H 
ATOM      3  C   ILE d   1       9.895   3.277  -6.228  0.00  0.00     0.062 C 
ATOM      4  O   ILE d   1      10.656   2.339  -6.188  0.00  0.00    -0.548 OA
ATOM      5  N   ILE d   1       9.042   2.518  -4.087  0.00  0.00    -0.291 N 
ATOM      6  H   ILE d   1       9.686   2.438  -3.365  0.00  0.00     0.151 HD
ATOM      7  OXT ILE d   1       9.751   3.978  -7.364  0.00  0.00    -0.548 OA
ATOM      8  C   UNK d   0       8.090   1.578  -4.248  0.00  0.00     0.304 C 
ATOM      9  O   UNK d   0       7.283   1.678  -5.152  0.00  0.00    -0.253 OA
ATOM     10  N   UNK d   0       8.031   0.528  -3.405  0.00  0.00    -0.270 N 
ATOM     11  H   UNK d   0       8.624   0.487  -2.638  0.00  0.00     0.156 HD
ENDROOT
BRANCH   1  12
ATOM     12  CB  ILE d   1       9.790   4.836  -4.302  0.00  0.00    -0.020 C 
ATOM     13  HB  ILE d   1      10.772   5.003  -4.747  0.00  0.00     0.032 H 
BRANCH  12  14
ATOM     14  CG1 ILE d   1       8.935   6.094  -4.466  0.00  0.00    -0.051 C 
ATOM     15 1HG1 ILE d   1       7.934   5.812  -4.791  0.00  0.00     0.027 H 
ATOM     16 2HG1 ILE d   1       8.875   6.619  -3.513  0.00  0.00     0.027 H 
BRANCH  14  17
ATOM     17  CD1 ILE d   1       9.571   7.011  -5.513  0.00  0.00    -0.065 C 
ATOM     18 1HD1 ILE d   1       8.982   6.980  -6.429  0.00  0.00     0.023 H 
ATOM     19 2HD1 ILE d   1       9.599   8.032  -5.133  0.00  0.00     0.023 H 
ATOM     20 3HD1 ILE d   1      10.587   6.674  -5.722  0.00  0.00     0.023 H 
ENDBRANCH  14  17
ENDBRANCH  12  14
BRANCH  12  21
ATOM     21  CG2 ILE d   1       9.953   4.520  -2.814  0.00  0.00    -0.060 C 
ATOM     22 1HG2 ILE d   1       9.228   3.761  -2.522  0.00  0.00     0.023 H 
ATOM     23 2HG2 ILE d   1      10.962   4.150  -2.630  0.00  0.00     0.023 H 
ATOM     24 3HG2 ILE d   1       9.786   5.425  -2.230  0.00  0.00     0.023 H 
ENDBRANCH  12  21
ENDBRANCH   1  12
BRANCH  10  25
ATOM     25  C   UNK d   0       7.113  -0.506  -3.637  0.00  0.00     0.035 A 
ATOM     26  C   UNK d   0       7.452  -1.563  -4.471  0.00  0.00    -0.037 A 
ATOM     27  C   UNK d   0       6.546  -2.580  -4.698  0.00  0.00    -0.018 A 
ATOM     28  H   UNK d   0       8.423  -1.588  -4.942  0.00  0.00     0.064 H 
ATOM     29  C   UNK d   0       5.299  -2.547  -4.093  0.00  0.00     0.120 A 
ATOM     30  H   UNK d   0       6.810  -3.402  -5.347  0.00  0.00     0.066 H 
ATOM     31  C   UNK d   0       4.960  -1.492  -3.258  0.00  0.00    -0.018 A 
ATOM     32  C   UNK d   0       5.864  -0.474  -3.030  0.00  0.00    -0.037 A 
ATOM     33  H   UNK d   0       3.988  -1.466  -2.787  0.00  0.00     0.066 H 
ATOM     34  H   UNK d   0       5.598   0.351  -2.384  0.00  0.00     0.064 H 
BRANCH  29  35
ATOM     35  O   UNK d   0       4.408  -3.549  -4.317  0.00  0.00    -0.495 OA
BRANCH  35  36
ATOM     36  C   UNK d   0       4.774  -4.540  -5.279  0.00  0.00     0.079 C 
ATOM     37  H   UNK d   0       5.055  -4.054  -6.213  0.00  0.00     0.066 H 
ATOM     38  H   UNK d   0       5.618  -5.118  -4.902  0.00  0.00     0.066 H 
ATOM     39  H   UNK d   0       3.929  -5.205  -5.456  0.00  0.00     0.066 H 
ENDBRANCH  35  36
ENDBRANCH  29  35
ENDBRANCH  10  25
TORSDOF 9
ENDMDL
