MODEL 1
REMARK VINA RESULT:      -6.5      0.000      0.000
REMARK  10 active torsions:
REMARK  status: ('A' for Active; 'I' for Inactive)
REMARK    1  A    between atoms: C_1  and  O_2 
REMARK    2  A    between atoms: O_2  and  C_3 
REMARK    3  A    between atoms: C_3  and  C_4 
REMARK       I    between atoms: N_9  and  C_10 
REMARK    4  A    between atoms: C_10  and  C_12 
REMARK    5  A    between atoms: C_12  and  C_13 
REMARK    6  A    between atoms: C_15  and  O_34 
REMARK    7  A    between atoms: C_17  and  O_33 
REMARK    8  A    between atoms: C_19  and  C_22 
REMARK    9  A    between atoms: C_22  and  N_23 
REMARK       I    between atoms: N_23  and  C_24 
REMARK   10  A    between atoms: C_24  and  C_26 
ROOT
ATOM      1  C   LIG d   1       5.943   0.725  -8.787  0.00  0.00     0.096 C 
ATOM      2  H   LIG d   1       6.165   1.763  -9.037  0.00  0.00     0.063 H 
ATOM      3  C   LIG d   1       5.324   0.001 -10.003  0.00  0.00     0.110 C 
ATOM      4  H   LIG d   1       5.627  -1.046 -10.019  0.00  0.00     0.065 H 
ATOM      5  C   LIG d   1       3.800   0.120  -9.774  0.00  0.00     0.111 C 
ATOM      6  H   LIG d   1       3.350  -0.869  -9.677  0.00  0.00     0.065 H 
ATOM      7  C   LIG d   1       3.680   0.901  -8.447  0.00  0.00     0.103 C 
ATOM      8  H   LIG d   1       3.553   1.966  -8.645  0.00  0.00     0.064 H 
ATOM      9  O   LIG d   1       4.928   0.660  -7.762  0.00  0.00    -0.366 OA
ENDROOT
BRANCH   1  10
ATOM     10  C   LIG d   1       7.212   0.004  -8.328  0.00  0.00     0.053 C 
ATOM     11  H   LIG d   1       7.749  -0.376  -9.198  0.00  0.00     0.038 H 
ATOM     12  H   LIG d   1       7.849   0.701  -7.784  0.00  0.00     0.038 H 
BRANCH  10  13
ATOM     13  C   LIG d   1       6.839  -1.145  -7.428  0.00  0.00     0.218 C 
ATOM     14  N   LIG d   1       7.100  -1.079  -6.106  0.00  0.00    -0.296 N 
ATOM     15  C   LIG d   1       6.790  -2.123  -5.119  0.00  0.00     0.049 C 
ATOM     16  C   LIG d   1       7.748   0.050  -5.415  0.00  0.00     0.015 C 
ATOM     17  H   LIG d   1       5.718  -2.318  -5.110  0.00  0.00     0.052 H 
ATOM     18  C   LIG d   1       7.243  -1.598  -3.740  0.00  0.00    -0.031 C 
ATOM     19  C   LIG d   1       7.266  -0.060  -3.944  0.00  0.00    -0.035 C 
ATOM     20  H   LIG d   1       6.526  -1.874  -2.967  0.00  0.00     0.028 H 
ATOM     21  H   LIG d   1       8.239  -1.970  -3.495  0.00  0.00     0.028 H 
ATOM     22  H   LIG d   1       6.269   0.364  -3.824  0.00  0.00     0.028 H 
ATOM     23  H   LIG d   1       7.975   0.413  -3.265  0.00  0.00     0.028 H 
ATOM     24  H   LIG d   1       8.833  -0.046  -5.468  0.00  0.00     0.046 H 
ATOM     25  H   LIG d   1       7.427   0.996  -5.849  0.00  0.00     0.046 H 
ATOM     26  O   LIG d   1       6.304  -2.129  -7.892  0.00  0.00    -0.276 OA
BRANCH  15  27
ATOM     27  C   LIG d   1       7.550  -3.407  -5.463  0.00  0.00     0.066 C 
ATOM     28  H   LIG d   1       8.016  -3.301  -6.442  0.00  0.00     0.058 H 
ATOM     29  H   LIG d   1       8.318  -3.586  -4.711  0.00  0.00     0.058 H 
BRANCH  27  30
ATOM     30  O   LIG d   1       6.638  -4.507  -5.486  0.00  0.00    -0.381 OA
BRANCH  30  31
ATOM     31  C   LIG d   1       5.282  -4.143  -5.219  0.00  0.00     0.036 C 
ATOM     32  H   LIG d   1       5.078  -3.164  -5.650  0.00  0.00     0.052 H 
ATOM     33  H   LIG d   1       4.615  -4.882  -5.662  0.00  0.00     0.052 H 
ATOM     34  H   LIG d   1       5.121  -4.107  -4.142  0.00  0.00     0.052 H 
ENDBRANCH  30  31
ENDBRANCH  27  30
ENDBRANCH  15  27
ENDBRANCH  10  13
ENDBRANCH   1  10
BRANCH   3  35
ATOM     35  O   LIG d   1       5.699   0.648 -11.220  0.00  0.00    -0.387 OA
ATOM     36  H   LIG d   1       6.129   0.065 -11.860  0.00  0.00     0.210 HD
ENDBRANCH   3  35
BRANCH   7  37
ATOM     37  C   LIG d   1       2.507   0.370  -7.620  0.00  0.00     0.041 C 
ATOM     38  H   LIG d   1       2.019  -0.442  -8.161  0.00  0.00     0.049 H 
ATOM     39  H   LIG d   1       1.791   1.173  -7.447  0.00  0.00     0.049 H 
BRANCH  37  40
ATOM     40  N   LIG d   1       3.003  -0.129  -6.335  0.00  0.00    -0.309 N 
ATOM     41  C   LIG d   1       2.909   0.641  -5.232  0.00  0.00     0.244 C 
ATOM     42  O   LIG d   1       2.414   1.748  -5.304  0.00  0.00    -0.270 OA
ATOM     43  H   LIG d   1       3.398  -1.013  -6.277  0.00  0.00     0.149 HD
BRANCH  41  44
ATOM     44  C   LIG d   1       3.410   0.138  -3.935  0.00  0.00     0.039 A 
ATOM     45  C   LIG d   1       3.346  -1.224  -3.640  0.00  0.00    -0.014 A 
ATOM     46  C   LIG d   1       3.817  -1.687  -2.426  0.00  0.00     0.124 A 
ATOM     47  H   LIG d   1       2.934  -1.915  -4.360  0.00  0.00     0.065 H 
ATOM     48  C   LIG d   1       4.351  -0.801  -1.504  0.00  0.00    -0.026 A 
ATOM     49  F   LIG d   1       3.757  -3.006  -2.137  0.00  0.00    -0.205 F 
ATOM     50  C   LIG d   1       4.417   0.550  -1.793  0.00  0.00    -0.058 A 
ATOM     51  H   LIG d   1       4.718  -1.168  -0.557  0.00  0.00     0.065 H 
ATOM     52  C   LIG d   1       3.950   1.024  -3.001  0.00  0.00    -0.050 A 
ATOM     53  H   LIG d   1       4.834   1.235  -1.071  0.00  0.00     0.062 H 
ATOM     54  H   LIG d   1       4.003   2.080  -3.224  0.00  0.00     0.062 H 
ENDBRANCH  41  44
ENDBRANCH  37  40
ENDBRANCH   7  37
BRANCH   5  55
ATOM     55  O   LIG d   1       3.188   0.846 -10.842  0.00  0.00    -0.387 OA
ATOM     56  H   LIG d   1       3.692   1.619 -11.131  0.00  0.00     0.210 HD
ENDBRANCH   5  55
TORSDOF 10
ENDMDL
MODEL 2
REMARK VINA RESULT:      -6.5      1.584      2.448
REMARK  10 active torsions:
REMARK  status: ('A' for Active; 'I' for Inactive)
REMARK    1  A    between atoms: C_1  and  O_2 
REMARK    2  A    between atoms: O_2  and  C_3 
REMARK    3  A    between atoms: C_3  and  C_4 
REMARK       I    between atoms: N_9  and  C_10 
REMARK    4  A    between atoms: C_10  and  C_12 
REMARK    5  A    between atoms: C_12  and  C_13 
REMARK    6  A    between atoms: C_15  and  O_34 
REMARK    7  A    between atoms: C_17  and  O_33 
REMARK    8  A    between atoms: C_19  and  C_22 
REMARK    9  A    between atoms: C_22  and  N_23 
REMARK       I    between atoms: N_23  and  C_24 
REMARK   10  A    between atoms: C_24  and  C_26 
ROOT
ATOM      1  C   LIG d   1       5.439  -1.459  -9.202  0.00  0.00     0.096 C 
ATOM      2  H   LIG d   1       5.848  -0.833  -9.996  0.00  0.00     0.063 H 
ATOM      3  C   LIG d   1       4.338  -2.386  -9.763  0.00  0.00     0.110 C 
ATOM      4  H   LIG d   1       4.337  -3.340  -9.236  0.00  0.00     0.065 H 
ATOM      5  C   LIG d   1       3.026  -1.616  -9.490  0.00  0.00     0.111 C 
ATOM      6  H   LIG d   1       2.376  -2.190  -8.828  0.00  0.00     0.065 H 
ATOM      7  C   LIG d   1       3.490  -0.316  -8.797  0.00  0.00     0.103 C 
ATOM      8  H   LIG d   1       3.599   0.485  -9.529  0.00  0.00     0.064 H 
ATOM      9  O   LIG d   1       4.770  -0.645  -8.214  0.00  0.00    -0.366 OA
ENDROOT
BRANCH   1  10
ATOM     10  C   LIG d   1       6.549  -2.285  -8.549  0.00  0.00     0.053 C 
ATOM     11  H   LIG d   1       6.113  -3.160  -8.063  0.00  0.00     0.038 H 
ATOM     12  H   LIG d   1       7.258  -2.609  -9.310  0.00  0.00     0.038 H 
BRANCH  10  13
ATOM     13  C   LIG d   1       7.261  -1.446  -7.521  0.00  0.00     0.218 C 
ATOM     14  N   LIG d   1       7.072  -1.683  -6.207  0.00  0.00    -0.296 N 
ATOM     15  C   LIG d   1       7.701  -0.943  -5.104  0.00  0.00     0.049 C 
ATOM     16  C   LIG d   1       6.193  -2.722  -5.640  0.00  0.00     0.015 C 
ATOM     17  H   LIG d   1       8.786  -1.023  -5.174  0.00  0.00     0.052 H 
ATOM     18  C   LIG d   1       7.210  -1.580  -3.787  0.00  0.00    -0.031 C 
ATOM     19  C   LIG d   1       6.774  -3.001  -4.229  0.00  0.00    -0.035 C 
ATOM     20  H   LIG d   1       8.019  -1.633  -3.058  0.00  0.00     0.028 H 
ATOM     21  H   LIG d   1       6.362  -1.024  -3.383  0.00  0.00     0.028 H 
ATOM     22  H   LIG d   1       7.631  -3.674  -4.282  0.00  0.00     0.028 H 
ATOM     23  H   LIG d   1       6.007  -3.399  -3.564  0.00  0.00     0.028 H 
ATOM     24  H   LIG d   1       5.170  -2.353  -5.565  0.00  0.00     0.046 H 
ATOM     25  H   LIG d   1       6.230  -3.624  -6.251  0.00  0.00     0.046 H 
ATOM     26  O   LIG d   1       8.007  -0.557  -7.875  0.00  0.00    -0.276 OA
BRANCH  15  27
ATOM     27  C   LIG d   1       7.284   0.529  -5.158  0.00  0.00     0.066 C 
ATOM     28  H   LIG d   1       6.759   0.722  -6.093  0.00  0.00     0.058 H 
ATOM     29  H   LIG d   1       6.627   0.751  -4.318  0.00  0.00     0.058 H 
BRANCH  27  30
ATOM     30  O   LIG d   1       8.447   1.355  -5.085  0.00  0.00    -0.381 OA
BRANCH  30  31
ATOM     31  C   LIG d   1       8.675   1.925  -3.795  0.00  0.00     0.036 C 
ATOM     32  H   LIG d   1       9.532   1.439  -3.330  0.00  0.00     0.052 H 
ATOM     33  H   LIG d   1       8.874   2.991  -3.899  0.00  0.00     0.052 H 
ATOM     34  H   LIG d   1       7.793   1.780  -3.172  0.00  0.00     0.052 H 
ENDBRANCH  30  31
ENDBRANCH  27  30
ENDBRANCH  15  27
ENDBRANCH  10  13
ENDBRANCH   1  10
BRANCH   3  35
ATOM     35  O   LIG d   1       4.516  -2.590 -11.165  0.00  0.00    -0.387 OA
ATOM     36  H   LIG d   1       4.150  -1.884 -11.715  0.00  0.00     0.210 HD
ENDBRANCH   3  35
BRANCH   7  37
ATOM     37  C   LIG d   1       2.497   0.091  -7.706  0.00  0.00     0.041 C 
ATOM     38  H   LIG d   1       1.530  -0.374  -7.904  0.00  0.00     0.049 H 
ATOM     39  H   LIG d   1       2.385   1.175  -7.703  0.00  0.00     0.049 H 
BRANCH  37  40
ATOM     40  N   LIG d   1       2.995  -0.354  -6.402  0.00  0.00    -0.309 N 
ATOM     41  C   LIG d   1       2.966   0.485  -5.348  0.00  0.00     0.244 C 
ATOM     42  O   LIG d   1       2.527   1.611  -5.480  0.00  0.00    -0.270 OA
ATOM     43  H   LIG d   1       3.346  -1.253  -6.298  0.00  0.00     0.149 HD
BRANCH  41  44
ATOM     44  C   LIG d   1       3.470   0.037  -4.032  0.00  0.00     0.039 A 
ATOM     45  C   LIG d   1       3.313  -1.293  -3.638  0.00  0.00    -0.014 A 
ATOM     46  C   LIG d   1       3.787  -1.705  -2.407  0.00  0.00     0.124 A 
ATOM     47  H   LIG d   1       2.827  -1.998  -4.296  0.00  0.00     0.065 H 
ATOM     48  C   LIG d   1       4.416  -0.801  -1.567  0.00  0.00    -0.026 A 
ATOM     49  F   LIG d   1       3.638  -2.991  -2.023  0.00  0.00    -0.205 F 
ATOM     50  C   LIG d   1       4.573   0.518  -1.953  0.00  0.00    -0.058 A 
ATOM     51  H   LIG d   1       4.784  -1.127  -0.606  0.00  0.00     0.065 H 
ATOM     52  C   LIG d   1       4.105   0.941  -3.179  0.00  0.00    -0.050 A 
ATOM     53  H   LIG d   1       5.064   1.218  -1.294  0.00  0.00     0.062 H 
ATOM     54  H   LIG d   1       4.229   1.972  -3.480  0.00  0.00     0.062 H 
ENDBRANCH  41  44
ENDBRANCH  37  40
ENDBRANCH   7  37
BRANCH   5  55
ATOM     55  O   LIG d   1       2.355  -1.319 -10.717  0.00  0.00    -0.387 OA
ATOM     56  H   LIG d   1       1.881  -2.070 -11.098  0.00  0.00     0.210 HD
ENDBRANCH   5  55
TORSDOF 10
ENDMDL
MODEL 3
REMARK VINA RESULT:      -6.4      6.964      8.979
REMARK  10 active torsions:
REMARK  status: ('A' for Active; 'I' for Inactive)
REMARK    1  A    between atoms: C_1  and  O_2 
REMARK    2  A    between atoms: O_2  and  C_3 
REMARK    3  A    between atoms: C_3  and  C_4 
REMARK       I    between atoms: N_9  and  C_10 
REMARK    4  A    between atoms: C_10  and  C_12 
REMARK    5  A    between atoms: C_12  and  C_13 
REMARK    6  A    between atoms: C_15  and  O_34 
REMARK    7  A    between atoms: C_17  and  O_33 
REMARK    8  A    between atoms: C_19  and  C_22 
REMARK    9  A    between atoms: C_22  and  N_23 
REMARK       I    between atoms: N_23  and  C_24 
REMARK   10  A    between atoms: C_24  and  C_26 
ROOT
ATOM      1  C   LIG d   1      10.073   5.038  -4.142  0.00  0.00     0.096 C 
ATOM      2  H   LIG d   1      11.124   5.255  -4.331  0.00  0.00     0.063 H 
ATOM      3  C   LIG d   1       9.905   4.337  -2.776  0.00  0.00     0.110 C 
ATOM      4  H   LIG d   1       8.963   4.626  -2.311  0.00  0.00     0.065 H 
ATOM      5  C   LIG d   1       9.894   2.832  -3.127  0.00  0.00     0.111 C 
ATOM      6  H   LIG d   1       8.947   2.378  -2.835  0.00  0.00     0.065 H 
ATOM      7  C   LIG d   1      10.056   2.803  -4.663  0.00  0.00     0.103 C 
ATOM      8  H   LIG d   1      11.105   2.675  -4.931  0.00  0.00     0.064 H 
ATOM      9  O   LIG d   1       9.573   4.089  -5.109  0.00  0.00    -0.366 OA
ENDROOT
BRANCH   1  10
ATOM     10  C   LIG d   1       9.247   6.326  -4.184  0.00  0.00     0.053 C 
ATOM     11  H   LIG d   1       8.775   6.423  -5.163  0.00  0.00     0.038 H 
ATOM     12  H   LIG d   1       8.478   6.290  -3.413  0.00  0.00     0.038 H 
BRANCH  10  13
ATOM     13  C   LIG d   1      10.147   7.509  -3.942  0.00  0.00     0.218 C 
ATOM     14  N   LIG d   1      10.177   8.097  -2.729  0.00  0.00    -0.296 N 
ATOM     15  C   LIG d   1      11.005   9.253  -2.357  0.00  0.00     0.049 C 
ATOM     16  C   LIG d   1       9.377   7.692  -1.559  0.00  0.00     0.015 C 
ATOM     17  H   LIG d   1      12.059   9.014  -2.498  0.00  0.00     0.052 H 
ATOM     18  C   LIG d   1      10.727   9.557  -0.871  0.00  0.00    -0.031 C 
ATOM     19  C   LIG d   1      10.182   8.207  -0.336  0.00  0.00    -0.035 C 
ATOM     20  H   LIG d   1      11.645   9.834  -0.354  0.00  0.00     0.028 H 
ATOM     21  H   LIG d   1       9.976  10.342  -0.772  0.00  0.00     0.028 H 
ATOM     22  H   LIG d   1      10.997   7.528  -0.086  0.00  0.00     0.028 H 
ATOM     23  H   LIG d   1       9.527   8.362   0.523  0.00  0.00     0.028 H 
ATOM     24  H   LIG d   1       8.393   8.158  -1.591  0.00  0.00     0.046 H 
ATOM     25  H   LIG d   1       9.284   6.606  -1.521  0.00  0.00     0.046 H 
ATOM     26  O   LIG d   1      10.847   7.931  -4.838  0.00  0.00    -0.276 OA
BRANCH  15  27
ATOM     27  C   LIG d   1      10.627  10.462  -3.216  0.00  0.00     0.066 C 
ATOM     28  H   LIG d   1      11.521  11.048  -3.431  0.00  0.00     0.058 H 
ATOM     29  H   LIG d   1      10.184  10.119  -4.151  0.00  0.00     0.058 H 
BRANCH  27  30
ATOM     30  O   LIG d   1       9.685  11.272  -2.510  0.00  0.00    -0.381 OA
BRANCH  30  31
ATOM     31  C   LIG d   1       8.526  11.613  -3.273  0.00  0.00     0.036 C 
ATOM     32  H   LIG d   1       8.508  12.689  -3.443  0.00  0.00     0.052 H 
ATOM     33  H   LIG d   1       8.555  11.093  -4.229  0.00  0.00     0.052 H 
ATOM     34  H   LIG d   1       7.631  11.318  -2.725  0.00  0.00     0.052 H 
ENDBRANCH  30  31
ENDBRANCH  27  30
ENDBRANCH  15  27
ENDBRANCH  10  13
ENDBRANCH   1  10
BRANCH   3  35
ATOM     35  O   LIG d   1      11.003   4.642  -1.915  0.00  0.00    -0.387 OA
ATOM     36  H   LIG d   1      11.036   5.565  -1.631  0.00  0.00     0.210 HD
ENDBRANCH   3  35
BRANCH   7  37
ATOM     37  C   LIG d   1       9.212   1.679  -5.267  0.00  0.00     0.041 C 
ATOM     38  H   LIG d   1       9.862   0.850  -5.553  0.00  0.00     0.049 H 
ATOM     39  H   LIG d   1       8.690   2.050  -6.148  0.00  0.00     0.049 H 
BRANCH  37  40
ATOM     40  N   LIG d   1       8.236   1.215  -4.278  0.00  0.00    -0.309 N 
ATOM     41  C   LIG d   1       7.049   0.722  -4.683  0.00  0.00     0.244 C 
ATOM     42  O   LIG d   1       6.789   0.661  -5.868  0.00  0.00    -0.270 OA
ATOM     43  H   LIG d   1       8.444   1.264  -3.332  0.00  0.00     0.149 HD
BRANCH  41  44
ATOM     44  C   LIG d   1       6.063   0.255  -3.685  0.00  0.00     0.039 A 
ATOM     45  C   LIG d   1       5.634  -1.073  -3.692  0.00  0.00    -0.014 A 
ATOM     46  C   LIG d   1       4.713  -1.502  -2.754  0.00  0.00     0.124 A 
ATOM     47  H   LIG d   1       6.025  -1.763  -4.423  0.00  0.00     0.065 H 
ATOM     48  C   LIG d   1       4.217  -0.617  -1.812  0.00  0.00    -0.026 A 
ATOM     49  F   LIG d   1       4.296  -2.787  -2.758  0.00  0.00    -0.205 F 
ATOM     50  C   LIG d   1       4.640   0.701  -1.801  0.00  0.00    -0.058 A 
ATOM     51  H   LIG d   1       3.498  -0.957  -1.082  0.00  0.00     0.065 H 
ATOM     52  C   LIG d   1       5.558   1.141  -2.731  0.00  0.00    -0.050 A 
ATOM     53  H   LIG d   1       4.249   1.386  -1.064  0.00  0.00     0.062 H 
ATOM     54  H   LIG d   1       5.888   2.170  -2.720  0.00  0.00     0.062 H 
ENDBRANCH  41  44
ENDBRANCH  37  40
ENDBRANCH   7  37
BRANCH   5  55
ATOM     55  O   LIG d   1      10.987   2.162  -2.495  0.00  0.00    -0.387 OA
ATOM     56  H   LIG d   1      10.840   1.964  -1.560  0.00  0.00     0.210 HD
ENDBRANCH   5  55
TORSDOF 10
ENDMDL
MODEL 4
REMARK VINA RESULT:      -6.3      3.057      6.040
REMARK  10 active torsions:
REMARK  status: ('A' for Active; 'I' for Inactive)
REMARK    1  A    between atoms: C_1  and  O_2 
REMARK    2  A    between atoms: O_2  and  C_3 
REMARK    3  A    between atoms: C_3  and  C_4 
REMARK       I    between atoms: N_9  and  C_10 
REMARK    4  A    between atoms: C_10  and  C_12 
REMARK    5  A    between atoms: C_12  and  C_13 
REMARK    6  A    between atoms: C_15  and  O_34 
REMARK    7  A    between atoms: C_17  and  O_33 
REMARK    8  A    between atoms: C_19  and  C_22 
REMARK    9  A    between atoms: C_22  and  N_23 
REMARK       I    between atoms: N_23  and  C_24 
REMARK   10  A    between atoms: C_24  and  C_26 
ROOT
ATOM      1  C   LIG d   1       3.382  -5.133  -8.656  0.00  0.00     0.096 C 
ATOM      2  H   LIG d   1       2.306  -5.275  -8.557  0.00  0.00     0.063 H 
ATOM      3  C   LIG d   1       4.120  -6.482  -8.507  0.00  0.00     0.110 C 
ATOM      4  H   LIG d   1       5.008  -6.504  -9.138  0.00  0.00     0.065 H 
ATOM      5  C   LIG d   1       4.516  -6.529  -7.014  0.00  0.00     0.111 C 
ATOM      6  H   LIG d   1       5.600  -6.574  -6.908  0.00  0.00     0.065 H 
ATOM      7  C   LIG d   1       3.972  -5.202  -6.439  0.00  0.00     0.103 C 
ATOM      8  H   LIG d   1       2.987  -5.356  -5.998  0.00  0.00     0.064 H 
ATOM      9  O   LIG d   1       3.884  -4.316  -7.576  0.00  0.00    -0.366 OA
ENDROOT
BRANCH   1  10
ATOM     10  C   LIG d   1       3.713  -4.492 -10.006  0.00  0.00     0.053 C 
ATOM     11  H   LIG d   1       4.726  -4.087  -9.978  0.00  0.00     0.038 H 
ATOM     12  H   LIG d   1       3.646  -5.244 -10.792  0.00  0.00     0.038 H 
BRANCH  10  13
ATOM     13  C   LIG d   1       2.736  -3.381 -10.288  0.00  0.00     0.218 C 
ATOM     14  N   LIG d   1       3.186  -2.169 -10.673  0.00  0.00    -0.296 N 
ATOM     15  C   LIG d   1       2.347  -1.002 -10.978  0.00  0.00     0.049 C 
ATOM     16  C   LIG d   1       4.600  -1.794 -10.849  0.00  0.00     0.015 C 
ATOM     17  H   LIG d   1       1.664  -1.239 -11.795  0.00  0.00     0.052 H 
ATOM     18  C   LIG d   1       3.291   0.145 -11.396  0.00  0.00    -0.031 C 
ATOM     19  C   LIG d   1       4.571  -0.607 -11.847  0.00  0.00    -0.035 C 
ATOM     20  H   LIG d   1       2.866   0.714 -12.223  0.00  0.00     0.028 H 
ATOM     21  H   LIG d   1       3.505   0.796 -10.548  0.00  0.00     0.028 H 
ATOM     22  H   LIG d   1       4.477  -0.958 -12.875  0.00  0.00     0.028 H 
ATOM     23  H   LIG d   1       5.455   0.022 -11.730  0.00  0.00     0.028 H 
ATOM     24  H   LIG d   1       5.032  -1.483  -9.898  0.00  0.00     0.046 H 
ATOM     25  H   LIG d   1       5.164  -2.628 -11.268  0.00  0.00     0.046 H 
ATOM     26  O   LIG d   1       1.545  -3.576 -10.170  0.00  0.00    -0.276 OA
BRANCH  15  27
ATOM     27  C   LIG d   1       1.549  -0.594  -9.737  0.00  0.00     0.066 C 
ATOM     28  H   LIG d   1       0.598  -0.159 -10.044  0.00  0.00     0.058 H 
ATOM     29  H   LIG d   1       1.366  -1.472  -9.119  0.00  0.00     0.058 H 
BRANCH  27  30
ATOM     30  O   LIG d   1       2.294   0.370  -8.989  0.00  0.00    -0.381 OA
BRANCH  30  31
ATOM     31  C   LIG d   1       2.733  -0.100  -7.713  0.00  0.00     0.036 C 
ATOM     32  H   LIG d   1       2.890  -1.177  -7.756  0.00  0.00     0.052 H 
ATOM     33  H   LIG d   1       3.668   0.393  -7.447  0.00  0.00     0.052 H 
ATOM     34  H   LIG d   1       1.977   0.127  -6.962  0.00  0.00     0.052 H 
ENDBRANCH  30  31
ENDBRANCH  27  30
ENDBRANCH  15  27
ENDBRANCH  10  13
ENDBRANCH   1  10
BRANCH   3  35
ATOM     35  O   LIG d   1       3.250  -7.570  -8.828  0.00  0.00    -0.387 OA
ATOM     36  H   LIG d   1       2.416  -7.299  -9.235  0.00  0.00     0.210 HD
ENDBRANCH   3  35
BRANCH   7  37
ATOM     37  C   LIG d   1       4.938  -4.637  -5.397  0.00  0.00     0.041 C 
ATOM     38  H   LIG d   1       5.896  -4.414  -5.871  0.00  0.00     0.049 H 
ATOM     39  H   LIG d   1       5.089  -5.369  -4.604  0.00  0.00     0.049 H 
BRANCH  37  40
ATOM     40  N   LIG d   1       4.379  -3.408  -4.828  0.00  0.00    -0.309 N 
ATOM     41  C   LIG d   1       5.167  -2.573  -4.122  0.00  0.00     0.244 C 
ATOM     42  O   LIG d   1       6.341  -2.840  -3.957  0.00  0.00    -0.270 OA
ATOM     43  H   LIG d   1       3.442  -3.196  -4.959  0.00  0.00     0.149 HD
BRANCH  41  44
ATOM     44  C   LIG d   1       4.603  -1.333  -3.546  0.00  0.00     0.039 A 
ATOM     45  C   LIG d   1       3.768  -0.522  -4.315  0.00  0.00    -0.014 A 
ATOM     46  C   LIG d   1       3.243   0.635  -3.770  0.00  0.00     0.124 A 
ATOM     47  H   LIG d   1       3.529  -0.799  -5.330  0.00  0.00     0.065 H 
ATOM     48  C   LIG d   1       3.545   0.987  -2.464  0.00  0.00    -0.026 A 
ATOM     49  F   LIG d   1       2.433   1.423  -4.511  0.00  0.00    -0.205 F 
ATOM     50  C   LIG d   1       4.372   0.185  -1.699  0.00  0.00    -0.058 A 
ATOM     51  H   LIG d   1       3.132   1.892  -2.043  0.00  0.00     0.065 H 
ATOM     52  C   LIG d   1       4.902  -0.971  -2.231  0.00  0.00    -0.050 A 
ATOM     53  H   LIG d   1       4.604   0.465  -0.682  0.00  0.00     0.062 H 
ATOM     54  H   LIG d   1       5.547  -1.597  -1.631  0.00  0.00     0.062 H 
ENDBRANCH  41  44
ENDBRANCH  37  40
ENDBRANCH   7  37
BRANCH   5  55
ATOM     55  O   LIG d   1       3.901  -7.645  -6.367  0.00  0.00    -0.387 OA
ATOM     56  H   LIG d   1       4.225  -7.808  -5.471  0.00  0.00     0.210 HD
ENDBRANCH   5  55
TORSDOF 10
ENDMDL
MODEL 5
REMARK VINA RESULT:      -6.2      6.994      8.987
REMARK  10 active torsions:
REMARK  status: ('A' for Active; 'I' for Inactive)
REMARK    1  A    between atoms: C_1  and  O_2 
REMARK    2  A    between atoms: O_2  and  C_3 
REMARK    3  A    between atoms: C_3  and  C_4 
REMARK       I    between atoms: N_9  and  C_10 
REMARK    4  A    between atoms: C_10  and  C_12 
REMARK    5  A    between atoms: C_12  and  C_13 
REMARK    6  A    between atoms: C_15  and  O_34 
REMARK    7  A    between atoms: C_17  and  O_33 
REMARK    8  A    between atoms: C_19  and  C_22 
REMARK    9  A    between atoms: C_22  and  N_23 
REMARK       I    between atoms: N_23  and  C_24 
REMARK   10  A    between atoms: C_24  and  C_26 
ROOT
ATOM      1  C   LIG d   1      10.227   4.953  -3.858  0.00  0.00     0.096 C 
ATOM      2  H   LIG d   1      11.246   5.137  -4.200  0.00  0.00     0.063 H 
ATOM      3  C   LIG d   1      10.216   3.857  -2.769  0.00  0.00     0.110 C 
ATOM      4  H   LIG d   1       9.429   4.051  -2.040  0.00  0.00     0.065 H 
ATOM      5  C   LIG d   1       9.921   2.557  -3.550  0.00  0.00     0.111 C 
ATOM      6  H   LIG d   1       8.988   2.108  -3.207  0.00  0.00     0.065 H 
ATOM      7  C   LIG d   1       9.789   3.021  -5.018  0.00  0.00     0.103 C 
ATOM      8  H   LIG d   1      10.740   2.907  -5.538  0.00  0.00     0.064 H 
ATOM      9  O   LIG d   1       9.424   4.416  -4.931  0.00  0.00    -0.366 OA
ENDROOT
BRANCH   1  10
ATOM     10  C   LIG d   1       9.605   6.243  -3.320  0.00  0.00     0.053 C 
ATOM     11  H   LIG d   1       8.999   6.707  -4.101  0.00  0.00     0.038 H 
ATOM     12  H   LIG d   1       8.975   6.013  -2.461  0.00  0.00     0.038 H 
BRANCH  10  13
ATOM     13  C   LIG d   1      10.697   7.193  -2.904  0.00  0.00     0.218 C 
ATOM     14  N   LIG d   1      10.927   7.425  -1.596  0.00  0.00    -0.296 N 
ATOM     15  C   LIG d   1      11.956   8.323  -1.052  0.00  0.00     0.049 C 
ATOM     16  C   LIG d   1      10.182   6.826  -0.474  0.00  0.00     0.015 C 
ATOM     17  H   LIG d   1      12.943   7.999  -1.382  0.00  0.00     0.052 H 
ATOM     18  C   LIG d   1      11.862   8.250   0.486  0.00  0.00    -0.031 C 
ATOM     19  C   LIG d   1      11.163   6.887   0.727  0.00  0.00    -0.035 C 
ATOM     20  H   LIG d   1      12.855   8.259   0.934  0.00  0.00     0.028 H 
ATOM     21  H   LIG d   1      11.255   9.069   0.874  0.00  0.00     0.028 H 
ATOM     22  H   LIG d   1      11.881   6.068   0.691  0.00  0.00     0.028 H 
ATOM     23  H   LIG d   1      10.620   6.888   1.673  0.00  0.00     0.028 H 
ATOM     24  H   LIG d   1       9.283   7.406  -0.262  0.00  0.00     0.046 H 
ATOM     25  H   LIG d   1       9.923   5.791  -0.700  0.00  0.00     0.046 H 
ATOM     26  O   LIG d   1      11.372   7.748  -3.746  0.00  0.00    -0.276 OA
BRANCH  15  27
ATOM     27  C   LIG d   1      11.697   9.757  -1.523  0.00  0.00     0.066 C 
ATOM     28  H   LIG d   1      12.563  10.377  -1.290  0.00  0.00     0.058 H 
ATOM     29  H   LIG d   1      11.525   9.761  -2.599  0.00  0.00     0.058 H 
BRANCH  27  30
ATOM     30  O   LIG d   1      10.546  10.277  -0.854  0.00  0.00    -0.381 OA
BRANCH  30  31
ATOM     31  C   LIG d   1       9.472  10.625  -1.731  0.00  0.00     0.036 C 
ATOM     32  H   LIG d   1       9.838  11.305  -2.499  0.00  0.00     0.052 H 
ATOM     33  H   LIG d   1       9.080   9.724  -2.200  0.00  0.00     0.052 H 
ATOM     34  H   LIG d   1       8.682  11.113  -1.161  0.00  0.00     0.052 H 
ENDBRANCH  30  31
ENDBRANCH  27  30
ENDBRANCH  15  27
ENDBRANCH  10  13
ENDBRANCH   1  10
BRANCH   3  35
ATOM     35  O   LIG d   1      11.487   3.775  -2.123  0.00  0.00    -0.387 OA
ATOM     36  H   LIG d   1      11.929   2.922  -2.231  0.00  0.00     0.210 HD
ENDBRANCH   3  35
BRANCH   7  37
ATOM     37  C   LIG d   1       8.693   2.228  -5.731  0.00  0.00     0.041 C 
ATOM     38  H   LIG d   1       9.134   1.362  -6.227  0.00  0.00     0.049 H 
ATOM     39  H   LIG d   1       8.209   2.863  -6.474  0.00  0.00     0.049 H 
BRANCH  37  40
ATOM     40  N   LIG d   1       7.700   1.777  -4.753  0.00  0.00    -0.309 N 
ATOM     41  C   LIG d   1       7.302   0.489  -4.742  0.00  0.00     0.244 C 
ATOM     42  O   LIG d   1       7.766  -0.297  -5.544  0.00  0.00    -0.270 OA
ATOM     43  H   LIG d   1       7.330   2.404  -4.113  0.00  0.00     0.149 HD
BRANCH  41  44
ATOM     44  C   LIG d   1       6.300   0.033  -3.755  0.00  0.00     0.039 A 
ATOM     45  C   LIG d   1       5.621   0.962  -2.967  0.00  0.00    -0.014 A 
ATOM     46  C   LIG d   1       4.684   0.529  -2.047  0.00  0.00     0.124 A 
ATOM     47  H   LIG d   1       5.823   2.017  -3.079  0.00  0.00     0.065 H 
ATOM     48  C   LIG d   1       4.421  -0.824  -1.908  0.00  0.00    -0.026 A 
ATOM     49  F   LIG d   1       4.024   1.426  -1.282  0.00  0.00    -0.205 F 
ATOM     50  C   LIG d   1       5.092  -1.749  -2.688  0.00  0.00    -0.058 A 
ATOM     51  H   LIG d   1       3.688  -1.158  -1.189  0.00  0.00     0.065 H 
ATOM     52  C   LIG d   1       6.028  -1.329  -3.610  0.00  0.00    -0.050 A 
ATOM     53  H   LIG d   1       4.882  -2.801  -2.576  0.00  0.00     0.062 H 
ATOM     54  H   LIG d   1       6.550  -2.053  -4.218  0.00  0.00     0.062 H 
ENDBRANCH  41  44
ENDBRANCH  37  40
ENDBRANCH   7  37
BRANCH   5  55
ATOM     55  O   LIG d   1      11.002   1.633  -3.412  0.00  0.00    -0.387 OA
ATOM     56  H   LIG d   1      10.845   0.777  -3.833  0.00  0.00     0.210 HD
ENDBRANCH   5  55
TORSDOF 10
ENDMDL
MODEL 6
REMARK VINA RESULT:      -6.1      7.335      9.221
REMARK  10 active torsions:
REMARK  status: ('A' for Active; 'I' for Inactive)
REMARK    1  A    between atoms: C_1  and  O_2 
REMARK    2  A    between atoms: O_2  and  C_3 
REMARK    3  A    between atoms: C_3  and  C_4 
REMARK       I    between atoms: N_9  and  C_10 
REMARK    4  A    between atoms: C_10  and  C_12 
REMARK    5  A    between atoms: C_12  and  C_13 
REMARK    6  A    between atoms: C_15  and  O_34 
REMARK    7  A    between atoms: C_17  and  O_33 
REMARK    8  A    between atoms: C_19  and  C_22 
REMARK    9  A    between atoms: C_22  and  N_23 
REMARK       I    between atoms: N_23  and  C_24 
REMARK   10  A    between atoms: C_24  and  C_26 
ROOT
ATOM      1  C   LIG d   1      10.054   5.266  -3.365  0.00  0.00     0.096 C 
ATOM      2  H   LIG d   1      11.026   5.633  -3.695  0.00  0.00     0.063 H 
ATOM      3  C   LIG d   1      10.229   4.148  -2.314  0.00  0.00     0.110 C 
ATOM      4  H   LIG d   1       9.421   4.180  -1.584  0.00  0.00     0.065 H 
ATOM      5  C   LIG d   1      10.161   2.844  -3.140  0.00  0.00     0.111 C 
ATOM      6  H   LIG d   1       9.319   2.231  -2.818  0.00  0.00     0.065 H 
ATOM      7  C   LIG d   1       9.952   3.329  -4.592  0.00  0.00     0.103 C 
ATOM      8  H   LIG d   1      10.909   3.396  -5.110  0.00  0.00     0.064 H 
ATOM      9  O   LIG d   1       9.354   4.637  -4.461  0.00  0.00    -0.366 OA
ENDROOT
BRANCH   1  10
ATOM     10  C   LIG d   1       9.219   6.412  -2.789  0.00  0.00     0.053 C 
ATOM     11  H   LIG d   1       8.981   7.122  -3.582  0.00  0.00     0.038 H 
ATOM     12  H   LIG d   1       8.296   6.014  -2.368  0.00  0.00     0.038 H 
BRANCH  10  13
ATOM     13  C   LIG d   1      10.004   7.112  -1.710  0.00  0.00     0.218 C 
ATOM     14  N   LIG d   1      10.810   8.146  -2.025  0.00  0.00    -0.296 N 
ATOM     15  C   LIG d   1      11.628   8.914  -1.076  0.00  0.00     0.049 C 
ATOM     16  C   LIG d   1      11.023   8.687  -3.380  0.00  0.00     0.015 C 
ATOM     17  H   LIG d   1      10.989   9.373  -0.322  0.00  0.00     0.052 H 
ATOM     18  C   LIG d   1      12.360  10.008  -1.882  0.00  0.00    -0.031 C 
ATOM     19  C   LIG d   1      11.479  10.152  -3.151  0.00  0.00    -0.035 C 
ATOM     20  H   LIG d   1      12.390  10.944  -1.325  0.00  0.00     0.028 H 
ATOM     21  H   LIG d   1      13.367   9.682  -2.147  0.00  0.00     0.028 H 
ATOM     22  H   LIG d   1      10.626  10.805  -2.962  0.00  0.00     0.028 H 
ATOM     23  H   LIG d   1      12.066  10.514  -3.996  0.00  0.00     0.028 H 
ATOM     24  H   LIG d   1      11.800   8.122  -3.896  0.00  0.00     0.046 H 
ATOM     25  H   LIG d   1      10.093   8.663  -3.948  0.00  0.00     0.046 H 
ATOM     26  O   LIG d   1       9.909   6.746  -0.558  0.00  0.00    -0.276 OA
BRANCH  15  27
ATOM     27  C   LIG d   1      12.649   7.993  -0.403  0.00  0.00     0.066 C 
ATOM     28  H   LIG d   1      12.264   6.973  -0.391  0.00  0.00     0.058 H 
ATOM     29  H   LIG d   1      13.586   8.023  -0.957  0.00  0.00     0.058 H 
BRANCH  27  30
ATOM     30  O   LIG d   1      12.873   8.432   0.938  0.00  0.00    -0.381 OA
BRANCH  30  31
ATOM     31  C   LIG d   1      11.685   8.829   1.627  0.00  0.00     0.036 C 
ATOM     32  H   LIG d   1      11.691   9.909   1.766  0.00  0.00     0.052 H 
ATOM     33  H   LIG d   1      10.813   8.543   1.040  0.00  0.00     0.052 H 
ATOM     34  H   LIG d   1      11.646   8.337   2.598  0.00  0.00     0.052 H 
ENDBRANCH  30  31
ENDBRANCH  27  30
ENDBRANCH  15  27
ENDBRANCH  10  13
ENDBRANCH   1  10
BRANCH   3  35
ATOM     35  O   LIG d   1      11.496   4.263  -1.663  0.00  0.00    -0.387 OA
ATOM     36  H   LIG d   1      11.648   5.122  -1.247  0.00  0.00     0.210 HD
ENDBRANCH   3  35
BRANCH   7  37
ATOM     37  C   LIG d   1       9.008   2.384  -5.338  0.00  0.00     0.041 C 
ATOM     38  H   LIG d   1       9.546   1.477  -5.616  0.00  0.00     0.049 H 
ATOM     39  H   LIG d   1       8.638   2.876  -6.238  0.00  0.00     0.049 H 
BRANCH  37  40
ATOM     40  N   LIG d   1       7.879   2.036  -4.472  0.00  0.00    -0.309 N 
ATOM     41  C   LIG d   1       7.465   0.757  -4.388  0.00  0.00     0.244 C 
ATOM     42  O   LIG d   1       8.027  -0.108  -5.030  0.00  0.00    -0.270 OA
ATOM     43  H   LIG d   1       7.431   2.727  -3.959  0.00  0.00     0.149 HD
BRANCH  41  44
ATOM     44  C   LIG d   1       6.324   0.405  -3.514  0.00  0.00     0.039 A 
ATOM     45  C   LIG d   1       5.908  -0.922  -3.405  0.00  0.00    -0.014 A 
ATOM     46  C   LIG d   1       4.843  -1.243  -2.585  0.00  0.00     0.124 A 
ATOM     47  H   LIG d   1       6.421  -1.696  -3.955  0.00  0.00     0.065 H 
ATOM     48  C   LIG d   1       4.189  -0.249  -1.874  0.00  0.00    -0.026 A 
ATOM     49  F   LIG d   1       4.437  -2.527  -2.477  0.00  0.00    -0.205 F 
ATOM     50  C   LIG d   1       4.598   1.068  -1.979  0.00  0.00    -0.058 A 
ATOM     51  H   LIG d   1       3.357  -0.505  -1.235  0.00  0.00     0.065 H 
ATOM     52  C   LIG d   1       5.661   1.400  -2.793  0.00  0.00    -0.050 A 
ATOM     53  H   LIG d   1       4.085   1.837  -1.423  0.00  0.00     0.062 H 
ATOM     54  H   LIG d   1       5.979   2.430  -2.873  0.00  0.00     0.062 H 
ENDBRANCH  41  44
ENDBRANCH  37  40
ENDBRANCH   7  37
BRANCH   5  55
ATOM     55  O   LIG d   1      11.385   2.115  -3.026  0.00  0.00    -0.387 OA
ATOM     56  H   LIG d   1      12.168   2.673  -2.932  0.00  0.00     0.210 HD
ENDBRANCH   5  55
TORSDOF 10
ENDMDL
MODEL 7
REMARK VINA RESULT:      -6.0      6.923      9.065
REMARK  10 active torsions:
REMARK  status: ('A' for Active; 'I' for Inactive)
REMARK    1  A    between atoms: C_1  and  O_2 
REMARK    2  A    between atoms: O_2  and  C_3 
REMARK    3  A    between atoms: C_3  and  C_4 
REMARK       I    between atoms: N_9  and  C_10 
REMARK    4  A    between atoms: C_10  and  C_12 
REMARK    5  A    between atoms: C_12  and  C_13 
REMARK    6  A    between atoms: C_15  and  O_34 
REMARK    7  A    between atoms: C_17  and  O_33 
REMARK    8  A    between atoms: C_19  and  C_22 
REMARK    9  A    between atoms: C_22  and  N_23 
REMARK       I    between atoms: N_23  and  C_24 
REMARK   10  A    between atoms: C_24  and  C_26 
ROOT
ATOM      1  C   LIG d   1      10.042   4.944  -4.347  0.00  0.00     0.096 C 
ATOM      2  H   LIG d   1      11.069   5.310  -4.383  0.00  0.00     0.063 H 
ATOM      3  C   LIG d   1       9.697   4.449  -2.925  0.00  0.00     0.110 C 
ATOM      4  H   LIG d   1       8.648   4.638  -2.699  0.00  0.00     0.065 H 
ATOM      5  C   LIG d   1       9.973   2.929  -2.980  0.00  0.00     0.111 C 
ATOM      6  H   LIG d   1       9.060   2.367  -2.782  0.00  0.00     0.065 H 
ATOM      7  C   LIG d   1      10.452   2.687  -4.429  0.00  0.00     0.103 C 
ATOM      8  H   LIG d   1      11.541   2.705  -4.476  0.00  0.00     0.064 H 
ATOM      9  O   LIG d   1       9.894   3.781  -5.190  0.00  0.00    -0.366 OA
ENDROOT
BRANCH   1  10
ATOM     10  C   LIG d   1       9.069   6.042  -4.779  0.00  0.00     0.053 C 
ATOM     11  H   LIG d   1       8.764   5.871  -5.813  0.00  0.00     0.038 H 
ATOM     12  H   LIG d   1       8.191   6.024  -4.134  0.00  0.00     0.038 H 
BRANCH  10  13
ATOM     13  C   LIG d   1       9.745   7.384  -4.672  0.00  0.00     0.218 C 
ATOM     14  N   LIG d   1       9.931   8.136  -5.776  0.00  0.00    -0.296 N 
ATOM     15  C   LIG d   1      10.573   9.458  -5.814  0.00  0.00     0.049 C 
ATOM     16  C   LIG d   1       9.530   7.765  -7.145  0.00  0.00     0.015 C 
ATOM     17  H   LIG d   1      10.026  10.154  -5.178  0.00  0.00     0.052 H 
ATOM     18  C   LIG d   1      10.538   9.942  -7.278  0.00  0.00    -0.031 C 
ATOM     19  C   LIG d   1       9.375   9.118  -7.889  0.00  0.00    -0.035 C 
ATOM     20  H   LIG d   1      10.322  11.010  -7.327  0.00  0.00     0.028 H 
ATOM     21  H   LIG d   1      11.478   9.715  -7.782  0.00  0.00     0.028 H 
ATOM     22  H   LIG d   1       8.412   9.579  -7.671  0.00  0.00     0.028 H 
ATOM     23  H   LIG d   1       9.510   8.988  -8.963  0.00  0.00     0.028 H 
ATOM     24  H   LIG d   1      10.303   7.158  -7.615  0.00  0.00     0.046 H 
ATOM     25  H   LIG d   1       8.581   7.229  -7.130  0.00  0.00     0.046 H 
ATOM     26  O   LIG d   1      10.121   7.789  -3.592  0.00  0.00    -0.276 OA
BRANCH  15  27
ATOM     27  C   LIG d   1      12.023   9.347  -5.336  0.00  0.00     0.066 C 
ATOM     28  H   LIG d   1      12.120   8.492  -4.667  0.00  0.00     0.058 H 
ATOM     29  H   LIG d   1      12.679   9.213  -6.196  0.00  0.00     0.058 H 
BRANCH  27  30
ATOM     30  O   LIG d   1      12.387  10.540  -4.640  0.00  0.00    -0.381 OA
BRANCH  30  31
ATOM     31  C   LIG d   1      11.349  11.070  -3.813  0.00  0.00     0.036 C 
ATOM     32  H   LIG d   1      11.696  11.120  -2.782  0.00  0.00     0.052 H 
ATOM     33  H   LIG d   1      11.086  12.070  -4.157  0.00  0.00     0.052 H 
ATOM     34  H   LIG d   1      10.473  10.424  -3.870  0.00  0.00     0.052 H 
ENDBRANCH  30  31
ENDBRANCH  27  30
ENDBRANCH  15  27
ENDBRANCH  10  13
ENDBRANCH   1  10
BRANCH   3  35
ATOM     35  O   LIG d   1      10.538   5.075  -1.955  0.00  0.00    -0.387 OA
ATOM     36  H   LIG d   1      11.244   4.506  -1.620  0.00  0.00     0.210 HD
ENDBRANCH   3  35
BRANCH   7  37
ATOM     37  C   LIG d   1       9.920   1.350  -4.950  0.00  0.00     0.041 C 
ATOM     38  H   LIG d   1      10.731   0.621  -4.976  0.00  0.00     0.049 H 
ATOM     39  H   LIG d   1       9.521   1.485  -5.955  0.00  0.00     0.049 H 
BRANCH  37  40
ATOM     40  N   LIG d   1       8.859   0.868  -4.062  0.00  0.00    -0.309 N 
ATOM     41  C   LIG d   1       7.592   0.779  -4.514  0.00  0.00     0.244 C 
ATOM     42  O   LIG d   1       7.330   1.098  -5.656  0.00  0.00    -0.270 OA
ATOM     43  H   LIG d   1       9.068   0.613  -3.150  0.00  0.00     0.149 HD
BRANCH  41  44
ATOM     44  C   LIG d   1       6.520   0.293  -3.618  0.00  0.00     0.039 A 
ATOM     45  C   LIG d   1       5.669   1.201  -2.987  0.00  0.00    -0.014 A 
ATOM     46  C   LIG d   1       4.669   0.739  -2.152  0.00  0.00     0.124 A 
ATOM     47  H   LIG d   1       5.789   2.261  -3.155  0.00  0.00     0.065 H 
ATOM     48  C   LIG d   1       4.513  -0.621  -1.941  0.00  0.00    -0.026 A 
ATOM     49  F   LIG d   1       3.843   1.616  -1.540  0.00  0.00    -0.205 F 
ATOM     50  C   LIG d   1       5.355  -1.525  -2.564  0.00  0.00    -0.058 A 
ATOM     51  H   LIG d   1       3.731  -0.977  -1.287  0.00  0.00     0.065 H 
ATOM     52  C   LIG d   1       6.356  -1.077  -3.400  0.00  0.00    -0.050 A 
ATOM     53  H   LIG d   1       5.228  -2.583  -2.396  0.00  0.00     0.062 H 
ATOM     54  H   LIG d   1       7.011  -1.784  -3.887  0.00  0.00     0.062 H 
ENDBRANCH  41  44
ENDBRANCH  37  40
ENDBRANCH   7  37
BRANCH   5  55
ATOM     55  O   LIG d   1      10.995   2.572  -2.048  0.00  0.00    -0.387 OA
ATOM     56  H   LIG d   1      11.080   3.183  -1.304  0.00  0.00     0.210 HD
ENDBRANCH   5  55
TORSDOF 10
ENDMDL
MODEL 8
REMARK VINA RESULT:      -6.0      2.756      5.496
REMARK  10 active torsions:
REMARK  status: ('A' for Active; 'I' for Inactive)
REMARK    1  A    between atoms: C_1  and  O_2 
REMARK    2  A    between atoms: O_2  and  C_3 
REMARK    3  A    between atoms: C_3  and  C_4 
REMARK       I    between atoms: N_9  and  C_10 
REMARK    4  A    between atoms: C_10  and  C_12 
REMARK    5  A    between atoms: C_12  and  C_13 
REMARK    6  A    between atoms: C_15  and  O_34 
REMARK    7  A    between atoms: C_17  and  O_33 
REMARK    8  A    between atoms: C_19  and  C_22 
REMARK    9  A    between atoms: C_22  and  N_23 
REMARK       I    between atoms: N_23  and  C_24 
REMARK   10  A    between atoms: C_24  and  C_26 
ROOT
ATOM      1  C   LIG d   1       3.275  -4.908  -8.623  0.00  0.00     0.096 C 
ATOM      2  H   LIG d   1       2.210  -5.126  -8.538  0.00  0.00     0.063 H 
ATOM      3  C   LIG d   1       4.093  -6.219  -8.626  0.00  0.00     0.110 C 
ATOM      4  H   LIG d   1       4.975  -6.117  -9.257  0.00  0.00     0.065 H 
ATOM      5  C   LIG d   1       4.504  -6.408  -7.148  0.00  0.00     0.111 C 
ATOM      6  H   LIG d   1       5.589  -6.399  -7.050  0.00  0.00     0.065 H 
ATOM      7  C   LIG d   1       3.886  -5.189  -6.428  0.00  0.00     0.103 C 
ATOM      8  H   LIG d   1       2.915  -5.451  -6.005  0.00  0.00     0.064 H 
ATOM      9  O   LIG d   1       3.735  -4.188  -7.459  0.00  0.00    -0.366 OA
ENDROOT
BRANCH   1  10
ATOM     10  C   LIG d   1       3.555  -4.102  -9.893  0.00  0.00     0.053 C 
ATOM     11  H   LIG d   1       4.040  -4.744 -10.630  0.00  0.00     0.038 H 
ATOM     12  H   LIG d   1       2.617  -3.726 -10.299  0.00  0.00     0.038 H 
BRANCH  10  13
ATOM     13  C   LIG d   1       4.461  -2.945  -9.563  0.00  0.00     0.218 C 
ATOM     14  N   LIG d   1       3.934  -1.741  -9.259  0.00  0.00    -0.296 N 
ATOM     15  C   LIG d   1       4.698  -0.533  -8.919  0.00  0.00     0.049 C 
ATOM     16  C   LIG d   1       2.496  -1.419  -9.218  0.00  0.00     0.015 C 
ATOM     17  H   LIG d   1       5.314  -0.718  -8.040  0.00  0.00     0.052 H 
ATOM     18  C   LIG d   1       3.678   0.586  -8.622  0.00  0.00    -0.031 C 
ATOM     19  C   LIG d   1       2.392  -0.203  -8.260  0.00  0.00    -0.035 C 
ATOM     20  H   LIG d   1       4.007   1.195  -7.780  0.00  0.00     0.028 H 
ATOM     21  H   LIG d   1       3.515   1.204  -9.506  0.00  0.00     0.028 H 
ATOM     22  H   LIG d   1       2.409  -0.520  -7.217  0.00  0.00     0.028 H 
ATOM     23  H   LIG d   1       1.500   0.385  -8.474  0.00  0.00     0.028 H 
ATOM     24  H   LIG d   1       2.139  -1.153 -10.213  0.00  0.00     0.046 H 
ATOM     25  H   LIG d   1       1.929  -2.263  -8.822  0.00  0.00     0.046 H 
ATOM     26  O   LIG d   1       5.665  -3.095  -9.571  0.00  0.00    -0.276 OA
BRANCH  15  27
ATOM     27  C   LIG d   1       5.586  -0.129 -10.099  0.00  0.00     0.066 C 
ATOM     28  H   LIG d   1       6.416  -0.830 -10.185  0.00  0.00     0.058 H 
ATOM     29  H   LIG d   1       4.998  -0.145 -11.017  0.00  0.00     0.058 H 
BRANCH  27  30
ATOM     30  O   LIG d   1       6.095   1.189  -9.883  0.00  0.00    -0.381 OA
BRANCH  30  31
ATOM     31  C   LIG d   1       7.442   1.220  -9.408  0.00  0.00     0.036 C 
ATOM     32  H   LIG d   1       7.651   2.197  -8.974  0.00  0.00     0.052 H 
ATOM     33  H   LIG d   1       7.578   0.448  -8.650  0.00  0.00     0.052 H 
ATOM     34  H   LIG d   1       8.124   1.038 -10.238  0.00  0.00     0.052 H 
ENDBRANCH  30  31
ENDBRANCH  27  30
ENDBRANCH  15  27
ENDBRANCH  10  13
ENDBRANCH   1  10
BRANCH   3  35
ATOM     35  O   LIG d   1       3.288  -7.314  -9.066  0.00  0.00    -0.387 OA
ATOM     36  H   LIG d   1       2.337  -7.170  -8.962  0.00  0.00     0.210 HD
ENDBRANCH   3  35
BRANCH   7  37
ATOM     37  C   LIG d   1       4.825  -4.686  -5.330  0.00  0.00     0.041 C 
ATOM     38  H   LIG d   1       5.812  -4.495  -5.756  0.00  0.00     0.049 H 
ATOM     39  H   LIG d   1       4.908  -5.440  -4.548  0.00  0.00     0.049 H 
BRANCH  37  40
ATOM     40  N   LIG d   1       4.291  -3.447  -4.760  0.00  0.00    -0.309 N 
ATOM     41  C   LIG d   1       5.120  -2.567  -4.164  0.00  0.00     0.244 C 
ATOM     42  O   LIG d   1       6.311  -2.802  -4.099  0.00  0.00    -0.270 OA
ATOM     43  H   LIG d   1       3.341  -3.259  -4.812  0.00  0.00     0.149 HD
BRANCH  41  44
ATOM     44  C   LIG d   1       4.581  -1.317  -3.587  0.00  0.00     0.039 A 
ATOM     45  C   LIG d   1       3.759  -0.490  -4.353  0.00  0.00    -0.014 A 
ATOM     46  C   LIG d   1       3.257   0.677  -3.807  0.00  0.00     0.124 A 
ATOM     47  H   LIG d   1       3.511  -0.764  -5.368  0.00  0.00     0.065 H 
ATOM     48  C   LIG d   1       3.571   1.024  -2.503  0.00  0.00    -0.026 A 
ATOM     49  F   LIG d   1       2.460   1.479  -4.546  0.00  0.00    -0.205 F 
ATOM     50  C   LIG d   1       4.386   0.207  -1.740  0.00  0.00    -0.058 A 
ATOM     51  H   LIG d   1       3.177   1.937  -2.081  0.00  0.00     0.065 H 
ATOM     52  C   LIG d   1       4.892  -0.959  -2.274  0.00  0.00    -0.050 A 
ATOM     53  H   LIG d   1       4.626   0.483  -0.725  0.00  0.00     0.062 H 
ATOM     54  H   LIG d   1       5.527  -1.597  -1.676  0.00  0.00     0.062 H 
ENDBRANCH  41  44
ENDBRANCH  37  40
ENDBRANCH   7  37
BRANCH   5  55
ATOM     55  O   LIG d   1       3.962  -7.625  -6.630  0.00  0.00    -0.387 OA
ATOM     56  H   LIG d   1       3.060  -7.810  -6.922  0.00  0.00     0.210 HD
ENDBRANCH   5  55
TORSDOF 10
ENDMDL
MODEL 9
REMARK VINA RESULT:      -5.9      3.422      6.522
REMARK  10 active torsions:
REMARK  status: ('A' for Active; 'I' for Inactive)
REMARK    1  A    between atoms: C_1  and  O_2 
REMARK    2  A    between atoms: O_2  and  C_3 
REMARK    3  A    between atoms: C_3  and  C_4 
REMARK       I    between atoms: N_9  and  C_10 
REMARK    4  A    between atoms: C_10  and  C_12 
REMARK    5  A    between atoms: C_12  and  C_13 
REMARK    6  A    between atoms: C_15  and  O_34 
REMARK    7  A    between atoms: C_17  and  O_33 
REMARK    8  A    between atoms: C_19  and  C_22 
REMARK    9  A    between atoms: C_22  and  N_23 
REMARK       I    between atoms: N_23  and  C_24 
REMARK   10  A    between atoms: C_24  and  C_26 
ROOT
ATOM      1  C   LIG d   1       5.556  -1.083  -3.653  0.00  0.00     0.096 C 
ATOM      2  H   LIG d   1       5.492  -2.168  -3.727  0.00  0.00     0.063 H 
ATOM      3  C   LIG d   1       4.627  -0.565  -2.532  0.00  0.00     0.110 C 
ATOM      4  H   LIG d   1       5.061   0.312  -2.051  0.00  0.00     0.065 H 
ATOM      5  C   LIG d   1       3.324  -0.187  -3.270  0.00  0.00     0.111 C 
ATOM      6  H   LIG d   1       3.113   0.876  -3.154  0.00  0.00     0.065 H 
ATOM      7  C   LIG d   1       3.619  -0.521  -4.749  0.00  0.00     0.103 C 
ATOM      8  H   LIG d   1       3.256  -1.520  -4.992  0.00  0.00     0.064 H 
ATOM      9  O   LIG d   1       5.058  -0.465  -4.860  0.00  0.00    -0.366 OA
ENDROOT
BRANCH   1  10
ATOM     10  C   LIG d   1       7.000  -0.651  -3.390  0.00  0.00     0.053 C 
ATOM     11  H   LIG d   1       7.189  -0.649  -2.316  0.00  0.00     0.038 H 
ATOM     12  H   LIG d   1       7.682  -1.346  -3.878  0.00  0.00     0.038 H 
BRANCH  10  13
ATOM     13  C   LIG d   1       7.217   0.736  -3.938  0.00  0.00     0.218 C 
ATOM     14  N   LIG d   1       8.023   0.921  -5.003  0.00  0.00    -0.296 N 
ATOM     15  C   LIG d   1       8.322   2.213  -5.637  0.00  0.00     0.049 C 
ATOM     16  C   LIG d   1       8.757  -0.138  -5.719  0.00  0.00     0.015 C 
ATOM     17  H   LIG d   1       7.400   2.674  -5.992  0.00  0.00     0.052 H 
ATOM     18  C   LIG d   1       9.264   1.934  -6.826  0.00  0.00    -0.031 C 
ATOM     19  C   LIG d   1       8.992   0.439  -7.140  0.00  0.00    -0.035 C 
ATOM     20  H   LIG d   1       9.005   2.560  -7.680  0.00  0.00     0.028 H 
ATOM     21  H   LIG d   1      10.305   2.085  -6.537  0.00  0.00     0.028 H 
ATOM     22  H   LIG d   1       8.106   0.326  -7.764  0.00  0.00     0.028 H 
ATOM     23  H   LIG d   1       9.860  -0.025  -7.610  0.00  0.00     0.028 H 
ATOM     24  H   LIG d   1       9.709  -0.340  -5.227  0.00  0.00     0.046 H 
ATOM     25  H   LIG d   1       8.156  -1.046  -5.774  0.00  0.00     0.046 H 
ATOM     26  O   LIG d   1       6.666   1.685  -3.422  0.00  0.00    -0.276 OA
BRANCH  15  27
ATOM     27  C   LIG d   1       9.012   3.139  -4.632  0.00  0.00     0.066 C 
ATOM     28  H   LIG d   1       9.189   4.110  -5.096  0.00  0.00     0.058 H 
ATOM     29  H   LIG d   1       8.375   3.265  -3.757  0.00  0.00     0.058 H 
BRANCH  27  30
ATOM     30  O   LIG d   1      10.260   2.566  -4.236  0.00  0.00    -0.381 OA
BRANCH  30  31
ATOM     31  C   LIG d   1      10.610   2.821  -2.874  0.00  0.00     0.036 C 
ATOM     32  H   LIG d   1      10.348   3.847  -2.618  0.00  0.00     0.052 H 
ATOM     33  H   LIG d   1      10.067   2.135  -2.225  0.00  0.00     0.052 H 
ATOM     34  H   LIG d   1      11.682   2.676  -2.742  0.00  0.00     0.052 H 
ENDBRANCH  30  31
ENDBRANCH  27  30
ENDBRANCH  15  27
ENDBRANCH  10  13
ENDBRANCH   1  10
BRANCH   3  35
ATOM     35  O   LIG d   1       4.378  -1.591  -1.569  0.00  0.00    -0.387 OA
ATOM     36  H   LIG d   1       3.863  -1.298  -0.806  0.00  0.00     0.210 HD
ENDBRANCH   3  35
BRANCH   7  37
ATOM     37  C   LIG d   1       2.974   0.517  -5.669  0.00  0.00     0.041 C 
ATOM     38  H   LIG d   1       3.621   1.393  -5.740  0.00  0.00     0.049 H 
ATOM     39  H   LIG d   1       2.007   0.813  -5.262  0.00  0.00     0.049 H 
BRANCH  37  40
ATOM     40  N   LIG d   1       2.787  -0.061  -7.003  0.00  0.00    -0.309 N 
ATOM     41  C   LIG d   1       2.850   0.729  -8.093  0.00  0.00     0.244 C 
ATOM     42  O   LIG d   1       3.061   1.919  -7.971  0.00  0.00    -0.270 OA
ATOM     43  H   LIG d   1       2.618  -1.011  -7.100  0.00  0.00     0.149 HD
BRANCH  41  44
ATOM     44  C   LIG d   1       2.660   0.146  -9.439  0.00  0.00     0.039 A 
ATOM     45  C   LIG d   1       3.583   0.409 -10.453  0.00  0.00    -0.014 A 
ATOM     46  C   LIG d   1       3.400  -0.140 -11.708  0.00  0.00     0.124 A 
ATOM     47  H   LIG d   1       4.439   1.035 -10.255  0.00  0.00     0.065 H 
ATOM     48  C   LIG d   1       2.303  -0.949 -11.959  0.00  0.00    -0.026 A 
ATOM     49  F   LIG d   1       4.291   0.112 -12.691  0.00  0.00    -0.205 F 
ATOM     50  C   LIG d   1       1.387  -1.213 -10.957  0.00  0.00    -0.058 A 
ATOM     51  H   LIG d   1       2.164  -1.376 -12.941  0.00  0.00     0.065 H 
ATOM     52  C   LIG d   1       1.559  -0.671  -9.701  0.00  0.00    -0.050 A 
ATOM     53  H   LIG d   1       0.534  -1.844 -11.159  0.00  0.00     0.062 H 
ATOM     54  H   LIG d   1       0.842  -0.879  -8.919  0.00  0.00     0.062 H 
ENDBRANCH  41  44
ENDBRANCH  37  40
ENDBRANCH   7  37
BRANCH   5  55
ATOM     55  O   LIG d   1       2.230  -0.971  -2.788  0.00  0.00    -0.387 OA
ATOM     56  H   LIG d   1       1.422  -0.464  -2.630  0.00  0.00     0.210 HD
ENDBRANCH   5  55
TORSDOF 10
ENDMDL
