MODEL 1
REMARK VINA RESULT:      -6.0      0.000      0.000
REMARK  3 active torsions:
REMARK  status: ('A' for Active; 'I' for Inactive)
REMARK    1  A    between atoms: C_1  and  C_2 
REMARK       I    between atoms: C_2  and  N_4 
REMARK    2  A    between atoms: N_4  and  C_5 
REMARK    3  A    between atoms: N_4  and  N_6 
ROOT
ATOM      1  N   LIG d   1       4.831  -1.267  -6.209  0.00  0.00    -0.217 N 
ATOM      2  C   LIG d   1       6.158  -0.832  -6.293  0.00  0.00     0.057 A 
ATOM      3  C   LIG d   1       6.450   0.200  -7.178  0.00  0.00    -0.038 A 
ATOM      4  C   LIG d   1       7.733   0.696  -7.277  0.00  0.00    -0.060 A 
ATOM      5  C   LIG d   1       8.727   0.156  -6.481  0.00  0.00    -0.061 A 
ATOM      6  C   LIG d   1       8.441  -0.875  -5.616  0.00  0.00    -0.057 A 
ATOM      7  C   LIG d   1       7.153  -1.404  -5.515  0.00  0.00    -0.024 A 
ATOM      8  C   LIG d   1       7.028  -2.589  -4.584  0.00  0.00    -0.022 C 
ATOM      9  C   LIG d   1       5.632  -3.189  -4.559  0.00  0.00    -0.022 C 
ATOM     10  C   LIG d   1       4.616  -2.193  -4.058  0.00  0.00    -0.024 A 
ATOM     11  C   LIG d   1       4.209  -1.237  -4.958  0.00  0.00     0.057 A 
ATOM     12  C   LIG d   1       3.247  -0.301  -4.619  0.00  0.00    -0.038 A 
ATOM     13  C   LIG d   1       2.715  -0.329  -3.340  0.00  0.00    -0.060 A 
ATOM     14  C   LIG d   1       3.142  -1.274  -2.424  0.00  0.00    -0.061 A 
ATOM     15  C   LIG d   1       4.105  -2.227  -2.781  0.00  0.00    -0.057 A 
ATOM     16  H   LIG d   1       5.667   0.617  -7.794  0.00  0.00     0.064 H 
ATOM     17  H   LIG d   1       7.959   1.496  -7.967  0.00  0.00     0.062 H 
ATOM     18  H   LIG d   1       9.733   0.546  -6.539  0.00  0.00     0.062 H 
ATOM     19  H   LIG d   1       9.229  -1.283  -5.002  0.00  0.00     0.062 H 
ATOM     20  H   LIG d   1       7.733  -3.359  -4.901  0.00  0.00     0.032 H 
ATOM     21  H   LIG d   1       7.289  -2.271  -3.575  0.00  0.00     0.032 H 
ATOM     22  H   LIG d   1       5.359  -3.499  -5.568  0.00  0.00     0.032 H 
ATOM     23  H   LIG d   1       5.630  -4.061  -3.906  0.00  0.00     0.032 H 
ATOM     24  H   LIG d   1       2.917   0.436  -5.336  0.00  0.00     0.064 H 
ATOM     25  H   LIG d   1       1.962   0.391  -3.055  0.00  0.00     0.062 H 
ATOM     26  H   LIG d   1       2.731  -1.279  -1.426  0.00  0.00     0.062 H 
ATOM     27  H   LIG d   1       4.443  -2.968  -2.072  0.00  0.00     0.062 H 
ENDROOT
BRANCH   1  28
ATOM     28  N   LIG d   1       4.145  -1.715  -7.347  0.00  0.00    -0.219 N 
ATOM     29  C   LIG d   1       3.303  -0.887  -7.996  0.00  0.00     0.229 C 
ATOM     30  O   LIG d   1       2.652  -1.296  -8.933  0.00  0.00    -0.274 OA
BRANCH  29  31
ATOM     31  C   LIG d   1       3.172   0.549  -7.557  0.00  0.00     0.014 C 
ATOM     32  H   LIG d   1       2.652   1.118  -8.328  0.00  0.00     0.032 H 
ATOM     33  H   LIG d   1       2.605   0.595  -6.627  0.00  0.00     0.032 H 
ATOM     34  H   LIG d   1       4.164   0.973  -7.399  0.00  0.00     0.032 H 
ENDBRANCH  29  31
BRANCH  28  35
ATOM     35  C   LIG d   1       4.342  -3.084  -7.830  0.00  0.00     0.023 C 
ATOM     36  H   LIG d   1       5.392  -3.233  -8.083  0.00  0.00     0.045 H 
ATOM     37  H   LIG d   1       4.053  -3.790  -7.050  0.00  0.00     0.045 H 
ATOM     38  H   LIG d   1       3.727  -3.249  -8.715  0.00  0.00     0.045 H 
ENDBRANCH  28  35
ENDBRANCH   1  28
TORSDOF 3
ENDMDL
MODEL 2
REMARK VINA RESULT:      -5.9      2.480      3.899
REMARK  3 active torsions:
REMARK  status: ('A' for Active; 'I' for Inactive)
REMARK    1  A    between atoms: C_1  and  C_2 
REMARK       I    between atoms: C_2  and  N_4 
REMARK    2  A    between atoms: N_4  and  C_5 
REMARK    3  A    between atoms: N_4  and  N_6 
ROOT
ATOM      1  N   LIG d   1       6.616  -0.369  -4.893  0.00  0.00    -0.217 N 
ATOM      2  C   LIG d   1       7.084  -1.686  -4.825  0.00  0.00     0.057 A 
ATOM      3  C   LIG d   1       8.434  -1.884  -4.558  0.00  0.00    -0.038 A 
ATOM      4  C   LIG d   1       8.946  -3.160  -4.443  0.00  0.00    -0.060 A 
ATOM      5  C   LIG d   1       8.097  -4.242  -4.592  0.00  0.00    -0.061 A 
ATOM      6  C   LIG d   1       6.764  -4.046  -4.872  0.00  0.00    -0.057 A 
ATOM      7  C   LIG d   1       6.231  -2.763  -5.012  0.00  0.00    -0.024 A 
ATOM      8  C   LIG d   1       4.771  -2.725  -5.405  0.00  0.00    -0.022 C 
ATOM      9  C   LIG d   1       4.245  -1.317  -5.626  0.00  0.00    -0.022 C 
ATOM     10  C   LIG d   1       4.327  -0.496  -4.364  0.00  0.00    -0.024 A 
ATOM     11  C   LIG d   1       5.570  -0.001  -4.043  0.00  0.00     0.057 A 
ATOM     12  C   LIG d   1       5.752   0.803  -2.930  0.00  0.00    -0.038 A 
ATOM     13  C   LIG d   1       4.658   1.082  -2.126  0.00  0.00    -0.060 A 
ATOM     14  C   LIG d   1       3.413   0.564  -2.433  0.00  0.00    -0.061 A 
ATOM     15  C   LIG d   1       3.235  -0.236  -3.569  0.00  0.00    -0.057 A 
ATOM     16  H   LIG d   1       9.088  -1.033  -4.440  0.00  0.00     0.064 H 
ATOM     17  H   LIG d   1       9.995  -3.312  -4.237  0.00  0.00     0.062 H 
ATOM     18  H   LIG d   1       8.483  -5.246  -4.490  0.00  0.00     0.062 H 
ATOM     19  H   LIG d   1       6.117  -4.902  -4.985  0.00  0.00     0.062 H 
ATOM     20  H   LIG d   1       4.642  -3.294  -6.326  0.00  0.00     0.032 H 
ATOM     21  H   LIG d   1       4.184  -3.198  -4.618  0.00  0.00     0.032 H 
ATOM     22  H   LIG d   1       4.835  -0.834  -6.405  0.00  0.00     0.032 H 
ATOM     23  H   LIG d   1       3.206  -1.371  -5.949  0.00  0.00     0.032 H 
ATOM     24  H   LIG d   1       6.726   1.204  -2.693  0.00  0.00     0.064 H 
ATOM     25  H   LIG d   1       4.779   1.709  -1.255  0.00  0.00     0.062 H 
ATOM     26  H   LIG d   1       2.571   0.777  -1.792  0.00  0.00     0.062 H 
ATOM     27  H   LIG d   1       2.266  -0.644  -3.815  0.00  0.00     0.062 H 
ENDROOT
BRANCH   1  28
ATOM     28  N   LIG d   1       7.183   0.554  -5.783  0.00  0.00    -0.219 N 
ATOM     29  C   LIG d   1       8.052   1.479  -5.331  0.00  0.00     0.229 C 
ATOM     30  O   LIG d   1       8.484   2.325  -6.085  0.00  0.00    -0.274 OA
BRANCH  29  31
ATOM     31  C   LIG d   1       8.488   1.462  -3.889  0.00  0.00     0.014 C 
ATOM     32  H   LIG d   1       7.689   1.049  -3.273  0.00  0.00     0.032 H 
ATOM     33  H   LIG d   1       9.381   0.845  -3.786  0.00  0.00     0.032 H 
ATOM     34  H   LIG d   1       8.710   2.478  -3.563  0.00  0.00     0.032 H 
ENDBRANCH  29  31
BRANCH  28  35
ATOM     35  C   LIG d   1       6.830   0.513  -7.205  0.00  0.00     0.023 C 
ATOM     36  H   LIG d   1       5.871   0.008  -7.327  0.00  0.00     0.045 H 
ATOM     37  H   LIG d   1       6.756   1.530  -7.590  0.00  0.00     0.045 H 
ATOM     38  H   LIG d   1       7.599  -0.029  -7.755  0.00  0.00     0.045 H 
ENDBRANCH  28  35
ENDBRANCH   1  28
TORSDOF 3
ENDMDL
MODEL 3
REMARK VINA RESULT:      -5.9      2.068      5.069
REMARK  3 active torsions:
REMARK  status: ('A' for Active; 'I' for Inactive)
REMARK    1  A    between atoms: C_1  and  C_2 
REMARK       I    between atoms: C_2  and  N_4 
REMARK    2  A    between atoms: N_4  and  C_5 
REMARK    3  A    between atoms: N_4  and  N_6 
ROOT
ATOM      1  N   LIG d   1       5.480  -1.245  -5.354  0.00  0.00    -0.217 N 
ATOM      2  C   LIG d   1       4.792  -0.584  -4.331  0.00  0.00     0.057 A 
ATOM      3  C   LIG d   1       5.295  -0.681  -3.039  0.00  0.00    -0.038 A 
ATOM      4  C   LIG d   1       4.680  -0.020  -1.996  0.00  0.00    -0.060 A 
ATOM      5  C   LIG d   1       3.557   0.746  -2.252  0.00  0.00    -0.061 A 
ATOM      6  C   LIG d   1       3.050   0.830  -3.529  0.00  0.00    -0.057 A 
ATOM      7  C   LIG d   1       3.646   0.152  -4.595  0.00  0.00    -0.024 A 
ATOM      8  C   LIG d   1       2.915   0.279  -5.912  0.00  0.00    -0.022 C 
ATOM      9  C   LIG d   1       3.546  -0.533  -7.030  0.00  0.00    -0.022 C 
ATOM     10  C   LIG d   1       4.951  -0.068  -7.321  0.00  0.00    -0.024 A 
ATOM     11  C   LIG d   1       5.923  -0.488  -6.442  0.00  0.00     0.057 A 
ATOM     12  C   LIG d   1       7.253  -0.158  -6.638  0.00  0.00    -0.038 A 
ATOM     13  C   LIG d   1       7.588   0.629  -7.729  0.00  0.00    -0.060 A 
ATOM     14  C   LIG d   1       6.609   1.074  -8.598  0.00  0.00    -0.061 A 
ATOM     15  C   LIG d   1       5.267   0.722  -8.400  0.00  0.00    -0.057 A 
ATOM     16  H   LIG d   1       6.174  -1.279  -2.849  0.00  0.00     0.064 H 
ATOM     17  H   LIG d   1       5.071  -0.098  -0.992  0.00  0.00     0.062 H 
ATOM     18  H   LIG d   1       3.075   1.279  -1.446  0.00  0.00     0.062 H 
ATOM     19  H   LIG d   1       2.174   1.432  -3.710  0.00  0.00     0.062 H 
ATOM     20  H   LIG d   1       1.886  -0.056  -5.775  0.00  0.00     0.032 H 
ATOM     21  H   LIG d   1       2.904   1.329  -6.206  0.00  0.00     0.032 H 
ATOM     22  H   LIG d   1       3.571  -1.583  -6.737  0.00  0.00     0.032 H 
ATOM     23  H   LIG d   1       2.942  -0.429  -7.931  0.00  0.00     0.032 H 
ATOM     24  H   LIG d   1       8.014  -0.506  -5.956  0.00  0.00     0.064 H 
ATOM     25  H   LIG d   1       8.620   0.897  -7.900  0.00  0.00     0.062 H 
ATOM     26  H   LIG d   1       6.880   1.698  -9.437  0.00  0.00     0.062 H 
ATOM     27  H   LIG d   1       4.498   1.066  -9.076  0.00  0.00     0.062 H 
ENDROOT
BRANCH   1  28
ATOM     28  N   LIG d   1       5.724  -2.624  -5.285  0.00  0.00    -0.219 N 
ATOM     29  C   LIG d   1       6.907  -3.078  -4.829  0.00  0.00     0.229 C 
ATOM     30  O   LIG d   1       7.147  -4.266  -4.841  0.00  0.00    -0.274 OA
BRANCH  29  31
ATOM     31  C   LIG d   1       7.933  -2.107  -4.301  0.00  0.00     0.014 C 
ATOM     32  H   LIG d   1       7.439  -1.363  -3.675  0.00  0.00     0.032 H 
ATOM     33  H   LIG d   1       8.673  -2.646  -3.710  0.00  0.00     0.032 H 
ATOM     34  H   LIG d   1       8.427  -1.610  -5.136  0.00  0.00     0.032 H 
ENDBRANCH  29  31
BRANCH  28  35
ATOM     35  C   LIG d   1       4.691  -3.572  -5.712  0.00  0.00     0.023 C 
ATOM     36  H   LIG d   1       4.321  -4.121  -4.846  0.00  0.00     0.045 H 
ATOM     37  H   LIG d   1       3.868  -3.029  -6.177  0.00  0.00     0.045 H 
ATOM     38  H   LIG d   1       5.116  -4.272  -6.432  0.00  0.00     0.045 H 
ENDBRANCH  28  35
ENDBRANCH   1  28
TORSDOF 3
ENDMDL
MODEL 4
REMARK VINA RESULT:      -5.9      1.538      3.763
REMARK  3 active torsions:
REMARK  status: ('A' for Active; 'I' for Inactive)
REMARK    1  A    between atoms: C_1  and  C_2 
REMARK       I    between atoms: C_2  and  N_4 
REMARK    2  A    between atoms: N_4  and  C_5 
REMARK    3  A    between atoms: N_4  and  N_6 
ROOT
ATOM      1  N   LIG d   1       5.201  -1.161  -5.731  0.00  0.00    -0.217 N 
ATOM      2  C   LIG d   1       4.765  -0.650  -4.503  0.00  0.00     0.057 A 
ATOM      3  C   LIG d   1       3.660   0.194  -4.505  0.00  0.00    -0.038 A 
ATOM      4  C   LIG d   1       3.162   0.699  -3.321  0.00  0.00    -0.060 A 
ATOM      5  C   LIG d   1       3.773   0.350  -2.131  0.00  0.00    -0.061 A 
ATOM      6  C   LIG d   1       4.876  -0.473  -2.130  0.00  0.00    -0.057 A 
ATOM      7  C   LIG d   1       5.407  -0.978  -3.319  0.00  0.00    -0.024 A 
ATOM      8  C   LIG d   1       6.669  -1.794  -3.150  0.00  0.00    -0.022 C 
ATOM      9  C   LIG d   1       7.263  -2.261  -4.468  0.00  0.00    -0.022 C 
ATOM     10  C   LIG d   1       6.312  -3.167  -5.209  0.00  0.00    -0.024 A 
ATOM     11  C   LIG d   1       5.278  -2.549  -5.873  0.00  0.00     0.057 A 
ATOM     12  C   LIG d   1       4.372  -3.280  -6.622  0.00  0.00    -0.038 A 
ATOM     13  C   LIG d   1       4.512  -4.658  -6.672  0.00  0.00    -0.060 A 
ATOM     14  C   LIG d   1       5.535  -5.284  -5.984  0.00  0.00    -0.061 A 
ATOM     15  C   LIG d   1       6.456  -4.534  -5.241  0.00  0.00    -0.057 A 
ATOM     16  H   LIG d   1       3.188   0.459  -5.439  0.00  0.00     0.064 H 
ATOM     17  H   LIG d   1       2.305   1.356  -3.324  0.00  0.00     0.062 H 
ATOM     18  H   LIG d   1       3.384   0.727  -1.196  0.00  0.00     0.062 H 
ATOM     19  H   LIG d   1       5.339  -0.735  -1.192  0.00  0.00     0.062 H 
ATOM     20  H   LIG d   1       7.410  -1.188  -2.628  0.00  0.00     0.032 H 
ATOM     21  H   LIG d   1       6.442  -2.669  -2.541  0.00  0.00     0.032 H 
ATOM     22  H   LIG d   1       7.483  -1.391  -5.088  0.00  0.00     0.032 H 
ATOM     23  H   LIG d   1       8.189  -2.800  -4.271  0.00  0.00     0.032 H 
ATOM     24  H   LIG d   1       3.574  -2.787  -7.156  0.00  0.00     0.064 H 
ATOM     25  H   LIG d   1       3.816  -5.247  -7.252  0.00  0.00     0.062 H 
ATOM     26  H   LIG d   1       5.626  -6.360  -6.019  0.00  0.00     0.062 H 
ATOM     27  H   LIG d   1       7.258  -5.016  -4.701  0.00  0.00     0.062 H 
ENDROOT
BRANCH   1  28
ATOM     28  N   LIG d   1       5.544  -0.305  -6.787  0.00  0.00    -0.219 N 
ATOM     29  C   LIG d   1       4.628   0.010  -7.724  0.00  0.00     0.229 C 
ATOM     30  O   LIG d   1       4.945   0.687  -8.679  0.00  0.00    -0.274 OA
BRANCH  29  31
ATOM     31  C   LIG d   1       3.209  -0.478  -7.583  0.00  0.00     0.014 C 
ATOM     32  H   LIG d   1       2.671   0.166  -6.887  0.00  0.00     0.032 H 
ATOM     33  H   LIG d   1       2.717  -0.452  -8.556  0.00  0.00     0.032 H 
ATOM     34  H   LIG d   1       3.211  -1.500  -7.204  0.00  0.00     0.032 H 
ENDBRANCH  29  31
BRANCH  28  35
ATOM     35  C   LIG d   1       6.900   0.245  -6.874  0.00  0.00     0.023 C 
ATOM     36  H   LIG d   1       7.221   0.255  -7.916  0.00  0.00     0.045 H 
ATOM     37  H   LIG d   1       6.905   1.262  -6.482  0.00  0.00     0.045 H 
ATOM     38  H   LIG d   1       7.580  -0.374  -6.289  0.00  0.00     0.045 H 
ENDBRANCH  28  35
ENDBRANCH   1  28
TORSDOF 3
ENDMDL
MODEL 5
REMARK VINA RESULT:      -5.9      2.473      4.606
REMARK  3 active torsions:
REMARK  status: ('A' for Active; 'I' for Inactive)
REMARK    1  A    between atoms: C_1  and  C_2 
REMARK       I    between atoms: C_2  and  N_4 
REMARK    2  A    between atoms: N_4  and  C_5 
REMARK    3  A    between atoms: N_4  and  N_6 
ROOT
ATOM      1  N   LIG d   1       6.464  -1.129  -5.012  0.00  0.00    -0.217 N 
ATOM      2  C   LIG d   1       5.752  -0.662  -3.902  0.00  0.00     0.057 A 
ATOM      3  C   LIG d   1       6.036   0.617  -3.437  0.00  0.00    -0.038 A 
ATOM      4  C   LIG d   1       5.341   1.146  -2.369  0.00  0.00    -0.060 A 
ATOM      5  C   LIG d   1       4.352   0.388  -1.768  0.00  0.00    -0.061 A 
ATOM      6  C   LIG d   1       4.081  -0.884  -2.219  0.00  0.00    -0.057 A 
ATOM      7  C   LIG d   1       4.787  -1.444  -3.285  0.00  0.00    -0.024 A 
ATOM      8  C   LIG d   1       4.426  -2.879  -3.597  0.00  0.00    -0.022 C 
ATOM      9  C   LIG d   1       5.268  -3.482  -4.709  0.00  0.00    -0.022 C 
ATOM     10  C   LIG d   1       5.072  -2.742  -6.009  0.00  0.00    -0.024 A 
ATOM     11  C   LIG d   1       5.736  -1.544  -6.130  0.00  0.00     0.057 A 
ATOM     12  C   LIG d   1       5.663  -0.803  -7.298  0.00  0.00    -0.038 A 
ATOM     13  C   LIG d   1       4.885  -1.281  -8.340  0.00  0.00    -0.060 A 
ATOM     14  C   LIG d   1       4.195  -2.472  -8.210  0.00  0.00    -0.061 A 
ATOM     15  C   LIG d   1       4.287  -3.223  -7.030  0.00  0.00    -0.057 A 
ATOM     16  H   LIG d   1       6.808   1.202  -3.914  0.00  0.00     0.064 H 
ATOM     17  H   LIG d   1       5.564   2.138  -2.008  0.00  0.00     0.062 H 
ATOM     18  H   LIG d   1       3.790   0.796  -0.941  0.00  0.00     0.062 H 
ATOM     19  H   LIG d   1       3.305  -1.460  -1.739  0.00  0.00     0.062 H 
ATOM     20  H   LIG d   1       4.560  -3.477  -2.695  0.00  0.00     0.032 H 
ATOM     21  H   LIG d   1       3.377  -2.921  -3.891  0.00  0.00     0.032 H 
ATOM     22  H   LIG d   1       6.320  -3.433  -4.426  0.00  0.00     0.032 H 
ATOM     23  H   LIG d   1       4.984  -4.525  -4.846  0.00  0.00     0.032 H 
ATOM     24  H   LIG d   1       6.202   0.128  -7.394  0.00  0.00     0.064 H 
ATOM     25  H   LIG d   1       4.816  -0.718  -9.260  0.00  0.00     0.062 H 
ATOM     26  H   LIG d   1       3.581  -2.828  -9.023  0.00  0.00     0.062 H 
ATOM     27  H   LIG d   1       3.751  -4.154  -6.922  0.00  0.00     0.062 H 
ENDROOT
BRANCH   1  28
ATOM     28  N   LIG d   1       7.865  -1.174  -5.003  0.00  0.00    -0.219 N 
ATOM     29  C   LIG d   1       8.576  -0.141  -5.497  0.00  0.00     0.229 C 
ATOM     30  O   LIG d   1       9.785  -0.212  -5.561  0.00  0.00    -0.274 OA
BRANCH  29  31
ATOM     31  C   LIG d   1       7.867   1.103  -5.969  0.00  0.00     0.014 C 
ATOM     32  H   LIG d   1       8.240   1.381  -6.955  0.00  0.00     0.032 H 
ATOM     33  H   LIG d   1       6.796   0.912  -6.026  0.00  0.00     0.032 H 
ATOM     34  H   LIG d   1       8.054   1.916  -5.267  0.00  0.00     0.032 H 
ENDBRANCH  29  31
BRANCH  28  35
ATOM     35  C   LIG d   1       8.557  -2.346  -4.459  0.00  0.00     0.023 C 
ATOM     36  H   LIG d   1       8.072  -2.658  -3.535  0.00  0.00     0.045 H 
ATOM     37  H   LIG d   1       8.517  -3.160  -5.183  0.00  0.00     0.045 H 
ATOM     38  H   LIG d   1       9.597  -2.091  -4.256  0.00  0.00     0.045 H 
ENDBRANCH  28  35
ENDBRANCH   1  28
TORSDOF 3
ENDMDL
MODEL 6
REMARK VINA RESULT:      -5.7      1.914      4.778
REMARK  3 active torsions:
REMARK  status: ('A' for Active; 'I' for Inactive)
REMARK    1  A    between atoms: C_1  and  C_2 
REMARK       I    between atoms: C_2  and  N_4 
REMARK    2  A    between atoms: N_4  and  C_5 
REMARK    3  A    between atoms: N_4  and  N_6 
ROOT
ATOM      1  N   LIG d   1       5.903  -2.526  -5.154  0.00  0.00    -0.217 N 
ATOM      2  C   LIG d   1       5.373  -1.857  -4.045  0.00  0.00     0.057 A 
ATOM      3  C   LIG d   1       4.274  -2.423  -3.407  0.00  0.00    -0.038 A 
ATOM      4  C   LIG d   1       3.731  -1.829  -2.287  0.00  0.00    -0.060 A 
ATOM      5  C   LIG d   1       4.297  -0.663  -1.802  0.00  0.00    -0.061 A 
ATOM      6  C   LIG d   1       5.375  -0.095  -2.442  0.00  0.00    -0.057 A 
ATOM      7  C   LIG d   1       5.926  -0.671  -3.589  0.00  0.00    -0.024 A 
ATOM      8  C   LIG d   1       7.048   0.125  -4.217  0.00  0.00    -0.022 C 
ATOM      9  C   LIG d   1       7.571  -0.488  -5.505  0.00  0.00    -0.022 C 
ATOM     10  C   LIG d   1       8.156  -1.858  -5.263  0.00  0.00    -0.024 A 
ATOM     11  C   LIG d   1       7.253  -2.885  -5.118  0.00  0.00     0.057 A 
ATOM     12  C   LIG d   1       7.680  -4.190  -4.937  0.00  0.00    -0.038 A 
ATOM     13  C   LIG d   1       9.042  -4.441  -4.879  0.00  0.00    -0.060 A 
ATOM     14  C   LIG d   1       9.950  -3.405  -4.998  0.00  0.00    -0.061 A 
ATOM     15  C   LIG d   1       9.509  -2.090  -5.196  0.00  0.00    -0.057 A 
ATOM     16  H   LIG d   1       3.841  -3.335  -3.792  0.00  0.00     0.064 H 
ATOM     17  H   LIG d   1       2.877  -2.268  -1.794  0.00  0.00     0.062 H 
ATOM     18  H   LIG d   1       3.890  -0.196  -0.917  0.00  0.00     0.062 H 
ATOM     19  H   LIG d   1       5.803   0.813  -2.049  0.00  0.00     0.062 H 
ATOM     20  H   LIG d   1       6.686   1.131  -4.432  0.00  0.00     0.032 H 
ATOM     21  H   LIG d   1       7.870   0.195  -3.504  0.00  0.00     0.032 H 
ATOM     22  H   LIG d   1       6.751  -0.572  -6.219  0.00  0.00     0.032 H 
ATOM     23  H   LIG d   1       8.341   0.160  -5.922  0.00  0.00     0.032 H 
ATOM     24  H   LIG d   1       6.967  -4.995  -4.843  0.00  0.00     0.064 H 
ATOM     25  H   LIG d   1       9.396  -5.452  -4.740  0.00  0.00     0.062 H 
ATOM     26  H   LIG d   1      11.009  -3.610  -4.938  0.00  0.00     0.062 H 
ATOM     27  H   LIG d   1      10.213  -1.276  -5.290  0.00  0.00     0.062 H 
ENDROOT
BRANCH   1  28
ATOM     28  N   LIG d   1       5.102  -2.831  -6.263  0.00  0.00    -0.219 N 
ATOM     29  C   LIG d   1       4.573  -4.063  -6.394  0.00  0.00     0.229 C 
ATOM     30  O   LIG d   1       3.945  -4.351  -7.391  0.00  0.00    -0.274 OA
BRANCH  29  31
ATOM     31  C   LIG d   1       4.762  -5.084  -5.301  0.00  0.00     0.014 C 
ATOM     32  H   LIG d   1       5.827  -5.222  -5.114  0.00  0.00     0.032 H 
ATOM     33  H   LIG d   1       4.275  -4.735  -4.390  0.00  0.00     0.032 H 
ATOM     34  H   LIG d   1       4.320  -6.032  -5.608  0.00  0.00     0.032 H 
ENDBRANCH  29  31
BRANCH  28  35
ATOM     35  C   LIG d   1       4.842  -1.810  -7.282  0.00  0.00     0.023 C 
ATOM     36  H   LIG d   1       3.993  -1.199  -6.976  0.00  0.00     0.045 H 
ATOM     37  H   LIG d   1       5.723  -1.177  -7.395  0.00  0.00     0.045 H 
ATOM     38  H   LIG d   1       4.618  -2.294  -8.232  0.00  0.00     0.045 H 
ENDBRANCH  28  35
ENDBRANCH   1  28
TORSDOF 3
ENDMDL
MODEL 7
REMARK VINA RESULT:      -5.5      1.833      4.322
REMARK  3 active torsions:
REMARK  status: ('A' for Active; 'I' for Inactive)
REMARK    1  A    between atoms: C_1  and  C_2 
REMARK       I    between atoms: C_2  and  N_4 
REMARK    2  A    between atoms: N_4  and  C_5 
REMARK    3  A    between atoms: N_4  and  N_6 
ROOT
ATOM      1  N   LIG d   1       5.194  -1.403  -6.153  0.00  0.00    -0.217 N 
ATOM      2  C   LIG d   1       4.692  -2.079  -7.270  0.00  0.00     0.057 A 
ATOM      3  C   LIG d   1       5.341  -3.239  -7.676  0.00  0.00    -0.038 A 
ATOM      4  C   LIG d   1       4.870  -3.968  -8.749  0.00  0.00    -0.060 A 
ATOM      5  C   LIG d   1       3.739  -3.531  -9.414  0.00  0.00    -0.061 A 
ATOM      6  C   LIG d   1       3.105  -2.375  -9.022  0.00  0.00    -0.057 A 
ATOM      7  C   LIG d   1       3.577  -1.612  -7.951  0.00  0.00    -0.024 A 
ATOM      8  C   LIG d   1       2.818  -0.328  -7.707  0.00  0.00    -0.022 C 
ATOM      9  C   LIG d   1       3.407   0.514  -6.588  0.00  0.00    -0.022 C 
ATOM     10  C   LIG d   1       3.364  -0.218  -5.270  0.00  0.00    -0.024 A 
ATOM     11  C   LIG d   1       4.328  -1.180  -5.078  0.00  0.00     0.057 A 
ATOM     12  C   LIG d   1       4.410  -1.882  -3.888  0.00  0.00    -0.038 A 
ATOM     13  C   LIG d   1       3.482  -1.614  -2.894  0.00  0.00    -0.060 A 
ATOM     14  C   LIG d   1       2.496  -0.666  -3.095  0.00  0.00    -0.061 A 
ATOM     15  C   LIG d   1       2.430   0.050  -4.297  0.00  0.00    -0.057 A 
ATOM     16  H   LIG d   1       6.222  -3.573  -7.149  0.00  0.00     0.064 H 
ATOM     17  H   LIG d   1       5.377  -4.868  -9.064  0.00  0.00     0.062 H 
ATOM     18  H   LIG d   1       3.352  -4.100 -10.247  0.00  0.00     0.062 H 
ATOM     19  H   LIG d   1       2.223  -2.050  -9.552  0.00  0.00     0.062 H 
ATOM     20  H   LIG d   1       2.822   0.261  -8.625  0.00  0.00     0.032 H 
ATOM     21  H   LIG d   1       1.787  -0.573  -7.454  0.00  0.00     0.032 H 
ATOM     22  H   LIG d   1       4.443   0.754  -6.829  0.00  0.00     0.032 H 
ATOM     23  H   LIG d   1       2.839   1.440  -6.501  0.00  0.00     0.032 H 
ATOM     24  H   LIG d   1       5.181  -2.623  -3.736  0.00  0.00     0.064 H 
ATOM     25  H   LIG d   1       3.529  -2.149  -1.957  0.00  0.00     0.062 H 
ATOM     26  H   LIG d   1       1.769  -0.475  -2.319  0.00  0.00     0.062 H 
ATOM     27  H   LIG d   1       1.662   0.793  -4.460  0.00  0.00     0.062 H 
ENDROOT
BRANCH   1  28
ATOM     28  N   LIG d   1       6.526  -0.969  -6.110  0.00  0.00    -0.219 N 
ATOM     29  C   LIG d   1       7.452  -1.699  -5.457  0.00  0.00     0.229 C 
ATOM     30  O   LIG d   1       8.588  -1.286  -5.355  0.00  0.00    -0.274 OA
BRANCH  29  31
ATOM     31  C   LIG d   1       7.076  -3.029  -4.856  0.00  0.00     0.014 C 
ATOM     32  H   LIG d   1       7.320  -3.826  -5.558  0.00  0.00     0.032 H 
ATOM     33  H   LIG d   1       7.630  -3.179  -3.929  0.00  0.00     0.032 H 
ATOM     34  H   LIG d   1       6.006  -3.044  -4.647  0.00  0.00     0.032 H 
ENDBRANCH  29  31
BRANCH  28  35
ATOM     35  C   LIG d   1       6.912   0.279  -6.774  0.00  0.00     0.023 C 
ATOM     36  H   LIG d   1       7.087   1.050  -6.024  0.00  0.00     0.045 H 
ATOM     37  H   LIG d   1       7.824   0.118  -7.349  0.00  0.00     0.045 H 
ATOM     38  H   LIG d   1       6.112   0.596  -7.443  0.00  0.00     0.045 H 
ENDBRANCH  28  35
ENDBRANCH   1  28
TORSDOF 3
ENDMDL
MODEL 8
REMARK VINA RESULT:      -5.0      9.408     11.441
REMARK  3 active torsions:
REMARK  status: ('A' for Active; 'I' for Inactive)
REMARK    1  A    between atoms: C_1  and  C_2 
REMARK       I    between atoms: C_2  and  N_4 
REMARK    2  A    between atoms: N_4  and  C_5 
REMARK    3  A    between atoms: N_4  and  N_6 
ROOT
ATOM      1  N   LIG d   1      11.144   6.906  -2.227  0.00  0.00    -0.217 N 
ATOM      2  C   LIG d   1      10.496   5.934  -2.998  0.00  0.00     0.057 A 
ATOM      3  C   LIG d   1      10.367   4.658  -2.462  0.00  0.00    -0.038 A 
ATOM      4  C   LIG d   1       9.705   3.668  -3.160  0.00  0.00    -0.060 A 
ATOM      5  C   LIG d   1       9.168   3.963  -4.400  0.00  0.00    -0.061 A 
ATOM      6  C   LIG d   1       9.309   5.222  -4.937  0.00  0.00    -0.057 A 
ATOM      7  C   LIG d   1       9.992   6.232  -4.255  0.00  0.00    -0.024 A 
ATOM      8  C   LIG d   1      10.133   7.528  -5.021  0.00  0.00    -0.022 C 
ATOM      9  C   LIG d   1      10.948   8.576  -4.284  0.00  0.00    -0.022 C 
ATOM     10  C   LIG d   1      10.293   8.965  -2.982  0.00  0.00    -0.024 A 
ATOM     11  C   LIG d   1      10.448   8.083  -1.938  0.00  0.00     0.057 A 
ATOM     12  C   LIG d   1       9.927   8.361  -0.685  0.00  0.00    -0.038 A 
ATOM     13  C   LIG d   1       9.221   9.539  -0.507  0.00  0.00    -0.060 A 
ATOM     14  C   LIG d   1       9.041  10.415  -1.562  0.00  0.00    -0.061 A 
ATOM     15  C   LIG d   1       9.585  10.133  -2.822  0.00  0.00    -0.057 A 
ATOM     16  H   LIG d   1      10.787   4.438  -1.492  0.00  0.00     0.064 H 
ATOM     17  H   LIG d   1       9.607   2.677  -2.743  0.00  0.00     0.062 H 
ATOM     18  H   LIG d   1       8.636   3.201  -4.950  0.00  0.00     0.062 H 
ATOM     19  H   LIG d   1       8.883   5.434  -5.905  0.00  0.00     0.062 H 
ATOM     20  H   LIG d   1      10.615   7.319  -5.977  0.00  0.00     0.032 H 
ATOM     21  H   LIG d   1       9.138   7.931  -5.214  0.00  0.00     0.032 H 
ATOM     22  H   LIG d   1      11.941   8.176  -4.078  0.00  0.00     0.032 H 
ATOM     23  H   LIG d   1      11.044   9.461  -4.913  0.00  0.00     0.032 H 
ATOM     24  H   LIG d   1      10.068   7.673   0.135  0.00  0.00     0.064 H 
ATOM     25  H   LIG d   1       8.807   9.776   0.463  0.00  0.00     0.062 H 
ATOM     26  H   LIG d   1       8.477  11.324  -1.415  0.00  0.00     0.062 H 
ATOM     27  H   LIG d   1       9.448  10.812  -3.651  0.00  0.00     0.062 H 
ENDROOT
BRANCH   1  28
ATOM     28  N   LIG d   1      12.448   6.702  -1.755  0.00  0.00    -0.219 N 
ATOM     29  C   LIG d   1      12.648   6.266  -0.496  0.00  0.00     0.229 C 
ATOM     30  O   LIG d   1      13.776   6.162  -0.062  0.00  0.00    -0.274 OA
BRANCH  29  31
ATOM     31  C   LIG d   1      11.470   5.906   0.373  0.00  0.00     0.014 C 
ATOM     32  H   LIG d   1      10.550   6.235  -0.110  0.00  0.00     0.032 H 
ATOM     33  H   LIG d   1      11.440   4.825   0.515  0.00  0.00     0.032 H 
ATOM     34  H   LIG d   1      11.568   6.397   1.341  0.00  0.00     0.032 H 
ENDBRANCH  29  31
BRANCH  28  35
ATOM     35  C   LIG d   1      13.593   6.964  -2.631  0.00  0.00     0.023 C 
ATOM     36  H   LIG d   1      13.895   8.006  -2.532  0.00  0.00     0.045 H 
ATOM     37  H   LIG d   1      14.423   6.317  -2.346  0.00  0.00     0.045 H 
ATOM     38  H   LIG d   1      13.314   6.762  -3.665  0.00  0.00     0.045 H 
ENDBRANCH  28  35
ENDBRANCH   1  28
TORSDOF 3
ENDMDL
MODEL 9
REMARK VINA RESULT:      -5.0      9.904     11.871
REMARK  3 active torsions:
REMARK  status: ('A' for Active; 'I' for Inactive)
REMARK    1  A    between atoms: C_1  and  C_2 
REMARK       I    between atoms: C_2  and  N_4 
REMARK    2  A    between atoms: N_4  and  C_5 
REMARK    3  A    between atoms: N_4  and  N_6 
ROOT
ATOM      1  N   LIG d   1      10.333  -9.668  -0.599  0.00  0.00    -0.217 N 
ATOM      2  C   LIG d   1      10.745  -9.509   0.728  0.00  0.00     0.057 A 
ATOM      3  C   LIG d   1      11.127  -8.239   1.144  0.00  0.00    -0.038 A 
ATOM      4  C   LIG d   1      11.507  -8.013   2.451  0.00  0.00    -0.060 A 
ATOM      5  C   LIG d   1      11.499  -9.068   3.346  0.00  0.00    -0.061 A 
ATOM      6  C   LIG d   1      11.135 -10.328   2.931  0.00  0.00    -0.057 A 
ATOM      7  C   LIG d   1      10.766 -10.581   1.608  0.00  0.00    -0.024 A 
ATOM      8  C   LIG d   1      10.480 -12.033   1.298  0.00  0.00    -0.022 C 
ATOM      9  C   LIG d   1      10.159 -12.283  -0.166  0.00  0.00    -0.022 C 
ATOM     10  C   LIG d   1       8.914 -11.544  -0.589  0.00  0.00    -0.024 A 
ATOM     11  C   LIG d   1       9.061 -10.198  -0.832  0.00  0.00     0.057 A 
ATOM     12  C   LIG d   1       7.994  -9.432  -1.269  0.00  0.00    -0.038 A 
ATOM     13  C   LIG d   1       6.762 -10.043  -1.436  0.00  0.00    -0.060 A 
ATOM     14  C   LIG d   1       6.606 -11.390  -1.166  0.00  0.00    -0.061 A 
ATOM     15  C   LIG d   1       7.695 -12.161  -0.739  0.00  0.00    -0.057 A 
ATOM     16  H   LIG d   1      11.128  -7.421   0.438  0.00  0.00     0.064 H 
ATOM     17  H   LIG d   1      11.806  -7.026   2.771  0.00  0.00     0.062 H 
ATOM     18  H   LIG d   1      11.781  -8.902   4.375  0.00  0.00     0.062 H 
ATOM     19  H   LIG d   1      11.133 -11.139   3.643  0.00  0.00     0.062 H 
ATOM     20  H   LIG d   1      11.353 -12.627   1.571  0.00  0.00     0.032 H 
ATOM     21  H   LIG d   1       9.633 -12.360   1.902  0.00  0.00     0.032 H 
ATOM     22  H   LIG d   1      10.998 -11.948  -0.777  0.00  0.00     0.032 H 
ATOM     23  H   LIG d   1      10.010 -13.351  -0.321  0.00  0.00     0.032 H 
ATOM     24  H   LIG d   1       8.120  -8.380  -1.476  0.00  0.00     0.064 H 
ATOM     25  H   LIG d   1       5.917  -9.463  -1.777  0.00  0.00     0.062 H 
ATOM     26  H   LIG d   1       5.638 -11.853  -1.287  0.00  0.00     0.062 H 
ATOM     27  H   LIG d   1       7.581 -13.214  -0.527  0.00  0.00     0.062 H 
ENDROOT
BRANCH   1  28
ATOM     28  N   LIG d   1      11.169  -9.301  -1.663  0.00  0.00    -0.219 N 
ATOM     29  C   LIG d   1      11.031  -8.092  -2.242  0.00  0.00     0.229 C 
ATOM     30  O   LIG d   1      11.701  -7.803  -3.211  0.00  0.00    -0.274 OA
BRANCH  29  31
ATOM     31  C   LIG d   1      10.044  -7.098  -1.685  0.00  0.00     0.014 C 
ATOM     32  H   LIG d   1       9.041  -7.522  -1.724  0.00  0.00     0.032 H 
ATOM     33  H   LIG d   1      10.302  -6.871  -0.650  0.00  0.00     0.032 H 
ATOM     34  H   LIG d   1      10.076  -6.183  -2.276  0.00  0.00     0.032 H 
ENDBRANCH  29  31
BRANCH  28  35
ATOM     35  C   LIG d   1      12.192 -10.232  -2.147  0.00  0.00     0.023 C 
ATOM     36  H   LIG d   1      12.379 -10.049  -3.205  0.00  0.00     0.045 H 
ATOM     37  H   LIG d   1      13.113 -10.083  -1.584  0.00  0.00     0.045 H 
ATOM     38  H   LIG d   1      11.844 -11.256  -2.010  0.00  0.00     0.045 H 
ENDBRANCH  28  35
ENDBRANCH   1  28
TORSDOF 3
ENDMDL
MODEL 10
REMARK VINA RESULT:      -4.6      8.292     10.445
REMARK  3 active torsions:
REMARK  status: ('A' for Active; 'I' for Inactive)
REMARK    1  A    between atoms: C_1  and  C_2 
REMARK       I    between atoms: C_2  and  N_4 
REMARK    2  A    between atoms: N_4  and  C_5 
REMARK    3  A    between atoms: N_4  and  N_6 
ROOT
ATOM      1  N   LIG d   1      10.807   6.152  -2.653  0.00  0.00    -0.217 N 
ATOM      2  C   LIG d   1      11.714   6.865  -3.444  0.00  0.00     0.057 A 
ATOM      3  C   LIG d   1      12.923   7.241  -2.870  0.00  0.00    -0.038 A 
ATOM      4  C   LIG d   1      13.872   7.914  -3.611  0.00  0.00    -0.060 A 
ATOM      5  C   LIG d   1      13.607   8.207  -4.937  0.00  0.00    -0.061 A 
ATOM      6  C   LIG d   1      12.404   7.848  -5.501  0.00  0.00    -0.057 A 
ATOM      7  C   LIG d   1      11.423   7.184  -4.761  0.00  0.00    -0.024 A 
ATOM      8  C   LIG d   1      10.128   6.941  -5.505  0.00  0.00    -0.022 C 
ATOM      9  C   LIG d   1       9.057   6.289  -4.647  0.00  0.00    -0.022 C 
ATOM     10  C   LIG d   1       9.491   4.925  -4.169  0.00  0.00    -0.024 A 
ATOM     11  C   LIG d   1      10.374   4.905  -3.114  0.00  0.00     0.057 A 
ATOM     12  C   LIG d   1      10.804   3.709  -2.566  0.00  0.00    -0.038 A 
ATOM     13  C   LIG d   1      10.345   2.523  -3.118  0.00  0.00    -0.060 A 
ATOM     14  C   LIG d   1       9.479   2.541  -4.195  0.00  0.00    -0.061 A 
ATOM     15  C   LIG d   1       9.037   3.757  -4.734  0.00  0.00    -0.057 A 
ATOM     16  H   LIG d   1      13.122   7.006  -1.835  0.00  0.00     0.064 H 
ATOM     17  H   LIG d   1      14.809   8.208  -3.164  0.00  0.00     0.062 H 
ATOM     18  H   LIG d   1      14.347   8.721  -5.532  0.00  0.00     0.062 H 
ATOM     19  H   LIG d   1      12.215   8.084  -6.537  0.00  0.00     0.062 H 
ATOM     20  H   LIG d   1       9.750   7.896  -5.869  0.00  0.00     0.032 H 
ATOM     21  H   LIG d   1      10.331   6.297  -6.360  0.00  0.00     0.032 H 
ATOM     22  H   LIG d   1       8.857   6.922  -3.783  0.00  0.00     0.032 H 
ATOM     23  H   LIG d   1       8.144   6.187  -5.233  0.00  0.00     0.032 H 
ATOM     24  H   LIG d   1      11.482   3.700  -1.726  0.00  0.00     0.064 H 
ATOM     25  H   LIG d   1      10.667   1.579  -2.704  0.00  0.00     0.062 H 
ATOM     26  H   LIG d   1       9.138   1.611  -4.626  0.00  0.00     0.062 H 
ATOM     27  H   LIG d   1       8.360   3.778  -5.575  0.00  0.00     0.062 H 
ENDROOT
BRANCH   1  28
ATOM     28  N   LIG d   1      10.351   6.669  -1.432  0.00  0.00    -0.219 N 
ATOM     29  C   LIG d   1      10.945   6.299  -0.280  0.00  0.00     0.229 C 
ATOM     30  O   LIG d   1      10.503   6.685   0.781  0.00  0.00    -0.274 OA
BRANCH  29  31
ATOM     31  C   LIG d   1      12.159   5.406  -0.311  0.00  0.00     0.014 C 
ATOM     32  H   LIG d   1      12.409   5.098   0.704  0.00  0.00     0.032 H 
ATOM     33  H   LIG d   1      11.948   4.525  -0.917  0.00  0.00     0.032 H 
ATOM     34  H   LIG d   1      13.000   5.951  -0.743  0.00  0.00     0.032 H 
ENDBRANCH  29  31
BRANCH  28  35
ATOM     35  C   LIG d   1       9.228   7.610  -1.408  0.00  0.00     0.023 C 
ATOM     36  H   LIG d   1       9.463   8.439  -0.741  0.00  0.00     0.045 H 
ATOM     37  H   LIG d   1       9.053   7.991  -2.414  0.00  0.00     0.045 H 
ATOM     38  H   LIG d   1       8.334   7.099  -1.052  0.00  0.00     0.045 H 
ENDBRANCH  28  35
ENDBRANCH   1  28
TORSDOF 3
ENDMDL
