MODEL 1
REMARK VINA RESULT:      -7.7      0.000      0.000
REMARK  11 active torsions:
REMARK  status: ('A' for Active; 'I' for Inactive)
REMARK    1  A    between atoms: C_1  and  O_2 
REMARK    2  A    between atoms: O_2  and  C_3 
REMARK    3  A    between atoms: C_6  and  C_13 
REMARK    4  A    between atoms: C_7  and  O_11 
REMARK    5  A    between atoms: C_8  and  O_9 
REMARK    6  A    between atoms: O_9  and  C_10 
REMARK    7  A    between atoms: O_11  and  C_12 
REMARK    8  A    between atoms: C_13  and  N_14 
REMARK       I    between atoms: N_17  and  C_20 
REMARK    9  A    between atoms: C_20  and  C_22 
REMARK   10  A    between atoms: C_22  and  C_23 
REMARK   11  A    between atoms: C_23  and  C_24 
ROOT
ATOM      1  N   LIG d   1      10.270   3.125  -4.352  0.00  0.00    -0.295 N 
ATOM      2  C   LIG d   1      11.048   2.189  -5.173  0.00  0.00     0.015 C 
ATOM      3  C   LIG d   1      10.489   0.774  -4.997  0.00  0.00     0.028 C 
ATOM      4  N   LIG d   1       9.046   0.802  -5.284  0.00  0.00    -0.299 N 
ATOM      5  C   LIG d   1       8.221   1.809  -4.600  0.00  0.00     0.028 C 
ATOM      6  C   LIG d   1       8.870   3.184  -4.792  0.00  0.00     0.015 C 
ATOM      7  C   LIG d   1       8.496  -0.070  -6.152  0.00  0.00     0.216 C 
ATOM      8  O   LIG d   1       9.192  -0.894  -6.707  0.00  0.00    -0.276 OA
ATOM      9  H   LIG d   1      10.978   2.480  -6.222  0.00  0.00     0.044 H 
ATOM     10  H   LIG d   1      12.092   2.210  -4.859  0.00  0.00     0.044 H 
ATOM     11  H   LIG d   1      10.986   0.094  -5.690  0.00  0.00     0.048 H 
ATOM     12  H   LIG d   1      10.651   0.440  -3.972  0.00  0.00     0.048 H 
ATOM     13  H   LIG d   1       7.219   1.813  -5.029  0.00  0.00     0.048 H 
ATOM     14  H   LIG d   1       8.166   1.575  -3.536  0.00  0.00     0.048 H 
ATOM     15  H   LIG d   1       8.334   3.925  -4.200  0.00  0.00     0.044 H 
ATOM     16  H   LIG d   1       8.830   3.461  -5.845  0.00  0.00     0.044 H 
ENDROOT
BRANCH   7  17
ATOM     17  C   LIG d   1       7.016  -0.023  -6.431  0.00  0.00     0.026 C 
ATOM     18  H   LIG d   1       6.607   0.920  -6.068  0.00  0.00     0.036 H 
ATOM     19  H   LIG d   1       6.845  -0.104  -7.504  0.00  0.00     0.036 H 
BRANCH  17  20
ATOM     20  C   LIG d   1       6.326  -1.186  -5.716  0.00  0.00    -0.018 C 
ATOM     21  H   LIG d   1       7.047  -1.983  -5.537  0.00  0.00     0.029 H 
ATOM     22  H   LIG d   1       5.923  -0.840  -4.764  0.00  0.00     0.029 H 
BRANCH  20  23
ATOM     23  C   LIG d   1       5.186  -1.717  -6.588  0.00  0.00     0.100 C 
ATOM     24  H   LIG d   1       5.581  -2.020  -7.558  0.00  0.00     0.059 H 
ATOM     25  N   LIG d   1       4.181  -0.670  -6.773  0.00  0.00    -0.300 N 
ATOM     26  C   LIG d   1       3.585  -0.089  -5.731  0.00  0.00     0.246 C 
ATOM     27  H   LIG d   1       3.944  -0.394  -7.672  0.00  0.00     0.150 HD
ATOM     28  C   LIG d   1       3.870  -0.407  -4.326  0.00  0.00     0.058 A 
ATOM     29  O   LIG d   1       2.748   0.763  -5.960  0.00  0.00    -0.270 OA
ATOM     30  C   LIG d   1       4.088  -1.705  -3.867  0.00  0.00     0.046 A 
ATOM     31  C   LIG d   1       3.928   0.663  -3.417  0.00  0.00    -0.048 A 
ATOM     32  N   LIG d   1       4.044  -2.820  -4.684  0.00  0.00    -0.283 N 
ATOM     33  C   LIG d   1       4.364  -1.914  -2.513  0.00  0.00    -0.040 A 
ATOM     34  C   LIG d   1       4.543  -2.898  -5.915  0.00  0.00     0.238 C 
ATOM     35  H   LIG d   1       3.611  -3.613  -4.331  0.00  0.00     0.155 HD
ATOM     36  O   LIG d   1       4.480  -3.952  -6.510  0.00  0.00    -0.273 OA
ATOM     37  C   LIG d   1       4.419  -0.854  -1.635  0.00  0.00    -0.060 A 
ATOM     38  H   LIG d   1       4.535  -2.917  -2.152  0.00  0.00     0.064 H 
ATOM     39  C   LIG d   1       4.200   0.437  -2.088  0.00  0.00    -0.061 A 
ATOM     40  H   LIG d   1       4.635  -1.030  -0.592  0.00  0.00     0.062 H 
ATOM     41  H   LIG d   1       4.242   1.266  -1.397  0.00  0.00     0.062 H 
ATOM     42  H   LIG d   1       3.758   1.672  -3.764  0.00  0.00     0.063 H 
ENDBRANCH  20  23
ENDBRANCH  17  20
ENDBRANCH   7  17
BRANCH   1  43
ATOM     43  C   LIG d   1      10.879   4.462  -4.358  0.00  0.00     0.028 C 
ATOM     44  H   LIG d   1      10.342   5.104  -5.057  0.00  0.00     0.048 H 
ATOM     45  H   LIG d   1      11.923   4.385  -4.664  0.00  0.00     0.048 H 
BRANCH  43  46
ATOM     46  C   LIG d   1      10.804   5.054  -2.973  0.00  0.00     0.012 A 
ATOM     47  C   LIG d   1      11.621   4.567  -1.970  0.00  0.00    -0.050 A 
ATOM     48  C   LIG d   1      11.557   5.105  -0.699  0.00  0.00    -0.016 A 
ATOM     49  H   LIG d   1      12.312   3.763  -2.181  0.00  0.00     0.062 H 
ATOM     50  C   LIG d   1      10.672   6.138  -0.425  0.00  0.00     0.165 A 
ATOM     51  H   LIG d   1      12.197   4.723   0.082  0.00  0.00     0.066 H 
ATOM     52  C   LIG d   1       9.845   6.625  -1.429  0.00  0.00     0.204 A 
ATOM     53  C   LIG d   1       9.916   6.085  -2.708  0.00  0.00     0.170 A 
BRANCH  50  54
ATOM     54  O   LIG d   1      10.610   6.668   0.826  0.00  0.00    -0.491 OA
BRANCH  54  55
ATOM     55  C   LIG d   1      10.962   5.809   1.913  0.00  0.00     0.079 C 
ATOM     56  H   LIG d   1      10.068   5.564   2.486  0.00  0.00     0.066 H 
ATOM     57  H   LIG d   1      11.406   4.893   1.523  0.00  0.00     0.066 H 
ATOM     58  H   LIG d   1      11.680   6.315   2.558  0.00  0.00     0.066 H 
ENDBRANCH  54  55
ENDBRANCH  50  54
BRANCH  52  59
ATOM     59  O   LIG d   1       8.970   7.634  -1.163  0.00  0.00    -0.488 OA
BRANCH  59  60
ATOM     60  C   LIG d   1       9.493   8.964  -1.168  0.00  0.00     0.079 C 
ATOM     61  H   LIG d   1      10.169   9.085  -2.015  0.00  0.00     0.066 H 
ATOM     62  H   LIG d   1       8.674   9.677  -1.252  0.00  0.00     0.066 H 
ATOM     63  H   LIG d   1      10.038   9.144  -0.241  0.00  0.00     0.066 H 
ENDBRANCH  59  60
ENDBRANCH  52  59
BRANCH  53  64
ATOM     64  O   LIG d   1       9.113   6.563  -3.695  0.00  0.00    -0.491 OA
BRANCH  64  65
ATOM     65  C   LIG d   1       9.674   7.546  -4.568  0.00  0.00     0.079 C 
ATOM     66  H   LIG d   1       9.198   7.476  -5.547  0.00  0.00     0.066 H 
ATOM     67  H   LIG d   1       9.503   8.540  -4.152  0.00  0.00     0.066 H 
ATOM     68  H   LIG d   1      10.744   7.373  -4.671  0.00  0.00     0.066 H 
ENDBRANCH  64  65
ENDBRANCH  53  64
ENDBRANCH  43  46
ENDBRANCH   1  43
TORSDOF 11
ENDMDL
MODEL 2
REMARK VINA RESULT:      -7.2      1.146      1.920
REMARK  11 active torsions:
REMARK  status: ('A' for Active; 'I' for Inactive)
REMARK    1  A    between atoms: C_1  and  O_2 
REMARK    2  A    between atoms: O_2  and  C_3 
REMARK    3  A    between atoms: C_6  and  C_13 
REMARK    4  A    between atoms: C_7  and  O_11 
REMARK    5  A    between atoms: C_8  and  O_9 
REMARK    6  A    between atoms: O_9  and  C_10 
REMARK    7  A    between atoms: O_11  and  C_12 
REMARK    8  A    between atoms: C_13  and  N_14 
REMARK       I    between atoms: N_17  and  C_20 
REMARK    9  A    between atoms: C_20  and  C_22 
REMARK   10  A    between atoms: C_22  and  C_23 
REMARK   11  A    between atoms: C_23  and  C_24 
ROOT
ATOM      1  N   LIG d   1      10.114   2.988  -4.748  0.00  0.00    -0.295 N 
ATOM      2  C   LIG d   1      10.923   1.957  -5.410  0.00  0.00     0.015 C 
ATOM      3  C   LIG d   1      10.372   0.573  -5.054  0.00  0.00     0.028 C 
ATOM      4  N   LIG d   1       8.938   0.543  -5.381  0.00  0.00    -0.299 N 
ATOM      5  C   LIG d   1       8.084   1.624  -4.866  0.00  0.00     0.028 C 
ATOM      6  C   LIG d   1       8.726   2.967  -5.229  0.00  0.00     0.015 C 
ATOM      7  C   LIG d   1       8.421  -0.448  -6.134  0.00  0.00     0.216 C 
ATOM      8  O   LIG d   1       9.139  -1.332  -6.550  0.00  0.00    -0.276 OA
ATOM      9  H   LIG d   1      10.881   2.099  -6.490  0.00  0.00     0.044 H 
ATOM     10  H   LIG d   1      11.957   2.035  -5.074  0.00  0.00     0.044 H 
ATOM     11  H   LIG d   1      10.895  -0.189  -5.632  0.00  0.00     0.048 H 
ATOM     12  H   LIG d   1      10.508   0.387  -3.989  0.00  0.00     0.048 H 
ATOM     13  H   LIG d   1       7.095   1.556  -5.318  0.00  0.00     0.048 H 
ATOM     14  H   LIG d   1       8.001   1.539  -3.782  0.00  0.00     0.048 H 
ATOM     15  H   LIG d   1       8.166   3.776  -4.760  0.00  0.00     0.044 H 
ATOM     16  H   LIG d   1       8.714   3.095  -6.311  0.00  0.00     0.044 H 
ENDROOT
BRANCH   7  17
ATOM     17  C   LIG d   1       6.948  -0.459  -6.456  0.00  0.00     0.026 C 
ATOM     18  H   LIG d   1       6.547   0.549  -6.358  0.00  0.00     0.036 H 
ATOM     19  H   LIG d   1       6.802  -0.810  -7.478  0.00  0.00     0.036 H 
BRANCH  17  20
ATOM     20  C   LIG d   1       6.222  -1.394  -5.487  0.00  0.00    -0.018 C 
ATOM     21  H   LIG d   1       6.907  -2.171  -5.148  0.00  0.00     0.029 H 
ATOM     22  H   LIG d   1       5.866  -0.824  -4.629  0.00  0.00     0.029 H 
BRANCH  20  23
ATOM     23  C   LIG d   1       5.031  -2.041  -6.199  0.00  0.00     0.100 C 
ATOM     24  H   LIG d   1       5.373  -2.532  -7.110  0.00  0.00     0.059 H 
ATOM     25  N   LIG d   1       4.045  -1.014  -6.536  0.00  0.00    -0.300 N 
ATOM     26  C   LIG d   1       3.511  -0.230  -5.598  0.00  0.00     0.246 C 
ATOM     27  H   LIG d   1       3.774  -0.903  -7.460  0.00  0.00     0.150 HD
ATOM     28  C   LIG d   1       3.852  -0.289  -4.171  0.00  0.00     0.058 A 
ATOM     29  O   LIG d   1       2.686   0.591  -5.949  0.00  0.00    -0.270 OA
ATOM     30  C   LIG d   1       4.058  -1.486  -3.486  0.00  0.00     0.046 A 
ATOM     31  C   LIG d   1       3.978   0.928  -3.482  0.00  0.00    -0.048 A 
ATOM     32  N   LIG d   1       3.949  -2.732  -4.078  0.00  0.00    -0.283 N 
ATOM     33  C   LIG d   1       4.390  -1.448  -2.129  0.00  0.00    -0.040 A 
ATOM     34  C   LIG d   1       4.390  -3.054  -5.291  0.00  0.00     0.238 C 
ATOM     35  H   LIG d   1       3.513  -3.430  -3.565  0.00  0.00     0.155 HD
ATOM     36  O   LIG d   1       4.274  -4.198  -5.675  0.00  0.00    -0.273 OA
ATOM     37  C   LIG d   1       4.511  -0.246  -1.469  0.00  0.00    -0.060 A 
ATOM     38  H   LIG d   1       4.553  -2.372  -1.593  0.00  0.00     0.064 H 
ATOM     39  C   LIG d   1       4.304   0.944  -2.146  0.00  0.00    -0.061 A 
ATOM     40  H   LIG d   1       4.769  -0.232  -0.420  0.00  0.00     0.062 H 
ATOM     41  H   LIG d   1       4.398   1.886  -1.625  0.00  0.00     0.062 H 
ATOM     42  H   LIG d   1       3.817   1.860  -4.005  0.00  0.00     0.063 H 
ENDBRANCH  20  23
ENDBRANCH  17  20
ENDBRANCH   7  17
BRANCH   1  43
ATOM     43  C   LIG d   1      10.710   4.319  -4.923  0.00  0.00     0.028 C 
ATOM     44  H   LIG d   1      10.196   4.846  -5.727  0.00  0.00     0.048 H 
ATOM     45  H   LIG d   1      11.766   4.214  -5.175  0.00  0.00     0.048 H 
BRANCH  43  46
ATOM     46  C   LIG d   1      10.575   5.102  -3.642  0.00  0.00     0.012 A 
ATOM     47  C   LIG d   1       9.571   6.044  -3.512  0.00  0.00    -0.050 A 
ATOM     48  C   LIG d   1       9.442   6.765  -2.340  0.00  0.00    -0.016 A 
ATOM     49  H   LIG d   1       8.885   6.216  -4.329  0.00  0.00     0.062 H 
ATOM     50  C   LIG d   1      10.320   6.546  -1.289  0.00  0.00     0.165 A 
ATOM     51  H   LIG d   1       8.656   7.499  -2.242  0.00  0.00     0.066 H 
ATOM     52  C   LIG d   1      11.334   5.605  -1.418  0.00  0.00     0.204 A 
ATOM     53  C   LIG d   1      11.457   4.878  -2.596  0.00  0.00     0.170 A 
BRANCH  50  54
ATOM     54  O   LIG d   1      10.191   7.255  -0.136  0.00  0.00    -0.491 OA
BRANCH  54  55
ATOM     55  C   LIG d   1      10.239   8.679  -0.241  0.00  0.00     0.079 C 
ATOM     56  H   LIG d   1      10.405   9.111   0.746  0.00  0.00     0.066 H 
ATOM     57  H   LIG d   1      11.054   8.967  -0.904  0.00  0.00     0.066 H 
ATOM     58  H   LIG d   1       9.295   9.045  -0.644  0.00  0.00     0.066 H 
ENDBRANCH  54  55
ENDBRANCH  50  54
BRANCH  52  59
ATOM     59  O   LIG d   1      12.202   5.391  -0.391  0.00  0.00    -0.488 OA
BRANCH  59  60
ATOM     60  C   LIG d   1      13.331   6.262  -0.304  0.00  0.00     0.079 C 
ATOM     61  H   LIG d   1      14.214   5.686  -0.027  0.00  0.00     0.066 H 
ATOM     62  H   LIG d   1      13.496   6.741  -1.268  0.00  0.00     0.066 H 
ATOM     63  H   LIG d   1      13.144   7.025   0.453  0.00  0.00     0.066 H 
ENDBRANCH  59  60
ENDBRANCH  52  59
BRANCH  53  64
ATOM     64  O   LIG d   1      12.444   3.952  -2.725  0.00  0.00    -0.491 OA
BRANCH  64  65
ATOM     65  C   LIG d   1      13.659   4.379  -3.344  0.00  0.00     0.079 C 
ATOM     66  H   LIG d   1      14.394   3.576  -3.294  0.00  0.00     0.066 H 
ATOM     67  H   LIG d   1      13.466   4.630  -4.388  0.00  0.00     0.066 H 
ATOM     68  H   LIG d   1      14.042   5.256  -2.824  0.00  0.00     0.066 H 
ENDBRANCH  64  65
ENDBRANCH  53  64
ENDBRANCH  43  46
ENDBRANCH   1  43
TORSDOF 11
ENDMDL
MODEL 3
REMARK VINA RESULT:      -7.0      4.942     11.306
REMARK  11 active torsions:
REMARK  status: ('A' for Active; 'I' for Inactive)
REMARK    1  A    between atoms: C_1  and  O_2 
REMARK    2  A    between atoms: O_2  and  C_3 
REMARK    3  A    between atoms: C_6  and  C_13 
REMARK    4  A    between atoms: C_7  and  O_11 
REMARK    5  A    between atoms: C_8  and  O_9 
REMARK    6  A    between atoms: O_9  and  C_10 
REMARK    7  A    between atoms: O_11  and  C_12 
REMARK    8  A    between atoms: C_13  and  N_14 
REMARK       I    between atoms: N_17  and  C_20 
REMARK    9  A    between atoms: C_20  and  C_22 
REMARK   10  A    between atoms: C_22  and  C_23 
REMARK   11  A    between atoms: C_23  and  C_24 
ROOT
ATOM      1  N   LIG d   1       6.108  -6.418  -5.926  0.00  0.00    -0.295 N 
ATOM      2  C   LIG d   1       4.836  -5.986  -6.518  0.00  0.00     0.015 C 
ATOM      3  C   LIG d   1       4.420  -4.645  -5.906  0.00  0.00     0.028 C 
ATOM      4  N   LIG d   1       5.533  -3.695  -6.061  0.00  0.00    -0.299 N 
ATOM      5  C   LIG d   1       6.871  -4.113  -5.615  0.00  0.00     0.028 C 
ATOM      6  C   LIG d   1       7.190  -5.475  -6.239  0.00  0.00     0.015 C 
ATOM      7  C   LIG d   1       5.332  -2.476  -6.599  0.00  0.00     0.216 C 
ATOM      8  O   LIG d   1       4.222  -2.148  -6.962  0.00  0.00    -0.276 OA
ATOM      9  H   LIG d   1       4.956  -5.872  -7.596  0.00  0.00     0.044 H 
ATOM     10  H   LIG d   1       4.068  -6.732  -6.316  0.00  0.00     0.044 H 
ATOM     11  H   LIG d   1       3.539  -4.263  -6.422  0.00  0.00     0.048 H 
ATOM     12  H   LIG d   1       4.199  -4.778  -4.847  0.00  0.00     0.048 H 
ATOM     13  H   LIG d   1       7.610  -3.379  -5.938  0.00  0.00     0.048 H 
ATOM     14  H   LIG d   1       6.885  -4.195  -4.528  0.00  0.00     0.048 H 
ATOM     15  H   LIG d   1       8.129  -5.851  -5.833  0.00  0.00     0.044 H 
ATOM     16  H   LIG d   1       7.278  -5.369  -7.320  0.00  0.00     0.044 H 
ENDROOT
BRANCH   7  17
ATOM     17  C   LIG d   1       6.487  -1.519  -6.749  0.00  0.00     0.026 C 
ATOM     18  H   LIG d   1       7.399  -1.990  -6.385  0.00  0.00     0.036 H 
ATOM     19  H   LIG d   1       6.608  -1.257  -7.800  0.00  0.00     0.036 H 
BRANCH  17  20
ATOM     20  C   LIG d   1       6.208  -0.253  -5.936  0.00  0.00    -0.018 C 
ATOM     21  H   LIG d   1       5.913   0.552  -6.608  0.00  0.00     0.029 H 
ATOM     22  H   LIG d   1       5.404  -0.447  -5.226  0.00  0.00     0.029 H 
BRANCH  20  23
ATOM     23  C   LIG d   1       7.472   0.155  -5.176  0.00  0.00     0.100 C 
ATOM     24  H   LIG d   1       8.266   0.386  -5.887  0.00  0.00     0.059 H 
ATOM     25  N   LIG d   1       7.896  -0.943  -4.306  0.00  0.00    -0.300 N 
ATOM     26  C   LIG d   1       7.079  -1.451  -3.382  0.00  0.00     0.246 C 
ATOM     27  H   LIG d   1       8.790  -1.305  -4.403  0.00  0.00     0.150 HD
ATOM     28  C   LIG d   1       5.701  -0.999  -3.151  0.00  0.00     0.058 A 
ATOM     29  O   LIG d   1       7.504  -2.351  -2.684  0.00  0.00    -0.270 OA
ATOM     30  C   LIG d   1       5.323   0.342  -3.187  0.00  0.00     0.046 A 
ATOM     31  C   LIG d   1       4.731  -1.981  -2.889  0.00  0.00    -0.048 A 
ATOM     32  N   LIG d   1       6.207   1.378  -3.430  0.00  0.00    -0.283 N 
ATOM     33  C   LIG d   1       3.985   0.681  -2.966  0.00  0.00    -0.040 A 
ATOM     34  C   LIG d   1       7.185   1.365  -4.332  0.00  0.00     0.238 C 
ATOM     35  H   LIG d   1       6.106   2.182  -2.896  0.00  0.00     0.155 HD
ATOM     36  O   LIG d   1       7.863   2.359  -4.478  0.00  0.00    -0.273 OA
ATOM     37  C   LIG d   1       3.046  -0.294  -2.712  0.00  0.00    -0.060 A 
ATOM     38  H   LIG d   1       3.685   1.718  -2.995  0.00  0.00     0.064 H 
ATOM     39  C   LIG d   1       3.420  -1.627  -2.673  0.00  0.00    -0.061 A 
ATOM     40  H   LIG d   1       2.016  -0.018  -2.544  0.00  0.00     0.062 H 
ATOM     41  H   LIG d   1       2.681  -2.390  -2.472  0.00  0.00     0.062 H 
ATOM     42  H   LIG d   1       5.017  -3.023  -2.857  0.00  0.00     0.063 H 
ENDBRANCH  20  23
ENDBRANCH  17  20
ENDBRANCH   7  17
BRANCH   1  43
ATOM     43  C   LIG d   1       6.455  -7.779  -6.358  0.00  0.00     0.028 C 
ATOM     44  H   LIG d   1       7.483  -7.795  -6.719  0.00  0.00     0.048 H 
ATOM     45  H   LIG d   1       5.784  -8.088  -7.160  0.00  0.00     0.048 H 
BRANCH  43  46
ATOM     46  C   LIG d   1       6.316  -8.726  -5.194  0.00  0.00     0.012 A 
ATOM     47  C   LIG d   1       7.249  -8.707  -4.174  0.00  0.00    -0.050 A 
ATOM     48  C   LIG d   1       7.127  -9.573  -3.104  0.00  0.00    -0.016 A 
ATOM     49  H   LIG d   1       8.075  -8.012  -4.213  0.00  0.00     0.062 H 
ATOM     50  C   LIG d   1       6.066 -10.466  -3.050  0.00  0.00     0.165 A 
ATOM     51  H   LIG d   1       7.857  -9.555  -2.308  0.00  0.00     0.066 H 
ATOM     52  C   LIG d   1       5.130 -10.493  -4.076  0.00  0.00     0.204 A 
ATOM     53  C   LIG d   1       5.253  -9.616  -5.148  0.00  0.00     0.170 A 
BRANCH  50  54
ATOM     54  O   LIG d   1       5.946 -11.317  -1.996  0.00  0.00    -0.491 OA
BRANCH  54  55
ATOM     55  C   LIG d   1       6.844 -11.125  -0.901  0.00  0.00     0.079 C 
ATOM     56  H   LIG d   1       7.076 -12.089  -0.449  0.00  0.00     0.066 H 
ATOM     57  H   LIG d   1       7.762 -10.663  -1.261  0.00  0.00     0.066 H 
ATOM     58  H   LIG d   1       6.377 -10.478  -0.158  0.00  0.00     0.066 H 
ENDBRANCH  54  55
ENDBRANCH  50  54
BRANCH  52  59
ATOM     59  O   LIG d   1       4.091 -11.371  -4.030  0.00  0.00    -0.488 OA
BRANCH  59  60
ATOM     60  C   LIG d   1       2.874 -10.906  -3.442  0.00  0.00     0.079 C 
ATOM     61  H   LIG d   1       2.854 -11.178  -2.386  0.00  0.00     0.066 H 
ATOM     62  H   LIG d   1       2.814  -9.823  -3.539  0.00  0.00     0.066 H 
ATOM     63  H   LIG d   1       2.026 -11.364  -3.952  0.00  0.00     0.066 H 
ENDBRANCH  59  60
ENDBRANCH  52  59
BRANCH  53  64
ATOM     64  O   LIG d   1       4.337  -9.634  -6.152  0.00  0.00    -0.491 OA
BRANCH  64  65
ATOM     65  C   LIG d   1       4.542 -10.580  -7.202  0.00  0.00     0.079 C 
ATOM     66  H   LIG d   1       5.509 -11.067  -7.068  0.00  0.00     0.066 H 
ATOM     67  H   LIG d   1       3.751 -11.330  -7.174  0.00  0.00     0.066 H 
ATOM     68  H   LIG d   1       4.524 -10.067  -8.162  0.00  0.00     0.066 H 
ENDBRANCH  64  65
ENDBRANCH  53  64
ENDBRANCH  43  46
ENDBRANCH   1  43
TORSDOF 11
ENDMDL
MODEL 4
REMARK VINA RESULT:      -6.9      1.690      2.756
REMARK  11 active torsions:
REMARK  status: ('A' for Active; 'I' for Inactive)
REMARK    1  A    between atoms: C_1  and  O_2 
REMARK    2  A    between atoms: O_2  and  C_3 
REMARK    3  A    between atoms: C_6  and  C_13 
REMARK    4  A    between atoms: C_7  and  O_11 
REMARK    5  A    between atoms: C_8  and  O_9 
REMARK    6  A    between atoms: O_9  and  C_10 
REMARK    7  A    between atoms: O_11  and  C_12 
REMARK    8  A    between atoms: C_13  and  N_14 
REMARK       I    between atoms: N_17  and  C_20 
REMARK    9  A    between atoms: C_20  and  C_22 
REMARK   10  A    between atoms: C_22  and  C_23 
REMARK   11  A    between atoms: C_23  and  C_24 
ROOT
ATOM      1  N   LIG d   1      10.887   3.888  -3.170  0.00  0.00    -0.295 N 
ATOM      2  C   LIG d   1       9.503   4.250  -3.499  0.00  0.00     0.015 C 
ATOM      3  C   LIG d   1       9.134   3.660  -4.864  0.00  0.00     0.028 C 
ATOM      4  N   LIG d   1       9.411   2.215  -4.839  0.00  0.00    -0.299 N 
ATOM      5  C   LIG d   1      10.737   1.769  -4.387  0.00  0.00     0.028 C 
ATOM      6  C   LIG d   1      11.043   2.433  -3.040  0.00  0.00     0.015 C 
ATOM      7  C   LIG d   1       8.473   1.325  -5.219  0.00  0.00     0.216 C 
ATOM      8  O   LIG d   1       7.385   1.711  -5.590  0.00  0.00    -0.276 OA
ATOM      9  H   LIG d   1       8.832   3.850  -2.737  0.00  0.00     0.044 H 
ATOM     10  H   LIG d   1       9.408   5.335  -3.533  0.00  0.00     0.044 H 
ATOM     11  H   LIG d   1       8.075   3.826  -5.061  0.00  0.00     0.048 H 
ATOM     12  H   LIG d   1       9.733   4.134  -5.642  0.00  0.00     0.048 H 
ATOM     13  H   LIG d   1      10.739   0.685  -4.270  0.00  0.00     0.048 H 
ATOM     14  H   LIG d   1      11.491   2.061  -5.119  0.00  0.00     0.048 H 
ATOM     15  H   LIG d   1      12.066   2.202  -2.744  0.00  0.00     0.044 H 
ATOM     16  H   LIG d   1      10.352   2.059  -2.285  0.00  0.00     0.044 H 
ENDROOT
BRANCH   7  17
ATOM     17  C   LIG d   1       8.779  -0.151  -5.186  0.00  0.00     0.026 C 
ATOM     18  H   LIG d   1       8.959  -0.508  -6.199  0.00  0.00     0.036 H 
ATOM     19  H   LIG d   1       9.666  -0.324  -4.577  0.00  0.00     0.036 H 
BRANCH  17  20
ATOM     20  C   LIG d   1       7.591  -0.903  -4.583  0.00  0.00    -0.018 C 
ATOM     21  H   LIG d   1       7.935  -1.521  -3.754  0.00  0.00     0.029 H 
ATOM     22  H   LIG d   1       6.854  -0.187  -4.220  0.00  0.00     0.029 H 
BRANCH  20  23
ATOM     23  C   LIG d   1       6.955  -1.793  -5.653  0.00  0.00     0.100 C 
ATOM     24  H   LIG d   1       7.725  -2.147  -6.339  0.00  0.00     0.059 H 
ATOM     25  N   LIG d   1       5.952  -1.028  -6.394  0.00  0.00    -0.300 N 
ATOM     26  C   LIG d   1       4.929  -0.440  -5.772  0.00  0.00     0.246 C 
ATOM     27  H   LIG d   1       6.033  -0.949  -7.357  0.00  0.00     0.150 HD
ATOM     28  C   LIG d   1       4.708  -0.473  -4.321  0.00  0.00     0.058 A 
ATOM     29  O   LIG d   1       4.125   0.166  -6.453  0.00  0.00    -0.270 OA
ATOM     30  C   LIG d   1       4.924  -1.609  -3.542  0.00  0.00     0.046 A 
ATOM     31  C   LIG d   1       4.263   0.708  -3.704  0.00  0.00    -0.048 A 
ATOM     32  N   LIG d   1       5.355  -2.818  -4.060  0.00  0.00    -0.283 N 
ATOM     33  C   LIG d   1       4.698  -1.547  -2.165  0.00  0.00    -0.040 A 
ATOM     34  C   LIG d   1       6.286  -2.970  -4.998  0.00  0.00     0.238 C 
ATOM     35  H   LIG d   1       4.941  -3.623  -3.711  0.00  0.00     0.155 HD
ATOM     36  O   LIG d   1       6.606  -4.090  -5.332  0.00  0.00    -0.273 OA
ATOM     37  C   LIG d   1       4.263  -0.381  -1.576  0.00  0.00    -0.060 A 
ATOM     38  H   LIG d   1       4.866  -2.423  -1.556  0.00  0.00     0.064 H 
ATOM     39  C   LIG d   1       4.045   0.749  -2.347  0.00  0.00    -0.061 A 
ATOM     40  H   LIG d   1       4.093  -0.347  -0.510  0.00  0.00     0.062 H 
ATOM     41  H   LIG d   1       3.702   1.662  -1.883  0.00  0.00     0.062 H 
ATOM     42  H   LIG d   1       4.090   1.592  -4.301  0.00  0.00     0.063 H 
ENDBRANCH  20  23
ENDBRANCH  17  20
ENDBRANCH   7  17
BRANCH   1  43
ATOM     43  C   LIG d   1      11.337   4.575  -1.952  0.00  0.00     0.028 C 
ATOM     44  H   LIG d   1      12.353   4.263  -1.711  0.00  0.00     0.048 H 
ATOM     45  H   LIG d   1      10.673   4.320  -1.125  0.00  0.00     0.048 H 
BRANCH  43  46
ATOM     46  C   LIG d   1      11.309   6.066  -2.177  0.00  0.00     0.012 A 
ATOM     47  C   LIG d   1      11.865   6.601  -3.324  0.00  0.00    -0.050 A 
ATOM     48  C   LIG d   1      11.842   7.966  -3.536  0.00  0.00    -0.016 A 
ATOM     49  H   LIG d   1      12.317   5.949  -4.058  0.00  0.00     0.062 H 
ATOM     50  C   LIG d   1      11.262   8.806  -2.597  0.00  0.00     0.165 A 
ATOM     51  H   LIG d   1      12.276   8.380  -4.434  0.00  0.00     0.066 H 
ATOM     52  C   LIG d   1      10.709   8.273  -1.439  0.00  0.00     0.204 A 
ATOM     53  C   LIG d   1      10.728   6.898  -1.232  0.00  0.00     0.170 A 
BRANCH  50  54
ATOM     54  O   LIG d   1      11.239  10.149  -2.806  0.00  0.00    -0.491 OA
BRANCH  54  55
ATOM     55  C   LIG d   1      10.469  10.621  -3.914  0.00  0.00     0.079 C 
ATOM     56  H   LIG d   1      11.139  10.958  -4.704  0.00  0.00     0.066 H 
ATOM     57  H   LIG d   1       9.842   9.813  -4.290  0.00  0.00     0.066 H 
ATOM     58  H   LIG d   1       9.841  11.451  -3.591  0.00  0.00     0.066 H 
ENDBRANCH  54  55
ENDBRANCH  50  54
BRANCH  52  59
ATOM     59  O   LIG d   1      10.143   9.094  -0.511  0.00  0.00    -0.488 OA
BRANCH  59  60
ATOM     60  C   LIG d   1       8.777   9.459  -0.715  0.00  0.00     0.079 C 
ATOM     61  H   LIG d   1       8.362   8.869  -1.533  0.00  0.00     0.066 H 
ATOM     62  H   LIG d   1       8.210   9.268   0.195  0.00  0.00     0.066 H 
ATOM     63  H   LIG d   1       8.717  10.519  -0.965  0.00  0.00     0.066 H 
ENDBRANCH  59  60
ENDBRANCH  52  59
BRANCH  53  64
ATOM     64  O   LIG d   1      10.182   6.371  -0.104  0.00  0.00    -0.491 OA
BRANCH  64  65
ATOM     65  C   LIG d   1      11.021   6.301   1.051  0.00  0.00     0.079 C 
ATOM     66  H   LIG d   1      10.416   6.441   1.947  0.00  0.00     0.066 H 
ATOM     67  H   LIG d   1      11.504   5.324   1.088  0.00  0.00     0.066 H 
ATOM     68  H   LIG d   1      11.778   7.081   0.997  0.00  0.00     0.066 H 
ENDBRANCH  64  65
ENDBRANCH  53  64
ENDBRANCH  43  46
ENDBRANCH   1  43
TORSDOF 11
ENDMDL
MODEL 5
REMARK VINA RESULT:      -6.9      1.943      3.305
REMARK  11 active torsions:
REMARK  status: ('A' for Active; 'I' for Inactive)
REMARK    1  A    between atoms: C_1  and  O_2 
REMARK    2  A    between atoms: O_2  and  C_3 
REMARK    3  A    between atoms: C_6  and  C_13 
REMARK    4  A    between atoms: C_7  and  O_11 
REMARK    5  A    between atoms: C_8  and  O_9 
REMARK    6  A    between atoms: O_9  and  C_10 
REMARK    7  A    between atoms: O_11  and  C_12 
REMARK    8  A    between atoms: C_13  and  N_14 
REMARK       I    between atoms: N_17  and  C_20 
REMARK    9  A    between atoms: C_20  and  C_22 
REMARK   10  A    between atoms: C_22  and  C_23 
REMARK   11  A    between atoms: C_23  and  C_24 
ROOT
ATOM      1  N   LIG d   1      10.368   3.188  -4.695  0.00  0.00    -0.295 N 
ATOM      2  C   LIG d   1      10.614   2.608  -6.021  0.00  0.00     0.015 C 
ATOM      3  C   LIG d   1      10.226   1.126  -6.008  0.00  0.00     0.028 C 
ATOM      4  N   LIG d   1       8.841   1.010  -5.526  0.00  0.00    -0.299 N 
ATOM      5  C   LIG d   1       8.483   1.684  -4.269  0.00  0.00     0.028 C 
ATOM      6  C   LIG d   1       8.940   3.144  -4.351  0.00  0.00     0.015 C 
ATOM      7  C   LIG d   1       7.924   0.306  -6.219  0.00  0.00     0.216 C 
ATOM      8  O   LIG d   1       8.237  -0.243  -7.255  0.00  0.00    -0.276 OA
ATOM      9  H   LIG d   1      10.016   3.134  -6.766  0.00  0.00     0.044 H 
ATOM     10  H   LIG d   1      11.671   2.705  -6.271  0.00  0.00     0.044 H 
ATOM     11  H   LIG d   1      10.298   0.719  -7.017  0.00  0.00     0.048 H 
ATOM     12  H   LIG d   1      10.892   0.579  -5.341  0.00  0.00     0.048 H 
ATOM     13  H   LIG d   1       7.403   1.645  -4.127  0.00  0.00     0.048 H 
ATOM     14  H   LIG d   1       8.982   1.190  -3.434  0.00  0.00     0.048 H 
ATOM     15  H   LIG d   1       8.783   3.629  -3.388  0.00  0.00     0.044 H 
ATOM     16  H   LIG d   1       8.365   3.663  -5.117  0.00  0.00     0.044 H 
ENDROOT
BRANCH   7  17
ATOM     17  C   LIG d   1       6.511   0.201  -5.707  0.00  0.00     0.026 C 
ATOM     18  H   LIG d   1       6.481  -0.482  -4.859  0.00  0.00     0.036 H 
ATOM     19  H   LIG d   1       6.163   1.185  -5.393  0.00  0.00     0.036 H 
BRANCH  17  20
ATOM     20  C   LIG d   1       5.604  -0.329  -6.819  0.00  0.00    -0.018 C 
ATOM     21  H   LIG d   1       5.244   0.504  -7.423  0.00  0.00     0.029 H 
ATOM     22  H   LIG d   1       6.166  -1.018  -7.450  0.00  0.00     0.029 H 
BRANCH  20  23
ATOM     23  C   LIG d   1       4.411  -1.062  -6.200  0.00  0.00     0.100 C 
ATOM     24  H   LIG d   1       4.739  -1.607  -5.315  0.00  0.00     0.059 H 
ATOM     25  N   LIG d   1       3.853  -1.999  -7.175  0.00  0.00    -0.300 N 
ATOM     26  C   LIG d   1       3.429  -1.586  -8.371  0.00  0.00     0.246 C 
ATOM     27  H   LIG d   1       3.787  -2.938  -6.945  0.00  0.00     0.150 HD
ATOM     28  C   LIG d   1       3.490  -0.196  -8.840  0.00  0.00     0.058 A 
ATOM     29  O   LIG d   1       2.962  -2.418  -9.124  0.00  0.00    -0.270 OA
ATOM     30  C   LIG d   1       3.207   0.898  -8.023  0.00  0.00     0.046 A 
ATOM     31  C   LIG d   1       3.859   0.022 -10.178  0.00  0.00    -0.048 A 
ATOM     32  N   LIG d   1       2.830   0.782  -6.697  0.00  0.00    -0.283 N 
ATOM     33  C   LIG d   1       3.301   2.188  -8.552  0.00  0.00    -0.040 A 
ATOM     34  C   LIG d   1       3.352  -0.067  -5.816  0.00  0.00     0.238 C 
ATOM     35  H   LIG d   1       2.124   1.369  -6.384  0.00  0.00     0.155 HD
ATOM     36  O   LIG d   1       2.963  -0.035  -4.668  0.00  0.00    -0.273 OA
ATOM     37  C   LIG d   1       3.666   2.384  -9.865  0.00  0.00    -0.060 A 
ATOM     38  H   LIG d   1       3.086   3.039  -7.924  0.00  0.00     0.064 H 
ATOM     39  C   LIG d   1       3.945   1.299 -10.680  0.00  0.00    -0.061 A 
ATOM     40  H   LIG d   1       3.736   3.387 -10.260  0.00  0.00     0.062 H 
ATOM     41  H   LIG d   1       4.228   1.457 -11.710  0.00  0.00     0.062 H 
ATOM     42  H   LIG d   1       4.077  -0.821 -10.819  0.00  0.00     0.063 H 
ENDBRANCH  20  23
ENDBRANCH  17  20
ENDBRANCH   7  17
BRANCH   1  43
ATOM     43  C   LIG d   1      10.886   4.560  -4.615  0.00  0.00     0.028 C 
ATOM     44  H   LIG d   1      10.309   5.206  -5.278  0.00  0.00     0.048 H 
ATOM     45  H   LIG d   1      11.933   4.571  -4.919  0.00  0.00     0.048 H 
BRANCH  43  46
ATOM     46  C   LIG d   1      10.768   5.060  -3.198  0.00  0.00     0.012 A 
ATOM     47  C   LIG d   1      11.549   4.503  -2.203  0.00  0.00    -0.050 A 
ATOM     48  C   LIG d   1      11.445   4.957  -0.902  0.00  0.00    -0.016 A 
ATOM     49  H   LIG d   1      12.244   3.712  -2.443  0.00  0.00     0.062 H 
ATOM     50  C   LIG d   1      10.555   5.975  -0.590  0.00  0.00     0.165 A 
ATOM     51  H   LIG d   1      12.058   4.521  -0.127  0.00  0.00     0.066 H 
ATOM     52  C   LIG d   1       9.763   6.532  -1.586  0.00  0.00     0.204 A 
ATOM     53  C   LIG d   1       9.875   6.076  -2.895  0.00  0.00     0.170 A 
BRANCH  50  54
ATOM     54  O   LIG d   1      10.454   6.422   0.691  0.00  0.00    -0.491 OA
BRANCH  54  55
ATOM     55  C   LIG d   1      11.450   7.345   1.136  0.00  0.00     0.079 C 
ATOM     56  H   LIG d   1      12.361   6.804   1.386  0.00  0.00     0.066 H 
ATOM     57  H   LIG d   1      11.659   8.064   0.344  0.00  0.00     0.066 H 
ATOM     58  H   LIG d   1      11.086   7.872   2.019  0.00  0.00     0.066 H 
ENDBRANCH  54  55
ENDBRANCH  50  54
BRANCH  52  59
ATOM     59  O   LIG d   1       8.884   7.526  -1.283  0.00  0.00    -0.488 OA
BRANCH  59  60
ATOM     60  C   LIG d   1       9.389   8.863  -1.291  0.00  0.00     0.079 C 
ATOM     61  H   LIG d   1       9.189   9.321  -2.260  0.00  0.00     0.066 H 
ATOM     62  H   LIG d   1       8.899   9.441  -0.508  0.00  0.00     0.066 H 
ATOM     63  H   LIG d   1      10.464   8.846  -1.111  0.00  0.00     0.066 H 
ENDBRANCH  59  60
ENDBRANCH  52  59
BRANCH  53  64
ATOM     64  O   LIG d   1       9.107   6.623  -3.874  0.00  0.00    -0.491 OA
BRANCH  64  65
ATOM     65  C   LIG d   1       9.713   7.628  -4.689  0.00  0.00     0.079 C 
ATOM     66  H   LIG d   1      10.778   7.420  -4.790  0.00  0.00     0.066 H 
ATOM     67  H   LIG d   1       9.247   7.624  -5.676  0.00  0.00     0.066 H 
ATOM     68  H   LIG d   1       9.575   8.603  -4.226  0.00  0.00     0.066 H 
ENDBRANCH  64  65
ENDBRANCH  53  64
ENDBRANCH  43  46
ENDBRANCH   1  43
TORSDOF 11
ENDMDL
MODEL 6
REMARK VINA RESULT:      -6.8      5.582     12.103
REMARK  11 active torsions:
REMARK  status: ('A' for Active; 'I' for Inactive)
REMARK    1  A    between atoms: C_1  and  O_2 
REMARK    2  A    between atoms: O_2  and  C_3 
REMARK    3  A    between atoms: C_6  and  C_13 
REMARK    4  A    between atoms: C_7  and  O_11 
REMARK    5  A    between atoms: C_8  and  O_9 
REMARK    6  A    between atoms: O_9  and  C_10 
REMARK    7  A    between atoms: O_11  and  C_12 
REMARK    8  A    between atoms: C_13  and  N_14 
REMARK       I    between atoms: N_17  and  C_20 
REMARK    9  A    between atoms: C_20  and  C_22 
REMARK   10  A    between atoms: C_22  and  C_23 
REMARK   11  A    between atoms: C_23  and  C_24 
ROOT
ATOM      1  N   LIG d   1       2.192  -2.562 -10.341  0.00  0.00    -0.295 N 
ATOM      2  C   LIG d   1       1.884  -1.127 -10.320  0.00  0.00     0.015 C 
ATOM      3  C   LIG d   1       2.115  -0.578  -8.909  0.00  0.00     0.028 C 
ATOM      4  N   LIG d   1       3.481  -0.926  -8.490  0.00  0.00    -0.299 N 
ATOM      5  C   LIG d   1       3.910  -2.328  -8.611  0.00  0.00     0.028 C 
ATOM      6  C   LIG d   1       3.608  -2.809 -10.035  0.00  0.00     0.015 C 
ATOM      7  C   LIG d   1       4.318   0.014  -8.008  0.00  0.00     0.216 C 
ATOM      8  O   LIG d   1       3.948   1.165  -7.915  0.00  0.00    -0.276 OA
ATOM      9  H   LIG d   1       2.533  -0.606 -11.024  0.00  0.00     0.044 H 
ATOM     10  H   LIG d   1       0.843  -0.974 -10.605  0.00  0.00     0.044 H 
ATOM     11  H   LIG d   1       1.999   0.506  -8.914  0.00  0.00     0.048 H 
ATOM     12  H   LIG d   1       1.397  -1.022  -8.220  0.00  0.00     0.048 H 
ATOM     13  H   LIG d   1       4.980  -2.402  -8.419  0.00  0.00     0.048 H 
ATOM     14  H   LIG d   1       3.363  -2.941  -7.894  0.00  0.00     0.048 H 
ATOM     15  H   LIG d   1       3.816  -3.876 -10.111  0.00  0.00     0.044 H 
ATOM     16  H   LIG d   1       4.233  -2.265 -10.742  0.00  0.00     0.044 H 
ENDROOT
BRANCH   7  17
ATOM     17  C   LIG d   1       5.714  -0.366  -7.584  0.00  0.00     0.026 C 
ATOM     18  H   LIG d   1       5.977  -1.330  -8.019  0.00  0.00     0.036 H 
ATOM     19  H   LIG d   1       6.417   0.392  -7.928  0.00  0.00     0.036 H 
BRANCH  17  20
ATOM     20  C   LIG d   1       5.774  -0.463  -6.059  0.00  0.00    -0.018 C 
ATOM     21  H   LIG d   1       6.205   0.453  -5.653  0.00  0.00     0.029 H 
ATOM     22  H   LIG d   1       4.768  -0.596  -5.662  0.00  0.00     0.029 H 
BRANCH  20  23
ATOM     23  C   LIG d   1       6.643  -1.657  -5.657  0.00  0.00     0.100 C 
ATOM     24  H   LIG d   1       7.237  -1.980  -6.512  0.00  0.00     0.059 H 
ATOM     25  N   LIG d   1       5.788  -2.756  -5.210  0.00  0.00    -0.300 N 
ATOM     26  C   LIG d   1       4.921  -2.598  -4.208  0.00  0.00     0.246 C 
ATOM     27  H   LIG d   1       5.854  -3.617  -5.650  0.00  0.00     0.150 HD
ATOM     28  C   LIG d   1       4.717  -1.343  -3.474  0.00  0.00     0.058 A 
ATOM     29  O   LIG d   1       4.254  -3.560  -3.879  0.00  0.00    -0.270 OA
ATOM     30  C   LIG d   1       5.762  -0.494  -3.110  0.00  0.00     0.046 A 
ATOM     31  C   LIG d   1       3.399  -0.994  -3.139  0.00  0.00    -0.048 A 
ATOM     32  N   LIG d   1       7.091  -0.757  -3.390  0.00  0.00    -0.283 N 
ATOM     33  C   LIG d   1       5.474   0.688  -2.422  0.00  0.00    -0.040 A 
ATOM     34  C   LIG d   1       7.557  -1.259  -4.531  0.00  0.00     0.238 C 
ATOM     35  H   LIG d   1       7.738  -0.560  -2.695  0.00  0.00     0.155 HD
ATOM     36  O   LIG d   1       8.753  -1.399  -4.666  0.00  0.00    -0.273 OA
ATOM     37  C   LIG d   1       4.175   1.016  -2.103  0.00  0.00    -0.060 A 
ATOM     38  H   LIG d   1       6.279   1.350  -2.139  0.00  0.00     0.064 H 
ATOM     39  C   LIG d   1       3.136   0.174  -2.461  0.00  0.00    -0.061 A 
ATOM     40  H   LIG d   1       3.967   1.933  -1.572  0.00  0.00     0.062 H 
ATOM     41  H   LIG d   1       2.119   0.433  -2.207  0.00  0.00     0.062 H 
ATOM     42  H   LIG d   1       2.584  -1.647  -3.415  0.00  0.00     0.063 H 
ENDBRANCH  20  23
ENDBRANCH  17  20
ENDBRANCH   7  17
BRANCH   1  43
ATOM     43  C   LIG d   1       1.820  -3.163 -11.628  0.00  0.00     0.028 C 
ATOM     44  H   LIG d   1       2.503  -3.982 -11.859  0.00  0.00     0.048 H 
ATOM     45  H   LIG d   1       1.881  -2.408 -12.413  0.00  0.00     0.048 H 
BRANCH  43  46
ATOM     46  C   LIG d   1       0.411  -3.692 -11.548  0.00  0.00     0.012 A 
ATOM     47  C   LIG d   1       0.050  -4.541 -10.519  0.00  0.00    -0.050 A 
ATOM     48  C   LIG d   1      -1.240  -5.029 -10.439  0.00  0.00    -0.016 A 
ATOM     49  H   LIG d   1       0.780  -4.824  -9.773  0.00  0.00     0.062 H 
ATOM     50  C   LIG d   1      -2.180  -4.667 -11.394  0.00  0.00     0.165 A 
ATOM     51  H   LIG d   1      -1.518  -5.692  -9.633  0.00  0.00     0.066 H 
ATOM     52  C   LIG d   1      -1.819  -3.819 -12.434  0.00  0.00     0.204 A 
ATOM     53  C   LIG d   1      -0.522  -3.326 -12.507  0.00  0.00     0.170 A 
BRANCH  50  54
ATOM     54  O   LIG d   1      -3.450  -5.147 -11.315  0.00  0.00    -0.491 OA
BRANCH  54  55
ATOM     55  C   LIG d   1      -4.256  -4.674 -10.234  0.00  0.00     0.079 C 
ATOM     56  H   LIG d   1      -3.652  -4.612  -9.330  0.00  0.00     0.066 H 
ATOM     57  H   LIG d   1      -4.647  -3.686 -10.477  0.00  0.00     0.066 H 
ATOM     58  H   LIG d   1      -5.085  -5.363 -10.071  0.00  0.00     0.066 H 
ENDBRANCH  54  55
ENDBRANCH  50  54
BRANCH  52  59
ATOM     59  O   LIG d   1      -2.737  -3.466 -13.376  0.00  0.00    -0.488 OA
BRANCH  59  60
ATOM     60  C   LIG d   1      -3.510  -2.291 -13.121  0.00  0.00     0.079 C 
ATOM     61  H   LIG d   1      -3.800  -1.835 -14.067  0.00  0.00     0.066 H 
ATOM     62  H   LIG d   1      -4.403  -2.559 -12.557  0.00  0.00     0.066 H 
ATOM     63  H   LIG d   1      -2.915  -1.583 -12.543  0.00  0.00     0.066 H 
ENDBRANCH  59  60
ENDBRANCH  52  59
BRANCH  53  64
ATOM     64  O   LIG d   1      -0.166  -2.490 -13.518  0.00  0.00    -0.491 OA
BRANCH  64  65
ATOM     65  C   LIG d   1       0.219  -3.095 -14.754  0.00  0.00     0.079 C 
ATOM     66  H   LIG d   1       0.478  -4.140 -14.582  0.00  0.00     0.066 H 
ATOM     67  H   LIG d   1      -0.610  -3.038 -15.460  0.00  0.00     0.066 H 
ATOM     68  H   LIG d   1       1.082  -2.570 -15.162  0.00  0.00     0.066 H 
ENDBRANCH  64  65
ENDBRANCH  53  64
ENDBRANCH  43  46
ENDBRANCH   1  43
TORSDOF 11
ENDMDL
MODEL 7
REMARK VINA RESULT:      -6.8      3.802      5.014
REMARK  11 active torsions:
REMARK  status: ('A' for Active; 'I' for Inactive)
REMARK    1  A    between atoms: C_1  and  O_2 
REMARK    2  A    between atoms: O_2  and  C_3 
REMARK    3  A    between atoms: C_6  and  C_13 
REMARK    4  A    between atoms: C_7  and  O_11 
REMARK    5  A    between atoms: C_8  and  O_9 
REMARK    6  A    between atoms: O_9  and  C_10 
REMARK    7  A    between atoms: O_11  and  C_12 
REMARK    8  A    between atoms: C_13  and  N_14 
REMARK       I    between atoms: N_17  and  C_20 
REMARK    9  A    between atoms: C_20  and  C_22 
REMARK   10  A    between atoms: C_22  and  C_23 
REMARK   11  A    between atoms: C_23  and  C_24 
ROOT
ATOM      1  N   LIG d   1       9.416   3.430  -7.933  0.00  0.00    -0.295 N 
ATOM      2  C   LIG d   1      10.264   2.844  -6.888  0.00  0.00     0.015 C 
ATOM      3  C   LIG d   1       9.378   2.264  -5.781  0.00  0.00     0.028 C 
ATOM      4  N   LIG d   1       8.414   1.336  -6.392  0.00  0.00    -0.299 N 
ATOM      5  C   LIG d   1       7.623   1.811  -7.538  0.00  0.00     0.028 C 
ATOM      6  C   LIG d   1       8.578   2.409  -8.576  0.00  0.00     0.015 C 
ATOM      7  C   LIG d   1       8.260   0.085  -5.915  0.00  0.00     0.216 C 
ATOM      8  O   LIG d   1       8.921  -0.289  -4.970  0.00  0.00    -0.276 OA
ATOM      9  H   LIG d   1      10.875   2.050  -7.318  0.00  0.00     0.044 H 
ATOM     10  H   LIG d   1      10.911   3.615  -6.470  0.00  0.00     0.044 H 
ATOM     11  H   LIG d   1       9.996   1.728  -5.061  0.00  0.00     0.048 H 
ATOM     12  H   LIG d   1       8.842   3.070  -5.280  0.00  0.00     0.048 H 
ATOM     13  H   LIG d   1       7.079   0.975  -7.978  0.00  0.00     0.048 H 
ATOM     14  H   LIG d   1       6.918   2.574  -7.205  0.00  0.00     0.048 H 
ATOM     15  H   LIG d   1       8.002   2.865  -9.381  0.00  0.00     0.044 H 
ATOM     16  H   LIG d   1       9.212   1.622  -8.983  0.00  0.00     0.044 H 
ENDROOT
BRANCH   7  17
ATOM     17  C   LIG d   1       7.266  -0.848  -6.557  0.00  0.00     0.026 C 
ATOM     18  H   LIG d   1       6.793  -0.351  -7.403  0.00  0.00     0.036 H 
ATOM     19  H   LIG d   1       7.780  -1.745  -6.904  0.00  0.00     0.036 H 
BRANCH  17  20
ATOM     20  C   LIG d   1       6.198  -1.238  -5.533  0.00  0.00    -0.018 C 
ATOM     21  H   LIG d   1       6.622  -1.941  -4.816  0.00  0.00     0.029 H 
ATOM     22  H   LIG d   1       5.856  -0.346  -5.007  0.00  0.00     0.029 H 
BRANCH  20  23
ATOM     23  C   LIG d   1       5.016  -1.892  -6.251  0.00  0.00     0.100 C 
ATOM     24  H   LIG d   1       5.362  -2.353  -7.177  0.00  0.00     0.059 H 
ATOM     25  N   LIG d   1       4.006  -0.878  -6.556  0.00  0.00    -0.300 N 
ATOM     26  C   LIG d   1       3.463  -0.129  -5.595  0.00  0.00     0.246 C 
ATOM     27  H   LIG d   1       3.726  -0.750  -7.475  0.00  0.00     0.150 HD
ATOM     28  C   LIG d   1       3.816  -0.216  -4.172  0.00  0.00     0.058 A 
ATOM     29  O   LIG d   1       2.619   0.683  -5.920  0.00  0.00    -0.270 OA
ATOM     30  C   LIG d   1       4.052  -1.425  -3.519  0.00  0.00     0.046 A 
ATOM     31  C   LIG d   1       3.922   0.986  -3.454  0.00  0.00    -0.048 A 
ATOM     32  N   LIG d   1       3.966  -2.658  -4.140  0.00  0.00    -0.283 N 
ATOM     33  C   LIG d   1       4.394  -1.414  -2.164  0.00  0.00    -0.040 A 
ATOM     34  C   LIG d   1       4.404  -2.940  -5.364  0.00  0.00     0.238 C 
ATOM     35  H   LIG d   1       3.548  -3.378  -3.642  0.00  0.00     0.155 HD
ATOM     36  O   LIG d   1       4.308  -4.077  -5.776  0.00  0.00    -0.273 OA
ATOM     37  C   LIG d   1       4.495  -0.226  -1.475  0.00  0.00    -0.060 A 
ATOM     38  H   LIG d   1       4.580  -2.346  -1.652  0.00  0.00     0.064 H 
ATOM     39  C   LIG d   1       4.258   0.976  -2.121  0.00  0.00    -0.061 A 
ATOM     40  H   LIG d   1       4.761  -0.232  -0.428  0.00  0.00     0.062 H 
ATOM     41  H   LIG d   1       4.336   1.906  -1.577  0.00  0.00     0.062 H 
ATOM     42  H   LIG d   1       3.737   1.927  -3.953  0.00  0.00     0.063 H 
ENDBRANCH  20  23
ENDBRANCH  17  20
ENDBRANCH   7  17
BRANCH   1  43
ATOM     43  C   LIG d   1      10.225   4.148  -8.928  0.00  0.00     0.028 C 
ATOM     44  H   LIG d   1       9.914   3.854  -9.930  0.00  0.00     0.048 H 
ATOM     45  H   LIG d   1      11.277   3.901  -8.786  0.00  0.00     0.048 H 
BRANCH  43  46
ATOM     46  C   LIG d   1      10.030   5.633  -8.756  0.00  0.00     0.012 A 
ATOM     47  C   LIG d   1       9.720   6.149  -7.512  0.00  0.00    -0.050 A 
ATOM     48  C   LIG d   1       9.540   7.510  -7.348  0.00  0.00    -0.016 A 
ATOM     49  H   LIG d   1       9.619   5.487  -6.664  0.00  0.00     0.062 H 
ATOM     50  C   LIG d   1       9.670   8.363  -8.434  0.00  0.00     0.165 A 
ATOM     51  H   LIG d   1       9.299   7.909  -6.374  0.00  0.00     0.066 H 
ATOM     52  C   LIG d   1       9.975   7.848  -9.688  0.00  0.00     0.204 A 
ATOM     53  C   LIG d   1      10.161   6.479  -9.847  0.00  0.00     0.170 A 
BRANCH  50  54
ATOM     54  O   LIG d   1       9.494   9.702  -8.272  0.00  0.00    -0.491 OA
BRANCH  54  55
ATOM     55  C   LIG d   1      10.435  10.385  -7.440  0.00  0.00     0.079 C 
ATOM     56  H   LIG d   1      10.029  11.354  -7.153  0.00  0.00     0.066 H 
ATOM     57  H   LIG d   1      10.626   9.792  -6.546  0.00  0.00     0.066 H 
ATOM     58  H   LIG d   1      11.366  10.528  -7.988  0.00  0.00     0.066 H 
ENDBRANCH  54  55
ENDBRANCH  50  54
BRANCH  52  59
ATOM     59  O   LIG d   1      10.098   8.681 -10.757  0.00  0.00    -0.488 OA
BRANCH  59  60
ATOM     60  C   LIG d   1      11.402   9.196 -11.032  0.00  0.00     0.079 C 
ATOM     61  H   LIG d   1      12.083   8.908 -10.230  0.00  0.00     0.066 H 
ATOM     62  H   LIG d   1      11.761   8.792 -11.977  0.00  0.00     0.066 H 
ATOM     63  H   LIG d   1      11.357  10.284 -11.096  0.00  0.00     0.066 H 
ENDBRANCH  59  60
ENDBRANCH  52  59
BRANCH  53  64
ATOM     64  O   LIG d   1      10.465   5.971 -11.070  0.00  0.00    -0.491 OA
BRANCH  64  65
ATOM     65  C   LIG d   1       9.391   5.838 -12.004  0.00  0.00     0.079 C 
ATOM     66  H   LIG d   1       8.905   6.804 -12.137  0.00  0.00     0.066 H 
ATOM     67  H   LIG d   1       9.784   5.494 -12.961  0.00  0.00     0.066 H 
ATOM     68  H   LIG d   1       8.669   5.116 -11.625  0.00  0.00     0.066 H 
ENDBRANCH  64  65
ENDBRANCH  53  64
ENDBRANCH  43  46
ENDBRANCH   1  43
TORSDOF 11
ENDMDL
MODEL 8
REMARK VINA RESULT:      -6.6      2.387      4.151
REMARK  11 active torsions:
REMARK  status: ('A' for Active; 'I' for Inactive)
REMARK    1  A    between atoms: C_1  and  O_2 
REMARK    2  A    between atoms: O_2  and  C_3 
REMARK    3  A    between atoms: C_6  and  C_13 
REMARK    4  A    between atoms: C_7  and  O_11 
REMARK    5  A    between atoms: C_8  and  O_9 
REMARK    6  A    between atoms: O_9  and  C_10 
REMARK    7  A    between atoms: O_11  and  C_12 
REMARK    8  A    between atoms: C_13  and  N_14 
REMARK       I    between atoms: N_17  and  C_20 
REMARK    9  A    between atoms: C_20  and  C_22 
REMARK   10  A    between atoms: C_22  and  C_23 
REMARK   11  A    between atoms: C_23  and  C_24 
ROOT
ATOM      1  N   LIG d   1       9.466   3.032  -4.930  0.00  0.00    -0.295 N 
ATOM      2  C   LIG d   1       9.160   2.231  -3.738  0.00  0.00     0.015 C 
ATOM      3  C   LIG d   1       7.729   1.692  -3.842  0.00  0.00     0.028 C 
ATOM      4  N   LIG d   1       7.590   0.981  -5.122  0.00  0.00    -0.299 N 
ATOM      5  C   LIG d   1       8.007   1.673  -6.351  0.00  0.00     0.028 C 
ATOM      6  C   LIG d   1       9.427   2.213  -6.148  0.00  0.00     0.015 C 
ATOM      7  C   LIG d   1       7.093  -0.271  -5.168  0.00  0.00     0.216 C 
ATOM      8  O   LIG d   1       6.753  -0.826  -4.144  0.00  0.00    -0.276 OA
ATOM      9  H   LIG d   1       9.859   1.397  -3.672  0.00  0.00     0.044 H 
ATOM     10  H   LIG d   1       9.251   2.853  -2.848  0.00  0.00     0.044 H 
ATOM     11  H   LIG d   1       7.536   1.005  -3.019  0.00  0.00     0.048 H 
ATOM     12  H   LIG d   1       7.022   2.521  -3.805  0.00  0.00     0.048 H 
ATOM     13  H   LIG d   1       7.997   0.973  -7.187  0.00  0.00     0.048 H 
ATOM     14  H   LIG d   1       7.327   2.500  -6.555  0.00  0.00     0.048 H 
ATOM     15  H   LIG d   1       9.711   2.822  -7.006  0.00  0.00     0.044 H 
ATOM     16  H   LIG d   1      10.122   1.379  -6.049  0.00  0.00     0.044 H 
ENDROOT
BRANCH   7  17
ATOM     17  C   LIG d   1       6.958  -0.980  -6.491  0.00  0.00     0.026 C 
ATOM     18  H   LIG d   1       7.801  -0.720  -7.130  0.00  0.00     0.036 H 
ATOM     19  H   LIG d   1       6.946  -2.057  -6.326  0.00  0.00     0.036 H 
BRANCH  17  20
ATOM     20  C   LIG d   1       5.654  -0.553  -7.167  0.00  0.00    -0.018 C 
ATOM     21  H   LIG d   1       5.546   0.529  -7.098  0.00  0.00     0.029 H 
ATOM     22  H   LIG d   1       5.674  -0.849  -8.216  0.00  0.00     0.029 H 
BRANCH  20  23
ATOM     23  C   LIG d   1       4.472  -1.229  -6.469  0.00  0.00     0.100 C 
ATOM     24  H   LIG d   1       4.835  -1.823  -5.630  0.00  0.00     0.059 H 
ATOM     25  N   LIG d   1       3.773  -2.096  -7.418  0.00  0.00    -0.300 N 
ATOM     26  C   LIG d   1       3.280  -1.616  -8.562  0.00  0.00     0.246 C 
ATOM     27  H   LIG d   1       3.665  -3.036  -7.210  0.00  0.00     0.150 HD
ATOM     28  C   LIG d   1       3.393  -0.218  -8.996  0.00  0.00     0.058 A 
ATOM     29  O   LIG d   1       2.697  -2.391  -9.295  0.00  0.00    -0.270 OA
ATOM     30  C   LIG d   1       3.252   0.863  -8.127  0.00  0.00     0.046 A 
ATOM     31  C   LIG d   1       3.662   0.020 -10.353  0.00  0.00    -0.048 A 
ATOM     32  N   LIG d   1       2.980   0.727  -6.778  0.00  0.00    -0.283 N 
ATOM     33  C   LIG d   1       3.387   2.162  -8.626  0.00  0.00    -0.040 A 
ATOM     34  C   LIG d   1       3.516  -0.182  -5.968  0.00  0.00     0.238 C 
ATOM     35  H   LIG d   1       2.343   1.347  -6.389  0.00  0.00     0.155 HD
ATOM     36  O   LIG d   1       3.227  -0.164  -4.791  0.00  0.00    -0.273 OA
ATOM     37  C   LIG d   1       3.653   2.378  -9.960  0.00  0.00    -0.060 A 
ATOM     38  H   LIG d   1       3.281   3.004  -7.958  0.00  0.00     0.064 H 
ATOM     39  C   LIG d   1       3.790   1.305 -10.825  0.00  0.00    -0.061 A 
ATOM     40  H   LIG d   1       3.755   3.387 -10.331  0.00  0.00     0.062 H 
ATOM     41  H   LIG d   1       3.996   1.479 -11.871  0.00  0.00     0.062 H 
ATOM     42  H   LIG d   1       3.769  -0.813 -11.034  0.00  0.00     0.063 H 
ENDBRANCH  20  23
ENDBRANCH  17  20
ENDBRANCH   7  17
BRANCH   1  43
ATOM     43  C   LIG d   1      10.763   3.708  -4.792  0.00  0.00     0.028 C 
ATOM     44  H   LIG d   1      11.287   3.688  -5.747  0.00  0.00     0.048 H 
ATOM     45  H   LIG d   1      11.362   3.194  -4.039  0.00  0.00     0.048 H 
BRANCH  43  46
ATOM     46  C   LIG d   1      10.542   5.138  -4.369  0.00  0.00     0.012 A 
ATOM     47  C   LIG d   1       9.823   5.994  -5.182  0.00  0.00    -0.050 A 
ATOM     48  C   LIG d   1       9.617   7.306  -4.800  0.00  0.00    -0.016 A 
ATOM     49  H   LIG d   1       9.419   5.636  -6.118  0.00  0.00     0.062 H 
ATOM     50  C   LIG d   1      10.132   7.769  -3.597  0.00  0.00     0.165 A 
ATOM     51  H   LIG d   1       9.053   7.972  -5.436  0.00  0.00     0.066 H 
ATOM     52  C   LIG d   1      10.862   6.913  -2.782  0.00  0.00     0.204 A 
ATOM     53  C   LIG d   1      11.062   5.593  -3.167  0.00  0.00     0.170 A 
BRANCH  50  54
ATOM     54  O   LIG d   1       9.928   9.060  -3.222  0.00  0.00    -0.491 OA
BRANCH  54  55
ATOM     55  C   LIG d   1      10.220  10.071  -4.188  0.00  0.00     0.079 C 
ATOM     56  H   LIG d   1       9.418  10.112  -4.924  0.00  0.00     0.066 H 
ATOM     57  H   LIG d   1      10.304  11.036  -3.689  0.00  0.00     0.066 H 
ATOM     58  H   LIG d   1      11.160   9.836  -4.687  0.00  0.00     0.066 H 
ENDBRANCH  54  55
ENDBRANCH  50  54
BRANCH  52  59
ATOM     59  O   LIG d   1      11.374   7.365  -1.604  0.00  0.00    -0.488 OA
BRANCH  59  60
ATOM     60  C   LIG d   1      10.561   7.207  -0.439  0.00  0.00     0.079 C 
ATOM     61  H   LIG d   1      11.143   6.727   0.348  0.00  0.00     0.066 H 
ATOM     62  H   LIG d   1      10.223   8.185  -0.097  0.00  0.00     0.066 H 
ATOM     63  H   LIG d   1       9.697   6.588  -0.681  0.00  0.00     0.066 H 
ENDBRANCH  59  60
ENDBRANCH  52  59
BRANCH  53  64
ATOM     64  O   LIG d   1      11.769   4.750  -2.368  0.00  0.00    -0.491 OA
BRANCH  64  65
ATOM     65  C   LIG d   1      13.193   4.785  -2.487  0.00  0.00     0.079 C 
ATOM     66  H   LIG d   1      13.591   5.567  -1.839  0.00  0.00     0.066 H 
ATOM     67  H   LIG d   1      13.606   3.821  -2.189  0.00  0.00     0.066 H 
ATOM     68  H   LIG d   1      13.466   4.995  -3.520  0.00  0.00     0.066 H 
ENDBRANCH  64  65
ENDBRANCH  53  64
ENDBRANCH  43  46
ENDBRANCH   1  43
TORSDOF 11
ENDMDL
MODEL 9
REMARK VINA RESULT:      -6.6      1.581      2.119
REMARK  11 active torsions:
REMARK  status: ('A' for Active; 'I' for Inactive)
REMARK    1  A    between atoms: C_1  and  O_2 
REMARK    2  A    between atoms: O_2  and  C_3 
REMARK    3  A    between atoms: C_6  and  C_13 
REMARK    4  A    between atoms: C_7  and  O_11 
REMARK    5  A    between atoms: C_8  and  O_9 
REMARK    6  A    between atoms: O_9  and  C_10 
REMARK    7  A    between atoms: O_11  and  C_12 
REMARK    8  A    between atoms: C_13  and  N_14 
REMARK       I    between atoms: N_17  and  C_20 
REMARK    9  A    between atoms: C_20  and  C_22 
REMARK   10  A    between atoms: C_22  and  C_23 
REMARK   11  A    between atoms: C_23  and  C_24 
ROOT
ATOM      1  N   LIG d   1      10.689   4.589  -3.693  0.00  0.00    -0.295 N 
ATOM      2  C   LIG d   1      11.562   3.415  -3.818  0.00  0.00     0.015 C 
ATOM      3  C   LIG d   1      10.760   2.149  -3.502  0.00  0.00     0.028 C 
ATOM      4  N   LIG d   1       9.563   2.128  -4.357  0.00  0.00    -0.299 N 
ATOM      5  C   LIG d   1       8.710   3.326  -4.389  0.00  0.00     0.028 C 
ATOM      6  C   LIG d   1       9.593   4.546  -4.671  0.00  0.00     0.015 C 
ATOM      7  C   LIG d   1       9.257   1.041  -5.092  0.00  0.00     0.216 C 
ATOM      8  O   LIG d   1       9.972   0.061  -5.053  0.00  0.00    -0.276 OA
ATOM      9  H   LIG d   1      11.948   3.356  -4.836  0.00  0.00     0.044 H 
ATOM     10  H   LIG d   1      12.394   3.504  -3.119  0.00  0.00     0.044 H 
ATOM     11  H   LIG d   1      11.370   1.269  -3.705  0.00  0.00     0.048 H 
ATOM     12  H   LIG d   1      10.461   2.157  -2.454  0.00  0.00     0.048 H 
ATOM     13  H   LIG d   1       7.964   3.223  -5.177  0.00  0.00     0.048 H 
ATOM     14  H   LIG d   1       8.214   3.447  -3.426  0.00  0.00     0.048 H 
ATOM     15  H   LIG d   1       8.996   5.454  -4.588  0.00  0.00     0.044 H 
ATOM     16  H   LIG d   1      10.006   4.472  -5.676  0.00  0.00     0.044 H 
ENDROOT
BRANCH   7  17
ATOM     17  C   LIG d   1       8.026   1.041  -5.961  0.00  0.00     0.026 C 
ATOM     18  H   LIG d   1       7.637   2.056  -6.041  0.00  0.00     0.036 H 
ATOM     19  H   LIG d   1       8.281   0.671  -6.954  0.00  0.00     0.036 H 
BRANCH  17  20
ATOM     20  C   LIG d   1       6.962   0.136  -5.338  0.00  0.00    -0.018 C 
ATOM     21  H   LIG d   1       7.430  -0.529  -4.612  0.00  0.00     0.029 H 
ATOM     22  H   LIG d   1       6.211   0.747  -4.838  0.00  0.00     0.029 H 
BRANCH  20  23
ATOM     23  C   LIG d   1       6.294  -0.697  -6.434  0.00  0.00     0.100 C 
ATOM     24  H   LIG d   1       6.938  -0.725  -7.314  0.00  0.00     0.059 H 
ATOM     25  N   LIG d   1       5.006  -0.100  -6.787  0.00  0.00    -0.300 N 
ATOM     26  C   LIG d   1       4.059   0.098  -5.869  0.00  0.00     0.246 C 
ATOM     27  H   LIG d   1       4.839   0.155  -7.707  0.00  0.00     0.150 HD
ATOM     28  C   LIG d   1       4.198  -0.231  -4.445  0.00  0.00     0.058 A 
ATOM     29  O   LIG d   1       3.007   0.584  -6.237  0.00  0.00    -0.270 OA
ATOM     30  C   LIG d   1       4.828  -1.388  -3.988  0.00  0.00     0.046 A 
ATOM     31  C   LIG d   1       3.672   0.679  -3.514  0.00  0.00    -0.048 A 
ATOM     32  N   LIG d   1       5.370  -2.344  -4.828  0.00  0.00    -0.283 N 
ATOM     33  C   LIG d   1       4.926  -1.614  -2.612  0.00  0.00    -0.040 A 
ATOM     34  C   LIG d   1       6.064  -2.097  -5.936  0.00  0.00     0.238 C 
ATOM     35  H   LIG d   1       5.231  -3.274  -4.590  0.00  0.00     0.155 HD
ATOM     36  O   LIG d   1       6.526  -3.028  -6.560  0.00  0.00    -0.273 OA
ATOM     37  C   LIG d   1       4.406  -0.711  -1.712  0.00  0.00    -0.060 A 
ATOM     38  H   LIG d   1       5.414  -2.507  -2.252  0.00  0.00     0.064 H 
ATOM     39  C   LIG d   1       3.777   0.438  -2.164  0.00  0.00    -0.061 A 
ATOM     40  H   LIG d   1       4.489  -0.898  -0.652  0.00  0.00     0.062 H 
ATOM     41  H   LIG d   1       3.368   1.144  -1.456  0.00  0.00     0.062 H 
ATOM     42  H   LIG d   1       3.179   1.577  -3.860  0.00  0.00     0.063 H 
ENDBRANCH  20  23
ENDBRANCH  17  20
ENDBRANCH   7  17
BRANCH   1  43
ATOM     43  C   LIG d   1      11.458   5.834  -3.819  0.00  0.00     0.028 C 
ATOM     44  H   LIG d   1      11.460   6.157  -4.860  0.00  0.00     0.048 H 
ATOM     45  H   LIG d   1      12.483   5.663  -3.490  0.00  0.00     0.048 H 
BRANCH  43  46
ATOM     46  C   LIG d   1      10.827   6.903  -2.963  0.00  0.00     0.012 A 
ATOM     47  C   LIG d   1      10.538   6.643  -1.637  0.00  0.00    -0.050 A 
ATOM     48  C   LIG d   1       9.960   7.619  -0.847  0.00  0.00    -0.016 A 
ATOM     49  H   LIG d   1      10.766   5.674  -1.216  0.00  0.00     0.062 H 
ATOM     50  C   LIG d   1       9.667   8.864  -1.384  0.00  0.00     0.165 A 
ATOM     51  H   LIG d   1       9.736   7.413   0.189  0.00  0.00     0.066 H 
ATOM     52  C   LIG d   1       9.950   9.127  -2.718  0.00  0.00     0.204 A 
ATOM     53  C   LIG d   1      10.537   8.145  -3.508  0.00  0.00     0.170 A 
BRANCH  50  54
ATOM     54  O   LIG d   1       9.099   9.824  -0.606  0.00  0.00    -0.491 OA
BRANCH  54  55
ATOM     55  C   LIG d   1       9.959  10.518   0.300  0.00  0.00     0.079 C 
ATOM     56  H   LIG d   1       9.362  11.158   0.949  0.00  0.00     0.066 H 
ATOM     57  H   LIG d   1      10.507   9.797   0.906  0.00  0.00     0.066 H 
ATOM     58  H   LIG d   1      10.663  11.129  -0.264  0.00  0.00     0.066 H 
ENDBRANCH  54  55
ENDBRANCH  50  54
BRANCH  52  59
ATOM     59  O   LIG d   1       9.659  10.346  -3.251  0.00  0.00    -0.488 OA
BRANCH  59  60
ATOM     60  C   LIG d   1      10.708  11.316  -3.262  0.00  0.00     0.079 C 
ATOM     61  H   LIG d   1      10.311  12.277  -3.592  0.00  0.00     0.066 H 
ATOM     62  H   LIG d   1      11.119  11.418  -2.259  0.00  0.00     0.066 H 
ATOM     63  H   LIG d   1      11.493  10.994  -3.946  0.00  0.00     0.066 H 
ENDBRANCH  59  60
ENDBRANCH  52  59
BRANCH  53  64
ATOM     64  O   LIG d   1      10.821   8.399  -4.813  0.00  0.00    -0.491 OA
BRANCH  64  65
ATOM     65  C   LIG d   1       9.756   8.239  -5.752  0.00  0.00     0.079 C 
ATOM     66  H   LIG d   1       9.351   9.218  -6.011  0.00  0.00     0.066 H 
ATOM     67  H   LIG d   1      10.136   7.754  -6.652  0.00  0.00     0.066 H 
ATOM     68  H   LIG d   1       8.972   7.626  -5.311  0.00  0.00     0.066 H 
ENDBRANCH  64  65
ENDBRANCH  53  64
ENDBRANCH  43  46
ENDBRANCH   1  43
TORSDOF 11
ENDMDL
MODEL 10
REMARK VINA RESULT:      -6.5      5.250     10.725
REMARK  11 active torsions:
REMARK  status: ('A' for Active; 'I' for Inactive)
REMARK    1  A    between atoms: C_1  and  O_2 
REMARK    2  A    between atoms: O_2  and  C_3 
REMARK    3  A    between atoms: C_6  and  C_13 
REMARK    4  A    between atoms: C_7  and  O_11 
REMARK    5  A    between atoms: C_8  and  O_9 
REMARK    6  A    between atoms: O_9  and  C_10 
REMARK    7  A    between atoms: O_11  and  C_12 
REMARK    8  A    between atoms: C_13  and  N_14 
REMARK       I    between atoms: N_17  and  C_20 
REMARK    9  A    between atoms: C_20  and  C_22 
REMARK   10  A    between atoms: C_22  and  C_23 
REMARK   11  A    between atoms: C_23  and  C_24 
ROOT
ATOM      1  N   LIG d   1       6.320  -6.561  -5.413  0.00  0.00    -0.295 N 
ATOM      2  C   LIG d   1       5.089  -6.262  -6.155  0.00  0.00     0.015 C 
ATOM      3  C   LIG d   1       4.553  -4.895  -5.719  0.00  0.00     0.028 C 
ATOM      4  N   LIG d   1       5.627  -3.902  -5.872  0.00  0.00    -0.299 N 
ATOM      5  C   LIG d   1       6.937  -4.196  -5.270  0.00  0.00     0.028 C 
ATOM      6  C   LIG d   1       7.379  -5.591  -5.723  0.00  0.00     0.015 C 
ATOM      7  C   LIG d   1       5.418  -2.753  -6.545  0.00  0.00     0.216 C 
ATOM      8  O   LIG d   1       4.331  -2.527  -7.035  0.00  0.00    -0.276 OA
ATOM      9  H   LIG d   1       5.303  -6.245  -7.223  0.00  0.00     0.044 H 
ATOM     10  H   LIG d   1       4.343  -7.029  -5.946  0.00  0.00     0.044 H 
ATOM     11  H   LIG d   1       3.706  -4.617  -6.347  0.00  0.00     0.048 H 
ATOM     12  H   LIG d   1       4.241  -4.939  -4.676  0.00  0.00     0.048 H 
ATOM     13  H   LIG d   1       7.666  -3.455  -5.599  0.00  0.00     0.048 H 
ATOM     14  H   LIG d   1       6.853  -4.173  -4.183  0.00  0.00     0.048 H 
ATOM     15  H   LIG d   1       8.293  -5.871  -5.200  0.00  0.00     0.044 H 
ATOM     16  H   LIG d   1       7.562  -5.584  -6.797  0.00  0.00     0.044 H 
ENDROOT
BRANCH   7  17
ATOM     17  C   LIG d   1       6.533  -1.750  -6.688  0.00  0.00     0.026 C 
ATOM     18  H   LIG d   1       7.458  -2.176  -6.302  0.00  0.00     0.036 H 
ATOM     19  H   LIG d   1       6.662  -1.497  -7.741  0.00  0.00     0.036 H 
BRANCH  17  20
ATOM     20  C   LIG d   1       6.186  -0.486  -5.900  0.00  0.00    -0.018 C 
ATOM     21  H   LIG d   1       5.882   0.301  -6.589  0.00  0.00     0.029 H 
ATOM     22  H   LIG d   1       5.368  -0.700  -5.211  0.00  0.00     0.029 H 
BRANCH  20  23
ATOM     23  C   LIG d   1       7.411  -0.025  -5.108  0.00  0.00     0.100 C 
ATOM     24  H   LIG d   1       8.244   0.146  -5.792  0.00  0.00     0.059 H 
ATOM     25  N   LIG d   1       7.780  -1.052  -4.133  0.00  0.00    -0.300 N 
ATOM     26  C   LIG d   1       6.911  -1.482  -3.217  0.00  0.00     0.246 C 
ATOM     27  H   LIG d   1       8.674  -1.425  -4.153  0.00  0.00     0.150 HD
ATOM     28  C   LIG d   1       5.527  -1.007  -3.095  0.00  0.00     0.058 A 
ATOM     29  O   LIG d   1       7.291  -2.325  -2.429  0.00  0.00    -0.270 OA
ATOM     30  C   LIG d   1       5.162   0.329  -3.257  0.00  0.00     0.046 A 
ATOM     31  C   LIG d   1       4.536  -1.960  -2.808  0.00  0.00    -0.048 A 
ATOM     32  N   LIG d   1       6.067   1.338  -3.533  0.00  0.00    -0.283 N 
ATOM     33  C   LIG d   1       3.818   0.690  -3.134  0.00  0.00    -0.040 A 
ATOM     34  C   LIG d   1       7.091   1.250  -4.378  0.00  0.00     0.238 C 
ATOM     35  H   LIG d   1       5.945   2.182  -3.071  0.00  0.00     0.155 HD
ATOM     36  O   LIG d   1       7.784   2.226  -4.566  0.00  0.00    -0.273 OA
ATOM     37  C   LIG d   1       2.858  -0.258  -2.855  0.00  0.00    -0.060 A 
ATOM     38  H   LIG d   1       3.529   1.723  -3.260  0.00  0.00     0.064 H 
ATOM     39  C   LIG d   1       3.219  -1.585  -2.691  0.00  0.00    -0.061 A 
ATOM     40  H   LIG d   1       1.823   0.035  -2.764  0.00  0.00     0.062 H 
ATOM     41  H   LIG d   1       2.464  -2.326  -2.469  0.00  0.00     0.062 H 
ATOM     42  H   LIG d   1       4.811  -2.998  -2.679  0.00  0.00     0.063 H 
ENDBRANCH  20  23
ENDBRANCH  17  20
ENDBRANCH   7  17
BRANCH   1  43
ATOM     43  C   LIG d   1       6.772  -7.934  -5.673  0.00  0.00     0.028 C 
ATOM     44  H   LIG d   1       7.762  -7.911  -6.129  0.00  0.00     0.048 H 
ATOM     45  H   LIG d   1       6.072  -8.425  -6.349  0.00  0.00     0.048 H 
BRANCH  43  46
ATOM     46  C   LIG d   1       6.835  -8.697  -4.374  0.00  0.00     0.012 A 
ATOM     47  C   LIG d   1       5.771  -9.491  -3.988  0.00  0.00    -0.050 A 
ATOM     48  C   LIG d   1       5.823 -10.192  -2.798  0.00  0.00    -0.016 A 
ATOM     49  H   LIG d   1       4.897  -9.563  -4.618  0.00  0.00     0.062 H 
ATOM     50  C   LIG d   1       6.945 -10.103  -1.987  0.00  0.00     0.165 A 
ATOM     51  H   LIG d   1       4.990 -10.812  -2.500  0.00  0.00     0.066 H 
ATOM     52  C   LIG d   1       8.013  -9.301  -2.368  0.00  0.00     0.204 A 
ATOM     53  C   LIG d   1       7.960  -8.601  -3.568  0.00  0.00     0.170 A 
BRANCH  50  54
ATOM     54  O   LIG d   1       6.995 -10.794  -0.817  0.00  0.00    -0.491 OA
BRANCH  54  55
ATOM     55  C   LIG d   1       6.173 -11.958  -0.715  0.00  0.00     0.079 C 
ATOM     56  H   LIG d   1       6.741 -12.765  -0.255  0.00  0.00     0.066 H 
ATOM     57  H   LIG d   1       5.300 -11.733  -0.101  0.00  0.00     0.066 H 
ATOM     58  H   LIG d   1       5.849 -12.262  -1.710  0.00  0.00     0.066 H 
ENDBRANCH  54  55
ENDBRANCH  50  54
BRANCH  52  59
ATOM     59  O   LIG d   1       9.113  -9.205  -1.572  0.00  0.00    -0.488 OA
BRANCH  59  60
ATOM     60  C   LIG d   1      10.092 -10.240  -1.691  0.00  0.00     0.079 C 
ATOM     61  H   LIG d   1       9.593 -11.194  -1.863  0.00  0.00     0.066 H 
ATOM     62  H   LIG d   1      10.754 -10.020  -2.527  0.00  0.00     0.066 H 
ATOM     63  H   LIG d   1      10.675 -10.296  -0.770  0.00  0.00     0.066 H 
ENDBRANCH  59  60
ENDBRANCH  52  59
BRANCH  53  64
ATOM     64  O   LIG d   1       9.005  -7.820  -3.949  0.00  0.00    -0.491 OA
BRANCH  64  65
ATOM     65  C   LIG d   1      10.002  -8.428  -4.773  0.00  0.00     0.079 C 
ATOM     66  H   LIG d   1      10.581  -7.651  -5.274  0.00  0.00     0.066 H 
ATOM     67  H   LIG d   1      10.666  -9.032  -4.154  0.00  0.00     0.066 H 
ATOM     68  H   LIG d   1       9.522  -9.061  -5.518  0.00  0.00     0.066 H 
ENDBRANCH  64  65
ENDBRANCH  53  64
ENDBRANCH  43  46
ENDBRANCH   1  43
TORSDOF 11
ENDMDL
