MODEL 1
REMARK VINA RESULT:      -6.5      0.000      0.000
REMARK  8 active torsions:
REMARK  status: ('A' for Active; 'I' for Inactive)
REMARK    1  A    between atoms: C_1  and  C_2 
REMARK    2  A    between atoms: C_2  and  N_51 
REMARK    3  A    between atoms: C_6  and  C_8 
REMARK    4  A    between atoms: C_8  and  N_9 
REMARK       I    between atoms: N_9  and  C_10 
REMARK    5  A    between atoms: C_10  and  C_12 
REMARK    6  A    between atoms: C_12  and  C_13 
REMARK    7  A    between atoms: C_12  and  C_19 
REMARK    8  A    between atoms: C_12  and  O_25 
ROOT
ATOM      1  N   LIG d   1       6.605  -1.084  -6.898  0.00  0.00    -0.307 N 
ATOM      2  C   LIG d   1       6.765  -0.393  -5.752  0.00  0.00     0.254 C 
ATOM      3  O   LIG d   1       6.943   0.806  -5.788  0.00  0.00    -0.272 OA
ATOM      4  H   LIG d   1       6.462  -2.044  -6.870  0.00  0.00     0.149 HD
ENDROOT
BRANCH   2   5
ATOM      5  C   LIG d   1       6.729  -1.111  -4.428  0.00  0.00     0.192 C 
BRANCH   5   6
ATOM      6  C   LIG d   1       5.330  -1.068  -3.870  0.00  0.00    -0.003 A 
ATOM      7  C   LIG d   1       4.325  -0.429  -4.573  0.00  0.00    -0.055 A 
ATOM      8  C   LIG d   1       3.042  -0.389  -4.062  0.00  0.00    -0.061 A 
ATOM      9  H   LIG d   1       4.544   0.038  -5.522  0.00  0.00     0.062 H 
ATOM     10  C   LIG d   1       2.762  -0.988  -2.848  0.00  0.00    -0.062 A 
ATOM     11  H   LIG d   1       2.257   0.111  -4.611  0.00  0.00     0.062 H 
ATOM     12  C   LIG d   1       3.766  -1.627  -2.146  0.00  0.00    -0.061 A 
ATOM     13  H   LIG d   1       1.759  -0.956  -2.448  0.00  0.00     0.062 H 
ATOM     14  C   LIG d   1       5.049  -1.671  -2.658  0.00  0.00    -0.055 A 
ATOM     15  H   LIG d   1       3.548  -2.095  -1.197  0.00  0.00     0.062 H 
ATOM     16  H   LIG d   1       5.833  -2.174  -2.112  0.00  0.00     0.062 H 
ENDBRANCH   5   6
BRANCH   5  17
ATOM     17  C   LIG d   1       7.148  -2.546  -4.623  0.00  0.00    -0.003 A 
ATOM     18  C   LIG d   1       8.410  -2.956  -4.236  0.00  0.00    -0.055 A 
ATOM     19  C   LIG d   1       8.794  -4.271  -4.415  0.00  0.00    -0.061 A 
ATOM     20  H   LIG d   1       9.096  -2.249  -3.794  0.00  0.00     0.062 H 
ATOM     21  C   LIG d   1       7.917  -5.176  -4.981  0.00  0.00    -0.062 A 
ATOM     22  H   LIG d   1       9.781  -4.592  -4.113  0.00  0.00     0.062 H 
ATOM     23  C   LIG d   1       6.654  -4.766  -5.367  0.00  0.00    -0.061 A 
ATOM     24  H   LIG d   1       8.217  -6.205  -5.122  0.00  0.00     0.062 H 
ATOM     25  C   LIG d   1       6.268  -3.452  -5.184  0.00  0.00    -0.055 A 
ATOM     26  H   LIG d   1       5.968  -5.474  -5.810  0.00  0.00     0.062 H 
ATOM     27  H   LIG d   1       5.280  -3.132  -5.482  0.00  0.00     0.062 H 
ENDBRANCH   5  17
BRANCH   5  28
ATOM     28  O   LIG d   1       7.625  -0.472  -3.515  0.00  0.00    -0.371 OA
ATOM     29  H   LIG d   1       7.614  -0.848  -2.624  0.00  0.00     0.212 HD
ENDBRANCH   5  28
ENDBRANCH   2   5
BRANCH   1  30
ATOM     30  C   LIG d   1       6.645  -0.387  -8.186  0.00  0.00     0.055 C 
ATOM     31  H   LIG d   1       7.127   0.582  -8.059  0.00  0.00     0.052 H 
ATOM     32  H   LIG d   1       7.210  -0.982  -8.903  0.00  0.00     0.052 H 
BRANCH  30  33
ATOM     33  C   LIG d   1       5.219  -0.184  -8.702  0.00  0.00    -0.005 C 
ATOM     34  C   LIG d   1       4.282  -1.284  -8.145  0.00  0.00    -0.003 C 
ATOM     35  C   LIG d   1       2.898  -0.588  -8.225  0.00  0.00    -0.007 C 
ATOM     36  H   LIG d   1       4.308  -2.175  -8.774  0.00  0.00     0.032 H 
ATOM     37  H   LIG d   1       4.537  -1.528  -7.114  0.00  0.00     0.032 H 
ATOM     38  C   LIG d   1       3.231   0.883  -7.895  0.00  0.00    -0.031 C 
ATOM     39  H   LIG d   1       2.215  -1.004  -7.486  0.00  0.00     0.032 H 
ATOM     40  H   LIG d   1       2.479  -0.672  -9.228  0.00  0.00     0.032 H 
ATOM     41  H   LIG d   1       3.035   1.079  -6.840  0.00  0.00     0.081 H 
ATOM     42  H   LIG d   1       2.629   1.547  -8.515  0.00  0.00     0.081 H 
ATOM     43  N   LIG d   1       4.664   1.076  -8.169  0.00  0.00     0.238 N 
ATOM     44  H   LIG d   1       5.147   1.318  -7.296  0.00  0.00     0.204 HD
ATOM     45  H   LIG d   1       5.207  -0.188  -9.792  0.00  0.00     0.087 H 
BRANCH  43  46
ATOM     46  C   LIG d   1       4.855   2.176  -9.151  0.00  0.00    -0.035 C 
ATOM     47  H   LIG d   1       5.138   3.084  -8.622  0.00  0.00     0.081 H 
ATOM     48  H   LIG d   1       5.641   1.906  -9.857  0.00  0.00     0.081 H 
BRANCH  46  49
ATOM     49  C   LIG d   1       3.547   2.411  -9.910  0.00  0.00    -0.025 C 
ATOM     50  H   LIG d   1       2.722   2.473  -9.201  0.00  0.00     0.028 H 
ATOM     51  H   LIG d   1       3.616   3.342 -10.472  0.00  0.00     0.028 H 
ATOM     52  H   LIG d   1       3.374   1.583 -10.598  0.00  0.00     0.028 H 
ENDBRANCH  46  49
ENDBRANCH  43  46
ENDBRANCH  30  33
ENDBRANCH   1  30
TORSDOF 8
ENDMDL
MODEL 2
REMARK VINA RESULT:      -6.5      1.688      4.029
REMARK  8 active torsions:
REMARK  status: ('A' for Active; 'I' for Inactive)
REMARK    1  A    between atoms: C_1  and  C_2 
REMARK    2  A    between atoms: C_2  and  N_51 
REMARK    3  A    between atoms: C_6  and  C_8 
REMARK    4  A    between atoms: C_8  and  N_9 
REMARK       I    between atoms: N_9  and  C_10 
REMARK    5  A    between atoms: C_10  and  C_12 
REMARK    6  A    between atoms: C_12  and  C_13 
REMARK    7  A    between atoms: C_12  and  C_19 
REMARK    8  A    between atoms: C_12  and  O_25 
ROOT
ATOM      1  N   LIG d   1       4.853  -1.473  -7.335  0.00  0.00    -0.307 N 
ATOM      2  C   LIG d   1       5.794  -1.652  -6.387  0.00  0.00     0.254 C 
ATOM      3  O   LIG d   1       6.906  -1.195  -6.543  0.00  0.00    -0.272 OA
ATOM      4  H   LIG d   1       3.963  -1.839  -7.211  0.00  0.00     0.149 HD
ENDROOT
BRANCH   2   5
ATOM      5  C   LIG d   1       5.465  -2.427  -5.136  0.00  0.00     0.192 C 
BRANCH   5   6
ATOM      6  C   LIG d   1       6.635  -3.301  -4.765  0.00  0.00    -0.003 A 
ATOM      7  C   LIG d   1       6.768  -4.555  -5.331  0.00  0.00    -0.055 A 
ATOM      8  C   LIG d   1       7.841  -5.357  -4.991  0.00  0.00    -0.061 A 
ATOM      9  H   LIG d   1       6.033  -4.908  -6.040  0.00  0.00     0.062 H 
ATOM     10  C   LIG d   1       8.782  -4.905  -4.084  0.00  0.00    -0.062 A 
ATOM     11  H   LIG d   1       7.944  -6.337  -5.432  0.00  0.00     0.062 H 
ATOM     12  C   LIG d   1       8.649  -3.651  -3.519  0.00  0.00    -0.061 A 
ATOM     13  H   LIG d   1       9.620  -5.532  -3.818  0.00  0.00     0.062 H 
ATOM     14  C   LIG d   1       7.579  -2.847  -3.863  0.00  0.00    -0.055 A 
ATOM     15  H   LIG d   1       9.384  -3.298  -2.810  0.00  0.00     0.062 H 
ATOM     16  H   LIG d   1       7.477  -1.865  -3.424  0.00  0.00     0.062 H 
ENDBRANCH   5   6
BRANCH   5  17
ATOM     17  C   LIG d   1       5.179  -1.466  -4.011  0.00  0.00    -0.003 A 
ATOM     18  C   LIG d   1       5.568  -0.144  -4.115  0.00  0.00    -0.055 A 
ATOM     19  C   LIG d   1       5.306   0.736  -3.083  0.00  0.00    -0.061 A 
ATOM     20  H   LIG d   1       6.078   0.201  -5.002  0.00  0.00     0.062 H 
ATOM     21  C   LIG d   1       4.654   0.296  -1.947  0.00  0.00    -0.062 A 
ATOM     22  H   LIG d   1       5.610   1.770  -3.164  0.00  0.00     0.062 H 
ATOM     23  C   LIG d   1       4.263  -1.027  -1.843  0.00  0.00    -0.061 A 
ATOM     24  H   LIG d   1       4.449   0.984  -1.139  0.00  0.00     0.062 H 
ATOM     25  C   LIG d   1       4.523  -1.907  -2.877  0.00  0.00    -0.055 A 
ATOM     26  H   LIG d   1       3.755  -1.372  -0.955  0.00  0.00     0.062 H 
ATOM     27  H   LIG d   1       4.214  -2.939  -2.798  0.00  0.00     0.062 H 
ENDBRANCH   5  17
BRANCH   5  28
ATOM     28  O   LIG d   1       4.316  -3.243  -5.371  0.00  0.00    -0.371 OA
ATOM     29  H   LIG d   1       4.004  -3.718  -4.588  0.00  0.00     0.212 HD
ENDBRANCH   5  28
ENDBRANCH   2   5
BRANCH   1  30
ATOM     30  C   LIG d   1       5.174  -0.725  -8.553  0.00  0.00     0.055 C 
ATOM     31  H   LIG d   1       6.018  -0.062  -8.361  0.00  0.00     0.052 H 
ATOM     32  H   LIG d   1       5.434  -1.422  -9.350  0.00  0.00     0.052 H 
BRANCH  30  33
ATOM     33  C   LIG d   1       3.960   0.105  -8.978  0.00  0.00    -0.005 C 
ATOM     34  C   LIG d   1       3.431   0.936  -7.784  0.00  0.00    -0.003 C 
ATOM     35  C   LIG d   1       2.702   2.098  -8.509  0.00  0.00    -0.007 C 
ATOM     36  H   LIG d   1       2.734   0.354  -7.181  0.00  0.00     0.032 H 
ATOM     37  H   LIG d   1       4.253   1.311  -7.174  0.00  0.00     0.032 H 
ATOM     38  C   LIG d   1       3.588   2.344  -9.748  0.00  0.00    -0.031 C 
ATOM     39  H   LIG d   1       2.667   2.985  -7.877  0.00  0.00     0.032 H 
ATOM     40  H   LIG d   1       1.697   1.799  -8.807  0.00  0.00     0.032 H 
ATOM     41  H   LIG d   1       4.273   3.171  -9.555  0.00  0.00     0.081 H 
ATOM     42  H   LIG d   1       2.964   2.571 -10.611  0.00  0.00     0.081 H 
ATOM     43  N   LIG d   1       4.363   1.113  -9.978  0.00  0.00     0.238 N 
ATOM     44  H   LIG d   1       5.364   1.318  -9.872  0.00  0.00     0.204 HD
ATOM     45  H   LIG d   1       3.177  -0.544  -9.369  0.00  0.00     0.087 H 
BRANCH  43  46
ATOM     46  C   LIG d   1       4.116   0.601 -11.351  0.00  0.00    -0.035 C 
ATOM     47  H   LIG d   1       3.925   1.440 -12.019  0.00  0.00     0.081 H 
ATOM     48  H   LIG d   1       4.990   0.051 -11.701  0.00  0.00     0.081 H 
BRANCH  46  49
ATOM     49  C   LIG d   1       2.901  -0.328 -11.336  0.00  0.00    -0.025 C 
ATOM     50  H   LIG d   1       2.568  -0.507 -12.358  0.00  0.00     0.028 H 
ATOM     51  H   LIG d   1       3.173  -1.274 -10.869  0.00  0.00     0.028 H 
ATOM     52  H   LIG d   1       2.095   0.138 -10.768  0.00  0.00     0.028 H 
ENDBRANCH  46  49
ENDBRANCH  43  46
ENDBRANCH  30  33
ENDBRANCH   1  30
TORSDOF 8
ENDMDL
MODEL 3
REMARK VINA RESULT:      -6.4      2.139      4.553
REMARK  8 active torsions:
REMARK  status: ('A' for Active; 'I' for Inactive)
REMARK    1  A    between atoms: C_1  and  C_2 
REMARK    2  A    between atoms: C_2  and  N_51 
REMARK    3  A    between atoms: C_6  and  C_8 
REMARK    4  A    between atoms: C_8  and  N_9 
REMARK       I    between atoms: N_9  and  C_10 
REMARK    5  A    between atoms: C_10  and  C_12 
REMARK    6  A    between atoms: C_12  and  C_13 
REMARK    7  A    between atoms: C_12  and  C_19 
REMARK    8  A    between atoms: C_12  and  O_25 
ROOT
ATOM      1  N   LIG d   1       3.808  -1.118  -6.715  0.00  0.00    -0.307 N 
ATOM      2  C   LIG d   1       4.971  -1.584  -6.219  0.00  0.00     0.254 C 
ATOM      3  O   LIG d   1       5.994  -1.463  -6.859  0.00  0.00    -0.272 OA
ATOM      4  H   LIG d   1       2.988  -1.216  -6.204  0.00  0.00     0.149 HD
ENDROOT
BRANCH   2   5
ATOM      5  C   LIG d   1       4.998  -2.263  -4.874  0.00  0.00     0.192 C 
BRANCH   5   6
ATOM      6  C   LIG d   1       6.268  -3.065  -4.742  0.00  0.00    -0.003 A 
ATOM      7  C   LIG d   1       7.325  -2.567  -4.004  0.00  0.00    -0.055 A 
ATOM      8  C   LIG d   1       8.490  -3.302  -3.883  0.00  0.00    -0.061 A 
ATOM      9  H   LIG d   1       7.242  -1.603  -3.523  0.00  0.00     0.062 H 
ATOM     10  C   LIG d   1       8.597  -4.535  -4.499  0.00  0.00    -0.062 A 
ATOM     11  H   LIG d   1       9.317  -2.912  -3.308  0.00  0.00     0.062 H 
ATOM     12  C   LIG d   1       7.538  -5.033  -5.235  0.00  0.00    -0.061 A 
ATOM     13  H   LIG d   1       9.506  -5.109  -4.404  0.00  0.00     0.062 H 
ATOM     14  C   LIG d   1       6.372  -4.300  -5.353  0.00  0.00    -0.055 A 
ATOM     15  H   LIG d   1       7.621  -5.996  -5.716  0.00  0.00     0.062 H 
ATOM     16  H   LIG d   1       5.543  -4.691  -5.925  0.00  0.00     0.062 H 
ENDBRANCH   5   6
BRANCH   5  17
ATOM     17  C   LIG d   1       4.945  -1.222  -3.785  0.00  0.00    -0.003 A 
ATOM     18  C   LIG d   1       4.337  -1.515  -2.579  0.00  0.00    -0.055 A 
ATOM     19  C   LIG d   1       4.288  -0.561  -1.581  0.00  0.00    -0.061 A 
ATOM     20  H   LIG d   1       3.899  -2.489  -2.416  0.00  0.00     0.062 H 
ATOM     21  C   LIG d   1       4.848   0.686  -1.788  0.00  0.00    -0.062 A 
ATOM     22  H   LIG d   1       3.813  -0.789  -0.638  0.00  0.00     0.062 H 
ATOM     23  C   LIG d   1       5.457   0.978  -2.994  0.00  0.00    -0.061 A 
ATOM     24  H   LIG d   1       4.809   1.433  -1.008  0.00  0.00     0.062 H 
ATOM     25  C   LIG d   1       5.509   0.022  -3.991  0.00  0.00    -0.055 A 
ATOM     26  H   LIG d   1       5.894   1.953  -3.157  0.00  0.00     0.062 H 
ATOM     27  H   LIG d   1       5.989   0.249  -4.932  0.00  0.00     0.062 H 
ENDBRANCH   5  17
BRANCH   5  28
ATOM     28  O   LIG d   1       3.871  -3.134  -4.757  0.00  0.00    -0.371 OA
ATOM     29  H   LIG d   1       4.075  -3.991  -4.360  0.00  0.00     0.212 HD
ENDBRANCH   5  28
ENDBRANCH   2   5
BRANCH   1  30
ATOM     30  C   LIG d   1       3.779  -0.464  -8.026  0.00  0.00     0.055 C 
ATOM     31  H   LIG d   1       3.360   0.537  -7.923  0.00  0.00     0.052 H 
ATOM     32  H   LIG d   1       4.794  -0.394  -8.419  0.00  0.00     0.052 H 
BRANCH  30  33
ATOM     33  C   LIG d   1       2.915  -1.283  -8.987  0.00  0.00    -0.005 C 
ATOM     34  C   LIG d   1       1.799  -0.399  -9.596  0.00  0.00    -0.003 C 
ATOM     35  C   LIG d   1       1.485  -1.152 -10.914  0.00  0.00    -0.007 C 
ATOM     36  H   LIG d   1       0.925  -0.369  -8.945  0.00  0.00     0.032 H 
ATOM     37  H   LIG d   1       2.166   0.608  -9.799  0.00  0.00     0.032 H 
ATOM     38  C   LIG d   1       2.869  -1.680 -11.350  0.00  0.00    -0.031 C 
ATOM     39  H   LIG d   1       1.080  -0.470 -11.661  0.00  0.00     0.032 H 
ATOM     40  H   LIG d   1       0.797  -1.978 -10.735  0.00  0.00     0.032 H 
ATOM     41  H   LIG d   1       3.308  -1.004 -12.085  0.00  0.00     0.081 H 
ATOM     42  H   LIG d   1       2.768  -2.678 -11.775  0.00  0.00     0.081 H 
ATOM     43  N   LIG d   1       3.718  -1.712 -10.149  0.00  0.00     0.238 N 
ATOM     44  H   LIG d   1       4.507  -1.066 -10.274  0.00  0.00     0.204 HD
ATOM     45  H   LIG d   1       2.483  -2.140  -8.471  0.00  0.00     0.087 H 
BRANCH  43  46
ATOM     46  C   LIG d   1       4.245  -3.084  -9.930  0.00  0.00    -0.035 C 
ATOM     47  H   LIG d   1       4.397  -3.569 -10.893  0.00  0.00     0.081 H 
ATOM     48  H   LIG d   1       5.194  -3.033  -9.395  0.00  0.00     0.081 H 
BRANCH  46  49
ATOM     49  C   LIG d   1       3.239  -3.888  -9.104  0.00  0.00    -0.025 C 
ATOM     50  H   LIG d   1       2.227  -3.565  -9.350  0.00  0.00     0.028 H 
ATOM     51  H   LIG d   1       3.348  -4.948  -9.330  0.00  0.00     0.028 H 
ATOM     52  H   LIG d   1       3.425  -3.722  -8.043  0.00  0.00     0.028 H 
ENDBRANCH  46  49
ENDBRANCH  43  46
ENDBRANCH  30  33
ENDBRANCH   1  30
TORSDOF 8
ENDMDL
MODEL 4
REMARK VINA RESULT:      -6.2      1.772      2.612
REMARK  8 active torsions:
REMARK  status: ('A' for Active; 'I' for Inactive)
REMARK    1  A    between atoms: C_1  and  C_2 
REMARK    2  A    between atoms: C_2  and  N_51 
REMARK    3  A    between atoms: C_6  and  C_8 
REMARK    4  A    between atoms: C_8  and  N_9 
REMARK       I    between atoms: N_9  and  C_10 
REMARK    5  A    between atoms: C_10  and  C_12 
REMARK    6  A    between atoms: C_12  and  C_13 
REMARK    7  A    between atoms: C_12  and  C_19 
REMARK    8  A    between atoms: C_12  and  O_25 
ROOT
ATOM      1  N   LIG d   1       3.684   0.063  -6.701  0.00  0.00    -0.307 N 
ATOM      2  C   LIG d   1       4.636  -0.866  -6.486  0.00  0.00     0.254 C 
ATOM      3  O   LIG d   1       4.564  -1.946  -7.033  0.00  0.00    -0.272 OA
ATOM      4  H   LIG d   1       3.741   0.927  -6.263  0.00  0.00     0.149 HD
ENDROOT
BRANCH   2   5
ATOM      5  C   LIG d   1       5.786  -0.565  -5.559  0.00  0.00     0.192 C 
BRANCH   5   6
ATOM      6  C   LIG d   1       5.263  -0.360  -4.160  0.00  0.00    -0.003 A 
ATOM      7  C   LIG d   1       5.674   0.734  -3.423  0.00  0.00    -0.055 A 
ATOM      8  C   LIG d   1       5.195   0.922  -2.140  0.00  0.00    -0.061 A 
ATOM      9  H   LIG d   1       6.369   1.443  -3.849  0.00  0.00     0.062 H 
ATOM     10  C   LIG d   1       4.304   0.016  -1.595  0.00  0.00    -0.062 A 
ATOM     11  H   LIG d   1       5.516   1.778  -1.564  0.00  0.00     0.062 H 
ATOM     12  C   LIG d   1       3.893  -1.078  -2.333  0.00  0.00    -0.061 A 
ATOM     13  H   LIG d   1       3.930   0.163  -0.593  0.00  0.00     0.062 H 
ATOM     14  C   LIG d   1       4.369  -1.264  -3.617  0.00  0.00    -0.055 A 
ATOM     15  H   LIG d   1       3.198  -1.786  -1.907  0.00  0.00     0.062 H 
ATOM     16  H   LIG d   1       4.045  -2.117  -4.196  0.00  0.00     0.062 H 
ENDBRANCH   5   6
BRANCH   5  17
ATOM     17  C   LIG d   1       6.755  -1.720  -5.569  0.00  0.00    -0.003 A 
ATOM     18  C   LIG d   1       7.752  -1.777  -6.524  0.00  0.00    -0.055 A 
ATOM     19  C   LIG d   1       8.640  -2.836  -6.533  0.00  0.00    -0.061 A 
ATOM     20  H   LIG d   1       7.838  -0.995  -7.264  0.00  0.00     0.062 H 
ATOM     21  C   LIG d   1       8.531  -3.838  -5.588  0.00  0.00    -0.062 A 
ATOM     22  H   LIG d   1       9.419  -2.881  -7.280  0.00  0.00     0.062 H 
ATOM     23  C   LIG d   1       7.534  -3.780  -4.631  0.00  0.00    -0.061 A 
ATOM     24  H   LIG d   1       9.225  -4.666  -5.595  0.00  0.00     0.062 H 
ATOM     25  C   LIG d   1       6.648  -2.719  -4.620  0.00  0.00    -0.055 A 
ATOM     26  H   LIG d   1       7.448  -4.563  -3.892  0.00  0.00     0.062 H 
ATOM     27  H   LIG d   1       5.872  -2.672  -3.870  0.00  0.00     0.062 H 
ENDBRANCH   5  17
BRANCH   5  28
ATOM     28  O   LIG d   1       6.453   0.620  -5.997  0.00  0.00    -0.371 OA
ATOM     29  H   LIG d   1       5.888   1.405  -6.017  0.00  0.00     0.212 HD
ENDBRANCH   5  28
ENDBRANCH   2   5
BRANCH   1  30
ATOM     30  C   LIG d   1       2.563  -0.231  -7.597  0.00  0.00     0.055 C 
ATOM     31  H   LIG d   1       2.533  -1.301  -7.802  0.00  0.00     0.052 H 
ATOM     32  H   LIG d   1       1.630   0.074  -7.124  0.00  0.00     0.052 H 
BRANCH  30  33
ATOM     33  C   LIG d   1       2.743   0.535  -8.910  0.00  0.00    -0.005 C 
ATOM     34  C   LIG d   1       2.950   2.043  -8.630  0.00  0.00    -0.003 C 
ATOM     35  C   LIG d   1       3.711   2.497  -9.904  0.00  0.00    -0.007 C 
ATOM     36  H   LIG d   1       1.993   2.559  -8.542  0.00  0.00     0.032 H 
ATOM     37  H   LIG d   1       3.557   2.196  -7.738  0.00  0.00     0.032 H 
ATOM     38  C   LIG d   1       4.601   1.279 -10.228  0.00  0.00    -0.031 C 
ATOM     39  H   LIG d   1       4.320   3.376  -9.695  0.00  0.00     0.032 H 
ATOM     40  H   LIG d   1       3.017   2.696 -10.720  0.00  0.00     0.032 H 
ATOM     41  H   LIG d   1       5.603   1.436  -9.827  0.00  0.00     0.081 H 
ATOM     42  H   LIG d   1       4.651   1.133 -11.307  0.00  0.00     0.081 H 
ATOM     43  N   LIG d   1       3.991   0.110  -9.575  0.00  0.00     0.238 N 
ATOM     44  H   LIG d   1       4.641  -0.263  -8.873  0.00  0.00     0.204 HD
ATOM     45  H   LIG d   1       1.882   0.381  -9.559  0.00  0.00     0.087 H 
BRANCH  43  46
ATOM     46  C   LIG d   1       3.703  -0.947 -10.579  0.00  0.00    -0.035 C 
ATOM     47  H   LIG d   1       4.514  -0.983 -11.305  0.00  0.00     0.081 H 
ATOM     48  H   LIG d   1       3.617  -1.913 -10.082  0.00  0.00     0.081 H 
BRANCH  46  49
ATOM     49  C   LIG d   1       2.390  -0.623 -11.294  0.00  0.00    -0.025 C 
ATOM     50  H   LIG d   1       2.585   0.062 -12.119  0.00  0.00     0.028 H 
ATOM     51  H   LIG d   1       1.950  -1.542 -11.680  0.00  0.00     0.028 H 
ATOM     52  H   LIG d   1       1.699  -0.157 -10.591  0.00  0.00     0.028 H 
ENDBRANCH  46  49
ENDBRANCH  43  46
ENDBRANCH  30  33
ENDBRANCH   1  30
TORSDOF 8
ENDMDL
MODEL 5
REMARK VINA RESULT:      -6.2      0.643      1.854
REMARK  8 active torsions:
REMARK  status: ('A' for Active; 'I' for Inactive)
REMARK    1  A    between atoms: C_1  and  C_2 
REMARK    2  A    between atoms: C_2  and  N_51 
REMARK    3  A    between atoms: C_6  and  C_8 
REMARK    4  A    between atoms: C_8  and  N_9 
REMARK       I    between atoms: N_9  and  C_10 
REMARK    5  A    between atoms: C_10  and  C_12 
REMARK    6  A    between atoms: C_12  and  C_13 
REMARK    7  A    between atoms: C_12  and  C_19 
REMARK    8  A    between atoms: C_12  and  O_25 
ROOT
ATOM      1  N   LIG d   1       6.229  -0.670  -6.861  0.00  0.00    -0.307 N 
ATOM      2  C   LIG d   1       6.694  -0.133  -5.715  0.00  0.00     0.254 C 
ATOM      3  O   LIG d   1       7.203   0.968  -5.724  0.00  0.00    -0.272 OA
ATOM      4  H   LIG d   1       5.823  -1.551  -6.854  0.00  0.00     0.149 HD
ENDROOT
BRANCH   2   5
ATOM      5  C   LIG d   1       6.588  -0.904  -4.425  0.00  0.00     0.192 C 
BRANCH   5   6
ATOM      6  C   LIG d   1       5.160  -0.881  -3.942  0.00  0.00    -0.003 A 
ATOM      7  C   LIG d   1       4.792  -1.627  -2.838  0.00  0.00    -0.055 A 
ATOM      8  C   LIG d   1       3.483  -1.606  -2.396  0.00  0.00    -0.061 A 
ATOM      9  H   LIG d   1       5.527  -2.225  -2.321  0.00  0.00     0.062 H 
ATOM     10  C   LIG d   1       2.541  -0.839  -3.057  0.00  0.00    -0.062 A 
ATOM     11  H   LIG d   1       3.195  -2.189  -1.533  0.00  0.00     0.062 H 
ATOM     12  C   LIG d   1       2.910  -0.093  -4.160  0.00  0.00    -0.061 A 
ATOM     13  H   LIG d   1       1.518  -0.823  -2.712  0.00  0.00     0.062 H 
ATOM     14  C   LIG d   1       4.220  -0.110  -4.600  0.00  0.00    -0.055 A 
ATOM     15  H   LIG d   1       2.175   0.506  -4.677  0.00  0.00     0.062 H 
ATOM     16  H   LIG d   1       4.510   0.476  -5.461  0.00  0.00     0.062 H 
ENDBRANCH   5   6
BRANCH   5  17
ATOM     17  C   LIG d   1       7.018  -2.331  -4.655  0.00  0.00    -0.003 A 
ATOM     18  C   LIG d   1       8.284  -2.739  -4.280  0.00  0.00    -0.055 A 
ATOM     19  C   LIG d   1       8.678  -4.047  -4.491  0.00  0.00    -0.061 A 
ATOM     20  H   LIG d   1       8.966  -2.037  -3.823  0.00  0.00     0.062 H 
ATOM     21  C   LIG d   1       7.806  -4.946  -5.076  0.00  0.00    -0.062 A 
ATOM     22  H   LIG d   1       9.668  -4.367  -4.199  0.00  0.00     0.062 H 
ATOM     23  C   LIG d   1       6.539  -4.537  -5.450  0.00  0.00    -0.061 A 
ATOM     24  H   LIG d   1       8.114  -5.969  -5.242  0.00  0.00     0.062 H 
ATOM     25  C   LIG d   1       6.144  -3.230  -5.235  0.00  0.00    -0.055 A 
ATOM     26  H   LIG d   1       5.858  -5.239  -5.908  0.00  0.00     0.062 H 
ATOM     27  H   LIG d   1       5.153  -2.911  -5.523  0.00  0.00     0.062 H 
ENDBRANCH   5  17
BRANCH   5  28
ATOM     28  O   LIG d   1       7.433  -0.304  -3.440  0.00  0.00    -0.371 OA
ATOM     29  H   LIG d   1       7.823   0.536  -3.716  0.00  0.00     0.212 HD
ENDBRANCH   5  28
ENDBRANCH   2   5
BRANCH   1  30
ATOM     30  C   LIG d   1       6.338   0.076  -8.117  0.00  0.00     0.055 C 
ATOM     31  H   LIG d   1       7.092   0.857  -8.011  0.00  0.00     0.052 H 
ATOM     32  H   LIG d   1       6.629  -0.602  -8.919  0.00  0.00     0.052 H 
BRANCH  30  33
ATOM     33  C   LIG d   1       4.988   0.714  -8.451  0.00  0.00    -0.005 C 
ATOM     34  C   LIG d   1       5.191   2.135  -9.030  0.00  0.00    -0.003 C 
ATOM     35  C   LIG d   1       3.888   2.329  -9.850  0.00  0.00    -0.007 C 
ATOM     36  H   LIG d   1       5.264   2.875  -8.233  0.00  0.00     0.032 H 
ATOM     37  H   LIG d   1       6.068   2.172  -9.676  0.00  0.00     0.032 H 
ATOM     38  C   LIG d   1       3.614   0.915 -10.405  0.00  0.00    -0.031 C 
ATOM     39  H   LIG d   1       4.047   3.037 -10.662  0.00  0.00     0.032 H 
ATOM     40  H   LIG d   1       3.071   2.656  -9.208  0.00  0.00     0.032 H 
ATOM     41  H   LIG d   1       3.996   0.836 -11.423  0.00  0.00     0.081 H 
ATOM     42  H   LIG d   1       2.544   0.713 -10.392  0.00  0.00     0.081 H 
ATOM     43  N   LIG d   1       4.331  -0.036  -9.540  0.00  0.00     0.238 N 
ATOM     44  H   LIG d   1       5.043  -0.527 -10.093  0.00  0.00     0.204 HD
ATOM     45  H   LIG d   1       4.356   0.749  -7.564  0.00  0.00     0.087 H 
BRANCH  43  46
ATOM     46  C   LIG d   1       3.383  -1.033  -8.977  0.00  0.00    -0.035 C 
ATOM     47  H   LIG d   1       2.749  -1.417  -9.775  0.00  0.00     0.081 H 
ATOM     48  H   LIG d   1       3.939  -1.856  -8.527  0.00  0.00     0.081 H 
BRANCH  46  49
ATOM     49  C   LIG d   1       2.514  -0.361  -7.912  0.00  0.00    -0.025 C 
ATOM     50  H   LIG d   1       2.615  -0.899  -6.969  0.00  0.00     0.028 H 
ATOM     51  H   LIG d   1       2.835   0.671  -7.779  0.00  0.00     0.028 H 
ATOM     52  H   LIG d   1       1.471  -0.379  -8.230  0.00  0.00     0.028 H 
ENDBRANCH  46  49
ENDBRANCH  43  46
ENDBRANCH  30  33
ENDBRANCH   1  30
TORSDOF 8
ENDMDL
MODEL 6
REMARK VINA RESULT:      -6.2      2.320      4.381
REMARK  8 active torsions:
REMARK  status: ('A' for Active; 'I' for Inactive)
REMARK    1  A    between atoms: C_1  and  C_2 
REMARK    2  A    between atoms: C_2  and  N_51 
REMARK    3  A    between atoms: C_6  and  C_8 
REMARK    4  A    between atoms: C_8  and  N_9 
REMARK       I    between atoms: N_9  and  C_10 
REMARK    5  A    between atoms: C_10  and  C_12 
REMARK    6  A    between atoms: C_12  and  C_13 
REMARK    7  A    between atoms: C_12  and  C_19 
REMARK    8  A    between atoms: C_12  and  O_25 
ROOT
ATOM      1  N   LIG d   1       5.789  -0.119  -6.363  0.00  0.00    -0.307 N 
ATOM      2  C   LIG d   1       6.984  -0.581  -5.945  0.00  0.00     0.254 C 
ATOM      3  O   LIG d   1       7.626  -1.330  -6.651  0.00  0.00    -0.272 OA
ATOM      4  H   LIG d   1       5.276   0.479  -5.799  0.00  0.00     0.149 HD
ENDROOT
BRANCH   2   5
ATOM      5  C   LIG d   1       7.519  -0.173  -4.597  0.00  0.00     0.192 C 
BRANCH   5   6
ATOM      6  C   LIG d   1       8.175   1.180  -4.706  0.00  0.00    -0.003 A 
ATOM      7  C   LIG d   1       8.254   1.813  -5.932  0.00  0.00    -0.055 A 
ATOM      8  C   LIG d   1       8.855   3.053  -6.032  0.00  0.00    -0.061 A 
ATOM      9  H   LIG d   1       7.846   1.338  -6.812  0.00  0.00     0.062 H 
ATOM     10  C   LIG d   1       9.377   3.662  -4.906  0.00  0.00    -0.062 A 
ATOM     11  H   LIG d   1       8.918   3.547  -6.991  0.00  0.00     0.062 H 
ATOM     12  C   LIG d   1       9.296   3.029  -3.679  0.00  0.00    -0.061 A 
ATOM     13  H   LIG d   1       9.847   4.631  -4.984  0.00  0.00     0.062 H 
ATOM     14  C   LIG d   1       8.691   1.791  -3.578  0.00  0.00    -0.055 A 
ATOM     15  H   LIG d   1       9.704   3.505  -2.799  0.00  0.00     0.062 H 
ATOM     16  H   LIG d   1       8.625   1.298  -2.619  0.00  0.00     0.062 H 
ENDBRANCH   5   6
BRANCH   5  17
ATOM     17  C   LIG d   1       6.385  -0.103  -3.606  0.00  0.00    -0.003 A 
ATOM     18  C   LIG d   1       5.882   1.123  -3.218  0.00  0.00    -0.055 A 
ATOM     19  C   LIG d   1       4.842   1.187  -2.309  0.00  0.00    -0.061 A 
ATOM     20  H   LIG d   1       6.300   2.033  -3.623  0.00  0.00     0.062 H 
ATOM     21  C   LIG d   1       4.306   0.024  -1.789  0.00  0.00    -0.062 A 
ATOM     22  H   LIG d   1       4.448   2.146  -2.005  0.00  0.00     0.062 H 
ATOM     23  C   LIG d   1       4.810  -1.203  -2.179  0.00  0.00    -0.061 A 
ATOM     24  H   LIG d   1       3.494   0.073  -1.078  0.00  0.00     0.062 H 
ATOM     25  C   LIG d   1       5.847  -1.267  -3.090  0.00  0.00    -0.055 A 
ATOM     26  H   LIG d   1       4.392  -2.112  -1.772  0.00  0.00     0.062 H 
ATOM     27  H   LIG d   1       6.238  -2.226  -3.398  0.00  0.00     0.062 H 
ENDBRANCH   5  17
BRANCH   5  28
ATOM     28  O   LIG d   1       8.481  -1.133  -4.155  0.00  0.00    -0.371 OA
ATOM     29  H   LIG d   1       8.218  -1.617  -3.360  0.00  0.00     0.212 HD
ENDBRANCH   5  28
ENDBRANCH   2   5
BRANCH   1  30
ATOM     30  C   LIG d   1       5.266  -0.522  -7.672  0.00  0.00     0.055 C 
ATOM     31  H   LIG d   1       6.093  -0.653  -8.369  0.00  0.00     0.052 H 
ATOM     32  H   LIG d   1       4.722  -1.461  -7.572  0.00  0.00     0.052 H 
BRANCH  30  33
ATOM     33  C   LIG d   1       4.322   0.562  -8.199  0.00  0.00    -0.005 C 
ATOM     34  C   LIG d   1       5.132   1.740  -8.793  0.00  0.00    -0.003 C 
ATOM     35  C   LIG d   1       4.108   2.358  -9.781  0.00  0.00    -0.007 C 
ATOM     36  H   LIG d   1       5.407   2.455  -8.018  0.00  0.00     0.032 H 
ATOM     37  H   LIG d   1       6.015   1.380  -9.320  0.00  0.00     0.032 H 
ATOM     38  C   LIG d   1       3.357   1.122 -10.320  0.00  0.00    -0.031 C 
ATOM     39  H   LIG d   1       4.619   2.881 -10.589  0.00  0.00     0.032 H 
ATOM     40  H   LIG d   1       3.423   3.028  -9.262  0.00  0.00     0.032 H 
ATOM     41  H   LIG d   1       3.782   0.818 -11.277  0.00  0.00     0.081 H 
ATOM     42  H   LIG d   1       2.299   1.354 -10.440  0.00  0.00     0.081 H 
ATOM     43  N   LIG d   1       3.542   0.040  -9.339  0.00  0.00     0.238 N 
ATOM     44  H   LIG d   1       4.056  -0.732  -9.779  0.00  0.00     0.204 HD
ATOM     45  H   LIG d   1       3.666   0.912  -7.403  0.00  0.00     0.087 H 
BRANCH  43  46
ATOM     46  C   LIG d   1       2.222  -0.459  -8.872  0.00  0.00    -0.035 C 
ATOM     47  H   LIG d   1       2.371  -1.346  -8.257  0.00  0.00     0.081 H 
ATOM     48  H   LIG d   1       1.724   0.312  -8.283  0.00  0.00     0.081 H 
BRANCH  46  49
ATOM     49  C   LIG d   1       1.357  -0.815 -10.082  0.00  0.00    -0.025 C 
ATOM     50  H   LIG d   1       0.975   0.099 -10.537  0.00  0.00     0.028 H 
ATOM     51  H   LIG d   1       1.956  -1.362 -10.810  0.00  0.00     0.028 H 
ATOM     52  H   LIG d   1       0.521  -1.437  -9.760  0.00  0.00     0.028 H 
ENDBRANCH  46  49
ENDBRANCH  43  46
ENDBRANCH  30  33
ENDBRANCH   1  30
TORSDOF 8
ENDMDL
MODEL 7
REMARK VINA RESULT:      -6.1      2.169      4.266
REMARK  8 active torsions:
REMARK  status: ('A' for Active; 'I' for Inactive)
REMARK    1  A    between atoms: C_1  and  C_2 
REMARK    2  A    between atoms: C_2  and  N_51 
REMARK    3  A    between atoms: C_6  and  C_8 
REMARK    4  A    between atoms: C_8  and  N_9 
REMARK       I    between atoms: N_9  and  C_10 
REMARK    5  A    between atoms: C_10  and  C_12 
REMARK    6  A    between atoms: C_12  and  C_13 
REMARK    7  A    between atoms: C_12  and  C_19 
REMARK    8  A    between atoms: C_12  and  O_25 
ROOT
ATOM      1  N   LIG d   1       3.551  -1.659  -7.507  0.00  0.00    -0.307 N 
ATOM      2  C   LIG d   1       4.028  -0.907  -6.495  0.00  0.00     0.254 C 
ATOM      3  O   LIG d   1       3.986   0.303  -6.566  0.00  0.00    -0.272 OA
ATOM      4  H   LIG d   1       3.585  -2.627  -7.450  0.00  0.00     0.149 HD
ENDROOT
BRANCH   2   5
ATOM      5  C   LIG d   1       4.618  -1.570  -5.277  0.00  0.00     0.192 C 
BRANCH   5   6
ATOM      6  C   LIG d   1       6.057  -1.929  -5.549  0.00  0.00    -0.003 A 
ATOM      7  C   LIG d   1       6.776  -1.228  -6.499  0.00  0.00    -0.055 A 
ATOM      8  C   LIG d   1       8.095  -1.557  -6.749  0.00  0.00    -0.061 A 
ATOM      9  H   LIG d   1       6.306  -0.424  -7.047  0.00  0.00     0.062 H 
ATOM     10  C   LIG d   1       8.696  -2.586  -6.048  0.00  0.00    -0.062 A 
ATOM     11  H   LIG d   1       8.656  -1.010  -7.492  0.00  0.00     0.062 H 
ATOM     12  C   LIG d   1       7.977  -3.285  -5.097  0.00  0.00    -0.061 A 
ATOM     13  H   LIG d   1       9.726  -2.843  -6.243  0.00  0.00     0.062 H 
ATOM     14  C   LIG d   1       6.659  -2.954  -4.844  0.00  0.00    -0.055 A 
ATOM     15  H   LIG d   1       8.446  -4.089  -4.549  0.00  0.00     0.062 H 
ATOM     16  H   LIG d   1       6.098  -3.498  -4.098  0.00  0.00     0.062 H 
ENDBRANCH   5   6
BRANCH   5  17
ATOM     17  C   LIG d   1       4.549  -0.624  -4.106  0.00  0.00    -0.003 A 
ATOM     18  C   LIG d   1       5.664   0.106  -3.741  0.00  0.00    -0.055 A 
ATOM     19  C   LIG d   1       5.600   0.973  -2.667  0.00  0.00    -0.061 A 
ATOM     20  H   LIG d   1       6.585  -0.001  -4.294  0.00  0.00     0.062 H 
ATOM     21  C   LIG d   1       4.422   1.110  -1.957  0.00  0.00    -0.062 A 
ATOM     22  H   LIG d   1       6.472   1.544  -2.380  0.00  0.00     0.062 H 
ATOM     23  C   LIG d   1       3.307   0.380  -2.324  0.00  0.00    -0.061 A 
ATOM     24  H   LIG d   1       4.372   1.788  -1.117  0.00  0.00     0.062 H 
ATOM     25  C   LIG d   1       3.369  -0.485  -3.400  0.00  0.00    -0.055 A 
ATOM     26  H   LIG d   1       2.386   0.486  -1.769  0.00  0.00     0.062 H 
ATOM     27  H   LIG d   1       2.496  -1.052  -3.689  0.00  0.00     0.062 H 
ENDBRANCH   5  17
BRANCH   5  28
ATOM     28  O   LIG d   1       3.881  -2.757  -4.977  0.00  0.00    -0.371 OA
ATOM     29  H   LIG d   1       3.050  -2.839  -5.465  0.00  0.00     0.212 HD
ENDBRANCH   5  28
ENDBRANCH   2   5
BRANCH   1  30
ATOM     30  C   LIG d   1       2.982  -1.014  -8.693  0.00  0.00     0.055 C 
ATOM     31  H   LIG d   1       2.163  -1.621  -9.078  0.00  0.00     0.052 H 
ATOM     32  H   LIG d   1       2.607  -0.026  -8.426  0.00  0.00     0.052 H 
BRANCH  30  33
ATOM     33  C   LIG d   1       4.064  -0.876  -9.768  0.00  0.00    -0.005 C 
ATOM     34  C   LIG d   1       3.873  -1.950 -10.866  0.00  0.00    -0.003 C 
ATOM     35  C   LIG d   1       4.578  -1.288 -12.079  0.00  0.00    -0.007 C 
ATOM     36  H   LIG d   1       4.364  -2.884 -10.590  0.00  0.00     0.032 H 
ATOM     37  H   LIG d   1       2.815  -2.115 -11.072  0.00  0.00     0.032 H 
ATOM     38  C   LIG d   1       4.248   0.208 -11.897  0.00  0.00    -0.031 C 
ATOM     39  H   LIG d   1       4.166  -1.663 -13.015  0.00  0.00     0.032 H 
ATOM     40  H   LIG d   1       5.655  -1.453 -12.039  0.00  0.00     0.032 H 
ATOM     41  H   LIG d   1       3.391   0.476 -12.515  0.00  0.00     0.081 H 
ATOM     42  H   LIG d   1       5.111   0.814 -12.173  0.00  0.00     0.081 H 
ATOM     43  N   LIG d   1       3.908   0.408 -10.479  0.00  0.00     0.238 N 
ATOM     44  H   LIG d   1       2.933   0.723 -10.405  0.00  0.00     0.204 HD
ATOM     45  H   LIG d   1       5.054  -0.959  -9.320  0.00  0.00     0.087 H 
BRANCH  43  46
ATOM     46  C   LIG d   1       4.796   1.438  -9.879  0.00  0.00    -0.035 C 
ATOM     47  H   LIG d   1       5.358   0.994  -9.058  0.00  0.00     0.081 H 
ATOM     48  H   LIG d   1       5.489   1.811 -10.633  0.00  0.00     0.081 H 
BRANCH  46  49
ATOM     49  C   LIG d   1       3.947   2.595  -9.351  0.00  0.00    -0.025 C 
ATOM     50  H   LIG d   1       4.598   3.417  -9.051  0.00  0.00     0.028 H 
ATOM     51  H   LIG d   1       3.268   2.935 -10.132  0.00  0.00     0.028 H 
ATOM     52  H   LIG d   1       3.369   2.258  -8.490  0.00  0.00     0.028 H 
ENDBRANCH  46  49
ENDBRANCH  43  46
ENDBRANCH  30  33
ENDBRANCH   1  30
TORSDOF 8
ENDMDL
MODEL 8
REMARK VINA RESULT:      -6.1      2.587      6.723
REMARK  8 active torsions:
REMARK  status: ('A' for Active; 'I' for Inactive)
REMARK    1  A    between atoms: C_1  and  C_2 
REMARK    2  A    between atoms: C_2  and  N_51 
REMARK    3  A    between atoms: C_6  and  C_8 
REMARK    4  A    between atoms: C_8  and  N_9 
REMARK       I    between atoms: N_9  and  C_10 
REMARK    5  A    between atoms: C_10  and  C_12 
REMARK    6  A    between atoms: C_12  and  C_13 
REMARK    7  A    between atoms: C_12  and  C_19 
REMARK    8  A    between atoms: C_12  and  O_25 
ROOT
ATOM      1  N   LIG d   1       3.492   0.348  -6.864  0.00  0.00    -0.307 N 
ATOM      2  C   LIG d   1       3.290   1.371  -7.719  0.00  0.00     0.254 C 
ATOM      3  O   LIG d   1       2.531   2.268  -7.421  0.00  0.00    -0.272 OA
ATOM      4  H   LIG d   1       4.099  -0.370  -7.102  0.00  0.00     0.149 HD
ENDROOT
BRANCH   2   5
ATOM      5  C   LIG d   1       4.004   1.396  -9.046  0.00  0.00     0.192 C 
BRANCH   5   6
ATOM      6  C   LIG d   1       5.420   0.913  -8.863  0.00  0.00    -0.003 A 
ATOM      7  C   LIG d   1       5.682  -0.441  -8.771  0.00  0.00    -0.055 A 
ATOM      8  C   LIG d   1       6.980  -0.884  -8.603  0.00  0.00    -0.061 A 
ATOM      9  H   LIG d   1       4.872  -1.153  -8.830  0.00  0.00     0.062 H 
ATOM     10  C   LIG d   1       8.018   0.027  -8.528  0.00  0.00    -0.062 A 
ATOM     11  H   LIG d   1       7.185  -1.942  -8.530  0.00  0.00     0.062 H 
ATOM     12  C   LIG d   1       7.755   1.381  -8.622  0.00  0.00    -0.061 A 
ATOM     13  H   LIG d   1       9.032  -0.319  -8.397  0.00  0.00     0.062 H 
ATOM     14  C   LIG d   1       6.458   1.824  -8.794  0.00  0.00    -0.055 A 
ATOM     15  H   LIG d   1       8.566   2.093  -8.563  0.00  0.00     0.062 H 
ATOM     16  H   LIG d   1       6.253   2.882  -8.871  0.00  0.00     0.062 H 
ENDBRANCH   5   6
BRANCH   5  17
ATOM     17  C   LIG d   1       3.287   0.495 -10.019  0.00  0.00    -0.003 A 
ATOM     18  C   LIG d   1       2.097  -0.106  -9.655  0.00  0.00    -0.055 A 
ATOM     19  C   LIG d   1       1.440  -0.932 -10.547  0.00  0.00    -0.061 A 
ATOM     20  H   LIG d   1       1.679   0.070  -8.675  0.00  0.00     0.062 H 
ATOM     21  C   LIG d   1       1.973  -1.158 -11.802  0.00  0.00    -0.062 A 
ATOM     22  H   LIG d   1       0.509  -1.402 -10.263  0.00  0.00     0.062 H 
ATOM     23  C   LIG d   1       3.163  -0.556 -12.165  0.00  0.00    -0.061 A 
ATOM     24  H   LIG d   1       1.460  -1.805 -12.500  0.00  0.00     0.062 H 
ATOM     25  C   LIG d   1       3.819   0.273 -11.275  0.00  0.00    -0.055 A 
ATOM     26  H   LIG d   1       3.581  -0.733 -13.146  0.00  0.00     0.062 H 
ATOM     27  H   LIG d   1       4.747   0.746 -11.560  0.00  0.00     0.062 H 
ENDBRANCH   5  17
BRANCH   5  28
ATOM     28  O   LIG d   1       4.018   2.731  -9.554  0.00  0.00    -0.371 OA
ATOM     29  H   LIG d   1       3.289   2.931 -10.157  0.00  0.00     0.212 HD
ENDBRANCH   5  28
ENDBRANCH   2   5
BRANCH   1  30
ATOM     30  C   LIG d   1       2.793   0.321  -5.577  0.00  0.00     0.055 C 
ATOM     31  H   LIG d   1       2.413   1.317  -5.349  0.00  0.00     0.052 H 
ATOM     32  H   LIG d   1       1.962  -0.382  -5.629  0.00  0.00     0.052 H 
BRANCH  30  33
ATOM     33  C   LIG d   1       3.764  -0.118  -4.478  0.00  0.00    -0.005 C 
ATOM     34  C   LIG d   1       3.411   0.573  -3.138  0.00  0.00    -0.003 C 
ATOM     35  C   LIG d   1       4.019  -0.413  -2.107  0.00  0.00    -0.007 C 
ATOM     36  H   LIG d   1       3.883   1.553  -3.067  0.00  0.00     0.032 H 
ATOM     37  H   LIG d   1       2.331   0.652  -3.013  0.00  0.00     0.032 H 
ATOM     38  C   LIG d   1       3.781  -1.791  -2.761  0.00  0.00    -0.031 C 
ATOM     39  H   LIG d   1       3.496  -0.344  -1.153  0.00  0.00     0.032 H 
ATOM     40  H   LIG d   1       5.085  -0.228  -1.975  0.00  0.00     0.032 H 
ATOM     41  H   LIG d   1       2.879  -2.245  -2.351  0.00  0.00     0.081 H 
ATOM     42  H   LIG d   1       4.639  -2.439  -2.583  0.00  0.00     0.081 H 
ATOM     43  N   LIG d   1       3.598  -1.559  -4.204  0.00  0.00     0.238 N 
ATOM     44  H   LIG d   1       2.652  -1.851  -4.476  0.00  0.00     0.204 HD
ATOM     45  H   LIG d   1       4.790   0.110  -4.766  0.00  0.00     0.087 H 
BRANCH  43  46
ATOM     46  C   LIG d   1       4.591  -2.347  -4.979  0.00  0.00    -0.035 C 
ATOM     47  H   LIG d   1       4.737  -3.314  -4.501  0.00  0.00     0.081 H 
ATOM     48  H   LIG d   1       4.229  -2.496  -5.997  0.00  0.00     0.081 H 
BRANCH  46  49
ATOM     49  C   LIG d   1       5.920  -1.590  -5.018  0.00  0.00    -0.025 C 
ATOM     50  H   LIG d   1       6.385  -1.621  -4.033  0.00  0.00     0.028 H 
ATOM     51  H   LIG d   1       6.582  -2.054  -5.749  0.00  0.00     0.028 H 
ATOM     52  H   LIG d   1       5.739  -0.553  -5.301  0.00  0.00     0.028 H 
ENDBRANCH  46  49
ENDBRANCH  43  46
ENDBRANCH  30  33
ENDBRANCH   1  30
TORSDOF 8
ENDMDL
MODEL 9
REMARK VINA RESULT:      -6.0      1.599      3.978
REMARK  8 active torsions:
REMARK  status: ('A' for Active; 'I' for Inactive)
REMARK    1  A    between atoms: C_1  and  C_2 
REMARK    2  A    between atoms: C_2  and  N_51 
REMARK    3  A    between atoms: C_6  and  C_8 
REMARK    4  A    between atoms: C_8  and  N_9 
REMARK       I    between atoms: N_9  and  C_10 
REMARK    5  A    between atoms: C_10  and  C_12 
REMARK    6  A    between atoms: C_12  and  C_13 
REMARK    7  A    between atoms: C_12  and  C_19 
REMARK    8  A    between atoms: C_12  and  O_25 
ROOT
ATOM      1  N   LIG d   1       4.962  -2.516  -8.048  0.00  0.00    -0.307 N 
ATOM      2  C   LIG d   1       5.455  -2.148  -6.849  0.00  0.00     0.254 C 
ATOM      3  O   LIG d   1       6.167  -1.170  -6.761  0.00  0.00    -0.272 OA
ATOM      4  H   LIG d   1       4.392  -3.299  -8.119  0.00  0.00     0.149 HD
ENDROOT
BRANCH   2   5
ATOM      5  C   LIG d   1       5.127  -2.955  -5.619  0.00  0.00     0.192 C 
BRANCH   5   6
ATOM      6  C   LIG d   1       6.393  -3.541  -5.051  0.00  0.00    -0.003 A 
ATOM      7  C   LIG d   1       6.766  -4.831  -5.380  0.00  0.00    -0.055 A 
ATOM      8  C   LIG d   1       7.927  -5.369  -4.858  0.00  0.00    -0.061 A 
ATOM      9  H   LIG d   1       6.150  -5.418  -6.045  0.00  0.00     0.062 H 
ATOM     10  C   LIG d   1       8.717  -4.617  -4.008  0.00  0.00    -0.062 A 
ATOM     11  H   LIG d   1       8.218  -6.377  -5.115  0.00  0.00     0.062 H 
ATOM     12  C   LIG d   1       8.344  -3.327  -3.679  0.00  0.00    -0.061 A 
ATOM     13  H   LIG d   1       9.624  -5.038  -3.600  0.00  0.00     0.062 H 
ATOM     14  C   LIG d   1       7.185  -2.788  -4.204  0.00  0.00    -0.055 A 
ATOM     15  H   LIG d   1       8.960  -2.740  -3.015  0.00  0.00     0.062 H 
ATOM     16  H   LIG d   1       6.895  -1.778  -3.951  0.00  0.00     0.062 H 
ENDBRANCH   5   6
BRANCH   5  17
ATOM     17  C   LIG d   1       4.480  -2.063  -4.590  0.00  0.00    -0.003 A 
ATOM     18  C   LIG d   1       4.334  -2.503  -3.289  0.00  0.00    -0.055 A 
ATOM     19  C   LIG d   1       3.741  -1.685  -2.346  0.00  0.00    -0.061 A 
ATOM     20  H   LIG d   1       4.682  -3.486  -3.008  0.00  0.00     0.062 H 
ATOM     21  C   LIG d   1       3.294  -0.428  -2.704  0.00  0.00    -0.062 A 
ATOM     22  H   LIG d   1       3.626  -2.029  -1.328  0.00  0.00     0.062 H 
ATOM     23  C   LIG d   1       3.442   0.013  -4.006  0.00  0.00    -0.061 A 
ATOM     24  H   LIG d   1       2.830   0.212  -1.967  0.00  0.00     0.062 H 
ATOM     25  C   LIG d   1       4.038  -0.803  -4.948  0.00  0.00    -0.055 A 
ATOM     26  H   LIG d   1       3.092   0.996  -4.286  0.00  0.00     0.062 H 
ATOM     27  H   LIG d   1       4.157  -0.457  -5.965  0.00  0.00     0.062 H 
ENDBRANCH   5  17
BRANCH   5  28
ATOM     28  O   LIG d   1       4.228  -4.010  -5.968  0.00  0.00    -0.371 OA
ATOM     29  H   LIG d   1       4.426  -4.854  -5.539  0.00  0.00     0.212 HD
ENDBRANCH   5  28
ENDBRANCH   2   5
BRANCH   1  30
ATOM     30  C   LIG d   1       5.286  -1.736  -9.245  0.00  0.00     0.055 C 
ATOM     31  H   LIG d   1       6.205  -1.175  -9.074  0.00  0.00     0.052 H 
ATOM     32  H   LIG d   1       5.423  -2.408 -10.091  0.00  0.00     0.052 H 
BRANCH  30  33
ATOM     33  C   LIG d   1       4.143  -0.763  -9.545  0.00  0.00    -0.005 C 
ATOM     34  C   LIG d   1       2.777  -1.430  -9.251  0.00  0.00    -0.003 C 
ATOM     35  C   LIG d   1       1.873  -0.195  -8.996  0.00  0.00    -0.007 C 
ATOM     36  H   LIG d   1       2.426  -1.999 -10.112  0.00  0.00     0.032 H 
ATOM     37  H   LIG d   1       2.833  -2.062  -8.365  0.00  0.00     0.032 H 
ATOM     38  C   LIG d   1       2.824   0.789  -8.282  0.00  0.00    -0.031 C 
ATOM     39  H   LIG d   1       1.035  -0.457  -8.352  0.00  0.00     0.032 H 
ATOM     40  H   LIG d   1       1.518   0.227  -9.936  0.00  0.00     0.032 H 
ATOM     41  H   LIG d   1       2.683   0.723  -7.203  0.00  0.00     0.081 H 
ATOM     42  H   LIG d   1       2.630   1.806  -8.622  0.00  0.00     0.081 H 
ATOM     43  N   LIG d   1       4.199   0.384  -8.618  0.00  0.00     0.238 N 
ATOM     44  H   LIG d   1       4.690   0.105  -7.761  0.00  0.00     0.204 HD
ATOM     45  H   LIG d   1       4.191  -0.432 -10.582  0.00  0.00     0.087 H 
BRANCH  43  46
ATOM     46  C   LIG d   1       4.928   1.516  -9.248  0.00  0.00    -0.035 C 
ATOM     47  H   LIG d   1       5.806   1.755  -8.650  0.00  0.00     0.081 H 
ATOM     48  H   LIG d   1       5.238   1.239 -10.256  0.00  0.00     0.081 H 
BRANCH  46  49
ATOM     49  C   LIG d   1       4.007   2.737  -9.315  0.00  0.00    -0.025 C 
ATOM     50  H   LIG d   1       2.968   2.408  -9.337  0.00  0.00     0.028 H 
ATOM     51  H   LIG d   1       4.172   3.366  -8.441  0.00  0.00     0.028 H 
ATOM     52  H   LIG d   1       4.226   3.307 -10.219  0.00  0.00     0.028 H 
ENDBRANCH  46  49
ENDBRANCH  43  46
ENDBRANCH  30  33
ENDBRANCH   1  30
TORSDOF 8
ENDMDL
MODEL 10
REMARK VINA RESULT:      -6.0      2.147      4.147
REMARK  8 active torsions:
REMARK  status: ('A' for Active; 'I' for Inactive)
REMARK    1  A    between atoms: C_1  and  C_2 
REMARK    2  A    between atoms: C_2  and  N_51 
REMARK    3  A    between atoms: C_6  and  C_8 
REMARK    4  A    between atoms: C_8  and  N_9 
REMARK       I    between atoms: N_9  and  C_10 
REMARK    5  A    between atoms: C_10  and  C_12 
REMARK    6  A    between atoms: C_12  and  C_13 
REMARK    7  A    between atoms: C_12  and  C_19 
REMARK    8  A    between atoms: C_12  and  O_25 
ROOT
ATOM      1  N   LIG d   1       4.032  -1.455  -7.113  0.00  0.00    -0.307 N 
ATOM      2  C   LIG d   1       5.266  -1.916  -6.826  0.00  0.00     0.254 C 
ATOM      3  O   LIG d   1       5.864  -2.591  -7.637  0.00  0.00    -0.272 OA
ATOM      4  H   LIG d   1       3.553  -0.915  -6.464  0.00  0.00     0.149 HD
ENDROOT
BRANCH   2   5
ATOM      5  C   LIG d   1       5.898  -1.597  -5.496  0.00  0.00     0.192 C 
BRANCH   5   6
ATOM      6  C   LIG d   1       6.753  -0.363  -5.629  0.00  0.00    -0.003 A 
ATOM      7  C   LIG d   1       6.896   0.249  -6.860  0.00  0.00    -0.055 A 
ATOM      8  C   LIG d   1       7.680   1.380  -6.983  0.00  0.00    -0.061 A 
ATOM      9  H   LIG d   1       6.394  -0.157  -7.727  0.00  0.00     0.062 H 
ATOM     10  C   LIG d   1       8.322   1.900  -5.874  0.00  0.00    -0.062 A 
ATOM     11  H   LIG d   1       7.792   1.858  -7.945  0.00  0.00     0.062 H 
ATOM     12  C   LIG d   1       8.179   1.288  -4.643  0.00  0.00    -0.061 A 
ATOM     13  H   LIG d   1       8.935   2.784  -5.970  0.00  0.00     0.062 H 
ATOM     14  C   LIG d   1       7.391   0.159  -4.520  0.00  0.00    -0.055 A 
ATOM     15  H   LIG d   1       8.680   1.694  -3.777  0.00  0.00     0.062 H 
ATOM     16  H   LIG d   1       7.276  -0.317  -3.557  0.00  0.00     0.062 H 
ENDBRANCH   5   6
BRANCH   5  17
ATOM     17  C   LIG d   1       4.820  -1.353  -4.472  0.00  0.00    -0.003 A 
ATOM     18  C   LIG d   1       4.028  -0.223  -4.559  0.00  0.00    -0.055 A 
ATOM     19  C   LIG d   1       3.039   0.001  -3.620  0.00  0.00    -0.061 A 
ATOM     20  H   LIG d   1       4.182   0.485  -5.360  0.00  0.00     0.062 H 
ATOM     21  C   LIG d   1       2.842  -0.904  -2.595  0.00  0.00    -0.062 A 
ATOM     22  H   LIG d   1       2.420   0.885  -3.688  0.00  0.00     0.062 H 
ATOM     23  C   LIG d   1       3.633  -2.034  -2.508  0.00  0.00    -0.061 A 
ATOM     24  H   LIG d   1       2.069  -0.728  -1.860  0.00  0.00     0.062 H 
ATOM     25  C   LIG d   1       4.620  -2.260  -3.449  0.00  0.00    -0.055 A 
ATOM     26  H   LIG d   1       3.479  -2.741  -1.706  0.00  0.00     0.062 H 
ATOM     27  H   LIG d   1       5.235  -3.146  -3.385  0.00  0.00     0.062 H 
ENDBRANCH   5  17
BRANCH   5  28
ATOM     28  O   LIG d   1       6.711  -2.697  -5.080  0.00  0.00    -0.371 OA
ATOM     29  H   LIG d   1       7.127  -3.177  -5.808  0.00  0.00     0.212 HD
ENDBRANCH   5  28
ENDBRANCH   2   5
BRANCH   1  30
ATOM     30  C   LIG d   1       3.413  -1.770  -8.403  0.00  0.00     0.055 C 
ATOM     31  H   LIG d   1       4.172  -2.152  -9.085  0.00  0.00     0.052 H 
ATOM     32  H   LIG d   1       2.640  -2.525  -8.261  0.00  0.00     0.052 H 
BRANCH  30  33
ATOM     33  C   LIG d   1       2.789  -0.503  -8.993  0.00  0.00    -0.005 C 
ATOM     34  C   LIG d   1       2.969   0.689  -8.022  0.00  0.00    -0.003 C 
ATOM     35  C   LIG d   1       2.882   1.898  -8.990  0.00  0.00    -0.007 C 
ATOM     36  H   LIG d   1       2.166   0.720  -7.286  0.00  0.00     0.032 H 
ATOM     37  H   LIG d   1       3.943   0.650  -7.533  0.00  0.00     0.032 H 
ATOM     38  C   LIG d   1       3.570   1.370 -10.267  0.00  0.00    -0.031 C 
ATOM     39  H   LIG d   1       3.422   2.754  -8.587  0.00  0.00     0.032 H 
ATOM     40  H   LIG d   1       1.844   2.159  -9.192  0.00  0.00     0.032 H 
ATOM     41  H   LIG d   1       4.611   1.695 -10.288  0.00  0.00     0.081 H 
ATOM     42  H   LIG d   1       3.047   1.739 -11.149  0.00  0.00     0.081 H 
ATOM     43  N   LIG d   1       3.519  -0.100 -10.211  0.00  0.00     0.238 N 
ATOM     44  H   LIG d   1       4.476  -0.471 -10.173  0.00  0.00     0.204 HD
ATOM     45  H   LIG d   1       1.732  -0.666  -9.205  0.00  0.00     0.087 H 
BRANCH  43  46
ATOM     46  C   LIG d   1       2.839  -0.636 -11.418  0.00  0.00    -0.035 C 
ATOM     47  H   LIG d   1       2.949   0.072 -12.238  0.00  0.00     0.081 H 
ATOM     48  H   LIG d   1       3.286  -1.590 -11.699  0.00  0.00     0.081 H 
BRANCH  46  49
ATOM     49  C   LIG d   1       1.353  -0.840 -11.115  0.00  0.00    -0.025 C 
ATOM     50  H   LIG d   1       1.055  -0.183 -10.298  0.00  0.00     0.028 H 
ATOM     51  H   LIG d   1       0.765  -0.607 -12.002  0.00  0.00     0.028 H 
ATOM     52  H   LIG d   1       1.180  -1.877 -10.827  0.00  0.00     0.028 H 
ENDBRANCH  46  49
ENDBRANCH  43  46
ENDBRANCH  30  33
ENDBRANCH   1  30
TORSDOF 8
ENDMDL
