MODEL 1
REMARK VINA RESULT:      -6.7      0.000      0.000
REMARK  4 active torsions:
REMARK  status: ('A' for Active; 'I' for Inactive)
REMARK    1  A    between atoms: C_1  and  C_2 
REMARK    2  A    between atoms: N_6  and  N_7 
REMARK    3  A    between atoms: C_18  and  C_26 
REMARK    4  A    between atoms: N_24  and  N_25 
ROOT
ATOM      1  C   LIG d   1       7.665  -0.137  -6.289  0.00  0.00    -0.007 C 
ATOM      2  C   LIG d   1       6.534  -0.020  -7.312  0.00  0.00    -0.038 C 
ATOM      3  C   LIG d   1       7.107   0.511  -8.630  0.00  0.00    -0.008 C 
ATOM      4  C   LIG d   1       7.790   1.830  -8.368  0.00  0.00     0.059 C 
ATOM      5  N   LIG d   1       7.879   2.717  -9.314  0.00  0.00    -0.195 NA
ATOM      6  C   LIG d   1       8.353   2.112  -7.044  0.00  0.00    -0.039 C 
ATOM      7  C   LIG d   1       8.296   1.212  -6.072  0.00  0.00    -0.062 C 
ATOM      8  C   LIG d   1       8.885   1.495  -4.685  0.00  0.00    -0.031 C 
ATOM      9  C   LIG d   1       7.765   1.420  -3.657  0.00  0.00    -0.046 C 
ATOM     10  C   LIG d   1       6.625   0.504  -4.092  0.00  0.00    -0.034 C 
ATOM     11  H   LIG d   1       5.909   1.094  -4.666  0.00  0.00     0.031 H 
ATOM     12  C   LIG d   1       7.100  -0.650  -4.958  0.00  0.00    -0.029 C 
ATOM     13  H   LIG d   1       7.867  -1.213  -4.426  0.00  0.00     0.031 H 
ATOM     14  C   LIG d   1       5.922  -1.577  -5.298  0.00  0.00    -0.048 C 
ATOM     15  C   LIG d   1       5.341  -2.142  -4.006  0.00  0.00    -0.042 C 
ATOM     16  C   LIG d   1       4.848  -1.028  -3.108  0.00  0.00     0.011 C 
ATOM     17  C   LIG d   1       5.935   0.015  -2.813  0.00  0.00    -0.027 C 
ATOM     18  H   LIG d   1       6.653  -0.330  -2.069  0.00  0.00     0.031 H 
ATOM     19  C   LIG d   1       5.077   1.209  -2.294  0.00  0.00    -0.044 C 
ATOM     20  C   LIG d   1       3.827   1.171  -3.200  0.00  0.00    -0.012 C 
ATOM     21  C   LIG d   1       3.704  -0.251  -3.716  0.00  0.00     0.042 C 
ATOM     22  N   LIG d   1       2.808  -0.703  -4.511  0.00  0.00    -0.198 NA
ATOM     23  H   LIG d   1       6.088  -1.001  -7.477  0.00  0.00     0.028 H 
ATOM     24  H   LIG d   1       5.776   0.669  -6.941  0.00  0.00     0.028 H 
ATOM     25  H   LIG d   1       6.301   0.654  -9.349  0.00  0.00     0.033 H 
ATOM     26  H   LIG d   1       7.831  -0.202  -9.027  0.00  0.00     0.033 H 
ATOM     27  H   LIG d   1       8.822   3.067  -6.857  0.00  0.00     0.064 H 
ATOM     28  H   LIG d   1       9.320   2.494  -4.676  0.00  0.00     0.031 H 
ATOM     29  H   LIG d   1       9.652   0.760  -4.442  0.00  0.00     0.031 H 
ATOM     30  H   LIG d   1       7.370   2.422  -3.493  0.00  0.00     0.027 H 
ATOM     31  H   LIG d   1       8.176   1.048  -2.718  0.00  0.00     0.027 H 
ATOM     32  H   LIG d   1       5.151  -1.010  -5.819  0.00  0.00     0.027 H 
ATOM     33  H   LIG d   1       6.271  -2.390  -5.935  0.00  0.00     0.027 H 
ATOM     34  H   LIG d   1       6.116  -2.706  -3.486  0.00  0.00     0.027 H 
ATOM     35  H   LIG d   1       4.511  -2.806  -4.246  0.00  0.00     0.027 H 
ATOM     36  H   LIG d   1       4.801   1.059  -1.251  0.00  0.00     0.027 H 
ATOM     37  H   LIG d   1       5.614   2.150  -2.419  0.00  0.00     0.027 H 
ATOM     38  H   LIG d   1       2.940   1.436  -2.624  0.00  0.00     0.033 H 
ATOM     39  H   LIG d   1       3.950   1.862  -4.034  0.00  0.00     0.033 H 
ENDROOT
BRANCH   1  40
ATOM     40  C   LIG d   1       8.721  -1.117  -6.806  0.00  0.00    -0.056 C 
ATOM     41  H   LIG d   1       9.026  -1.781  -5.997  0.00  0.00     0.024 H 
ATOM     42  H   LIG d   1       8.302  -1.706  -7.622  0.00  0.00     0.024 H 
ATOM     43  H   LIG d   1       9.586  -0.561  -7.165  0.00  0.00     0.024 H 
ENDBRANCH   1  40
BRANCH   5  44
ATOM     44  N   LIG d   1       8.514   3.941  -9.070  0.00  0.00    -0.282 N 
ATOM     45  H   LIG d   1       7.991   4.715  -8.811  0.00  0.00     0.164 HD
ATOM     46  H   LIG d   1       9.477   4.016  -9.162  0.00  0.00     0.164 HD
ENDBRANCH   5  44
BRANCH  16  47
ATOM     47  C   LIG d   1       4.381  -1.647  -1.789  0.00  0.00    -0.054 C 
ATOM     48  H   LIG d   1       4.724  -1.031  -0.958  0.00  0.00     0.024 H 
ATOM     49  H   LIG d   1       3.292  -1.698  -1.777  0.00  0.00     0.024 H 
ATOM     50  H   LIG d   1       4.794  -2.651  -1.693  0.00  0.00     0.024 H 
ENDBRANCH  16  47
BRANCH  22  51
ATOM     51  N   LIG d   1       1.806   0.149  -4.994  0.00  0.00    -0.283 N 
ATOM     52  H   LIG d   1       1.374   0.777  -4.395  0.00  0.00     0.164 HD
ATOM     53  H   LIG d   1       1.544   0.109  -5.928  0.00  0.00     0.164 HD
ENDBRANCH  22  51
TORSDOF 4
ENDMDL
MODEL 2
REMARK VINA RESULT:      -6.0      2.854      4.408
REMARK  4 active torsions:
REMARK  status: ('A' for Active; 'I' for Inactive)
REMARK    1  A    between atoms: C_1  and  C_2 
REMARK    2  A    between atoms: N_6  and  N_7 
REMARK    3  A    between atoms: C_18  and  C_26 
REMARK    4  A    between atoms: N_24  and  N_25 
ROOT
ATOM      1  C   LIG d   1       3.643  -0.753  -8.018  0.00  0.00    -0.007 C 
ATOM      2  C   LIG d   1       4.449   0.541  -8.156  0.00  0.00    -0.038 C 
ATOM      3  C   LIG d   1       4.655   0.843  -9.644  0.00  0.00    -0.008 C 
ATOM      4  C   LIG d   1       5.338  -0.337 -10.291  0.00  0.00     0.059 C 
ATOM      5  N   LIG d   1       6.084  -0.162 -11.341  0.00  0.00    -0.195 NA
ATOM      6  C   LIG d   1       5.160  -1.681  -9.733  0.00  0.00    -0.039 C 
ATOM      7  C   LIG d   1       4.383  -1.885  -8.679  0.00  0.00    -0.062 C 
ATOM      8  C   LIG d   1       4.187  -3.287  -8.090  0.00  0.00    -0.031 C 
ATOM      9  C   LIG d   1       4.684  -3.284  -6.652  0.00  0.00    -0.046 C 
ATOM     10  C   LIG d   1       4.603  -1.906  -6.002  0.00  0.00    -0.034 C 
ATOM     11  H   LIG d   1       5.532  -1.374  -6.208  0.00  0.00     0.031 H 
ATOM     12  C   LIG d   1       3.446  -1.077  -6.532  0.00  0.00    -0.029 C 
ATOM     13  H   LIG d   1       2.513  -1.623  -6.396  0.00  0.00     0.031 H 
ATOM     14  C   LIG d   1       3.371   0.264  -5.786  0.00  0.00    -0.048 C 
ATOM     15  C   LIG d   1       3.143  -0.000  -4.301  0.00  0.00    -0.042 C 
ATOM     16  C   LIG d   1       4.275  -0.821  -3.724  0.00  0.00     0.011 C 
ATOM     17  C   LIG d   1       4.500  -2.134  -4.489  0.00  0.00    -0.027 C 
ATOM     18  H   LIG d   1       3.759  -2.894  -4.240  0.00  0.00     0.031 H 
ATOM     19  C   LIG d   1       5.930  -2.525  -4.007  0.00  0.00    -0.044 C 
ATOM     20  C   LIG d   1       6.667  -1.170  -3.936  0.00  0.00    -0.012 C 
ATOM     21  C   LIG d   1       5.601  -0.101  -3.769  0.00  0.00     0.042 C 
ATOM     22  N   LIG d   1       5.790   1.162  -3.683  0.00  0.00    -0.198 NA
ATOM     23  H   LIG d   1       3.904   1.361  -7.689  0.00  0.00     0.028 H 
ATOM     24  H   LIG d   1       5.418   0.420  -7.671  0.00  0.00     0.028 H 
ATOM     25  H   LIG d   1       5.278   1.731  -9.754  0.00  0.00     0.033 H 
ATOM     26  H   LIG d   1       3.688   1.011 -10.120  0.00  0.00     0.033 H 
ATOM     27  H   LIG d   1       5.668  -2.518 -10.189  0.00  0.00     0.064 H 
ATOM     28  H   LIG d   1       4.763  -4.006  -8.672  0.00  0.00     0.031 H 
ATOM     29  H   LIG d   1       3.133  -3.563  -8.111  0.00  0.00     0.031 H 
ATOM     30  H   LIG d   1       5.720  -3.621  -6.637  0.00  0.00     0.027 H 
ATOM     31  H   LIG d   1       4.080  -3.983  -6.071  0.00  0.00     0.027 H 
ATOM     32  H   LIG d   1       4.309   0.805  -5.912  0.00  0.00     0.027 H 
ATOM     33  H   LIG d   1       2.550   0.859  -6.188  0.00  0.00     0.027 H 
ATOM     34  H   LIG d   1       2.205  -0.543  -4.179  0.00  0.00     0.027 H 
ATOM     35  H   LIG d   1       3.081   0.950  -3.773  0.00  0.00     0.027 H 
ATOM     36  H   LIG d   1       5.889  -2.992  -3.023  0.00  0.00     0.027 H 
ATOM     37  H   LIG d   1       6.411  -3.187  -4.727  0.00  0.00     0.027 H 
ATOM     38  H   LIG d   1       7.345  -1.157  -3.081  0.00  0.00     0.033 H 
ATOM     39  H   LIG d   1       7.225  -1.000  -4.857  0.00  0.00     0.033 H 
ENDROOT
BRANCH   1  40
ATOM     40  C   LIG d   1       2.278  -0.576  -8.687  0.00  0.00    -0.056 C 
ATOM     41  H   LIG d   1       1.722   0.209  -8.175  0.00  0.00     0.024 H 
ATOM     42  H   LIG d   1       2.418  -0.301  -9.732  0.00  0.00     0.024 H 
ATOM     43  H   LIG d   1       1.722  -1.512  -8.629  0.00  0.00     0.024 H 
ENDBRANCH   1  40
BRANCH   5  44
ATOM     44  N   LIG d   1       6.717  -1.257 -11.941  0.00  0.00    -0.282 N 
ATOM     45  H   LIG d   1       6.877  -2.065 -11.429  0.00  0.00     0.164 HD
ATOM     46  H   LIG d   1       6.996  -1.208 -12.869  0.00  0.00     0.164 HD
ENDBRANCH   5  44
BRANCH  16  47
ATOM     47  C   LIG d   1       3.936  -1.147  -2.268  0.00  0.00    -0.054 C 
ATOM     48  H   LIG d   1       4.791  -0.912  -1.635  0.00  0.00     0.024 H 
ATOM     49  H   LIG d   1       3.077  -0.553  -1.953  0.00  0.00     0.024 H 
ATOM     50  H   LIG d   1       3.698  -2.206  -2.179  0.00  0.00     0.024 H 
ENDBRANCH  16  47
BRANCH  22  51
ATOM     51  N   LIG d   1       7.090   1.682  -3.743  0.00  0.00    -0.283 N 
ATOM     52  H   LIG d   1       7.852   1.082  -3.746  0.00  0.00     0.164 HD
ATOM     53  H   LIG d   1       7.227   2.642  -3.781  0.00  0.00     0.164 HD
ENDBRANCH  22  51
TORSDOF 4
ENDMDL
MODEL 3
REMARK VINA RESULT:      -5.9      5.135      7.497
REMARK  4 active torsions:
REMARK  status: ('A' for Active; 'I' for Inactive)
REMARK    1  A    between atoms: C_1  and  C_2 
REMARK    2  A    between atoms: N_6  and  N_7 
REMARK    3  A    between atoms: C_18  and  C_26 
REMARK    4  A    between atoms: N_24  and  N_25 
ROOT
ATOM      1  C   LIG d   1       3.249   0.535  -8.959  0.00  0.00    -0.007 C 
ATOM      2  C   LIG d   1       2.634  -0.375  -7.893  0.00  0.00    -0.038 C 
ATOM      3  C   LIG d   1       3.113   0.082  -6.511  0.00  0.00    -0.008 C 
ATOM      4  C   LIG d   1       4.621   0.065  -6.488  0.00  0.00     0.059 C 
ATOM      5  N   LIG d   1       5.253  -0.116  -5.366  0.00  0.00    -0.195 NA
ATOM      6  C   LIG d   1       5.374   0.252  -7.731  0.00  0.00    -0.039 C 
ATOM      7  C   LIG d   1       4.750   0.464  -8.881  0.00  0.00    -0.062 C 
ATOM      8  C   LIG d   1       5.529   0.665 -10.187  0.00  0.00    -0.031 C 
ATOM      9  C   LIG d   1       5.137  -0.437 -11.161  0.00  0.00    -0.046 C 
ATOM     10  C   LIG d   1       3.733  -0.979 -10.906  0.00  0.00    -0.034 C 
ATOM     11  H   LIG d   1       3.805  -1.794 -10.184  0.00  0.00     0.031 H 
ATOM     12  C   LIG d   1       2.792   0.074 -10.349  0.00  0.00    -0.029 C 
ATOM     13  H   LIG d   1       2.759   0.928 -11.025  0.00  0.00     0.031 H 
ATOM     14  C   LIG d   1       1.380  -0.509 -10.187  0.00  0.00    -0.048 C 
ATOM     15  C   LIG d   1       0.863  -0.954 -11.551  0.00  0.00    -0.042 C 
ATOM     16  C   LIG d   1       1.767  -2.011 -12.147  0.00  0.00     0.011 C 
ATOM     17  C   LIG d   1       3.230  -1.553 -12.236  0.00  0.00    -0.027 C 
ATOM     18  H   LIG d   1       3.403  -0.869 -13.067  0.00  0.00     0.031 H 
ATOM     19  C   LIG d   1       3.964  -2.915 -12.431  0.00  0.00    -0.044 C 
ATOM     20  C   LIG d   1       3.182  -3.878 -11.511  0.00  0.00    -0.012 C 
ATOM     21  C   LIG d   1       1.796  -3.282 -11.333  0.00  0.00     0.042 C 
ATOM     22  N   LIG d   1       0.840  -3.764 -10.630  0.00  0.00    -0.198 NA
ATOM     23  H   LIG d   1       1.547  -0.311  -7.942  0.00  0.00     0.028 H 
ATOM     24  H   LIG d   1       2.950  -1.404  -8.065  0.00  0.00     0.028 H 
ATOM     25  H   LIG d   1       2.728  -0.594  -5.748  0.00  0.00     0.033 H 
ATOM     26  H   LIG d   1       2.757   1.095  -6.318  0.00  0.00     0.033 H 
ATOM     27  H   LIG d   1       6.453   0.218  -7.711  0.00  0.00     0.064 H 
ATOM     28  H   LIG d   1       6.597   0.607  -9.983  0.00  0.00     0.031 H 
ATOM     29  H   LIG d   1       5.294   1.636 -10.623  0.00  0.00     0.031 H 
ATOM     30  H   LIG d   1       5.852  -1.254 -11.073  0.00  0.00     0.027 H 
ATOM     31  H   LIG d   1       5.182  -0.040 -12.176  0.00  0.00     0.027 H 
ATOM     32  H   LIG d   1       1.416  -1.370  -9.520  0.00  0.00     0.027 H 
ATOM     33  H   LIG d   1       0.718   0.250  -9.769  0.00  0.00     0.027 H 
ATOM     34  H   LIG d   1       0.831  -0.091 -12.217  0.00  0.00     0.027 H 
ATOM     35  H   LIG d   1      -0.141  -1.361 -11.439  0.00  0.00     0.027 H 
ATOM     36  H   LIG d   1       3.901  -3.239 -13.469  0.00  0.00     0.027 H 
ATOM     37  H   LIG d   1       5.004  -2.839 -12.113  0.00  0.00     0.027 H 
ATOM     38  H   LIG d   1       3.108  -4.861 -11.976  0.00  0.00     0.033 H 
ATOM     39  H   LIG d   1       3.680  -3.958 -10.545  0.00  0.00     0.033 H 
ENDROOT
BRANCH   1  40
ATOM     40  C   LIG d   1       2.793   1.976  -8.723  0.00  0.00    -0.056 C 
ATOM     41  H   LIG d   1       3.140   2.311  -7.745  0.00  0.00     0.024 H 
ATOM     42  H   LIG d   1       3.209   2.620  -9.497  0.00  0.00     0.024 H 
ATOM     43  H   LIG d   1       1.705   2.022  -8.757  0.00  0.00     0.024 H 
ENDBRANCH   1  40
BRANCH   5  44
ATOM     44  N   LIG d   1       6.653  -0.132  -5.345  0.00  0.00    -0.282 N 
ATOM     45  H   LIG d   1       7.149  -0.237  -6.171  0.00  0.00     0.164 HD
ATOM     46  H   LIG d   1       7.127  -0.039  -4.503  0.00  0.00     0.164 HD
ENDBRANCH   5  44
BRANCH  16  47
ATOM     47  C   LIG d   1       1.262  -2.335 -13.555  0.00  0.00    -0.054 C 
ATOM     48  H   LIG d   1       1.887  -1.829 -14.290  0.00  0.00     0.024 H 
ATOM     49  H   LIG d   1       1.310  -3.412 -13.719  0.00  0.00     0.024 H 
ATOM     50  H   LIG d   1       0.232  -1.996 -13.658  0.00  0.00     0.024 H 
ENDBRANCH  16  47
BRANCH  22  51
ATOM     51  N   LIG d   1       1.023  -4.960  -9.925  0.00  0.00    -0.283 N 
ATOM     52  H   LIG d   1       1.774  -5.537 -10.135  0.00  0.00     0.164 HD
ATOM     53  H   LIG d   1       0.398  -5.213  -9.227  0.00  0.00     0.164 HD
ENDBRANCH  22  51
TORSDOF 4
ENDMDL
MODEL 4
REMARK VINA RESULT:      -5.7      7.519      9.021
REMARK  4 active torsions:
REMARK  status: ('A' for Active; 'I' for Inactive)
REMARK    1  A    between atoms: C_1  and  C_2 
REMARK    2  A    between atoms: N_6  and  N_7 
REMARK    3  A    between atoms: C_18  and  C_26 
REMARK    4  A    between atoms: N_24  and  N_25 
ROOT
ATOM      1  C   LIG d   1      10.593   6.947  -5.613  0.00  0.00    -0.007 C 
ATOM      2  C   LIG d   1       9.344   7.830  -5.592  0.00  0.00    -0.038 C 
ATOM      3  C   LIG d   1       9.064   8.330  -7.013  0.00  0.00    -0.008 C 
ATOM      4  C   LIG d   1      10.282   9.061  -7.521  0.00  0.00     0.059 C 
ATOM      5  N   LIG d   1      10.153  10.001  -8.411  0.00  0.00    -0.195 NA
ATOM      6  C   LIG d   1      11.611   8.711  -7.012  0.00  0.00    -0.039 C 
ATOM      7  C   LIG d   1      11.767   7.739  -6.124  0.00  0.00    -0.062 C 
ATOM      8  C   LIG d   1      13.153   7.362  -5.588  0.00  0.00    -0.031 C 
ATOM      9  C   LIG d   1      13.166   7.576  -4.081  0.00  0.00    -0.046 C 
ATOM     10  C   LIG d   1      11.781   7.445  -3.454  0.00  0.00    -0.034 C 
ATOM     11  H   LIG d   1      11.298   8.423  -3.479  0.00  0.00     0.031 H 
ATOM     12  C   LIG d   1      10.896   6.455  -4.192  0.00  0.00    -0.029 C 
ATOM     13  H   LIG d   1      11.393   5.486  -4.237  0.00  0.00     0.031 H 
ATOM     14  C   LIG d   1       9.548   6.310  -3.471  0.00  0.00    -0.048 C 
ATOM     15  C   LIG d   1       9.789   5.790  -2.057  0.00  0.00    -0.042 C 
ATOM     16  C   LIG d   1      10.664   6.748  -1.277  0.00  0.00     0.011 C 
ATOM     17  C   LIG d   1      11.992   7.046  -1.989  0.00  0.00    -0.027 C 
ATOM     18  H   LIG d   1      12.711   6.232  -1.888  0.00  0.00     0.031 H 
ATOM     19  C   LIG d   1      12.453   8.336  -1.245  0.00  0.00    -0.044 C 
ATOM     20  C   LIG d   1      11.137   9.115  -1.032  0.00  0.00    -0.012 C 
ATOM     21  C   LIG d   1      10.013   8.094  -1.067  0.00  0.00     0.042 C 
ATOM     22  N   LIG d   1       8.761   8.329  -0.944  0.00  0.00    -0.198 NA
ATOM     23  H   LIG d   1       8.493   7.250  -5.234  0.00  0.00     0.028 H 
ATOM     24  H   LIG d   1       9.511   8.682  -4.932  0.00  0.00     0.028 H 
ATOM     25  H   LIG d   1       8.210   9.008  -7.000  0.00  0.00     0.033 H 
ATOM     26  H   LIG d   1       8.850   7.482  -7.663  0.00  0.00     0.033 H 
ATOM     27  H   LIG d   1      12.476   9.252  -7.364  0.00  0.00     0.064 H 
ATOM     28  H   LIG d   1      13.905   7.999  -6.052  0.00  0.00     0.031 H 
ATOM     29  H   LIG d   1      13.374   6.318  -5.809  0.00  0.00     0.031 H 
ATOM     30  H   LIG d   1      13.556   8.572  -3.871  0.00  0.00     0.027 H 
ATOM     31  H   LIG d   1      13.828   6.838  -3.627  0.00  0.00     0.027 H 
ATOM     32  H   LIG d   1       9.057   7.281  -3.415  0.00  0.00     0.027 H 
ATOM     33  H   LIG d   1       8.915   5.612  -4.019  0.00  0.00     0.027 H 
ATOM     34  H   LIG d   1      10.283   4.819  -2.116  0.00  0.00     0.027 H 
ATOM     35  H   LIG d   1       8.833   5.679  -1.547  0.00  0.00     0.027 H 
ATOM     36  H   LIG d   1      12.910   8.085  -0.289  0.00  0.00     0.027 H 
ATOM     37  H   LIG d   1      13.143   8.909  -1.863  0.00  0.00     0.027 H 
ATOM     38  H   LIG d   1      11.153   9.618  -0.064  0.00  0.00     0.033 H 
ATOM     39  H   LIG d   1      11.003   9.845  -1.830  0.00  0.00     0.033 H 
ENDROOT
BRANCH   1  40
ATOM     40  C   LIG d   1      10.352   5.745  -6.528  0.00  0.00    -0.056 C 
ATOM     41  H   LIG d   1       9.290   5.497  -6.529  0.00  0.00     0.024 H 
ATOM     42  H   LIG d   1      10.669   5.990  -7.542  0.00  0.00     0.024 H 
ATOM     43  H   LIG d   1      10.924   4.891  -6.164  0.00  0.00     0.024 H 
ENDBRANCH   1  40
BRANCH   5  44
ATOM     44  N   LIG d   1      11.284  10.678  -8.883  0.00  0.00    -0.282 N 
ATOM     45  H   LIG d   1      11.215  11.606  -9.156  0.00  0.00     0.164 HD
ATOM     46  H   LIG d   1      12.138  10.219  -8.937  0.00  0.00     0.164 HD
ENDBRANCH   5  44
BRANCH  16  47
ATOM     47  C   LIG d   1      10.961   6.122   0.087  0.00  0.00    -0.054 C 
ATOM     48  H   LIG d   1      10.999   6.905   0.845  0.00  0.00     0.024 H 
ATOM     49  H   LIG d   1      10.174   5.411   0.339  0.00  0.00     0.024 H 
ATOM     50  H   LIG d   1      11.920   5.606   0.049  0.00  0.00     0.024 H 
ENDBRANCH  16  47
BRANCH  22  51
ATOM     51  N   LIG d   1       8.309   9.641  -0.755  0.00  0.00    -0.283 N 
ATOM     52  H   LIG d   1       8.946  10.354  -0.587  0.00  0.00     0.164 HD
ATOM     53  H   LIG d   1       7.360   9.838  -0.791  0.00  0.00     0.164 HD
ENDBRANCH  22  51
TORSDOF 4
ENDMDL
MODEL 5
REMARK VINA RESULT:      -5.7      3.516      4.917
REMARK  4 active torsions:
REMARK  status: ('A' for Active; 'I' for Inactive)
REMARK    1  A    between atoms: C_1  and  C_2 
REMARK    2  A    between atoms: N_6  and  N_7 
REMARK    3  A    between atoms: C_18  and  C_26 
REMARK    4  A    between atoms: N_24  and  N_25 
ROOT
ATOM      1  C   LIG d   1       4.730   0.078  -8.094  0.00  0.00    -0.007 C 
ATOM      2  C   LIG d   1       5.019  -1.135  -8.981  0.00  0.00    -0.038 C 
ATOM      3  C   LIG d   1       4.342  -0.930 -10.340  0.00  0.00    -0.008 C 
ATOM      4  C   LIG d   1       2.865  -0.712 -10.121  0.00  0.00     0.059 C 
ATOM      5  N   LIG d   1       2.014  -1.039 -11.048  0.00  0.00    -0.195 NA
ATOM      6  C   LIG d   1       2.391  -0.132  -8.861  0.00  0.00    -0.039 C 
ATOM      7  C   LIG d   1       3.243   0.232  -7.914  0.00  0.00    -0.062 C 
ATOM      8  C   LIG d   1       2.757   0.843  -6.595  0.00  0.00    -0.031 C 
ATOM      9  C   LIG d   1       3.197  -0.058  -5.450  0.00  0.00    -0.046 C 
ATOM     10  C   LIG d   1       4.452  -0.860  -5.779  0.00  0.00    -0.034 C 
ATOM     11  H   LIG d   1       4.150  -1.795  -6.253  0.00  0.00     0.031 H 
ATOM     12  C   LIG d   1       5.387  -0.124  -6.722  0.00  0.00    -0.029 C 
ATOM     13  H   LIG d   1       5.647   0.845  -6.295  0.00  0.00     0.031 H 
ATOM     14  C   LIG d   1       6.663  -0.946  -6.953  0.00  0.00    -0.048 C 
ATOM     15  C   LIG d   1       7.376  -1.149  -5.620  0.00  0.00    -0.042 C 
ATOM     16  C   LIG d   1       6.485  -1.886  -4.644  0.00  0.00     0.011 C 
ATOM     17  C   LIG d   1       5.130  -1.193  -4.444  0.00  0.00    -0.027 C 
ATOM     18  H   LIG d   1       5.200  -0.319  -3.794  0.00  0.00     0.031 H 
ATOM     19  C   LIG d   1       4.293  -2.340  -3.801  0.00  0.00    -0.044 C 
ATOM     20  C   LIG d   1       4.767  -3.598  -4.562  0.00  0.00    -0.012 C 
ATOM     21  C   LIG d   1       6.153  -3.287  -5.099  0.00  0.00     0.042 C 
ATOM     22  N   LIG d   1       6.894  -4.060  -5.800  0.00  0.00    -0.198 NA
ATOM     23  H   LIG d   1       6.095  -1.236  -9.121  0.00  0.00     0.028 H 
ATOM     24  H   LIG d   1       4.624  -2.035  -8.509  0.00  0.00     0.028 H 
ATOM     25  H   LIG d   1       4.492  -1.814 -10.960  0.00  0.00     0.033 H 
ATOM     26  H   LIG d   1       4.770  -0.058 -10.834  0.00  0.00     0.033 H 
ATOM     27  H   LIG d   1       1.331   0.002  -8.703  0.00  0.00     0.064 H 
ATOM     28  H   LIG d   1       1.670   0.912  -6.607  0.00  0.00     0.031 H 
ATOM     29  H   LIG d   1       3.183   1.838  -6.458  0.00  0.00     0.031 H 
ATOM     30  H   LIG d   1       2.387  -0.750  -5.217  0.00  0.00     0.027 H 
ATOM     31  H   LIG d   1       3.393   0.559  -4.572  0.00  0.00     0.027 H 
ATOM     32  H   LIG d   1       6.401  -1.919  -7.369  0.00  0.00     0.027 H 
ATOM     33  H   LIG d   1       7.317  -0.417  -7.647  0.00  0.00     0.027 H 
ATOM     34  H   LIG d   1       7.635  -0.174  -5.205  0.00  0.00     0.027 H 
ATOM     35  H   LIG d   1       8.286  -1.725  -5.783  0.00  0.00     0.027 H 
ATOM     36  H   LIG d   1       4.515  -2.428  -2.738  0.00  0.00     0.027 H 
ATOM     37  H   LIG d   1       3.228  -2.174  -3.960  0.00  0.00     0.027 H 
ATOM     38  H   LIG d   1       4.813  -4.450  -3.883  0.00  0.00     0.033 H 
ATOM     39  H   LIG d   1       4.087  -3.813  -5.387  0.00  0.00     0.033 H 
ENDROOT
BRANCH   1  40
ATOM     40  C   LIG d   1       5.297   1.337  -8.752  0.00  0.00    -0.056 C 
ATOM     41  H   LIG d   1       4.734   1.558  -9.659  0.00  0.00     0.024 H 
ATOM     42  H   LIG d   1       5.217   2.176  -8.060  0.00  0.00     0.024 H 
ATOM     43  H   LIG d   1       6.344   1.174  -9.006  0.00  0.00     0.024 H 
ENDBRANCH   1  40
BRANCH   5  44
ATOM     44  N   LIG d   1       0.643  -0.835 -10.844  0.00  0.00    -0.282 N 
ATOM     45  H   LIG d   1       0.116  -0.378 -11.516  0.00  0.00     0.164 HD
ATOM     46  H   LIG d   1       0.222  -1.151 -10.029  0.00  0.00     0.164 HD
ENDBRANCH   5  44
BRANCH  16  47
ATOM     47  C   LIG d   1       7.209  -1.960  -3.297  0.00  0.00    -0.054 C 
ATOM     48  H   LIG d   1       6.655  -2.613  -2.623  0.00  0.00     0.024 H 
ATOM     49  H   LIG d   1       8.213  -2.359  -3.446  0.00  0.00     0.024 H 
ATOM     50  H   LIG d   1       7.274  -0.963  -2.865  0.00  0.00     0.024 H 
ENDBRANCH  16  47
BRANCH  22  51
ATOM     51  N   LIG d   1       6.442  -5.340  -6.146  0.00  0.00    -0.283 N 
ATOM     52  H   LIG d   1       6.712  -6.109  -5.619  0.00  0.00     0.164 HD
ATOM     53  H   LIG d   1       5.859  -5.459  -6.913  0.00  0.00     0.164 HD
ENDBRANCH  22  51
TORSDOF 4
ENDMDL
MODEL 6
REMARK VINA RESULT:      -5.6      3.855      5.850
REMARK  4 active torsions:
REMARK  status: ('A' for Active; 'I' for Inactive)
REMARK    1  A    between atoms: C_1  and  C_2 
REMARK    2  A    between atoms: N_6  and  N_7 
REMARK    3  A    between atoms: C_18  and  C_26 
REMARK    4  A    between atoms: N_24  and  N_25 
ROOT
ATOM      1  C   LIG d   1       4.934  -2.010  -6.472  0.00  0.00    -0.007 C 
ATOM      2  C   LIG d   1       6.211  -2.060  -7.313  0.00  0.00    -0.038 C 
ATOM      3  C   LIG d   1       7.418  -2.189  -6.379  0.00  0.00    -0.008 C 
ATOM      4  C   LIG d   1       7.409  -1.035  -5.408  0.00  0.00     0.059 C 
ATOM      5  N   LIG d   1       8.524  -0.605  -4.896  0.00  0.00    -0.195 NA
ATOM      6  C   LIG d   1       6.141  -0.396  -5.043  0.00  0.00    -0.039 C 
ATOM      7  C   LIG d   1       4.990  -0.835  -5.533  0.00  0.00    -0.062 C 
ATOM      8  C   LIG d   1       3.658  -0.176  -5.155  0.00  0.00    -0.031 C 
ATOM      9  C   LIG d   1       3.007   0.366  -6.420  0.00  0.00    -0.046 C 
ATOM     10  C   LIG d   1       3.426  -0.396  -7.673  0.00  0.00    -0.034 C 
ATOM     11  H   LIG d   1       4.330   0.066  -8.071  0.00  0.00     0.031 H 
ATOM     12  C   LIG d   1       3.718  -1.861  -7.396  0.00  0.00    -0.029 C 
ATOM     13  H   LIG d   1       2.847  -2.325  -6.934  0.00  0.00     0.031 H 
ATOM     14  C   LIG d   1       4.058  -2.590  -8.705  0.00  0.00    -0.048 C 
ATOM     15  C   LIG d   1       2.865  -2.500  -9.652  0.00  0.00    -0.042 C 
ATOM     16  C   LIG d   1       2.537  -1.056  -9.964  0.00  0.00     0.011 C 
ATOM     17  C   LIG d   1       2.300  -0.219  -8.698  0.00  0.00    -0.027 C 
ATOM     18  H   LIG d   1       1.318  -0.398  -8.259  0.00  0.00     0.031 H 
ATOM     19  C   LIG d   1       2.441   1.228  -9.259  0.00  0.00    -0.044 C 
ATOM     20  C   LIG d   1       3.595   1.105 -10.279  0.00  0.00    -0.012 C 
ATOM     21  C   LIG d   1       3.648  -0.351 -10.705  0.00  0.00     0.042 C 
ATOM     22  N   LIG d   1       4.474  -0.878 -11.530  0.00  0.00    -0.198 NA
ATOM     23  H   LIG d   1       6.173  -2.920  -7.982  0.00  0.00     0.028 H 
ATOM     24  H   LIG d   1       6.299  -1.144  -7.898  0.00  0.00     0.028 H 
ATOM     25  H   LIG d   1       8.337  -2.168  -6.963  0.00  0.00     0.033 H 
ATOM     26  H   LIG d   1       7.355  -3.129  -5.828  0.00  0.00     0.033 H 
ATOM     27  H   LIG d   1       6.143   0.444  -4.364  0.00  0.00     0.064 H 
ATOM     28  H   LIG d   1       3.845   0.643  -4.462  0.00  0.00     0.031 H 
ATOM     29  H   LIG d   1       2.995  -0.904  -4.688  0.00  0.00     0.031 H 
ATOM     30  H   LIG d   1       3.284   1.414  -6.535  0.00  0.00     0.027 H 
ATOM     31  H   LIG d   1       1.924   0.300  -6.313  0.00  0.00     0.027 H 
ATOM     32  H   LIG d   1       4.922  -2.117  -9.173  0.00  0.00     0.027 H 
ATOM     33  H   LIG d   1       4.285  -3.635  -8.492  0.00  0.00     0.027 H 
ATOM     34  H   LIG d   1       2.002  -2.971  -9.181  0.00  0.00     0.027 H 
ATOM     35  H   LIG d   1       3.102  -3.024 -10.578  0.00  0.00     0.027 H 
ATOM     36  H   LIG d   1       1.522   1.539  -9.755  0.00  0.00     0.027 H 
ATOM     37  H   LIG d   1       2.704   1.924  -8.463  0.00  0.00     0.027 H 
ATOM     38  H   LIG d   1       3.398   1.739 -11.144  0.00  0.00     0.033 H 
ATOM     39  H   LIG d   1       4.537   1.392  -9.811  0.00  0.00     0.033 H 
ENDROOT
BRANCH   1  40
ATOM     40  C   LIG d   1       4.805  -3.302  -5.664  0.00  0.00    -0.056 C 
ATOM     41  H   LIG d   1       3.940  -3.866  -6.016  0.00  0.00     0.024 H 
ATOM     42  H   LIG d   1       5.706  -3.902  -5.790  0.00  0.00     0.024 H 
ATOM     43  H   LIG d   1       4.674  -3.059  -4.609  0.00  0.00     0.024 H 
ENDBRANCH   1  40
BRANCH   5  44
ATOM     44  N   LIG d   1       8.515   0.466  -3.995  0.00  0.00    -0.282 N 
ATOM     45  H   LIG d   1       9.012   0.406  -3.164  0.00  0.00     0.164 HD
ATOM     46  H   LIG d   1       8.010   1.269  -4.200  0.00  0.00     0.164 HD
ENDBRANCH   5  44
BRANCH  16  47
ATOM     47  C   LIG d   1       1.272  -1.027 -10.823  0.00  0.00    -0.054 C 
ATOM     48  H   LIG d   1       1.549  -1.003 -11.877  0.00  0.00     0.024 H 
ATOM     49  H   LIG d   1       0.678  -1.920 -10.624  0.00  0.00     0.024 H 
ATOM     50  H   LIG d   1       0.688  -0.140 -10.581  0.00  0.00     0.024 H 
ENDBRANCH  16  47
BRANCH  22  51
ATOM     51  N   LIG d   1       5.456  -0.087 -12.139  0.00  0.00    -0.283 N 
ATOM     52  H   LIG d   1       5.873   0.635 -11.644  0.00  0.00     0.164 HD
ATOM     53  H   LIG d   1       5.720  -0.261 -13.056  0.00  0.00     0.164 HD
ENDBRANCH  22  51
TORSDOF 4
ENDMDL
MODEL 7
REMARK VINA RESULT:      -5.4      9.067     10.505
REMARK  4 active torsions:
REMARK  status: ('A' for Active; 'I' for Inactive)
REMARK    1  A    between atoms: C_1  and  C_2 
REMARK    2  A    between atoms: N_6  and  N_7 
REMARK    3  A    between atoms: C_18  and  C_26 
REMARK    4  A    between atoms: N_24  and  N_25 
ROOT
ATOM      1  C   LIG d   1      11.421  10.035  -4.848  0.00  0.00    -0.007 C 
ATOM      2  C   LIG d   1      11.585   8.545  -5.155  0.00  0.00    -0.038 C 
ATOM      3  C   LIG d   1      11.544   8.341  -6.673  0.00  0.00    -0.008 C 
ATOM      4  C   LIG d   1      10.249   8.903  -7.205  0.00  0.00     0.059 C 
ATOM      5  N   LIG d   1       9.726   8.417  -8.292  0.00  0.00    -0.195 NA
ATOM      6  C   LIG d   1       9.580   9.998  -6.496  0.00  0.00    -0.039 C 
ATOM      7  C   LIG d   1      10.110  10.526  -5.401  0.00  0.00    -0.062 C 
ATOM      8  C   LIG d   1       9.420  11.673  -4.654  0.00  0.00    -0.031 C 
ATOM      9  C   LIG d   1       9.097  11.209  -3.241  0.00  0.00    -0.046 C 
ATOM     10  C   LIG d   1      10.044  10.119  -2.747  0.00  0.00    -0.034 C 
ATOM     11  H   LIG d   1       9.637   9.151  -3.040  0.00  0.00     0.031 H 
ATOM     12  C   LIG d   1      11.440  10.249  -3.329  0.00  0.00    -0.029 C 
ATOM     13  H   LIG d   1      11.838  11.238  -3.104  0.00  0.00     0.031 H 
ATOM     14  C   LIG d   1      12.363   9.174  -2.736  0.00  0.00    -0.048 C 
ATOM     15  C   LIG d   1      12.445   9.363  -1.224  0.00  0.00    -0.042 C 
ATOM     16  C   LIG d   1      11.075   9.236  -0.595  0.00  0.00     0.011 C 
ATOM     17  C   LIG d   1      10.050  10.198  -1.215  0.00  0.00    -0.027 C 
ATOM     18  H   LIG d   1      10.171  11.222  -0.861  0.00  0.00     0.031 H 
ATOM     19  C   LIG d   1       8.709   9.563  -0.738  0.00  0.00    -0.044 C 
ATOM     20  C   LIG d   1       8.975   8.045  -0.842  0.00  0.00    -0.012 C 
ATOM     21  C   LIG d   1      10.480   7.858  -0.762  0.00  0.00     0.042 C 
ATOM     22  N   LIG d   1      11.119   6.751  -0.824  0.00  0.00    -0.198 NA
ATOM     23  H   LIG d   1      12.541   8.195  -4.765  0.00  0.00     0.028 H 
ATOM     24  H   LIG d   1      10.773   7.985  -4.690  0.00  0.00     0.028 H 
ATOM     25  H   LIG d   1      11.602   7.277  -6.901  0.00  0.00     0.033 H 
ATOM     26  H   LIG d   1      12.384   8.862  -7.133  0.00  0.00     0.033 H 
ATOM     27  H   LIG d   1       8.643  10.381  -6.871  0.00  0.00     0.064 H 
ATOM     28  H   LIG d   1       8.498  11.937  -5.170  0.00  0.00     0.031 H 
ATOM     29  H   LIG d   1      10.075  12.544  -4.611  0.00  0.00     0.031 H 
ATOM     30  H   LIG d   1       8.077  10.826  -3.222  0.00  0.00     0.027 H 
ATOM     31  H   LIG d   1       9.163  12.064  -2.568  0.00  0.00     0.027 H 
ATOM     32  H   LIG d   1      11.958   8.186  -2.951  0.00  0.00     0.027 H 
ATOM     33  H   LIG d   1      13.357   9.265  -3.175  0.00  0.00     0.027 H 
ATOM     34  H   LIG d   1      12.848  10.353  -1.012  0.00  0.00     0.027 H 
ATOM     35  H   LIG d   1      13.106   8.606  -0.803  0.00  0.00     0.027 H 
ATOM     36  H   LIG d   1       8.496   9.846   0.292  0.00  0.00     0.027 H 
ATOM     37  H   LIG d   1       7.891   9.856  -1.395  0.00  0.00     0.027 H 
ATOM     38  H   LIG d   1       8.490   7.523  -0.017  0.00  0.00     0.033 H 
ATOM     39  H   LIG d   1       8.602   7.666  -1.794  0.00  0.00     0.033 H 
ENDROOT
BRANCH   1  40
ATOM     40  C   LIG d   1      12.569  10.816  -5.489  0.00  0.00    -0.056 C 
ATOM     41  H   LIG d   1      12.220  11.810  -5.770  0.00  0.00     0.024 H 
ATOM     42  H   LIG d   1      13.389  10.907  -4.776  0.00  0.00     0.024 H 
ATOM     43  H   LIG d   1      12.916  10.289  -6.377  0.00  0.00     0.024 H 
ENDBRANCH   1  40
BRANCH   5  44
ATOM     44  N   LIG d   1       8.525   8.939  -8.786  0.00  0.00    -0.282 N 
ATOM     45  H   LIG d   1       7.733   8.381  -8.826  0.00  0.00     0.164 HD
ATOM     46  H   LIG d   1       8.484   9.860  -9.089  0.00  0.00     0.164 HD
ENDBRANCH   5  44
BRANCH  16  47
ATOM     47  C   LIG d   1      11.203   9.544   0.898  0.00  0.00    -0.054 C 
ATOM     48  H   LIG d   1      12.235   9.388   1.213  0.00  0.00     0.024 H 
ATOM     49  H   LIG d   1      10.921  10.581   1.081  0.00  0.00     0.024 H 
ATOM     50  H   LIG d   1      10.547   8.883   1.463  0.00  0.00     0.024 H 
ENDBRANCH  16  47
BRANCH  22  51
ATOM     51  N   LIG d   1      10.420   5.547  -0.983  0.00  0.00    -0.283 N 
ATOM     52  H   LIG d   1      10.882   4.757  -1.304  0.00  0.00     0.164 HD
ATOM     53  H   LIG d   1       9.474   5.503  -0.772  0.00  0.00     0.164 HD
ENDBRANCH  22  51
TORSDOF 4
ENDMDL
MODEL 8
REMARK VINA RESULT:      -5.3      3.621      6.236
REMARK  4 active torsions:
REMARK  status: ('A' for Active; 'I' for Inactive)
REMARK    1  A    between atoms: C_1  and  C_2 
REMARK    2  A    between atoms: N_6  and  N_7 
REMARK    3  A    between atoms: C_18  and  C_26 
REMARK    4  A    between atoms: N_24  and  N_25 
ROOT
ATOM      1  C   LIG d   1       4.137   1.052  -9.438  0.00  0.00    -0.007 C 
ATOM      2  C   LIG d   1       4.738   0.427 -10.699  0.00  0.00    -0.038 C 
ATOM      3  C   LIG d   1       3.642   0.297 -11.762  0.00  0.00    -0.008 C 
ATOM      4  C   LIG d   1       2.508  -0.520 -11.195  0.00  0.00     0.059 C 
ATOM      5  N   LIG d   1       1.744  -1.212 -11.987  0.00  0.00    -0.195 NA
ATOM      6  C   LIG d   1       2.268  -0.533  -9.749  0.00  0.00    -0.039 C 
ATOM      7  C   LIG d   1       3.018   0.185  -8.926  0.00  0.00    -0.062 C 
ATOM      8  C   LIG d   1       2.773   0.181  -7.412  0.00  0.00    -0.031 C 
ATOM      9  C   LIG d   1       4.022  -0.344  -6.719  0.00  0.00    -0.046 C 
ATOM     10  C   LIG d   1       5.293  -0.098  -7.526  0.00  0.00    -0.034 C 
ATOM     11  H   LIG d   1       5.444  -0.943  -8.197  0.00  0.00     0.031 H 
ATOM     12  C   LIG d   1       5.220   1.170  -8.359  0.00  0.00    -0.029 C 
ATOM     13  H   LIG d   1       5.003   2.020  -7.712  0.00  0.00     0.031 H 
ATOM     14  C   LIG d   1       6.553   1.404  -9.085  0.00  0.00    -0.048 C 
ATOM     15  C   LIG d   1       7.665   1.561  -8.053  0.00  0.00    -0.042 C 
ATOM     16  C   LIG d   1       7.782   0.317  -7.198  0.00  0.00     0.011 C 
ATOM     17  C   LIG d   1       6.454  -0.061  -6.525  0.00  0.00    -0.027 C 
ATOM     18  H   LIG d   1       6.230   0.568  -5.663  0.00  0.00     0.031 H 
ATOM     19  C   LIG d   1       6.730  -1.540  -6.119  0.00  0.00    -0.044 C 
ATOM     20  C   LIG d   1       7.538  -2.094  -7.313  0.00  0.00    -0.012 C 
ATOM     21  C   LIG d   1       8.188  -0.901  -7.992  0.00  0.00     0.042 C 
ATOM     22  N   LIG d   1       8.932  -0.924  -9.033  0.00  0.00    -0.198 NA
ATOM     23  H   LIG d   1       5.538   1.064 -11.076  0.00  0.00     0.028 H 
ATOM     24  H   LIG d   1       5.135  -0.560 -10.462  0.00  0.00     0.028 H 
ATOM     25  H   LIG d   1       4.045  -0.200 -12.643  0.00  0.00     0.033 H 
ATOM     26  H   LIG d   1       3.278   1.288 -12.034  0.00  0.00     0.033 H 
ATOM     27  H   LIG d   1       1.467  -1.137  -9.348  0.00  0.00     0.064 H 
ATOM     28  H   LIG d   1       1.930  -0.470  -7.185  0.00  0.00     0.031 H 
ATOM     29  H   LIG d   1       2.558   1.191  -7.060  0.00  0.00     0.031 H 
ATOM     30  H   LIG d   1       3.909  -1.416  -6.556  0.00  0.00     0.027 H 
ATOM     31  H   LIG d   1       4.118   0.149  -5.750  0.00  0.00     0.027 H 
ATOM     32  H   LIG d   1       6.777   0.549  -9.723  0.00  0.00     0.027 H 
ATOM     33  H   LIG d   1       6.483   2.305  -9.695  0.00  0.00     0.027 H 
ATOM     34  H   LIG d   1       7.438   2.416  -7.415  0.00  0.00     0.027 H 
ATOM     35  H   LIG d   1       8.610   1.735  -8.566  0.00  0.00     0.027 H 
ATOM     36  H   LIG d   1       7.319  -1.584  -5.204  0.00  0.00     0.027 H 
ATOM     37  H   LIG d   1       5.795  -2.087  -6.002  0.00  0.00     0.027 H 
ATOM     38  H   LIG d   1       8.305  -2.784  -6.958  0.00  0.00     0.033 H 
ATOM     39  H   LIG d   1       6.872  -2.603  -8.010  0.00  0.00     0.033 H 
ENDROOT
BRANCH   1  40
ATOM     40  C   LIG d   1       3.593   2.444  -9.769  0.00  0.00    -0.056 C 
ATOM     41  H   LIG d   1       2.622   2.577  -9.291  0.00  0.00     0.024 H 
ATOM     42  H   LIG d   1       4.286   3.201  -9.405  0.00  0.00     0.024 H 
ATOM     43  H   LIG d   1       3.481   2.542 -10.849  0.00  0.00     0.024 H 
ENDBRANCH   1  40
BRANCH   5  44
ATOM     44  N   LIG d   1       0.691  -1.969 -11.460  0.00  0.00    -0.282 N 
ATOM     45  H   LIG d   1       0.879  -2.767 -10.943  0.00  0.00     0.164 HD
ATOM     46  H   LIG d   1      -0.228  -1.697 -11.614  0.00  0.00     0.164 HD
ENDBRANCH   5  44
BRANCH  16  47
ATOM     47  C   LIG d   1       8.832   0.577  -6.116  0.00  0.00    -0.054 C 
ATOM     48  H   LIG d   1       9.028   1.647  -6.050  0.00  0.00     0.024 H 
ATOM     49  H   LIG d   1       8.460   0.216  -5.156  0.00  0.00     0.024 H 
ATOM     50  H   LIG d   1       9.752   0.053  -6.370  0.00  0.00     0.024 H 
ENDBRANCH  16  47
BRANCH  22  51
ATOM     51  N   LIG d   1       9.219  -2.142  -9.663  0.00  0.00    -0.283 N 
ATOM     52  H   LIG d   1       9.364  -2.940  -9.132  0.00  0.00     0.164 HD
ATOM     53  H   LIG d   1       9.273  -2.187 -10.631  0.00  0.00     0.164 HD
ENDBRANCH  22  51
TORSDOF 4
ENDMDL
MODEL 9
REMARK VINA RESULT:      -5.2      8.037     10.677
REMARK  4 active torsions:
REMARK  status: ('A' for Active; 'I' for Inactive)
REMARK    1  A    between atoms: C_1  and  C_2 
REMARK    2  A    between atoms: N_6  and  N_7 
REMARK    3  A    between atoms: C_18  and  C_26 
REMARK    4  A    between atoms: N_24  and  N_25 
ROOT
ATOM      1  C   LIG d   1       7.901  -9.668  -4.509  0.00  0.00    -0.007 C 
ATOM      2  C   LIG d   1       7.938 -10.287  -3.110  0.00  0.00    -0.038 C 
ATOM      3  C   LIG d   1       6.774 -11.273  -2.971  0.00  0.00    -0.008 C 
ATOM      4  C   LIG d   1       5.482 -10.543  -3.247  0.00  0.00     0.059 C 
ATOM      5  N   LIG d   1       4.374 -10.952  -2.704  0.00  0.00    -0.195 NA
ATOM      6  C   LIG d   1       5.478  -9.372  -4.129  0.00  0.00    -0.039 C 
ATOM      7  C   LIG d   1       6.592  -8.954  -4.713  0.00  0.00    -0.062 C 
ATOM      8  C   LIG d   1       6.598  -7.732  -5.640  0.00  0.00    -0.031 C 
ATOM      9  C   LIG d   1       7.527  -6.680  -5.052  0.00  0.00    -0.046 C 
ATOM     10  C   LIG d   1       8.628  -7.283  -4.184  0.00  0.00    -0.034 C 
ATOM     11  H   LIG d   1       8.255  -7.366  -3.163  0.00  0.00     0.031 H 
ATOM     12  C   LIG d   1       9.052  -8.664  -4.654  0.00  0.00    -0.029 C 
ATOM     13  H   LIG d   1       9.366  -8.614  -5.697  0.00  0.00     0.031 H 
ATOM     14  C   LIG d   1      10.212  -9.183  -3.791  0.00  0.00    -0.048 C 
ATOM     15  C   LIG d   1      11.400  -8.235  -3.926  0.00  0.00    -0.042 C 
ATOM     16  C   LIG d   1      11.028  -6.843  -3.463  0.00  0.00     0.011 C 
ATOM     17  C   LIG d   1       9.796  -6.289  -4.194  0.00  0.00    -0.027 C 
ATOM     18  H   LIG d   1      10.028  -5.944  -5.201  0.00  0.00     0.031 H 
ATOM     19  C   LIG d   1       9.383  -5.119  -3.250  0.00  0.00    -0.044 C 
ATOM     20  C   LIG d   1       9.643  -5.690  -1.838  0.00  0.00    -0.012 C 
ATOM     21  C   LIG d   1      10.679  -6.789  -1.995  0.00  0.00     0.042 C 
ATOM     22  N   LIG d   1      11.161  -7.525  -1.065  0.00  0.00    -0.198 NA
ATOM     23  H   LIG d   1       8.882 -10.815  -2.970  0.00  0.00     0.028 H 
ATOM     24  H   LIG d   1       7.843  -9.502  -2.360  0.00  0.00     0.028 H 
ATOM     25  H   LIG d   1       6.755 -11.677  -1.959  0.00  0.00     0.033 H 
ATOM     26  H   LIG d   1       6.894 -12.085  -3.689  0.00  0.00     0.033 H 
ATOM     27  H   LIG d   1       4.554  -8.842  -4.305  0.00  0.00     0.064 H 
ATOM     28  H   LIG d   1       5.589  -7.328  -5.710  0.00  0.00     0.031 H 
ATOM     29  H   LIG d   1       6.948  -8.012  -6.634  0.00  0.00     0.031 H 
ATOM     30  H   LIG d   1       6.939  -5.991  -4.446  0.00  0.00     0.027 H 
ATOM     31  H   LIG d   1       7.988  -6.123  -5.868  0.00  0.00     0.027 H 
ATOM     32  H   LIG d   1       9.902  -9.222  -2.747  0.00  0.00     0.027 H 
ATOM     33  H   LIG d   1      10.495 -10.182  -4.125  0.00  0.00     0.027 H 
ATOM     34  H   LIG d   1      11.706  -8.197  -4.971  0.00  0.00     0.027 H 
ATOM     35  H   LIG d   1      12.226  -8.607  -3.321  0.00  0.00     0.027 H 
ATOM     36  H   LIG d   1      10.005  -4.243  -3.430  0.00  0.00     0.027 H 
ATOM     37  H   LIG d   1       8.329  -4.876  -3.378  0.00  0.00     0.027 H 
ATOM     38  H   LIG d   1      10.026  -4.907  -1.184  0.00  0.00     0.033 H 
ATOM     39  H   LIG d   1       8.721  -6.102  -1.427  0.00  0.00     0.033 H 
ENDROOT
BRANCH   1  40
ATOM     40  C   LIG d   1       8.050 -10.770  -5.559  0.00  0.00    -0.056 C 
ATOM     41  H   LIG d   1       9.003 -10.653  -6.075  0.00  0.00     0.024 H 
ATOM     42  H   LIG d   1       8.018 -11.744  -5.070  0.00  0.00     0.024 H 
ATOM     43  H   LIG d   1       7.236 -10.698  -6.279  0.00  0.00     0.024 H 
ENDBRANCH   1  40
BRANCH   5  44
ATOM     44  N   LIG d   1       3.176 -10.275  -2.961  0.00  0.00    -0.282 N 
ATOM     45  H   LIG d   1       3.121  -9.316  -2.824  0.00  0.00     0.164 HD
ATOM     46  H   LIG d   1       2.399 -10.764  -3.276  0.00  0.00     0.164 HD
ENDBRANCH   5  44
BRANCH  16  47
ATOM     47  C   LIG d   1      12.218  -5.918  -3.725  0.00  0.00    -0.054 C 
ATOM     48  H   LIG d   1      12.869  -5.908  -2.851  0.00  0.00     0.024 H 
ATOM     49  H   LIG d   1      12.775  -6.279  -4.590  0.00  0.00     0.024 H 
ATOM     50  H   LIG d   1      11.857  -4.909  -3.920  0.00  0.00     0.024 H 
ENDBRANCH  16  47
BRANCH  22  51
ATOM     51  N   LIG d   1      10.732  -7.354   0.257  0.00  0.00    -0.283 N 
ATOM     52  H   LIG d   1      10.952  -8.019   0.928  0.00  0.00     0.164 HD
ATOM     53  H   LIG d   1      10.215  -6.570   0.503  0.00  0.00     0.164 HD
ENDBRANCH  22  51
TORSDOF 4
ENDMDL
