MODEL 1
REMARK VINA RESULT:      -6.4      0.000      0.000
REMARK  12 active torsions:
REMARK  status: ('A' for Active; 'I' for Inactive)
REMARK    1  A    between atoms: C_1  and  C_2 
REMARK    2  A    between atoms: C_2  and  O_3 
REMARK    3  A    between atoms: O_3  and  C_4 
REMARK    4  A    between atoms: C_4  and  C_6 
REMARK    5  A    between atoms: C_9  and  O_23 
REMARK    6  A    between atoms: C_14  and  C_15 
REMARK    7  A    between atoms: C_18  and  O_21 
REMARK    8  A    between atoms: O_21  and  C_22 
REMARK    9  A    between atoms: O_23  and  C_24 
REMARK   10  A    between atoms: C_24  and  C_26 
REMARK   11  A    between atoms: C_29  and  O_32 
REMARK   12  A    between atoms: O_32  and  C_33 
ROOT
ATOM      1  C   LIG d   1      10.450   5.849  -1.988  0.00  0.00     0.112 A 
ATOM      2  C   LIG d   1      10.096   4.818  -2.983  0.00  0.00     0.038 A 
ATOM      3  C   LIG d   1      10.177   3.429  -3.004  0.00  0.00    -0.008 A 
ATOM      4  C   LIG d   1       9.749   2.737  -4.124  0.00  0.00     0.133 A 
ATOM      5  C   LIG d   1       9.244   3.429  -5.220  0.00  0.00    -0.016 A 
ATOM      6  C   LIG d   1       9.163   4.805  -5.204  0.00  0.00    -0.015 A 
ATOM      7  C   LIG d   1       9.587   5.515  -4.088  0.00  0.00     0.137 A 
ATOM      8  O   LIG d   1       9.617   6.835  -3.802  0.00  0.00    -0.454 OA
ATOM      9  C   LIG d   1      10.124   7.061  -2.579  0.00  0.00     0.150 A 
ATOM     10  H   LIG d   1      10.570   2.894  -2.153  0.00  0.00     0.066 H 
ATOM     11  H   LIG d   1       8.912   2.883  -6.091  0.00  0.00     0.066 H 
ATOM     12  H   LIG d   1       8.768   5.331  -6.061  0.00  0.00     0.066 H 
ENDROOT
BRANCH   4  13
ATOM     13  O   LIG d   1       9.824   1.380  -4.152  0.00  0.00    -0.422 OA
BRANCH  13  14
ATOM     14  C   LIG d   1       8.831   0.726  -4.787  0.00  0.00     0.344 C 
ATOM     15  O   LIG d   1       8.942   0.448  -5.964  0.00  0.00    -0.244 OA
BRANCH  14  16
ATOM     16  C   LIG d   1       7.609   0.351  -4.052  0.00  0.00     0.060 A 
ATOM     17  C   LIG d   1       6.778   1.342  -3.523  0.00  0.00    -0.044 A 
ATOM     18  C   LIG d   1       5.637   0.987  -2.837  0.00  0.00    -0.019 A 
ATOM     19  H   LIG d   1       7.028   2.385  -3.652  0.00  0.00     0.063 H 
ATOM     20  C   LIG d   1       5.311  -0.354  -2.671  0.00  0.00     0.120 A 
ATOM     21  H   LIG d   1       4.994   1.753  -2.429  0.00  0.00     0.065 H 
ATOM     22  C   LIG d   1       6.137  -1.342  -3.195  0.00  0.00    -0.019 A 
ATOM     23  C   LIG d   1       7.276  -0.997  -3.887  0.00  0.00    -0.044 A 
ATOM     24  H   LIG d   1       5.881  -2.383  -3.064  0.00  0.00     0.065 H 
ATOM     25  H   LIG d   1       7.913  -1.766  -4.298  0.00  0.00     0.063 H 
BRANCH  20  26
ATOM     26  O   LIG d   1       4.187  -0.699  -1.996  0.00  0.00    -0.495 OA
BRANCH  26  27
ATOM     27  C   LIG d   1       3.143  -1.319  -2.748  0.00  0.00     0.079 C 
ATOM     28  H   LIG d   1       2.185  -1.137  -2.260  0.00  0.00     0.066 H 
ATOM     29  H   LIG d   1       3.122  -0.901  -3.755  0.00  0.00     0.066 H 
ATOM     30  H   LIG d   1       3.323  -2.393  -2.804  0.00  0.00     0.066 H 
ENDBRANCH  26  27
ENDBRANCH  20  26
ENDBRANCH  14  16
ENDBRANCH  13  14
ENDBRANCH   4  13
BRANCH   1  31
ATOM     31  C   LIG d   1      11.023   5.637  -0.658  0.00  0.00     0.344 C 
ATOM     32  O   LIG d   1      12.128   5.142  -0.542  0.00  0.00    -0.245 OA
BRANCH  31  33
ATOM     33  O   LIG d   1      10.324   5.990   0.441  0.00  0.00    -0.461 OA
BRANCH  33  34
ATOM     34  C   LIG d   1      11.091   6.383   1.611  0.00  0.00     0.090 C 
ATOM     35  H   LIG d   1      10.498   6.208   2.509  0.00  0.00     0.070 H 
ATOM     36  H   LIG d   1      12.008   5.796   1.659  0.00  0.00     0.070 H 
BRANCH  34  37
ATOM     37  C   LIG d   1      11.441   7.870   1.514  0.00  0.00    -0.031 C 
ATOM     38  H   LIG d   1      10.697   8.379   0.901  0.00  0.00     0.026 H 
ATOM     39  H   LIG d   1      11.450   8.307   2.513  0.00  0.00     0.026 H 
ATOM     40  H   LIG d   1      12.426   7.983   1.060  0.00  0.00     0.026 H 
ENDBRANCH  34  37
ENDBRANCH  33  34
ENDBRANCH  31  33
ENDBRANCH   1  31
BRANCH   9  41
ATOM     41  C   LIG d   1      10.300   8.387  -1.960  0.00  0.00     0.018 A 
ATOM     42  C   LIG d   1      11.487   9.100  -2.155  0.00  0.00    -0.048 A 
ATOM     43  C   LIG d   1      11.645  10.341  -1.580  0.00  0.00    -0.019 A 
ATOM     44  H   LIG d   1      12.279   8.678  -2.758  0.00  0.00     0.063 H 
ATOM     45  C   LIG d   1      10.626  10.884  -0.806  0.00  0.00     0.120 A 
ATOM     46  H   LIG d   1      12.560  10.893  -1.730  0.00  0.00     0.065 H 
ATOM     47  C   LIG d   1       9.445  10.180  -0.609  0.00  0.00    -0.019 A 
ATOM     48  C   LIG d   1       9.279   8.937  -1.180  0.00  0.00    -0.048 A 
ATOM     49  H   LIG d   1       8.657  10.606  -0.006  0.00  0.00     0.065 H 
ATOM     50  H   LIG d   1       8.360   8.390  -1.027  0.00  0.00     0.063 H 
BRANCH  45  51
ATOM     51  O   LIG d   1      10.786  12.108  -0.240  0.00  0.00    -0.495 OA
BRANCH  51  52
ATOM     52  C   LIG d   1      11.455  12.158   1.022  0.00  0.00     0.079 C 
ATOM     53  H   LIG d   1      10.907  12.815   1.698  0.00  0.00     0.066 H 
ATOM     54  H   LIG d   1      11.500  11.155   1.448  0.00  0.00     0.066 H 
ATOM     55  H   LIG d   1      12.466  12.540   0.884  0.00  0.00     0.066 H 
ENDBRANCH  51  52
ENDBRANCH  45  51
ENDBRANCH   9  41
TORSDOF 12
ENDMDL
MODEL 2
REMARK VINA RESULT:      -6.3      2.503     10.468
REMARK  12 active torsions:
REMARK  status: ('A' for Active; 'I' for Inactive)
REMARK    1  A    between atoms: C_1  and  C_2 
REMARK    2  A    between atoms: C_2  and  O_3 
REMARK    3  A    between atoms: O_3  and  C_4 
REMARK    4  A    between atoms: C_4  and  C_6 
REMARK    5  A    between atoms: C_9  and  O_23 
REMARK    6  A    between atoms: C_14  and  C_15 
REMARK    7  A    between atoms: C_18  and  O_21 
REMARK    8  A    between atoms: O_21  and  C_22 
REMARK    9  A    between atoms: O_23  and  C_24 
REMARK   10  A    between atoms: C_24  and  C_26 
REMARK   11  A    between atoms: C_29  and  O_32 
REMARK   12  A    between atoms: O_32  and  C_33 
ROOT
ATOM      1  C   LIG d   1       6.804   0.413  -4.396  0.00  0.00     0.112 A 
ATOM      2  C   LIG d   1       7.902   1.385  -4.555  0.00  0.00     0.038 A 
ATOM      3  C   LIG d   1       8.257   2.558  -3.894  0.00  0.00    -0.008 A 
ATOM      4  C   LIG d   1       9.378   3.258  -4.301  0.00  0.00     0.133 A 
ATOM      5  C   LIG d   1      10.145   2.791  -5.365  0.00  0.00    -0.016 A 
ATOM      6  C   LIG d   1       9.797   1.630  -6.022  0.00  0.00    -0.015 A 
ATOM      7  C   LIG d   1       8.674   0.914  -5.626  0.00  0.00     0.137 A 
ATOM      8  O   LIG d   1       8.115  -0.231  -6.076  0.00  0.00    -0.454 OA
ATOM      9  C   LIG d   1       7.013  -0.546  -5.375  0.00  0.00     0.150 A 
ATOM     10  H   LIG d   1       7.660   2.919  -3.070  0.00  0.00     0.066 H 
ATOM     11  H   LIG d   1      11.019   3.342  -5.677  0.00  0.00     0.066 H 
ATOM     12  H   LIG d   1      10.400   1.277  -6.846  0.00  0.00     0.066 H 
ENDROOT
BRANCH   4  13
ATOM     13  O   LIG d   1       9.732   4.405  -3.661  0.00  0.00    -0.422 OA
BRANCH  13  14
ATOM     14  C   LIG d   1      10.434   4.275  -2.518  0.00  0.00     0.344 C 
ATOM     15  O   LIG d   1      10.953   3.213  -2.241  0.00  0.00    -0.244 OA
BRANCH  14  16
ATOM     16  C   LIG d   1      10.571   5.424  -1.604  0.00  0.00     0.060 A 
ATOM     17  C   LIG d   1       9.781   6.563  -1.788  0.00  0.00    -0.044 A 
ATOM     18  C   LIG d   1       9.912   7.634  -0.932  0.00  0.00    -0.019 A 
ATOM     19  H   LIG d   1       9.069   6.603  -2.598  0.00  0.00     0.063 H 
ATOM     20  C   LIG d   1      10.827   7.584   0.113  0.00  0.00     0.120 A 
ATOM     21  H   LIG d   1       9.302   8.514  -1.072  0.00  0.00     0.065 H 
ATOM     22  C   LIG d   1      11.616   6.454   0.297  0.00  0.00    -0.019 A 
ATOM     23  C   LIG d   1      11.488   5.377  -0.549  0.00  0.00    -0.044 A 
ATOM     24  H   LIG d   1      12.326   6.419   1.110  0.00  0.00     0.065 H 
ATOM     25  H   LIG d   1      12.096   4.497  -0.402  0.00  0.00     0.063 H 
BRANCH  20  26
ATOM     26  O   LIG d   1      10.953   8.641   0.954  0.00  0.00    -0.495 OA
BRANCH  26  27
ATOM     27  C   LIG d   1      11.010   9.939   0.362  0.00  0.00     0.079 C 
ATOM     28  H   LIG d   1      11.015   9.844  -0.724  0.00  0.00     0.066 H 
ATOM     29  H   LIG d   1      10.140  10.519   0.671  0.00  0.00     0.066 H 
ATOM     30  H   LIG d   1      11.919  10.447   0.685  0.00  0.00     0.066 H 
ENDBRANCH  26  27
ENDBRANCH  20  26
ENDBRANCH  14  16
ENDBRANCH  13  14
ENDBRANCH   4  13
BRANCH   1  31
ATOM     31  C   LIG d   1       5.722   0.451  -3.409  0.00  0.00     0.344 C 
ATOM     32  O   LIG d   1       4.879   1.326  -3.464  0.00  0.00    -0.245 OA
BRANCH  31  33
ATOM     33  O   LIG d   1       5.661  -0.485  -2.440  0.00  0.00    -0.461 OA
BRANCH  33  34
ATOM     34  C   LIG d   1       4.352  -0.761  -1.873  0.00  0.00     0.090 C 
ATOM     35  H   LIG d   1       4.435  -0.840  -0.789  0.00  0.00     0.070 H 
ATOM     36  H   LIG d   1       3.667   0.047  -2.128  0.00  0.00     0.070 H 
BRANCH  34  37
ATOM     37  C   LIG d   1       3.819  -2.079  -2.440  0.00  0.00    -0.031 C 
ATOM     38  H   LIG d   1       4.569  -2.860  -2.309  0.00  0.00     0.026 H 
ATOM     39  H   LIG d   1       2.907  -2.360  -1.913  0.00  0.00     0.026 H 
ATOM     40  H   LIG d   1       3.603  -1.958  -3.501  0.00  0.00     0.026 H 
ENDBRANCH  34  37
ENDBRANCH  33  34
ENDBRANCH  31  33
ENDBRANCH   1  31
BRANCH   9  41
ATOM     41  C   LIG d   1       6.164  -1.728  -5.609  0.00  0.00     0.018 A 
ATOM     42  C   LIG d   1       6.401  -2.912  -4.902  0.00  0.00    -0.048 A 
ATOM     43  C   LIG d   1       5.602  -4.012  -5.120  0.00  0.00    -0.019 A 
ATOM     44  H   LIG d   1       7.209  -2.963  -4.187  0.00  0.00     0.063 H 
ATOM     45  C   LIG d   1       4.561  -3.947  -6.039  0.00  0.00     0.120 A 
ATOM     46  H   LIG d   1       5.783  -4.926  -4.575  0.00  0.00     0.065 H 
ATOM     47  C   LIG d   1       4.322  -2.773  -6.743  0.00  0.00    -0.019 A 
ATOM     48  C   LIG d   1       5.117  -1.668  -6.533  0.00  0.00    -0.048 A 
ATOM     49  H   LIG d   1       3.513  -2.727  -7.457  0.00  0.00     0.065 H 
ATOM     50  H   LIG d   1       4.931  -0.755  -7.080  0.00  0.00     0.063 H 
BRANCH  45  51
ATOM     51  O   LIG d   1       3.776  -5.034  -6.250  0.00  0.00    -0.495 OA
BRANCH  51  52
ATOM     52  C   LIG d   1       3.860  -5.657  -7.534  0.00  0.00     0.079 C 
ATOM     53  H   LIG d   1       4.865  -5.525  -7.935  0.00  0.00     0.066 H 
ATOM     54  H   LIG d   1       3.645  -6.721  -7.436  0.00  0.00     0.066 H 
ATOM     55  H   LIG d   1       3.137  -5.199  -8.208  0.00  0.00     0.066 H 
ENDBRANCH  51  52
ENDBRANCH  45  51
ENDBRANCH   9  41
TORSDOF 12
ENDMDL
MODEL 3
REMARK VINA RESULT:      -6.2      8.875     11.286
REMARK  12 active torsions:
REMARK  status: ('A' for Active; 'I' for Inactive)
REMARK    1  A    between atoms: C_1  and  C_2 
REMARK    2  A    between atoms: C_2  and  O_3 
REMARK    3  A    between atoms: O_3  and  C_4 
REMARK    4  A    between atoms: C_4  and  C_6 
REMARK    5  A    between atoms: C_9  and  O_23 
REMARK    6  A    between atoms: C_14  and  C_15 
REMARK    7  A    between atoms: C_18  and  O_21 
REMARK    8  A    between atoms: O_21  and  C_22 
REMARK    9  A    between atoms: O_23  and  C_24 
REMARK   10  A    between atoms: C_24  and  C_26 
REMARK   11  A    between atoms: C_29  and  O_32 
REMARK   12  A    between atoms: O_32  and  C_33 
ROOT
ATOM      1  C   LIG d   1       6.076  -2.330  -5.192  0.00  0.00     0.112 A 
ATOM      2  C   LIG d   1       5.820  -1.286  -6.203  0.00  0.00     0.038 A 
ATOM      3  C   LIG d   1       4.725  -0.482  -6.505  0.00  0.00    -0.008 A 
ATOM      4  C   LIG d   1       4.811   0.424  -7.547  0.00  0.00     0.133 A 
ATOM      5  C   LIG d   1       5.985   0.527  -8.287  0.00  0.00    -0.016 A 
ATOM      6  C   LIG d   1       7.071  -0.268  -7.992  0.00  0.00    -0.015 A 
ATOM      7  C   LIG d   1       7.003  -1.183  -6.949  0.00  0.00     0.137 A 
ATOM      8  O   LIG d   1       7.895  -2.064  -6.446  0.00  0.00    -0.454 OA
ATOM      9  C   LIG d   1       7.376  -2.755  -5.418  0.00  0.00     0.150 A 
ATOM     10  H   LIG d   1       3.815  -0.564  -5.929  0.00  0.00     0.066 H 
ATOM     11  H   LIG d   1       6.045   1.236  -9.099  0.00  0.00     0.066 H 
ATOM     12  H   LIG d   1       7.977  -0.179  -8.573  0.00  0.00     0.066 H 
ENDROOT
BRANCH   4  13
ATOM     13  O   LIG d   1       3.746   1.215  -7.848  0.00  0.00    -0.422 OA
BRANCH  13  14
ATOM     14  C   LIG d   1       3.568   1.532  -9.146  0.00  0.00     0.344 C 
ATOM     15  O   LIG d   1       3.821   2.653  -9.537  0.00  0.00    -0.244 OA
BRANCH  14  16
ATOM     16  C   LIG d   1       3.065   0.517 -10.090  0.00  0.00     0.060 A 
ATOM     17  C   LIG d   1       3.751   0.269 -11.282  0.00  0.00    -0.044 A 
ATOM     18  C   LIG d   1       3.277  -0.679 -12.162  0.00  0.00    -0.019 A 
ATOM     19  H   LIG d   1       4.650   0.820 -11.515  0.00  0.00     0.063 H 
ATOM     20  C   LIG d   1       2.120  -1.390 -11.865  0.00  0.00     0.120 A 
ATOM     21  H   LIG d   1       3.806  -0.872 -13.083  0.00  0.00     0.065 H 
ATOM     22  C   LIG d   1       1.435  -1.145 -10.680  0.00  0.00    -0.019 A 
ATOM     23  C   LIG d   1       1.904  -0.203  -9.793  0.00  0.00    -0.044 A 
ATOM     24  H   LIG d   1       0.536  -1.699 -10.453  0.00  0.00     0.065 H 
ATOM     25  H   LIG d   1       1.374  -0.017  -8.870  0.00  0.00     0.063 H 
BRANCH  20  26
ATOM     26  O   LIG d   1       1.657  -2.324 -12.733  0.00  0.00    -0.495 OA
BRANCH  26  27
ATOM     27  C   LIG d   1       2.103  -2.229 -14.087  0.00  0.00     0.079 C 
ATOM     28  H   LIG d   1       2.271  -1.182 -14.342  0.00  0.00     0.066 H 
ATOM     29  H   LIG d   1       3.033  -2.785 -14.204  0.00  0.00     0.066 H 
ATOM     30  H   LIG d   1       1.344  -2.646 -14.749  0.00  0.00     0.066 H 
ENDBRANCH  26  27
ENDBRANCH  20  26
ENDBRANCH  14  16
ENDBRANCH  13  14
ENDBRANCH   4  13
BRANCH   1  31
ATOM     31  C   LIG d   1       5.151  -2.814  -4.164  0.00  0.00     0.344 C 
ATOM     32  O   LIG d   1       4.482  -3.810  -4.367  0.00  0.00    -0.245 OA
BRANCH  31  33
ATOM     33  O   LIG d   1       5.041  -2.155  -2.993  0.00  0.00    -0.461 OA
BRANCH  33  34
ATOM     34  C   LIG d   1       3.715  -2.076  -2.404  0.00  0.00     0.090 C 
ATOM     35  H   LIG d   1       3.188  -3.016  -2.568  0.00  0.00     0.070 H 
ATOM     36  H   LIG d   1       3.803  -1.889  -1.333  0.00  0.00     0.070 H 
BRANCH  34  37
ATOM     37  C   LIG d   1       2.934  -0.934  -3.058  0.00  0.00    -0.031 C 
ATOM     38  H   LIG d   1       3.436  -0.631  -3.977  0.00  0.00     0.026 H 
ATOM     39  H   LIG d   1       1.923  -1.270  -3.289  0.00  0.00     0.026 H 
ATOM     40  H   LIG d   1       2.887  -0.086  -2.373  0.00  0.00     0.026 H 
ENDBRANCH  34  37
ENDBRANCH  33  34
ENDBRANCH  31  33
ENDBRANCH   1  31
BRANCH   9  41
ATOM     41  C   LIG d   1       8.080  -3.796  -4.649  0.00  0.00     0.018 A 
ATOM     42  C   LIG d   1       8.048  -5.127  -5.076  0.00  0.00    -0.048 A 
ATOM     43  C   LIG d   1       8.712  -6.096  -4.357  0.00  0.00    -0.019 A 
ATOM     44  H   LIG d   1       7.503  -5.395  -5.970  0.00  0.00     0.063 H 
ATOM     45  C   LIG d   1       9.414  -5.752  -3.208  0.00  0.00     0.120 A 
ATOM     46  H   LIG d   1       8.688  -7.124  -4.686  0.00  0.00     0.065 H 
ATOM     47  C   LIG d   1       9.450  -4.430  -2.779  0.00  0.00    -0.019 A 
ATOM     48  C   LIG d   1       8.787  -3.455  -3.491  0.00  0.00    -0.048 A 
ATOM     49  H   LIG d   1       9.996  -4.168  -1.885  0.00  0.00     0.065 H 
ATOM     50  H   LIG d   1       8.816  -2.427  -3.158  0.00  0.00     0.063 H 
BRANCH  45  51
ATOM     51  O   LIG d   1      10.067  -6.710  -2.502  0.00  0.00    -0.495 OA
BRANCH  51  52
ATOM     52  C   LIG d   1      11.463  -6.871  -2.765  0.00  0.00     0.079 C 
ATOM     53  H   LIG d   1      11.648  -7.879  -3.137  0.00  0.00     0.066 H 
ATOM     54  H   LIG d   1      11.779  -6.145  -3.514  0.00  0.00     0.066 H 
ATOM     55  H   LIG d   1      12.027  -6.715  -1.846  0.00  0.00     0.066 H 
ENDBRANCH  51  52
ENDBRANCH  45  51
ENDBRANCH   9  41
TORSDOF 12
ENDMDL
MODEL 4
REMARK VINA RESULT:      -6.0      3.579      4.902
REMARK  12 active torsions:
REMARK  status: ('A' for Active; 'I' for Inactive)
REMARK    1  A    between atoms: C_1  and  C_2 
REMARK    2  A    between atoms: C_2  and  O_3 
REMARK    3  A    between atoms: O_3  and  C_4 
REMARK    4  A    between atoms: C_4  and  C_6 
REMARK    5  A    between atoms: C_9  and  O_23 
REMARK    6  A    between atoms: C_14  and  C_15 
REMARK    7  A    between atoms: C_18  and  O_21 
REMARK    8  A    between atoms: O_21  and  C_22 
REMARK    9  A    between atoms: O_23  and  C_24 
REMARK   10  A    between atoms: C_24  and  C_26 
REMARK   11  A    between atoms: C_29  and  O_32 
REMARK   12  A    between atoms: O_32  and  C_33 
ROOT
ATOM      1  C   LIG d   1      10.098   4.447  -4.525  0.00  0.00     0.112 A 
ATOM      2  C   LIG d   1       9.359   3.357  -5.191  0.00  0.00     0.038 A 
ATOM      3  C   LIG d   1       9.173   2.986  -6.519  0.00  0.00    -0.008 A 
ATOM      4  C   LIG d   1       8.399   1.880  -6.817  0.00  0.00     0.133 A 
ATOM      5  C   LIG d   1       7.810   1.144  -5.793  0.00  0.00    -0.016 A 
ATOM      6  C   LIG d   1       7.991   1.507  -4.476  0.00  0.00    -0.015 A 
ATOM      7  C   LIG d   1       8.766   2.616  -4.158  0.00  0.00     0.137 A 
ATOM      8  O   LIG d   1       9.109   3.185  -2.982  0.00  0.00    -0.454 OA
ATOM      9  C   LIG d   1       9.886   4.264  -3.167  0.00  0.00     0.150 A 
ATOM     10  H   LIG d   1       9.630   3.559  -7.312  0.00  0.00     0.066 H 
ATOM     11  H   LIG d   1       7.207   0.281  -6.032  0.00  0.00     0.066 H 
ATOM     12  H   LIG d   1       7.530   0.928  -3.689  0.00  0.00     0.066 H 
ENDROOT
BRANCH   4  13
ATOM     13  O   LIG d   1       8.212   1.510  -8.112  0.00  0.00    -0.422 OA
BRANCH  13  14
ATOM     14  C   LIG d   1       7.281   2.188  -8.813  0.00  0.00     0.344 C 
ATOM     15  O   LIG d   1       7.581   3.217  -9.384  0.00  0.00    -0.244 OA
BRANCH  14  16
ATOM     16  C   LIG d   1       5.899   1.680  -8.885  0.00  0.00     0.060 A 
ATOM     17  C   LIG d   1       4.850   2.547  -9.201  0.00  0.00    -0.044 A 
ATOM     18  C   LIG d   1       3.560   2.069  -9.267  0.00  0.00    -0.019 A 
ATOM     19  H   LIG d   1       5.049   3.591  -9.394  0.00  0.00     0.063 H 
ATOM     20  C   LIG d   1       3.300   0.726  -9.020  0.00  0.00     0.120 A 
ATOM     21  H   LIG d   1       2.748   2.739  -9.512  0.00  0.00     0.065 H 
ATOM     22  C   LIG d   1       4.342  -0.139  -8.704  0.00  0.00    -0.019 A 
ATOM     23  C   LIG d   1       5.634   0.329  -8.641  0.00  0.00    -0.044 A 
ATOM     24  H   LIG d   1       4.137  -1.182  -8.512  0.00  0.00     0.065 H 
ATOM     25  H   LIG d   1       6.443  -0.345  -8.401  0.00  0.00     0.063 H 
BRANCH  20  26
ATOM     26  O   LIG d   1       2.029   0.259  -9.086  0.00  0.00    -0.495 OA
BRANCH  26  27
ATOM     27  C   LIG d   1       1.825  -0.970  -9.787  0.00  0.00     0.079 C 
ATOM     28  H   LIG d   1       2.428  -0.975 -10.695  0.00  0.00     0.066 H 
ATOM     29  H   LIG d   1       2.119  -1.805  -9.150  0.00  0.00     0.066 H 
ATOM     30  H   LIG d   1       0.771  -1.067 -10.050  0.00  0.00     0.066 H 
ENDBRANCH  26  27
ENDBRANCH  20  26
ENDBRANCH  14  16
ENDBRANCH  13  14
ENDBRANCH   4  13
BRANCH   1  31
ATOM     31  C   LIG d   1      10.891   5.500  -5.165  0.00  0.00     0.344 C 
ATOM     32  O   LIG d   1      12.093   5.551  -4.985  0.00  0.00    -0.245 OA
BRANCH  31  33
ATOM     33  O   LIG d   1      10.287   6.412  -5.954  0.00  0.00    -0.461 OA
BRANCH  33  34
ATOM     34  C   LIG d   1       9.322   7.295  -5.320  0.00  0.00     0.090 C 
ATOM     35  H   LIG d   1       8.617   7.658  -6.067  0.00  0.00     0.070 H 
ATOM     36  H   LIG d   1       8.785   6.749  -4.545  0.00  0.00     0.070 H 
BRANCH  34  37
ATOM     37  C   LIG d   1      10.054   8.483  -4.693  0.00  0.00    -0.031 C 
ATOM     38  H   LIG d   1      11.103   8.227  -4.545  0.00  0.00     0.026 H 
ATOM     39  H   LIG d   1       9.982   9.346  -5.355  0.00  0.00     0.026 H 
ATOM     40  H   LIG d   1       9.600   8.725  -3.732  0.00  0.00     0.026 H 
ENDBRANCH  34  37
ENDBRANCH  33  34
ENDBRANCH  31  33
ENDBRANCH   1  31
BRANCH   9  41
ATOM     41  C   LIG d   1      10.432   5.116  -2.096  0.00  0.00     0.018 A 
ATOM     42  C   LIG d   1       9.767   6.289  -1.725  0.00  0.00    -0.048 A 
ATOM     43  C   LIG d   1      10.277   7.080  -0.720  0.00  0.00    -0.019 A 
ATOM     44  H   LIG d   1       8.853   6.575  -2.227  0.00  0.00     0.063 H 
ATOM     45  C   LIG d   1      11.451   6.712  -0.073  0.00  0.00     0.120 A 
ATOM     46  H   LIG d   1       9.765   7.985  -0.433  0.00  0.00     0.065 H 
ATOM     47  C   LIG d   1      12.115   5.547  -0.437  0.00  0.00    -0.019 A 
ATOM     48  C   LIG d   1      11.613   4.751  -1.443  0.00  0.00    -0.048 A 
ATOM     49  H   LIG d   1      13.028   5.266   0.068  0.00  0.00     0.065 H 
ATOM     50  H   LIG d   1      12.129   3.845  -1.725  0.00  0.00     0.063 H 
BRANCH  45  51
ATOM     51  O   LIG d   1      11.951   7.494   0.918  0.00  0.00    -0.495 OA
BRANCH  51  52
ATOM     52  C   LIG d   1      11.831   8.909   0.752  0.00  0.00     0.079 C 
ATOM     53  H   LIG d   1      12.506   9.414   1.443  0.00  0.00     0.066 H 
ATOM     54  H   LIG d   1      12.092   9.177  -0.272  0.00  0.00     0.066 H 
ATOM     55  H   LIG d   1      10.805   9.214   0.957  0.00  0.00     0.066 H 
ENDBRANCH  51  52
ENDBRANCH  45  51
ENDBRANCH   9  41
TORSDOF 12
ENDMDL
MODEL 5
REMARK VINA RESULT:      -6.0      8.016     11.770
REMARK  12 active torsions:
REMARK  status: ('A' for Active; 'I' for Inactive)
REMARK    1  A    between atoms: C_1  and  C_2 
REMARK    2  A    between atoms: C_2  and  O_3 
REMARK    3  A    between atoms: O_3  and  C_4 
REMARK    4  A    between atoms: C_4  and  C_6 
REMARK    5  A    between atoms: C_9  and  O_23 
REMARK    6  A    between atoms: C_14  and  C_15 
REMARK    7  A    between atoms: C_18  and  O_21 
REMARK    8  A    between atoms: O_21  and  C_22 
REMARK    9  A    between atoms: O_23  and  C_24 
REMARK   10  A    between atoms: C_24  and  C_26 
REMARK   11  A    between atoms: C_29  and  O_32 
REMARK   12  A    between atoms: O_32  and  C_33 
ROOT
ATOM      1  C   LIG d   1       6.492  -4.356  -5.155  0.00  0.00     0.112 A 
ATOM      2  C   LIG d   1       6.505  -5.789  -5.507  0.00  0.00     0.038 A 
ATOM      3  C   LIG d   1       7.515  -6.724  -5.713  0.00  0.00    -0.008 A 
ATOM      4  C   LIG d   1       7.184  -8.026  -6.042  0.00  0.00     0.133 A 
ATOM      5  C   LIG d   1       5.848  -8.396  -6.166  0.00  0.00    -0.016 A 
ATOM      6  C   LIG d   1       4.844  -7.474  -5.963  0.00  0.00    -0.015 A 
ATOM      7  C   LIG d   1       5.158  -6.162  -5.631  0.00  0.00     0.137 A 
ATOM      8  O   LIG d   1       4.397  -5.075  -5.377  0.00  0.00    -0.454 OA
ATOM      9  C   LIG d   1       5.152  -4.000  -5.099  0.00  0.00     0.150 A 
ATOM     10  H   LIG d   1       8.551  -6.435  -5.617  0.00  0.00     0.066 H 
ATOM     11  H   LIG d   1       5.596  -9.414  -6.423  0.00  0.00     0.066 H 
ATOM     12  H   LIG d   1       3.810  -7.772  -6.062  0.00  0.00     0.066 H 
ENDROOT
BRANCH   4  13
ATOM     13  O   LIG d   1       8.165  -8.945  -6.245  0.00  0.00    -0.422 OA
BRANCH  13  14
ATOM     14  C   LIG d   1       8.905  -9.296  -5.175  0.00  0.00     0.344 C 
ATOM     15  O   LIG d   1      10.116  -9.228  -5.226  0.00  0.00    -0.244 OA
BRANCH  14  16
ATOM     16  C   LIG d   1       8.243  -9.763  -3.943  0.00  0.00     0.060 A 
ATOM     17  C   LIG d   1       8.246  -8.960  -2.799  0.00  0.00    -0.044 A 
ATOM     18  C   LIG d   1       7.627  -9.400  -1.650  0.00  0.00    -0.019 A 
ATOM     19  H   LIG d   1       8.732  -7.996  -2.815  0.00  0.00     0.063 H 
ATOM     20  C   LIG d   1       7.000 -10.640  -1.626  0.00  0.00     0.120 A 
ATOM     21  H   LIG d   1       7.628  -8.780  -0.765  0.00  0.00     0.065 H 
ATOM     22  C   LIG d   1       6.996 -11.442  -2.762  0.00  0.00    -0.019 A 
ATOM     23  C   LIG d   1       7.608 -11.008  -3.916  0.00  0.00    -0.044 A 
ATOM     24  H   LIG d   1       6.509 -12.405  -2.740  0.00  0.00     0.065 H 
ATOM     25  H   LIG d   1       7.600 -11.629  -4.799  0.00  0.00     0.063 H 
BRANCH  20  26
ATOM     26  O   LIG d   1       6.391 -11.070  -0.493  0.00  0.00    -0.495 OA
BRANCH  26  27
ATOM     27  C   LIG d   1       6.116 -12.468  -0.394  0.00  0.00     0.079 C 
ATOM     28  H   LIG d   1       5.660 -12.816  -1.321  0.00  0.00     0.066 H 
ATOM     29  H   LIG d   1       7.046 -13.010  -0.221  0.00  0.00     0.066 H 
ATOM     30  H   LIG d   1       5.432 -12.646   0.437  0.00  0.00     0.066 H 
ENDBRANCH  26  27
ENDBRANCH  20  26
ENDBRANCH  14  16
ENDBRANCH  13  14
ENDBRANCH   4  13
BRANCH   1  31
ATOM     31  C   LIG d   1       7.649  -3.492  -4.913  0.00  0.00     0.344 C 
ATOM     32  O   LIG d   1       8.126  -2.844  -5.824  0.00  0.00    -0.245 OA
BRANCH  31  33
ATOM     33  O   LIG d   1       8.187  -3.417  -3.678  0.00  0.00    -0.461 OA
BRANCH  33  34
ATOM     34  C   LIG d   1       9.571  -3.837  -3.535  0.00  0.00     0.090 C 
ATOM     35  H   LIG d   1       9.873  -4.396  -4.421  0.00  0.00     0.070 H 
ATOM     36  H   LIG d   1      10.208  -2.960  -3.422  0.00  0.00     0.070 H 
BRANCH  34  37
ATOM     37  C   LIG d   1       9.708  -4.729  -2.299  0.00  0.00    -0.031 C 
ATOM     38  H   LIG d   1      10.676  -5.230  -2.318  0.00  0.00     0.026 H 
ATOM     39  H   LIG d   1       9.633  -4.117  -1.399  0.00  0.00     0.026 H 
ATOM     40  H   LIG d   1       8.913  -5.474  -2.298  0.00  0.00     0.026 H 
ENDBRANCH  34  37
ENDBRANCH  33  34
ENDBRANCH  31  33
ENDBRANCH   1  31
BRANCH   9  41
ATOM     41  C   LIG d   1       4.639  -2.656  -4.780  0.00  0.00     0.018 A 
ATOM     42  C   LIG d   1       4.220  -2.356  -3.480  0.00  0.00    -0.048 A 
ATOM     43  C   LIG d   1       3.745  -1.097  -3.186  0.00  0.00    -0.019 A 
ATOM     44  H   LIG d   1       4.268  -3.110  -2.708  0.00  0.00     0.063 H 
ATOM     45  C   LIG d   1       3.683  -0.126  -4.178  0.00  0.00     0.120 A 
ATOM     46  H   LIG d   1       3.422  -0.864  -2.182  0.00  0.00     0.065 H 
ATOM     47  C   LIG d   1       4.098  -0.420  -5.471  0.00  0.00    -0.019 A 
ATOM     48  C   LIG d   1       4.573  -1.677  -5.776  0.00  0.00    -0.048 A 
ATOM     49  H   LIG d   1       4.047   0.338  -6.239  0.00  0.00     0.065 H 
ATOM     50  H   LIG d   1       4.897  -1.904  -6.781  0.00  0.00     0.063 H 
BRANCH  45  51
ATOM     51  O   LIG d   1       3.215   1.114  -3.883  0.00  0.00    -0.495 OA
BRANCH  51  52
ATOM     52  C   LIG d   1       3.661   1.702  -2.659  0.00  0.00     0.079 C 
ATOM     53  H   LIG d   1       4.703   2.006  -2.761  0.00  0.00     0.066 H 
ATOM     54  H   LIG d   1       3.050   2.575  -2.431  0.00  0.00     0.066 H 
ATOM     55  H   LIG d   1       3.572   0.975  -1.852  0.00  0.00     0.066 H 
ENDBRANCH  51  52
ENDBRANCH  45  51
ENDBRANCH   9  41
TORSDOF 12
ENDMDL
MODEL 6
REMARK VINA RESULT:      -5.9      3.878      9.594
REMARK  12 active torsions:
REMARK  status: ('A' for Active; 'I' for Inactive)
REMARK    1  A    between atoms: C_1  and  C_2 
REMARK    2  A    between atoms: C_2  and  O_3 
REMARK    3  A    between atoms: O_3  and  C_4 
REMARK    4  A    between atoms: C_4  and  C_6 
REMARK    5  A    between atoms: C_9  and  O_23 
REMARK    6  A    between atoms: C_14  and  C_15 
REMARK    7  A    between atoms: C_18  and  O_21 
REMARK    8  A    between atoms: O_21  and  C_22 
REMARK    9  A    between atoms: O_23  and  C_24 
REMARK   10  A    between atoms: C_24  and  C_26 
REMARK   11  A    between atoms: C_29  and  O_32 
REMARK   12  A    between atoms: O_32  and  C_33 
ROOT
ATOM      1  C   LIG d   1       8.554   2.208  -5.483  0.00  0.00     0.112 A 
ATOM      2  C   LIG d   1       9.474   3.362  -5.456  0.00  0.00     0.038 A 
ATOM      3  C   LIG d   1      10.203   4.038  -6.429  0.00  0.00    -0.008 A 
ATOM      4  C   LIG d   1      10.995   5.112  -6.064  0.00  0.00     0.133 A 
ATOM      5  C   LIG d   1      11.061   5.511  -4.732  0.00  0.00    -0.016 A 
ATOM      6  C   LIG d   1      10.340   4.844  -3.765  0.00  0.00    -0.015 A 
ATOM      7  C   LIG d   1       9.539   3.763  -4.114  0.00  0.00     0.137 A 
ATOM      8  O   LIG d   1       8.739   2.948  -3.392  0.00  0.00    -0.454 OA
ATOM      9  C   LIG d   1       8.153   2.022  -4.169  0.00  0.00     0.150 A 
ATOM     10  H   LIG d   1      10.152   3.727  -7.462  0.00  0.00     0.066 H 
ATOM     11  H   LIG d   1      11.681   6.350  -4.455  0.00  0.00     0.066 H 
ATOM     12  H   LIG d   1      10.398   5.162  -2.735  0.00  0.00     0.066 H 
ENDROOT
BRANCH   4  13
ATOM     13  O   LIG d   1      11.711   5.779  -7.009  0.00  0.00    -0.422 OA
BRANCH  13  14
ATOM     14  C   LIG d   1      11.099   6.808  -7.627  0.00  0.00     0.344 C 
ATOM     15  O   LIG d   1      11.082   7.905  -7.107  0.00  0.00    -0.244 OA
BRANCH  14  16
ATOM     16  C   LIG d   1      10.449   6.600  -8.934  0.00  0.00     0.060 A 
ATOM     17  C   LIG d   1       9.100   6.237  -8.995  0.00  0.00    -0.044 A 
ATOM     18  C   LIG d   1       8.496   6.043 -10.217  0.00  0.00    -0.019 A 
ATOM     19  H   LIG d   1       8.532   6.107  -8.085  0.00  0.00     0.063 H 
ATOM     20  C   LIG d   1       9.224   6.210 -11.389  0.00  0.00     0.120 A 
ATOM     21  H   LIG d   1       7.454   5.762 -10.265  0.00  0.00     0.065 H 
ATOM     22  C   LIG d   1      10.566   6.572 -11.332  0.00  0.00    -0.019 A 
ATOM     23  C   LIG d   1      11.176   6.772 -10.115  0.00  0.00    -0.044 A 
ATOM     24  H   LIG d   1      11.129   6.700 -12.245  0.00  0.00     0.065 H 
ATOM     25  H   LIG d   1      12.217   7.057 -10.072  0.00  0.00     0.063 H 
BRANCH  20  26
ATOM     26  O   LIG d   1       8.626   6.020 -12.591  0.00  0.00    -0.495 OA
BRANCH  26  27
ATOM     27  C   LIG d   1       9.395   5.369 -13.604  0.00  0.00     0.079 C 
ATOM     28  H   LIG d   1       8.813   4.553 -14.033  0.00  0.00     0.066 H 
ATOM     29  H   LIG d   1       9.648   6.085 -14.386  0.00  0.00     0.066 H 
ATOM     30  H   LIG d   1      10.310   4.970 -13.165  0.00  0.00     0.066 H 
ENDBRANCH  26  27
ENDBRANCH  20  26
ENDBRANCH  14  16
ENDBRANCH  13  14
ENDBRANCH   4  13
BRANCH   1  31
ATOM     31  C   LIG d   1       8.148   1.425  -6.653  0.00  0.00     0.344 C 
ATOM     32  O   LIG d   1       8.931   0.649  -7.167  0.00  0.00    -0.245 OA
BRANCH  31  33
ATOM     33  O   LIG d   1       6.907   1.567  -7.161  0.00  0.00    -0.461 OA
BRANCH  33  34
ATOM     34  C   LIG d   1       6.315   0.398  -7.788  0.00  0.00     0.090 C 
ATOM     35  H   LIG d   1       5.729   0.708  -8.654  0.00  0.00     0.070 H 
ATOM     36  H   LIG d   1       7.104  -0.283  -8.106  0.00  0.00     0.070 H 
BRANCH  34  37
ATOM     37  C   LIG d   1       5.403  -0.312  -6.786  0.00  0.00    -0.031 C 
ATOM     38  H   LIG d   1       4.491   0.270  -6.649  0.00  0.00     0.026 H 
ATOM     39  H   LIG d   1       5.148  -1.303  -7.163  0.00  0.00     0.026 H 
ATOM     40  H   LIG d   1       5.918  -0.410  -5.830  0.00  0.00     0.026 H 
ENDBRANCH  34  37
ENDBRANCH  33  34
ENDBRANCH  31  33
ENDBRANCH   1  31
BRANCH   9  41
ATOM     41  C   LIG d   1       7.225   0.979  -3.698  0.00  0.00     0.018 A 
ATOM     42  C   LIG d   1       5.986   1.334  -3.154  0.00  0.00    -0.048 A 
ATOM     43  C   LIG d   1       5.120   0.355  -2.721  0.00  0.00    -0.019 A 
ATOM     44  H   LIG d   1       5.709   2.376  -3.075  0.00  0.00     0.063 H 
ATOM     45  C   LIG d   1       5.475  -0.984  -2.824  0.00  0.00     0.120 A 
ATOM     46  H   LIG d   1       4.164   0.628  -2.301  0.00  0.00     0.065 H 
ATOM     47  C   LIG d   1       6.705  -1.343  -3.364  0.00  0.00    -0.019 A 
ATOM     48  C   LIG d   1       7.578  -0.370  -3.799  0.00  0.00    -0.048 A 
ATOM     49  H   LIG d   1       6.977  -2.385  -3.441  0.00  0.00     0.065 H 
ATOM     50  H   LIG d   1       8.533  -0.649  -4.219  0.00  0.00     0.063 H 
BRANCH  45  51
ATOM     51  O   LIG d   1       4.618  -1.946  -2.396  0.00  0.00    -0.495 OA
BRANCH  51  52
ATOM     52  C   LIG d   1       3.227  -1.736  -2.650  0.00  0.00     0.079 C 
ATOM     53  H   LIG d   1       3.003  -0.672  -2.583  0.00  0.00     0.066 H 
ATOM     54  H   LIG d   1       2.982  -2.096  -3.649  0.00  0.00     0.066 H 
ATOM     55  H   LIG d   1       2.637  -2.280  -1.913  0.00  0.00     0.066 H 
ENDBRANCH  51  52
ENDBRANCH  45  51
ENDBRANCH   9  41
TORSDOF 12
ENDMDL
MODEL 7
REMARK VINA RESULT:      -5.8      3.612      6.664
REMARK  12 active torsions:
REMARK  status: ('A' for Active; 'I' for Inactive)
REMARK    1  A    between atoms: C_1  and  C_2 
REMARK    2  A    between atoms: C_2  and  O_3 
REMARK    3  A    between atoms: O_3  and  C_4 
REMARK    4  A    between atoms: C_4  and  C_6 
REMARK    5  A    between atoms: C_9  and  O_23 
REMARK    6  A    between atoms: C_14  and  C_15 
REMARK    7  A    between atoms: C_18  and  O_21 
REMARK    8  A    between atoms: O_21  and  C_22 
REMARK    9  A    between atoms: O_23  and  C_24 
REMARK   10  A    between atoms: C_24  and  C_26 
REMARK   11  A    between atoms: C_29  and  O_32 
REMARK   12  A    between atoms: O_32  and  C_33 
ROOT
ATOM      1  C   LIG d   1      10.704   5.237  -4.093  0.00  0.00     0.112 A 
ATOM      2  C   LIG d   1      10.088   4.255  -5.006  0.00  0.00     0.038 A 
ATOM      3  C   LIG d   1      10.181   4.017  -6.374  0.00  0.00    -0.008 A 
ATOM      4  C   LIG d   1       9.452   2.987  -6.939  0.00  0.00     0.133 A 
ATOM      5  C   LIG d   1       8.630   2.195  -6.143  0.00  0.00    -0.016 A 
ATOM      6  C   LIG d   1       8.534   2.427  -4.788  0.00  0.00    -0.015 A 
ATOM      7  C   LIG d   1       9.260   3.457  -4.203  0.00  0.00     0.137 A 
ATOM      8  O   LIG d   1       9.360   3.897  -2.929  0.00  0.00    -0.454 OA
ATOM      9  C   LIG d   1      10.196   4.944  -2.836  0.00  0.00     0.150 A 
ATOM     10  H   LIG d   1      10.819   4.633  -6.991  0.00  0.00     0.066 H 
ATOM     11  H   LIG d   1       8.063   1.392  -6.590  0.00  0.00     0.066 H 
ATOM     12  H   LIG d   1       7.893   1.805  -4.179  0.00  0.00     0.066 H 
ENDROOT
BRANCH   4  13
ATOM     13  O   LIG d   1       9.537   2.748  -8.275  0.00  0.00    -0.422 OA
BRANCH  13  14
ATOM     14  C   LIG d   1       8.722   3.460  -9.078  0.00  0.00     0.344 C 
ATOM     15  O   LIG d   1       7.593   3.070  -9.297  0.00  0.00    -0.244 OA
BRANCH  14  16
ATOM     16  C   LIG d   1       9.202   4.713  -9.690  0.00  0.00     0.060 A 
ATOM     17  C   LIG d   1       9.905   4.677 -10.898  0.00  0.00    -0.044 A 
ATOM     18  C   LIG d   1      10.352   5.850 -11.466  0.00  0.00    -0.019 A 
ATOM     19  H   LIG d   1      10.098   3.733 -11.385  0.00  0.00     0.063 H 
ATOM     20  C   LIG d   1      10.104   7.067 -10.843  0.00  0.00     0.120 A 
ATOM     21  H   LIG d   1      10.895   5.823 -12.400  0.00  0.00     0.065 H 
ATOM     22  C   LIG d   1       9.405   7.105  -9.641  0.00  0.00    -0.019 A 
ATOM     23  C   LIG d   1       8.951   5.940  -9.068  0.00  0.00    -0.044 A 
ATOM     24  H   LIG d   1       9.215   8.053  -9.158  0.00  0.00     0.065 H 
ATOM     25  H   LIG d   1       8.404   5.971  -8.137  0.00  0.00     0.063 H 
BRANCH  20  26
ATOM     26  O   LIG d   1      10.544   8.219 -11.406  0.00  0.00    -0.495 OA
BRANCH  26  27
ATOM     27  C   LIG d   1       9.960   8.597 -12.653  0.00  0.00     0.079 C 
ATOM     28  H   LIG d   1       9.938   9.684 -12.730  0.00  0.00     0.066 H 
ATOM     29  H   LIG d   1      10.551   8.187 -13.472  0.00  0.00     0.066 H 
ATOM     30  H   LIG d   1       8.942   8.208 -12.710  0.00  0.00     0.066 H 
ENDBRANCH  26  27
ENDBRANCH  20  26
ENDBRANCH  14  16
ENDBRANCH  13  14
ENDBRANCH   4  13
BRANCH   1  31
ATOM     31  C   LIG d   1      11.652   6.298  -4.441  0.00  0.00     0.344 C 
ATOM     32  O   LIG d   1      12.837   6.044  -4.546  0.00  0.00    -0.245 OA
BRANCH  31  33
ATOM     33  O   LIG d   1      11.211   7.556  -4.643  0.00  0.00    -0.461 OA
BRANCH  33  34
ATOM     34  C   LIG d   1      10.754   7.887  -5.982  0.00  0.00     0.090 C 
ATOM     35  H   LIG d   1      11.232   8.809  -6.311  0.00  0.00     0.070 H 
ATOM     36  H   LIG d   1      11.012   7.078  -6.665  0.00  0.00     0.070 H 
BRANCH  34  37
ATOM     37  C   LIG d   1       9.235   8.077  -5.969  0.00  0.00    -0.031 C 
ATOM     38  H   LIG d   1       8.998   9.079  -5.612  0.00  0.00     0.026 H 
ATOM     39  H   LIG d   1       8.844   7.949  -6.978  0.00  0.00     0.026 H 
ATOM     40  H   LIG d   1       8.782   7.339  -5.307  0.00  0.00     0.026 H 
ENDBRANCH  34  37
ENDBRANCH  33  34
ENDBRANCH  31  33
ENDBRANCH   1  31
BRANCH   9  41
ATOM     41  C   LIG d   1      10.526   5.663  -1.593  0.00  0.00     0.018 A 
ATOM     42  C   LIG d   1      11.420   5.103  -0.674  0.00  0.00    -0.048 A 
ATOM     43  C   LIG d   1      11.729   5.781   0.484  0.00  0.00    -0.019 A 
ATOM     44  H   LIG d   1      11.867   4.139  -0.873  0.00  0.00     0.063 H 
ATOM     45  C   LIG d   1      11.155   7.020   0.739  0.00  0.00     0.120 A 
ATOM     46  H   LIG d   1      12.419   5.350   1.193  0.00  0.00     0.065 H 
ATOM     47  C   LIG d   1      10.267   7.581  -0.170  0.00  0.00    -0.019 A 
ATOM     48  C   LIG d   1       9.950   6.910  -1.331  0.00  0.00    -0.048 A 
ATOM     49  H   LIG d   1       9.822   8.544   0.033  0.00  0.00     0.065 H 
ATOM     50  H   LIG d   1       9.260   7.346  -2.038  0.00  0.00     0.063 H 
BRANCH  45  51
ATOM     51  O   LIG d   1      11.463   7.685   1.882  0.00  0.00    -0.495 OA
BRANCH  51  52
ATOM     52  C   LIG d   1      11.782   9.073   1.759  0.00  0.00     0.079 C 
ATOM     53  H   LIG d   1      11.139   9.529   1.006  0.00  0.00     0.066 H 
ATOM     54  H   LIG d   1      11.625   9.569   2.718  0.00  0.00     0.066 H 
ATOM     55  H   LIG d   1      12.825   9.182   1.461  0.00  0.00     0.066 H 
ENDBRANCH  51  52
ENDBRANCH  45  51
ENDBRANCH   9  41
TORSDOF 12
ENDMDL
MODEL 8
REMARK VINA RESULT:      -5.7      8.112     11.869
REMARK  12 active torsions:
REMARK  status: ('A' for Active; 'I' for Inactive)
REMARK    1  A    between atoms: C_1  and  C_2 
REMARK    2  A    between atoms: C_2  and  O_3 
REMARK    3  A    between atoms: O_3  and  C_4 
REMARK    4  A    between atoms: C_4  and  C_6 
REMARK    5  A    between atoms: C_9  and  O_23 
REMARK    6  A    between atoms: C_14  and  C_15 
REMARK    7  A    between atoms: C_18  and  O_21 
REMARK    8  A    between atoms: O_21  and  C_22 
REMARK    9  A    between atoms: O_23  and  C_24 
REMARK   10  A    between atoms: C_24  and  C_26 
REMARK   11  A    between atoms: C_29  and  O_32 
REMARK   12  A    between atoms: O_32  and  C_33 
ROOT
ATOM      1  C   LIG d   1       6.458  -4.499  -5.088  0.00  0.00     0.112 A 
ATOM      2  C   LIG d   1       6.405  -5.931  -5.442  0.00  0.00     0.038 A 
ATOM      3  C   LIG d   1       7.371  -6.911  -5.649  0.00  0.00    -0.008 A 
ATOM      4  C   LIG d   1       6.980  -8.196  -5.979  0.00  0.00     0.133 A 
ATOM      5  C   LIG d   1       5.629  -8.504  -6.103  0.00  0.00    -0.016 A 
ATOM      6  C   LIG d   1       4.668  -7.537  -5.899  0.00  0.00    -0.015 A 
ATOM      7  C   LIG d   1       5.043  -6.241  -5.566  0.00  0.00     0.137 A 
ATOM      8  O   LIG d   1       4.332  -5.121  -5.311  0.00  0.00    -0.454 OA
ATOM      9  C   LIG d   1       5.136  -4.082  -5.032  0.00  0.00     0.150 A 
ATOM     10  H   LIG d   1       8.419  -6.670  -5.553  0.00  0.00     0.066 H 
ATOM     11  H   LIG d   1       5.330  -9.509  -6.360  0.00  0.00     0.066 H 
ATOM     12  H   LIG d   1       3.622  -7.787  -5.998  0.00  0.00     0.066 H 
ENDROOT
BRANCH   4  13
ATOM     13  O   LIG d   1       7.918  -9.160  -6.182  0.00  0.00    -0.422 OA
BRANCH  13  14
ATOM     14  C   LIG d   1       8.028 -10.115  -5.238  0.00  0.00     0.344 C 
ATOM     15  O   LIG d   1       7.636 -11.242  -5.465  0.00  0.00    -0.244 OA
BRANCH  14  16
ATOM     16  C   LIG d   1       8.624  -9.791  -3.929  0.00  0.00     0.060 A 
ATOM     17  C   LIG d   1       9.990  -9.512  -3.831  0.00  0.00    -0.044 A 
ATOM     18  C   LIG d   1      10.543  -9.211  -2.606  0.00  0.00    -0.019 A 
ATOM     19  H   LIG d   1      10.612  -9.533  -4.714  0.00  0.00     0.063 H 
ATOM     20  C   LIG d   1       9.745  -9.182  -1.469  0.00  0.00     0.120 A 
ATOM     21  H   LIG d   1      11.599  -8.994  -2.530  0.00  0.00     0.065 H 
ATOM     22  C   LIG d   1       8.386  -9.460  -1.562  0.00  0.00    -0.019 A 
ATOM     23  C   LIG d   1       7.824  -9.757  -2.783  0.00  0.00    -0.044 A 
ATOM     24  H   LIG d   1       7.769  -9.437  -0.676  0.00  0.00     0.065 H 
ATOM     25  H   LIG d   1       6.767  -9.968  -2.855  0.00  0.00     0.063 H 
BRANCH  20  26
ATOM     26  O   LIG d   1      10.293  -8.883  -0.265  0.00  0.00    -0.495 OA
BRANCH  26  27
ATOM     27  C   LIG d   1      11.383  -7.960  -0.258  0.00  0.00     0.079 C 
ATOM     28  H   LIG d   1      11.200  -7.186   0.487  0.00  0.00     0.066 H 
ATOM     29  H   LIG d   1      12.306  -8.488  -0.013  0.00  0.00     0.066 H 
ATOM     30  H   LIG d   1      11.477  -7.502  -1.243  0.00  0.00     0.066 H 
ENDBRANCH  26  27
ENDBRANCH  20  26
ENDBRANCH  14  16
ENDBRANCH  13  14
ENDBRANCH   4  13
BRANCH   1  31
ATOM     31  C   LIG d   1       7.654  -3.690  -4.846  0.00  0.00     0.344 C 
ATOM     32  O   LIG d   1       8.148  -3.047  -5.752  0.00  0.00    -0.245 OA
BRANCH  31  33
ATOM     33  O   LIG d   1       8.208  -3.658  -3.616  0.00  0.00    -0.461 OA
BRANCH  33  34
ATOM     34  C   LIG d   1       9.568  -4.156  -3.494  0.00  0.00     0.090 C 
ATOM     35  H   LIG d   1      10.032  -4.190  -4.480  0.00  0.00     0.070 H 
ATOM     36  H   LIG d   1      10.140  -3.495  -2.843  0.00  0.00     0.070 H 
BRANCH  34  37
ATOM     37  C   LIG d   1       9.543  -5.564  -2.895  0.00  0.00    -0.031 C 
ATOM     38  H   LIG d   1       8.596  -5.723  -2.380  0.00  0.00     0.026 H 
ATOM     39  H   LIG d   1       9.651  -6.300  -3.692  0.00  0.00     0.026 H 
ATOM     40  H   LIG d   1      10.365  -5.673  -2.187  0.00  0.00     0.026 H 
ENDBRANCH  34  37
ENDBRANCH  33  34
ENDBRANCH  31  33
ENDBRANCH   1  31
BRANCH   9  41
ATOM     41  C   LIG d   1       4.685  -2.716  -4.712  0.00  0.00     0.018 A 
ATOM     42  C   LIG d   1       4.293  -2.394  -3.409  0.00  0.00    -0.048 A 
ATOM     43  C   LIG d   1       3.877  -1.115  -3.113  0.00  0.00    -0.019 A 
ATOM     44  H   LIG d   1       4.317  -3.148  -2.635  0.00  0.00     0.063 H 
ATOM     45  C   LIG d   1       3.847  -0.145  -4.108  0.00  0.00     0.120 A 
ATOM     46  H   LIG d   1       3.574  -0.865  -2.108  0.00  0.00     0.065 H 
ATOM     47  C   LIG d   1       4.236  -0.460  -5.405  0.00  0.00    -0.019 A 
ATOM     48  C   LIG d   1       4.652  -1.737  -5.710  0.00  0.00    -0.048 A 
ATOM     49  H   LIG d   1       4.210   0.297  -6.175  0.00  0.00     0.065 H 
ATOM     50  H   LIG d   1       4.955  -1.982  -6.718  0.00  0.00     0.063 H 
BRANCH  45  51
ATOM     51  O   LIG d   1       3.436   1.115  -3.812  0.00  0.00    -0.495 OA
BRANCH  51  52
ATOM     52  C   LIG d   1       3.543   1.528  -2.448  0.00  0.00     0.079 C 
ATOM     53  H   LIG d   1       2.547   1.590  -2.008  0.00  0.00     0.066 H 
ATOM     54  H   LIG d   1       4.140   0.804  -1.894  0.00  0.00     0.066 H 
ATOM     55  H   LIG d   1       4.022   2.506  -2.401  0.00  0.00     0.066 H 
ENDBRANCH  51  52
ENDBRANCH  45  51
ENDBRANCH   9  41
TORSDOF 12
ENDMDL
MODEL 9
REMARK VINA RESULT:      -5.7      2.524      3.418
REMARK  12 active torsions:
REMARK  status: ('A' for Active; 'I' for Inactive)
REMARK    1  A    between atoms: C_1  and  C_2 
REMARK    2  A    between atoms: C_2  and  O_3 
REMARK    3  A    between atoms: O_3  and  C_4 
REMARK    4  A    between atoms: C_4  and  C_6 
REMARK    5  A    between atoms: C_9  and  O_23 
REMARK    6  A    between atoms: C_14  and  C_15 
REMARK    7  A    between atoms: C_18  and  O_21 
REMARK    8  A    between atoms: O_21  and  C_22 
REMARK    9  A    between atoms: O_23  and  C_24 
REMARK   10  A    between atoms: C_24  and  C_26 
REMARK   11  A    between atoms: C_29  and  O_32 
REMARK   12  A    between atoms: O_32  and  C_33 
ROOT
ATOM      1  C   LIG d   1       9.760   5.375  -3.976  0.00  0.00     0.112 A 
ATOM      2  C   LIG d   1       9.300   4.030  -4.376  0.00  0.00     0.038 A 
ATOM      3  C   LIG d   1       8.872   2.908  -3.673  0.00  0.00    -0.008 A 
ATOM      4  C   LIG d   1       8.499   1.770  -4.366  0.00  0.00     0.133 A 
ATOM      5  C   LIG d   1       8.554   1.751  -5.756  0.00  0.00    -0.016 A 
ATOM      6  C   LIG d   1       8.977   2.859  -6.456  0.00  0.00    -0.015 A 
ATOM      7  C   LIG d   1       9.355   4.011  -5.777  0.00  0.00     0.137 A 
ATOM      8  O   LIG d   1       9.795   5.218  -6.196  0.00  0.00    -0.454 OA
ATOM      9  C   LIG d   1      10.046   6.036  -5.161  0.00  0.00     0.150 A 
ATOM     10  H   LIG d   1       8.831   2.925  -2.594  0.00  0.00     0.066 H 
ATOM     11  H   LIG d   1       8.261   0.859  -6.291  0.00  0.00     0.066 H 
ATOM     12  H   LIG d   1       9.016   2.833  -7.536  0.00  0.00     0.066 H 
ENDROOT
BRANCH   4  13
ATOM     13  O   LIG d   1       8.079   0.669  -3.687  0.00  0.00    -0.422 OA
BRANCH  13  14
ATOM     14  C   LIG d   1       6.750   0.529  -3.511  0.00  0.00     0.344 C 
ATOM     15  O   LIG d   1       6.089   1.465  -3.110  0.00  0.00    -0.244 OA
BRANCH  14  16
ATOM     16  C   LIG d   1       6.100  -0.761  -3.805  0.00  0.00     0.060 A 
ATOM     17  C   LIG d   1       5.049  -1.214  -3.003  0.00  0.00    -0.044 A 
ATOM     18  C   LIG d   1       4.445  -2.421  -3.281  0.00  0.00    -0.019 A 
ATOM     19  H   LIG d   1       4.710  -0.620  -2.167  0.00  0.00     0.063 H 
ATOM     20  C   LIG d   1       4.878  -3.187  -4.356  0.00  0.00     0.120 A 
ATOM     21  H   LIG d   1       3.632  -2.771  -2.662  0.00  0.00     0.065 H 
ATOM     22  C   LIG d   1       5.924  -2.739  -5.155  0.00  0.00    -0.019 A 
ATOM     23  C   LIG d   1       6.531  -1.533  -4.889  0.00  0.00    -0.044 A 
ATOM     24  H   LIG d   1       6.259  -3.337  -5.990  0.00  0.00     0.065 H 
ATOM     25  H   LIG d   1       7.339  -1.184  -5.513  0.00  0.00     0.063 H 
BRANCH  20  26
ATOM     26  O   LIG d   1       4.280  -4.374  -4.627  0.00  0.00    -0.495 OA
BRANCH  26  27
ATOM     27  C   LIG d   1       4.942  -5.238  -5.552  0.00  0.00     0.079 C 
ATOM     28  H   LIG d   1       6.020  -5.089  -5.481  0.00  0.00     0.066 H 
ATOM     29  H   LIG d   1       4.703  -6.275  -5.316  0.00  0.00     0.066 H 
ATOM     30  H   LIG d   1       4.609  -5.010  -6.565  0.00  0.00     0.066 H 
ENDBRANCH  26  27
ENDBRANCH  20  26
ENDBRANCH  14  16
ENDBRANCH  13  14
ENDBRANCH   4  13
BRANCH   1  31
ATOM     31  C   LIG d   1       9.885   5.901  -2.615  0.00  0.00     0.344 C 
ATOM     32  O   LIG d   1      10.720   5.442  -1.860  0.00  0.00    -0.245 OA
BRANCH  31  33
ATOM     33  O   LIG d   1       9.073   6.894  -2.199  0.00  0.00    -0.461 OA
BRANCH  33  34
ATOM     34  C   LIG d   1       9.605   7.806  -1.201  0.00  0.00     0.090 C 
ATOM     35  H   LIG d   1       8.816   8.078  -0.500  0.00  0.00     0.070 H 
ATOM     36  H   LIG d   1      10.420   7.321  -0.663  0.00  0.00     0.070 H 
BRANCH  34  37
ATOM     37  C   LIG d   1      10.130   9.067  -1.891  0.00  0.00    -0.031 C 
ATOM     38  H   LIG d   1      10.811   9.591  -1.220  0.00  0.00     0.026 H 
ATOM     39  H   LIG d   1      10.661   8.789  -2.802  0.00  0.00     0.026 H 
ATOM     40  H   LIG d   1       9.294   9.719  -2.143  0.00  0.00     0.026 H 
ENDBRANCH  34  37
ENDBRANCH  33  34
ENDBRANCH  31  33
ENDBRANCH   1  31
BRANCH   9  41
ATOM     41  C   LIG d   1      10.541   7.419  -5.269  0.00  0.00     0.018 A 
ATOM     42  C   LIG d   1      11.896   7.698  -5.063  0.00  0.00    -0.048 A 
ATOM     43  C   LIG d   1      12.355   8.992  -5.170  0.00  0.00    -0.019 A 
ATOM     44  H   LIG d   1      12.582   6.898  -4.821  0.00  0.00     0.063 H 
ATOM     45  C   LIG d   1      11.474  10.020  -5.483  0.00  0.00     0.120 A 
ATOM     46  H   LIG d   1      13.401   9.207  -5.012  0.00  0.00     0.065 H 
ATOM     47  C   LIG d   1      10.127   9.749  -5.688  0.00  0.00    -0.019 A 
ATOM     48  C   LIG d   1       9.658   8.457  -5.582  0.00  0.00    -0.048 A 
ATOM     49  H   LIG d   1       9.445  10.551  -5.930  0.00  0.00     0.065 H 
ATOM     50  H   LIG d   1       8.611   8.247  -5.743  0.00  0.00     0.063 H 
BRANCH  45  51
ATOM     51  O   LIG d   1      11.931  11.294  -5.587  0.00  0.00    -0.495 OA
BRANCH  51  52
ATOM     52  C   LIG d   1      13.215  11.571  -5.022  0.00  0.00     0.079 C 
ATOM     53  H   LIG d   1      13.974  11.523  -5.804  0.00  0.00     0.066 H 
ATOM     54  H   LIG d   1      13.210  12.569  -4.582  0.00  0.00     0.066 H 
ATOM     55  H   LIG d   1      13.440  10.835  -4.251  0.00  0.00     0.066 H 
ENDBRANCH  51  52
ENDBRANCH  45  51
ENDBRANCH   9  41
TORSDOF 12
ENDMDL
MODEL 10
REMARK VINA RESULT:      -5.6      8.017     11.195
REMARK  12 active torsions:
REMARK  status: ('A' for Active; 'I' for Inactive)
REMARK    1  A    between atoms: C_1  and  C_2 
REMARK    2  A    between atoms: C_2  and  O_3 
REMARK    3  A    between atoms: O_3  and  C_4 
REMARK    4  A    between atoms: C_4  and  C_6 
REMARK    5  A    between atoms: C_9  and  O_23 
REMARK    6  A    between atoms: C_14  and  C_15 
REMARK    7  A    between atoms: C_18  and  O_21 
REMARK    8  A    between atoms: O_21  and  C_22 
REMARK    9  A    between atoms: O_23  and  C_24 
REMARK   10  A    between atoms: C_24  and  C_26 
REMARK   11  A    between atoms: C_29  and  O_32 
REMARK   12  A    between atoms: O_32  and  C_33 
ROOT
ATOM      1  C   LIG d   1       6.259  -1.938  -6.122  0.00  0.00     0.112 A 
ATOM      2  C   LIG d   1       5.064  -1.075  -6.052  0.00  0.00     0.038 A 
ATOM      3  C   LIG d   1       4.442  -0.211  -6.948  0.00  0.00    -0.008 A 
ATOM      4  C   LIG d   1       3.302   0.470  -6.560  0.00  0.00     0.133 A 
ATOM      5  C   LIG d   1       2.782   0.290  -5.282  0.00  0.00    -0.016 A 
ATOM      6  C   LIG d   1       3.395  -0.564  -4.390  0.00  0.00    -0.015 A 
ATOM      7  C   LIG d   1       4.541  -1.256  -4.763  0.00  0.00     0.137 A 
ATOM      8  O   LIG d   1       5.327  -2.141  -4.111  0.00  0.00    -0.454 OA
ATOM      9  C   LIG d   1       6.345  -2.553  -4.883  0.00  0.00     0.150 A 
ATOM     10  H   LIG d   1       4.847  -0.073  -7.940  0.00  0.00     0.066 H 
ATOM     11  H   LIG d   1       1.892   0.825  -4.986  0.00  0.00     0.066 H 
ATOM     12  H   LIG d   1       2.983  -0.696  -3.401  0.00  0.00     0.066 H 
ENDROOT
BRANCH   4  13
ATOM     13  O   LIG d   1       2.688   1.316  -7.430  0.00  0.00    -0.422 OA
BRANCH  13  14
ATOM     14  C   LIG d   1       3.326   1.570  -8.590  0.00  0.00     0.344 C 
ATOM     15  O   LIG d   1       4.095   2.506  -8.668  0.00  0.00    -0.244 OA
BRANCH  14  16
ATOM     16  C   LIG d   1       3.088   0.711  -9.765  0.00  0.00     0.060 A 
ATOM     17  C   LIG d   1       1.960  -0.114  -9.812  0.00  0.00    -0.044 A 
ATOM     18  C   LIG d   1       1.741  -0.914 -10.911  0.00  0.00    -0.019 A 
ATOM     19  H   LIG d   1       1.261  -0.123  -8.989  0.00  0.00     0.063 H 
ATOM     20  C   LIG d   1       2.639  -0.903 -11.972  0.00  0.00     0.120 A 
ATOM     21  H   LIG d   1       0.870  -1.552 -10.949  0.00  0.00     0.065 H 
ATOM     22  C   LIG d   1       3.762  -0.085 -11.928  0.00  0.00    -0.019 A 
ATOM     23  C   LIG d   1       3.986   0.722 -10.836  0.00  0.00    -0.044 A 
ATOM     24  H   LIG d   1       4.457  -0.079 -12.754  0.00  0.00     0.065 H 
ATOM     25  H   LIG d   1       4.856   1.362 -10.805  0.00  0.00     0.063 H 
BRANCH  20  26
ATOM     26  O   LIG d   1       2.419  -1.693 -13.053  0.00  0.00    -0.495 OA
BRANCH  26  27
ATOM     27  C   LIG d   1       1.577  -2.831 -12.866  0.00  0.00     0.079 C 
ATOM     28  H   LIG d   1       1.993  -3.467 -12.085  0.00  0.00     0.066 H 
ATOM     29  H   LIG d   1       0.580  -2.501 -12.573  0.00  0.00     0.066 H 
ATOM     30  H   LIG d   1       1.514  -3.394 -13.798  0.00  0.00     0.066 H 
ENDBRANCH  26  27
ENDBRANCH  20  26
ENDBRANCH  14  16
ENDBRANCH  13  14
ENDBRANCH   4  13
BRANCH   1  31
ATOM     31  C   LIG d   1       7.163  -2.108  -7.262  0.00  0.00     0.344 C 
ATOM     32  O   LIG d   1       6.997  -3.030  -8.037  0.00  0.00    -0.245 OA
BRANCH  31  33
ATOM     33  O   LIG d   1       8.179  -1.242  -7.451  0.00  0.00    -0.461 OA
BRANCH  33  34
ATOM     34  C   LIG d   1       9.448  -1.568  -6.822  0.00  0.00     0.090 C 
ATOM     35  H   LIG d   1       9.394  -2.569  -6.394  0.00  0.00     0.070 H 
ATOM     36  H   LIG d   1      10.243  -1.531  -7.566  0.00  0.00     0.070 H 
BRANCH  34  37
ATOM     37  C   LIG d   1       9.740  -0.556  -5.712  0.00  0.00    -0.031 C 
ATOM     38  H   LIG d   1       9.670  -1.049  -4.743  0.00  0.00     0.026 H 
ATOM     39  H   LIG d   1      10.746  -0.153  -5.842  0.00  0.00     0.026 H 
ATOM     40  H   LIG d   1       9.015   0.257  -5.760  0.00  0.00     0.026 H 
ENDBRANCH  34  37
ENDBRANCH  33  34
ENDBRANCH  31  33
ENDBRANCH   1  31
BRANCH   9  41
ATOM     41  C   LIG d   1       7.387  -3.513  -4.477  0.00  0.00     0.018 A 
ATOM     42  C   LIG d   1       7.432  -4.786  -5.056  0.00  0.00    -0.048 A 
ATOM     43  C   LIG d   1       8.411  -5.678  -4.678  0.00  0.00    -0.019 A 
ATOM     44  H   LIG d   1       6.700  -5.069  -5.799  0.00  0.00     0.063 H 
ATOM     45  C   LIG d   1       9.353  -5.315  -3.724  0.00  0.00     0.120 A 
ATOM     46  H   LIG d   1       8.447  -6.660  -5.124  0.00  0.00     0.065 H 
ATOM     47  C   LIG d   1       9.313  -4.052  -3.145  0.00  0.00    -0.019 A 
ATOM     48  C   LIG d   1       8.337  -3.153  -3.517  0.00  0.00    -0.048 A 
ATOM     49  H   LIG d   1      10.047  -3.774  -2.403  0.00  0.00     0.065 H 
ATOM     50  H   LIG d   1       8.307  -2.171  -3.068  0.00  0.00     0.063 H 
BRANCH  45  51
ATOM     51  O   LIG d   1      10.317  -6.197  -3.354  0.00  0.00    -0.495 OA
BRANCH  51  52
ATOM     52  C   LIG d   1      10.333  -6.604  -1.984  0.00  0.00     0.079 C 
ATOM     53  H   LIG d   1       9.719  -5.922  -1.395  0.00  0.00     0.066 H 
ATOM     54  H   LIG d   1       9.933  -7.615  -1.900  0.00  0.00     0.066 H 
ATOM     55  H   LIG d   1      11.357  -6.586  -1.610  0.00  0.00     0.066 H 
ENDBRANCH  51  52
ENDBRANCH  45  51
ENDBRANCH   9  41
TORSDOF 12
ENDMDL
