MODEL 1
REMARK VINA RESULT:      -6.1      0.000      0.000
REMARK  1 active torsions:
REMARK  status: ('A' for Active; 'I' for Inactive)
REMARK    1  A    between atoms: C_12  and  O_14 
ROOT
ATOM      1  C   LIG d   1       5.084  -3.211  -4.186  0.00  0.00    -0.061 A 
ATOM      2  C   LIG d   1       4.160  -2.536  -3.442  0.00  0.00    -0.054 A 
ATOM      3  C   LIG d   1       4.427  -1.206  -3.074  0.00  0.00    -0.017 A 
ATOM      4  C   LIG d   1       3.561  -0.406  -2.312  0.00  0.00    -0.054 A 
ATOM      5  C   LIG d   1       3.934   0.873  -2.019  0.00  0.00    -0.061 A 
ATOM      6  C   LIG d   1       5.149   1.415  -2.449  0.00  0.00    -0.056 A 
ATOM      7  C   LIG d   1       6.012   0.665  -3.189  0.00  0.00    -0.011 A 
ATOM      8  C   LIG d   1       5.643  -0.641  -3.496  0.00  0.00    -0.009 A 
ATOM      9  C   LIG d   1       6.576  -1.341  -4.254  0.00  0.00    -0.037 A 
ATOM     10  C   LIG d   1       6.285  -2.628  -4.594  0.00  0.00    -0.058 A 
ATOM     11  C   LIG d   1       7.738  -0.414  -4.510  0.00  0.00     0.003 A 
ATOM     12  C   LIG d   1       7.368   0.912  -3.809  0.00  0.00     0.085 A 
ATOM     13  H   LIG d   1       8.100   1.148  -3.036  0.00  0.00     0.065 H 
ATOM     14  H   LIG d   1       4.878  -4.233  -4.470  0.00  0.00     0.062 H 
ATOM     15  H   LIG d   1       3.240  -3.014  -3.141  0.00  0.00     0.062 H 
ATOM     16  H   LIG d   1       2.615  -0.796  -1.964  0.00  0.00     0.062 H 
ATOM     17  H   LIG d   1       3.268   1.490  -1.433  0.00  0.00     0.062 H 
ATOM     18  H   LIG d   1       5.404   2.432  -2.193  0.00  0.00     0.062 H 
ATOM     19  H   LIG d   1       6.988  -3.200  -5.183  0.00  0.00     0.062 H 
ATOM     20  H   LIG d   1       8.652  -0.826  -4.081  0.00  0.00     0.034 H 
ATOM     21  H   LIG d   1       7.865  -0.253  -5.581  0.00  0.00     0.034 H 
ENDROOT
BRANCH  12  22
ATOM     22  O   LIG d   1       7.293   1.972  -4.764  0.00  0.00    -0.387 OA
ATOM     23  H   LIG d   1       7.827   2.745  -4.535  0.00  0.00     0.210 HD
ENDBRANCH  12  22
TORSDOF 1
ENDMDL
MODEL 2
REMARK VINA RESULT:      -6.0      1.018      3.173
REMARK  1 active torsions:
REMARK  status: ('A' for Active; 'I' for Inactive)
REMARK    1  A    between atoms: C_12  and  O_14 
ROOT
ATOM      1  C   LIG d   1       4.277   0.855  -1.907  0.00  0.00    -0.061 A 
ATOM      2  C   LIG d   1       3.817  -0.407  -2.148  0.00  0.00    -0.054 A 
ATOM      3  C   LIG d   1       4.549  -1.242  -3.009  0.00  0.00    -0.017 A 
ATOM      4  C   LIG d   1       4.183  -2.558  -3.337  0.00  0.00    -0.054 A 
ATOM      5  C   LIG d   1       4.979  -3.269  -4.188  0.00  0.00    -0.061 A 
ATOM      6  C   LIG d   1       6.144  -2.735  -4.744  0.00  0.00    -0.056 A 
ATOM      7  C   LIG d   1       6.527  -1.462  -4.447  0.00  0.00    -0.011 A 
ATOM      8  C   LIG d   1       5.725  -0.725  -3.580  0.00  0.00    -0.009 A 
ATOM      9  C   LIG d   1       6.182   0.564  -3.326  0.00  0.00    -0.037 A 
ATOM     10  C   LIG d   1       5.449   1.347  -2.486  0.00  0.00    -0.058 A 
ATOM     11  C   LIG d   1       7.458   0.754  -4.108  0.00  0.00     0.003 A 
ATOM     12  C   LIG d   1       7.689  -0.582  -4.847  0.00  0.00     0.085 A 
ATOM     13  H   LIG d   1       7.688  -0.422  -5.926  0.00  0.00     0.065 H 
ATOM     14  H   LIG d   1       3.715   1.496  -1.244  0.00  0.00     0.062 H 
ATOM     15  H   LIG d   1       2.907  -0.758  -1.685  0.00  0.00     0.062 H 
ATOM     16  H   LIG d   1       3.288  -2.999  -2.924  0.00  0.00     0.062 H 
ATOM     17  H   LIG d   1       4.698  -4.281  -4.440  0.00  0.00     0.062 H 
ATOM     18  H   LIG d   1       6.744  -3.333  -5.413  0.00  0.00     0.062 H 
ATOM     19  H   LIG d   1       5.776   2.352  -2.267  0.00  0.00     0.062 H 
ATOM     20  H   LIG d   1       7.345   1.567  -4.824  0.00  0.00     0.034 H 
ATOM     21  H   LIG d   1       8.289   0.960  -3.431  0.00  0.00     0.034 H 
ENDROOT
BRANCH  12  22
ATOM     22  O   LIG d   1       8.924  -1.171  -4.434  0.00  0.00    -0.387 OA
ATOM     23  H   LIG d   1       8.947  -2.134  -4.515  0.00  0.00     0.210 HD
ENDBRANCH  12  22
TORSDOF 1
ENDMDL
MODEL 3
REMARK VINA RESULT:      -6.0      1.884      4.203
REMARK  1 active torsions:
REMARK  status: ('A' for Active; 'I' for Inactive)
REMARK    1  A    between atoms: C_12  and  O_14 
ROOT
ATOM      1  C   LIG d   1       4.688   1.013  -1.857  0.00  0.00    -0.061 A 
ATOM      2  C   LIG d   1       5.693   1.322  -2.728  0.00  0.00    -0.054 A 
ATOM      3  C   LIG d   1       6.115   0.347  -3.648  0.00  0.00    -0.017 A 
ATOM      4  C   LIG d   1       7.135   0.540  -4.593  0.00  0.00    -0.054 A 
ATOM      5  C   LIG d   1       7.455  -0.487  -5.433  0.00  0.00    -0.061 A 
ATOM      6  C   LIG d   1       6.805  -1.722  -5.387  0.00  0.00    -0.056 A 
ATOM      7  C   LIG d   1       5.811  -1.942  -4.481  0.00  0.00    -0.011 A 
ATOM      8  C   LIG d   1       5.474  -0.904  -3.618  0.00  0.00    -0.009 A 
ATOM      9  C   LIG d   1       4.452  -1.205  -2.725  0.00  0.00    -0.037 A 
ATOM     10  C   LIG d   1       4.066  -0.237  -1.847  0.00  0.00    -0.058 A 
ATOM     11  C   LIG d   1       4.019  -2.625  -2.994  0.00  0.00     0.003 A 
ATOM     12  C   LIG d   1       4.914  -3.114  -4.154  0.00  0.00     0.085 A 
ATOM     13  H   LIG d   1       5.511  -3.970  -3.837  0.00  0.00     0.065 H 
ATOM     14  H   LIG d   1       4.363   1.762  -1.151  0.00  0.00     0.062 H 
ATOM     15  H   LIG d   1       6.154   2.297  -2.711  0.00  0.00     0.062 H 
ATOM     16  H   LIG d   1       7.658   1.483  -4.654  0.00  0.00     0.062 H 
ATOM     17  H   LIG d   1       8.240  -0.339  -6.161  0.00  0.00     0.062 H 
ATOM     18  H   LIG d   1       7.091  -2.507  -6.071  0.00  0.00     0.062 H 
ATOM     19  H   LIG d   1       3.274  -0.438  -1.140  0.00  0.00     0.062 H 
ATOM     20  H   LIG d   1       4.177  -3.242  -2.109  0.00  0.00     0.034 H 
ATOM     21  H   LIG d   1       2.970  -2.651  -3.289  0.00  0.00     0.034 H 
ENDROOT
BRANCH  12  22
ATOM     22  O   LIG d   1       4.113  -3.458  -5.286  0.00  0.00    -0.387 OA
ATOM     23  H   LIG d   1       3.289  -3.911  -5.061  0.00  0.00     0.210 HD
ENDBRANCH  12  22
TORSDOF 1
ENDMDL
MODEL 4
REMARK VINA RESULT:      -5.9      2.722      3.864
REMARK  1 active torsions:
REMARK  status: ('A' for Active; 'I' for Inactive)
REMARK    1  A    between atoms: C_12  and  O_14 
ROOT
ATOM      1  C   LIG d   1       4.306   0.472  -1.642  0.00  0.00    -0.061 A 
ATOM      2  C   LIG d   1       3.540   1.146  -2.550  0.00  0.00    -0.054 A 
ATOM      3  C   LIG d   1       3.417   0.627  -3.850  0.00  0.00    -0.017 A 
ATOM      4  C   LIG d   1       2.661   1.223  -4.872  0.00  0.00    -0.054 A 
ATOM      5  C   LIG d   1       2.620   0.621  -6.096  0.00  0.00    -0.061 A 
ATOM      6  C   LIG d   1       3.302  -0.567  -6.368  0.00  0.00    -0.056 A 
ATOM      7  C   LIG d   1       4.045  -1.171  -5.399  0.00  0.00    -0.011 A 
ATOM      8  C   LIG d   1       4.096  -0.568  -4.146  0.00  0.00    -0.009 A 
ATOM      9  C   LIG d   1       4.872  -1.244  -3.211  0.00  0.00    -0.037 A 
ATOM     10  C   LIG d   1       4.971  -0.714  -1.960  0.00  0.00    -0.058 A 
ATOM     11  C   LIG d   1       5.433  -2.469  -3.890  0.00  0.00     0.003 A 
ATOM     12  C   LIG d   1       4.887  -2.424  -5.334  0.00  0.00     0.085 A 
ATOM     13  H   LIG d   1       5.710  -2.364  -6.048  0.00  0.00     0.065 H 
ATOM     14  H   LIG d   1       4.400   0.871  -0.643  0.00  0.00     0.062 H 
ATOM     15  H   LIG d   1       3.039   2.061  -2.274  0.00  0.00     0.062 H 
ATOM     16  H   LIG d   1       2.122   2.142  -4.693  0.00  0.00     0.062 H 
ATOM     17  H   LIG d   1       2.038   1.079  -6.883  0.00  0.00     0.062 H 
ATOM     18  H   LIG d   1       3.242  -1.009  -7.352  0.00  0.00     0.062 H 
ATOM     19  H   LIG d   1       5.565  -1.214  -1.210  0.00  0.00     0.062 H 
ATOM     20  H   LIG d   1       6.523  -2.432  -3.897  0.00  0.00     0.034 H 
ATOM     21  H   LIG d   1       5.090  -3.372  -3.384  0.00  0.00     0.034 H 
ENDROOT
BRANCH  12  22
ATOM     22  O   LIG d   1       4.085  -3.577  -5.597  0.00  0.00    -0.387 OA
ATOM     23  H   LIG d   1       3.633  -3.927  -4.817  0.00  0.00     0.210 HD
ENDBRANCH  12  22
TORSDOF 1
ENDMDL
MODEL 5
REMARK VINA RESULT:      -5.8      2.430      3.373
REMARK  1 active torsions:
REMARK  status: ('A' for Active; 'I' for Inactive)
REMARK    1  A    between atoms: C_12  and  O_14 
ROOT
ATOM      1  C   LIG d   1       6.347  -2.550  -4.795  0.00  0.00    -0.061 A 
ATOM      2  C   LIG d   1       5.680  -2.044  -5.874  0.00  0.00    -0.054 A 
ATOM      3  C   LIG d   1       4.611  -1.160  -5.655  0.00  0.00    -0.017 A 
ATOM      4  C   LIG d   1       3.848  -0.572  -6.677  0.00  0.00    -0.054 A 
ATOM      5  C   LIG d   1       2.832   0.272  -6.337  0.00  0.00    -0.061 A 
ATOM      6  C   LIG d   1       2.523   0.572  -5.007  0.00  0.00    -0.056 A 
ATOM      7  C   LIG d   1       3.243   0.019  -3.992  0.00  0.00    -0.011 A 
ATOM      8  C   LIG d   1       4.282  -0.844  -4.325  0.00  0.00    -0.009 A 
ATOM      9  C   LIG d   1       4.970  -1.367  -3.236  0.00  0.00    -0.037 A 
ATOM     10  C   LIG d   1       6.002  -2.221  -3.483  0.00  0.00    -0.058 A 
ATOM     11  C   LIG d   1       4.336  -0.803  -1.988  0.00  0.00     0.003 A 
ATOM     12  C   LIG d   1       3.197   0.113  -2.485  0.00  0.00     0.085 A 
ATOM     13  H   LIG d   1       2.235  -0.243  -2.113  0.00  0.00     0.065 H 
ATOM     14  H   LIG d   1       7.169  -3.229  -4.963  0.00  0.00     0.062 H 
ATOM     15  H   LIG d   1       5.971  -2.318  -6.877  0.00  0.00     0.062 H 
ATOM     16  H   LIG d   1       4.061  -0.785  -7.715  0.00  0.00     0.062 H 
ATOM     17  H   LIG d   1       2.244   0.725  -7.122  0.00  0.00     0.062 H 
ATOM     18  H   LIG d   1       1.709   1.246  -4.783  0.00  0.00     0.062 H 
ATOM     19  H   LIG d   1       6.557  -2.645  -2.658  0.00  0.00     0.062 H 
ATOM     20  H   LIG d   1       3.933  -1.607  -1.372  0.00  0.00     0.034 H 
ATOM     21  H   LIG d   1       5.067  -0.225  -1.421  0.00  0.00     0.034 H 
ENDROOT
BRANCH  12  22
ATOM     22  O   LIG d   1       3.425   1.460  -2.063  0.00  0.00    -0.387 OA
ATOM     23  H   LIG d   1       3.954   1.535  -1.258  0.00  0.00     0.210 HD
ENDBRANCH  12  22
TORSDOF 1
ENDMDL
MODEL 6
REMARK VINA RESULT:      -5.6      2.450      3.170
REMARK  1 active torsions:
REMARK  status: ('A' for Active; 'I' for Inactive)
REMARK    1  A    between atoms: C_12  and  O_14 
ROOT
ATOM      1  C   LIG d   1       2.763   0.324  -6.398  0.00  0.00    -0.061 A 
ATOM      2  C   LIG d   1       2.549   0.504  -5.062  0.00  0.00    -0.054 A 
ATOM      3  C   LIG d   1       3.349  -0.202  -4.147  0.00  0.00    -0.017 A 
ATOM      4  C   LIG d   1       3.229  -0.104  -2.751  0.00  0.00    -0.054 A 
ATOM      5  C   LIG d   1       4.066  -0.842  -1.966  0.00  0.00    -0.061 A 
ATOM      6  C   LIG d   1       5.038  -1.692  -2.502  0.00  0.00    -0.056 A 
ATOM      7  C   LIG d   1       5.179  -1.810  -3.851  0.00  0.00    -0.011 A 
ATOM      8  C   LIG d   1       4.333  -1.063  -4.663  0.00  0.00    -0.009 A 
ATOM      9  C   LIG d   1       4.539  -1.237  -6.028  0.00  0.00    -0.037 A 
ATOM     10  C   LIG d   1       3.747  -0.537  -6.888  0.00  0.00    -0.058 A 
ATOM     11  C   LIG d   1       5.667  -2.225  -6.192  0.00  0.00     0.003 A 
ATOM     12  C   LIG d   1       6.092  -2.604  -4.756  0.00  0.00     0.085 A 
ATOM     13  H   LIG d   1       5.953  -3.673  -4.591  0.00  0.00     0.065 H 
ATOM     14  H   LIG d   1       2.149   0.867  -7.101  0.00  0.00     0.062 H 
ATOM     15  H   LIG d   1       1.780   1.177  -4.714  0.00  0.00     0.062 H 
ATOM     16  H   LIG d   1       2.488   0.544  -2.306  0.00  0.00     0.062 H 
ATOM     17  H   LIG d   1       3.975  -0.767  -0.892  0.00  0.00     0.062 H 
ATOM     18  H   LIG d   1       5.679  -2.259  -1.843  0.00  0.00     0.062 H 
ATOM     19  H   LIG d   1       3.882  -0.649  -7.954  0.00  0.00     0.062 H 
ATOM     20  H   LIG d   1       5.320  -3.109  -6.729  0.00  0.00     0.034 H 
ATOM     21  H   LIG d   1       6.500  -1.764  -6.724  0.00  0.00     0.034 H 
ENDROOT
BRANCH  12  22
ATOM     22  O   LIG d   1       7.456  -2.240  -4.531  0.00  0.00    -0.387 OA
ATOM     23  H   LIG d   1       7.698  -2.184  -3.597  0.00  0.00     0.210 HD
ENDBRANCH  12  22
TORSDOF 1
ENDMDL
MODEL 7
REMARK VINA RESULT:      -5.5      1.900      3.370
REMARK  1 active torsions:
REMARK  status: ('A' for Active; 'I' for Inactive)
REMARK    1  A    between atoms: C_12  and  O_14 
ROOT
ATOM      1  C   LIG d   1       7.888   0.774  -4.263  0.00  0.00    -0.061 A 
ATOM      2  C   LIG d   1       6.996   1.371  -3.419  0.00  0.00    -0.054 A 
ATOM      3  C   LIG d   1       5.752   0.754  -3.204  0.00  0.00    -0.017 A 
ATOM      4  C   LIG d   1       4.751   1.265  -2.362  0.00  0.00    -0.054 A 
ATOM      5  C   LIG d   1       3.582   0.572  -2.236  0.00  0.00    -0.061 A 
ATOM      6  C   LIG d   1       3.345  -0.626  -2.915  0.00  0.00    -0.056 A 
ATOM      7  C   LIG d   1       4.295  -1.147  -3.740  0.00  0.00    -0.011 A 
ATOM      8  C   LIG d   1       5.492  -0.452  -3.877  0.00  0.00    -0.009 A 
ATOM      9  C   LIG d   1       6.411  -1.048  -4.735  0.00  0.00    -0.037 A 
ATOM     10  C   LIG d   1       7.608  -0.424  -4.921  0.00  0.00    -0.058 A 
ATOM     11  C   LIG d   1       5.782  -2.314  -5.262  0.00  0.00     0.003 A 
ATOM     12  C   LIG d   1       4.386  -2.383  -4.605  0.00  0.00     0.085 A 
ATOM     13  H   LIG d   1       3.608  -2.368  -5.369  0.00  0.00     0.065 H 
ATOM     14  H   LIG d   1       8.845   1.248  -4.428  0.00  0.00     0.062 H 
ATOM     15  H   LIG d   1       7.242   2.299  -2.925  0.00  0.00     0.062 H 
ATOM     16  H   LIG d   1       4.903   2.189  -1.824  0.00  0.00     0.062 H 
ATOM     17  H   LIG d   1       2.811   0.964  -1.588  0.00  0.00     0.062 H 
ATOM     18  H   LIG d   1       2.405  -1.140  -2.786  0.00  0.00     0.062 H 
ATOM     19  H   LIG d   1       8.344  -0.861  -5.580  0.00  0.00     0.062 H 
ATOM     20  H   LIG d   1       5.688  -2.266  -6.347  0.00  0.00     0.034 H 
ATOM     21  H   LIG d   1       6.379  -3.180  -4.974  0.00  0.00     0.034 H 
ENDROOT
BRANCH  12  22
ATOM     22  O   LIG d   1       4.273  -3.561  -3.804  0.00  0.00    -0.387 OA
ATOM     23  H   LIG d   1       5.123  -3.942  -3.544  0.00  0.00     0.210 HD
ENDBRANCH  12  22
TORSDOF 1
ENDMDL
MODEL 8
REMARK VINA RESULT:      -5.4      1.288      3.083
REMARK  1 active torsions:
REMARK  status: ('A' for Active; 'I' for Inactive)
REMARK    1  A    between atoms: C_12  and  O_14 
ROOT
ATOM      1  C   LIG d   1       5.246  -3.270  -4.290  0.00  0.00    -0.061 A 
ATOM      2  C   LIG d   1       6.416  -2.685  -4.683  0.00  0.00    -0.054 A 
ATOM      3  C   LIG d   1       6.653  -1.345  -4.334  0.00  0.00    -0.017 A 
ATOM      4  C   LIG d   1       7.814  -0.632  -4.676  0.00  0.00    -0.054 A 
ATOM      5  C   LIG d   1       7.927   0.668  -4.279  0.00  0.00    -0.061 A 
ATOM      6  C   LIG d   1       6.930   1.316  -3.544  0.00  0.00    -0.056 A 
ATOM      7  C   LIG d   1       5.792   0.653  -3.197  0.00  0.00    -0.011 A 
ATOM      8  C   LIG d   1       5.663  -0.674  -3.595  0.00  0.00    -0.009 A 
ATOM      9  C   LIG d   1       4.476  -1.283  -3.203  0.00  0.00    -0.037 A 
ATOM     10  C   LIG d   1       4.277  -2.583  -3.557  0.00  0.00    -0.058 A 
ATOM     11  C   LIG d   1       3.675  -0.259  -2.437  0.00  0.00     0.003 A 
ATOM     12  C   LIG d   1       4.542   1.019  -2.430  0.00  0.00     0.085 A 
ATOM     13  H   LIG d   1       4.018   1.835  -2.929  0.00  0.00     0.065 H 
ATOM     14  H   LIG d   1       5.064  -4.300  -4.558  0.00  0.00     0.062 H 
ATOM     15  H   LIG d   1       7.146  -3.243  -5.250  0.00  0.00     0.062 H 
ATOM     16  H   LIG d   1       8.603  -1.104  -5.243  0.00  0.00     0.062 H 
ATOM     17  H   LIG d   1       8.820   1.218  -4.541  0.00  0.00     0.062 H 
ATOM     18  H   LIG d   1       7.061   2.347  -3.251  0.00  0.00     0.062 H 
ATOM     19  H   LIG d   1       3.366  -3.085  -3.267  0.00  0.00     0.062 H 
ATOM     20  H   LIG d   1       2.726  -0.069  -2.938  0.00  0.00     0.034 H 
ATOM     21  H   LIG d   1       3.500  -0.602  -1.416  0.00  0.00     0.034 H 
ENDROOT
BRANCH  12  22
ATOM     22  O   LIG d   1       4.872   1.387  -1.089  0.00  0.00    -0.387 OA
ATOM     23  H   LIG d   1       5.404   0.730  -0.621  0.00  0.00     0.210 HD
ENDBRANCH  12  22
TORSDOF 1
ENDMDL
MODEL 9
REMARK VINA RESULT:      -5.3      2.570      3.026
REMARK  1 active torsions:
REMARK  status: ('A' for Active; 'I' for Inactive)
REMARK    1  A    between atoms: C_12  and  O_14 
ROOT
ATOM      1  C   LIG d   1       6.843  -2.378  -4.359  0.00  0.00    -0.061 A 
ATOM      2  C   LIG d   1       5.964  -2.254  -3.321  0.00  0.00    -0.054 A 
ATOM      3  C   LIG d   1       4.770  -1.543  -3.527  0.00  0.00    -0.017 A 
ATOM      4  C   LIG d   1       3.787  -1.345  -2.543  0.00  0.00    -0.054 A 
ATOM      5  C   LIG d   1       2.667  -0.635  -2.866  0.00  0.00    -0.061 A 
ATOM      6  C   LIG d   1       2.465  -0.096  -4.140  0.00  0.00    -0.056 A 
ATOM      7  C   LIG d   1       3.399  -0.269  -5.116  0.00  0.00    -0.011 A 
ATOM      8  C   LIG d   1       4.545  -0.993  -4.800  0.00  0.00    -0.009 A 
ATOM      9  C   LIG d   1       5.450  -1.126  -5.848  0.00  0.00    -0.037 A 
ATOM     10  C   LIG d   1       6.598  -1.822  -5.616  0.00  0.00    -0.058 A 
ATOM     11  C   LIG d   1       4.867  -0.411  -7.043  0.00  0.00     0.003 A 
ATOM     12  C   LIG d   1       3.513   0.154  -6.562  0.00  0.00     0.085 A 
ATOM     13  H   LIG d   1       3.508   1.242  -6.639  0.00  0.00     0.065 H 
ATOM     14  H   LIG d   1       7.760  -2.925  -4.201  0.00  0.00     0.062 H 
ATOM     15  H   LIG d   1       6.182  -2.695  -2.360  0.00  0.00     0.062 H 
ATOM     16  H   LIG d   1       3.914  -1.748  -1.549  0.00  0.00     0.062 H 
ATOM     17  H   LIG d   1       1.911  -0.482  -2.110  0.00  0.00     0.062 H 
ATOM     18  H   LIG d   1       1.564   0.460  -4.351  0.00  0.00     0.062 H 
ATOM     19  H   LIG d   1       7.321  -1.945  -6.408  0.00  0.00     0.062 H 
ATOM     20  H   LIG d   1       5.525   0.400  -7.355  0.00  0.00     0.034 H 
ATOM     21  H   LIG d   1       4.715  -1.111  -7.865  0.00  0.00     0.034 H 
ENDROOT
BRANCH  12  22
ATOM     22  O   LIG d   1       2.443  -0.403  -7.329  0.00  0.00    -0.387 OA
ATOM     23  H   LIG d   1       2.305  -1.348  -7.182  0.00  0.00     0.210 HD
ENDBRANCH  12  22
TORSDOF 1
ENDMDL
MODEL 10
REMARK VINA RESULT:      -4.7      8.076     10.375
REMARK  1 active torsions:
REMARK  status: ('A' for Active; 'I' for Inactive)
REMARK    1  A    between atoms: C_12  and  O_14 
ROOT
ATOM      1  C   LIG d   1       9.936  10.076  -1.054  0.00  0.00    -0.061 A 
ATOM      2  C   LIG d   1       9.663   9.262  -2.116  0.00  0.00    -0.054 A 
ATOM      3  C   LIG d   1       9.933   7.888  -2.002  0.00  0.00    -0.017 A 
ATOM      4  C   LIG d   1       9.698   6.948  -3.019  0.00  0.00    -0.054 A 
ATOM      5  C   LIG d   1      10.004   5.639  -2.787  0.00  0.00    -0.061 A 
ATOM      6  C   LIG d   1      10.543   5.200  -1.575  0.00  0.00    -0.056 A 
ATOM      7  C   LIG d   1      10.784   6.086  -0.569  0.00  0.00    -0.011 A 
ATOM      8  C   LIG d   1      10.476   7.424  -0.791  0.00  0.00    -0.009 A 
ATOM      9  C   LIG d   1      10.750   8.266   0.282  0.00  0.00    -0.037 A 
ATOM     10  C   LIG d   1      10.475   9.592   0.139  0.00  0.00    -0.058 A 
ATOM     11  C   LIG d   1      11.317   7.414   1.391  0.00  0.00     0.003 A 
ATOM     12  C   LIG d   1      11.340   5.974   0.832  0.00  0.00     0.085 A 
ATOM     13  H   LIG d   1      12.362   5.595   0.805  0.00  0.00     0.065 H 
ATOM     14  H   LIG d   1       9.727  11.132  -1.141  0.00  0.00     0.062 H 
ATOM     15  H   LIG d   1       9.246   9.667  -3.025  0.00  0.00     0.062 H 
ATOM     16  H   LIG d   1       9.283   7.256  -3.967  0.00  0.00     0.062 H 
ATOM     17  H   LIG d   1       9.823   4.915  -3.569  0.00  0.00     0.062 H 
ATOM     18  H   LIG d   1      10.771   4.154  -1.435  0.00  0.00     0.062 H 
ATOM     19  H   LIG d   1      10.675  10.273   0.954  0.00  0.00     0.062 H 
ATOM     20  H   LIG d   1      12.328   7.739   1.637  0.00  0.00     0.034 H 
ATOM     21  H   LIG d   1      10.678   7.467   2.273  0.00  0.00     0.034 H 
ENDROOT
BRANCH  12  22
ATOM     22  O   LIG d   1      10.514   5.121   1.628  0.00  0.00    -0.387 OA
ATOM     23  H   LIG d   1      10.008   4.476   1.116  0.00  0.00     0.210 HD
ENDBRANCH  12  22
TORSDOF 1
ENDMDL
