MODEL 1
REMARK VINA RESULT:      -5.7      0.000      0.000
REMARK  10 active torsions:
REMARK  status: ('A' for Active; 'I' for Inactive)
REMARK    1  A    between atoms: C_1  and  C_2 
REMARK    2  A    between atoms: C_4  and  O_23 
REMARK    3  A    between atoms: C_5  and  C_9 
REMARK    4  A    between atoms: C_6  and  O_8 
REMARK    5  A    between atoms: C_9  and  C_11 
REMARK    6  A    between atoms: C_12  and  C_19 
REMARK    7  A    between atoms: C_14  and  O_18 
REMARK    8  A    between atoms: C_16  and  O_17 
REMARK    9  A    between atoms: C_19  and  O_21 
REMARK   10  A    between atoms: O_21  and  C_22 
ROOT
ATOM      1  C   LIG d   1       4.019  -1.770  -8.215  0.00  0.00     0.078 A 
ATOM      2  C   LIG d   1       3.232  -0.621  -8.438  0.00  0.00     0.077 A 
ATOM      3  C   LIG d   1       2.114  -0.701  -9.259  0.00  0.00    -0.005 A 
ATOM      4  C   LIG d   1       1.773  -1.911  -9.856  0.00  0.00     0.121 A 
ATOM      5  C   LIG d   1       2.544  -3.043  -9.639  0.00  0.00     0.022 A 
ATOM      6  C   LIG d   1       3.667  -2.979  -8.827  0.00  0.00     0.132 A 
ATOM      7  H   LIG d   1       1.509   0.176  -9.432  0.00  0.00     0.066 H 
ATOM      8  H   LIG d   1       2.271  -3.976 -10.107  0.00  0.00     0.069 H 
ENDROOT
BRANCH   1   9
ATOM      9  C   LIG d   1       5.208  -1.697  -7.346  0.00  0.00     0.204 C 
ATOM     10  O   LIG d   1       6.321  -1.722  -7.836  0.00  0.00    -0.286 OA
BRANCH   9  11
ATOM     11  C   LIG d   1       5.047  -1.595  -5.887  0.00  0.00     0.105 A 
ATOM     12  C   LIG d   1       5.495  -0.453  -5.205  0.00  0.00     0.131 A 
ATOM     13  C   LIG d   1       5.339  -0.367  -3.832  0.00  0.00    -0.016 A 
ATOM     14  C   LIG d   1       4.745  -1.401  -3.131  0.00  0.00    -0.043 A 
ATOM     15  H   LIG d   1       5.682   0.512  -3.305  0.00  0.00     0.066 H 
ATOM     16  C   LIG d   1       4.305  -2.533  -3.792  0.00  0.00    -0.016 A 
ATOM     17  C   LIG d   1       4.446  -2.638  -5.166  0.00  0.00     0.131 A 
ATOM     18  H   LIG d   1       3.846  -3.337  -3.235  0.00  0.00     0.066 H 
BRANCH  12  19
ATOM     19  O   LIG d   1       6.078   0.564  -5.889  0.00  0.00    -0.506 OA
ATOM     20  H   LIG d   1       6.757   0.278  -6.514  0.00  0.00     0.292 HD
ENDBRANCH  12  19
BRANCH  14  21
ATOM     21  C   LIG d   1       4.580  -1.296  -1.637  0.00  0.00    -0.040 C 
ATOM     22  H   LIG d   1       4.651  -2.289  -1.194  0.00  0.00     0.028 H 
ATOM     23  H   LIG d   1       5.364  -0.659  -1.229  0.00  0.00     0.028 H 
ATOM     24  H   LIG d   1       3.606  -0.865  -1.408  0.00  0.00     0.028 H 
ENDBRANCH  14  21
BRANCH  17  25
ATOM     25  O   LIG d   1       4.008  -3.748  -5.813  0.00  0.00    -0.506 OA
ATOM     26  H   LIG d   1       4.411  -3.882  -6.682  0.00  0.00     0.292 HD
ENDBRANCH  17  25
ENDBRANCH   9  11
ENDBRANCH   1   9
BRANCH   6  27
ATOM     27  O   LIG d   1       4.421  -4.088  -8.623  0.00  0.00    -0.506 OA
ATOM     28  H   LIG d   1       3.968  -4.787  -8.130  0.00  0.00     0.292 HD
ENDBRANCH   6  27
BRANCH   2  29
ATOM     29  C   LIG d   1       3.596   0.663  -7.802  0.00  0.00     0.340 C 
ATOM     30  O   LIG d   1       3.003   1.040  -6.812  0.00  0.00    -0.245 OA
BRANCH  29  31
ATOM     31  O   LIG d   1       4.585   1.416  -8.323  0.00  0.00    -0.464 OA
BRANCH  31  32
ATOM     32  C   LIG d   1       4.211   2.395  -9.295  0.00  0.00     0.082 C 
ATOM     33  H   LIG d   1       4.891   2.341 -10.145  0.00  0.00     0.066 H 
ATOM     34  H   LIG d   1       3.193   2.202  -9.631  0.00  0.00     0.066 H 
ATOM     35  H   LIG d   1       4.264   3.388  -8.849  0.00  0.00     0.066 H 
ENDBRANCH  31  32
ENDBRANCH  29  31
ENDBRANCH   2  29
BRANCH   4  36
ATOM     36  O   LIG d   1       0.680  -1.983 -10.656  0.00  0.00    -0.507 OA
ATOM     37  H   LIG d   1       0.436  -1.142 -11.066  0.00  0.00     0.292 HD
ENDBRANCH   4  36
TORSDOF 10
ENDMDL
MODEL 2
REMARK VINA RESULT:      -5.6      2.193      5.757
REMARK  10 active torsions:
REMARK  status: ('A' for Active; 'I' for Inactive)
REMARK    1  A    between atoms: C_1  and  C_2 
REMARK    2  A    between atoms: C_4  and  O_23 
REMARK    3  A    between atoms: C_5  and  C_9 
REMARK    4  A    between atoms: C_6  and  O_8 
REMARK    5  A    between atoms: C_9  and  C_11 
REMARK    6  A    between atoms: C_12  and  C_19 
REMARK    7  A    between atoms: C_14  and  O_18 
REMARK    8  A    between atoms: C_16  and  O_17 
REMARK    9  A    between atoms: C_19  and  O_21 
REMARK   10  A    between atoms: O_21  and  C_22 
ROOT
ATOM      1  C   LIG d   1       4.925  -0.662  -4.568  0.00  0.00     0.078 A 
ATOM      2  C   LIG d   1       6.008   0.182  -4.246  0.00  0.00     0.077 A 
ATOM      3  C   LIG d   1       6.000   0.882  -3.046  0.00  0.00    -0.005 A 
ATOM      4  C   LIG d   1       4.929   0.749  -2.168  0.00  0.00     0.121 A 
ATOM      5  C   LIG d   1       3.863  -0.081  -2.481  0.00  0.00     0.022 A 
ATOM      6  C   LIG d   1       3.852  -0.782  -3.677  0.00  0.00     0.132 A 
ATOM      7  H   LIG d   1       6.826   1.530  -2.795  0.00  0.00     0.066 H 
ATOM      8  H   LIG d   1       3.037  -0.177  -1.793  0.00  0.00     0.069 H 
ENDROOT
BRANCH   1   9
ATOM      9  C   LIG d   1       4.921  -1.410  -5.839  0.00  0.00     0.204 C 
ATOM     10  O   LIG d   1       5.147  -2.606  -5.841  0.00  0.00    -0.286 OA
BRANCH   9  11
ATOM     11  C   LIG d   1       4.644  -0.710  -7.103  0.00  0.00     0.105 A 
ATOM     12  C   LIG d   1       5.628  -0.638  -8.102  0.00  0.00     0.131 A 
ATOM     13  C   LIG d   1       5.358   0.023  -9.287  0.00  0.00    -0.016 A 
ATOM     14  C   LIG d   1       4.123   0.612  -9.491  0.00  0.00    -0.043 A 
ATOM     15  H   LIG d   1       6.113   0.079 -10.058  0.00  0.00     0.066 H 
ATOM     16  C   LIG d   1       3.148   0.552  -8.512  0.00  0.00    -0.016 A 
ATOM     17  C   LIG d   1       3.395  -0.109  -7.320  0.00  0.00     0.131 A 
ATOM     18  H   LIG d   1       2.188   1.019  -8.680  0.00  0.00     0.066 H 
BRANCH  12  19
ATOM     19  O   LIG d   1       6.841  -1.216  -7.905  0.00  0.00    -0.506 OA
ATOM     20  H   LIG d   1       6.824  -1.966  -7.296  0.00  0.00     0.292 HD
ENDBRANCH  12  19
BRANCH  14  21
ATOM     21  C   LIG d   1       3.840   1.329 -10.786  0.00  0.00    -0.040 C 
ATOM     22  H   LIG d   1       4.387   0.844 -11.595  0.00  0.00     0.028 H 
ATOM     23  H   LIG d   1       2.772   1.292 -10.996  0.00  0.00     0.028 H 
ATOM     24  H   LIG d   1       4.160   2.367 -10.704  0.00  0.00     0.028 H 
ENDBRANCH  14  21
BRANCH  17  25
ATOM     25  O   LIG d   1       2.435  -0.171  -6.364  0.00  0.00    -0.506 OA
ATOM     26  H   LIG d   1       1.999  -1.032  -6.300  0.00  0.00     0.292 HD
ENDBRANCH  17  25
ENDBRANCH   9  11
ENDBRANCH   1   9
BRANCH   6  27
ATOM     27  O   LIG d   1       2.804  -1.588  -3.982  0.00  0.00    -0.506 OA
ATOM     28  H   LIG d   1       2.049  -1.122  -4.368  0.00  0.00     0.292 HD
ENDBRANCH   6  27
BRANCH   2  29
ATOM     29  C   LIG d   1       7.145   0.322  -5.180  0.00  0.00     0.340 C 
ATOM     30  O   LIG d   1       8.026  -0.513  -5.194  0.00  0.00    -0.245 OA
BRANCH  29  31
ATOM     31  O   LIG d   1       7.203   1.377  -6.015  0.00  0.00    -0.464 OA
BRANCH  31  32
ATOM     32  C   LIG d   1       8.472   1.665  -6.608  0.00  0.00     0.082 C 
ATOM     33  H   LIG d   1       8.361   2.476  -7.329  0.00  0.00     0.066 H 
ATOM     34  H   LIG d   1       9.177   1.962  -5.833  0.00  0.00     0.066 H 
ATOM     35  H   LIG d   1       8.844   0.776  -7.117  0.00  0.00     0.066 H 
ENDBRANCH  31  32
ENDBRANCH  29  31
ENDBRANCH   2  29
BRANCH   4  36
ATOM     36  O   LIG d   1       4.928   1.435  -0.997  0.00  0.00    -0.507 OA
ATOM     37  H   LIG d   1       4.315   1.085  -0.337  0.00  0.00     0.292 HD
ENDBRANCH   4  36
TORSDOF 10
ENDMDL
MODEL 3
REMARK VINA RESULT:      -5.3      1.309      3.201
REMARK  10 active torsions:
REMARK  status: ('A' for Active; 'I' for Inactive)
REMARK    1  A    between atoms: C_1  and  C_2 
REMARK    2  A    between atoms: C_4  and  O_23 
REMARK    3  A    between atoms: C_5  and  C_9 
REMARK    4  A    between atoms: C_6  and  O_8 
REMARK    5  A    between atoms: C_9  and  C_11 
REMARK    6  A    between atoms: C_12  and  C_19 
REMARK    7  A    between atoms: C_14  and  O_18 
REMARK    8  A    between atoms: C_16  and  O_17 
REMARK    9  A    between atoms: C_19  and  O_21 
REMARK   10  A    between atoms: O_21  and  C_22 
ROOT
ATOM      1  C   LIG d   1       3.685  -0.367  -8.214  0.00  0.00     0.078 A 
ATOM      2  C   LIG d   1       3.504  -1.641  -8.791  0.00  0.00     0.077 A 
ATOM      3  C   LIG d   1       2.507  -1.832  -9.740  0.00  0.00    -0.005 A 
ATOM      4  C   LIG d   1       1.693  -0.769 -10.118  0.00  0.00     0.121 A 
ATOM      5  C   LIG d   1       1.868   0.486  -9.553  0.00  0.00     0.022 A 
ATOM      6  C   LIG d   1       2.854   0.692  -8.601  0.00  0.00     0.132 A 
ATOM      7  H   LIG d   1       2.365  -2.805 -10.184  0.00  0.00     0.066 H 
ATOM      8  H   LIG d   1       1.231   1.303  -9.854  0.00  0.00     0.069 H 
ENDROOT
BRANCH   1   9
ATOM      9  C   LIG d   1       4.739  -0.153  -7.206  0.00  0.00     0.204 C 
ATOM     10  O   LIG d   1       5.761   0.434  -7.510  0.00  0.00    -0.286 OA
BRANCH   9  11
ATOM     11  C   LIG d   1       4.554  -0.647  -5.832  0.00  0.00     0.105 A 
ATOM     12  C   LIG d   1       3.543  -0.113  -5.019  0.00  0.00     0.131 A 
ATOM     13  C   LIG d   1       3.377  -0.586  -3.728  0.00  0.00    -0.016 A 
ATOM     14  C   LIG d   1       4.204  -1.581  -3.238  0.00  0.00    -0.043 A 
ATOM     15  H   LIG d   1       2.598  -0.176  -3.101  0.00  0.00     0.066 H 
ATOM     16  C   LIG d   1       5.207  -2.110  -4.029  0.00  0.00    -0.016 A 
ATOM     17  C   LIG d   1       5.387  -1.656  -5.325  0.00  0.00     0.131 A 
ATOM     18  H   LIG d   1       5.850  -2.884  -3.635  0.00  0.00     0.066 H 
BRANCH  12  19
ATOM     19  O   LIG d   1       2.729   0.862  -5.497  0.00  0.00    -0.506 OA
ATOM     20  H   LIG d   1       2.145   0.572  -6.210  0.00  0.00     0.292 HD
ENDBRANCH  12  19
BRANCH  14  21
ATOM     21  C   LIG d   1       4.014  -2.087  -1.832  0.00  0.00    -0.040 C 
ATOM     22  H   LIG d   1       4.023  -1.244  -1.139  0.00  0.00     0.028 H 
ATOM     23  H   LIG d   1       3.059  -2.606  -1.759  0.00  0.00     0.028 H 
ATOM     24  H   LIG d   1       4.822  -2.772  -1.580  0.00  0.00     0.028 H 
ENDBRANCH  14  21
BRANCH  17  25
ATOM     25  O   LIG d   1       6.369  -2.182  -6.100  0.00  0.00    -0.506 OA
ATOM     26  H   LIG d   1       6.698  -3.037  -5.792  0.00  0.00     0.292 HD
ENDBRANCH  17  25
ENDBRANCH   9  11
ENDBRANCH   1   9
BRANCH   6  27
ATOM     27  O   LIG d   1       3.018   1.919  -8.047  0.00  0.00    -0.506 OA
ATOM     28  H   LIG d   1       3.479   1.909  -7.197  0.00  0.00     0.292 HD
ENDBRANCH   6  27
BRANCH   2  29
ATOM     29  C   LIG d   1       4.370  -2.769  -8.388  0.00  0.00     0.340 C 
ATOM     30  O   LIG d   1       5.482  -2.881  -8.863  0.00  0.00    -0.245 OA
BRANCH  29  31
ATOM     31  O   LIG d   1       3.925  -3.674  -7.494  0.00  0.00    -0.464 OA
BRANCH  31  32
ATOM     32  C   LIG d   1       3.675  -4.995  -7.978  0.00  0.00     0.082 C 
ATOM     33  H   LIG d   1       4.605  -5.563  -7.983  0.00  0.00     0.066 H 
ATOM     34  H   LIG d   1       2.951  -5.488  -7.331  0.00  0.00     0.066 H 
ATOM     35  H   LIG d   1       3.279  -4.940  -8.992  0.00  0.00     0.066 H 
ENDBRANCH  31  32
ENDBRANCH  29  31
ENDBRANCH   2  29
BRANCH   4  36
ATOM     36  O   LIG d   1       0.721  -0.961 -11.046  0.00  0.00    -0.507 OA
ATOM     37  H   LIG d   1       0.346  -1.851 -11.043  0.00  0.00     0.292 HD
ENDBRANCH   4  36
TORSDOF 10
ENDMDL
MODEL 4
REMARK VINA RESULT:      -5.1     10.966     14.043
REMARK  10 active torsions:
REMARK  status: ('A' for Active; 'I' for Inactive)
REMARK    1  A    between atoms: C_1  and  C_2 
REMARK    2  A    between atoms: C_4  and  O_23 
REMARK    3  A    between atoms: C_5  and  C_9 
REMARK    4  A    between atoms: C_6  and  O_8 
REMARK    5  A    between atoms: C_9  and  C_11 
REMARK    6  A    between atoms: C_12  and  C_19 
REMARK    7  A    between atoms: C_14  and  O_18 
REMARK    8  A    between atoms: C_16  and  O_17 
REMARK    9  A    between atoms: C_19  and  O_21 
REMARK   10  A    between atoms: O_21  and  C_22 
ROOT
ATOM      1  C   LIG d   1      10.017   8.858  -0.480  0.00  0.00     0.078 A 
ATOM      2  C   LIG d   1      11.001   8.512   0.468  0.00  0.00     0.077 A 
ATOM      3  C   LIG d   1      11.552   9.498   1.278  0.00  0.00    -0.005 A 
ATOM      4  C   LIG d   1      11.131  10.818   1.154  0.00  0.00     0.121 A 
ATOM      5  C   LIG d   1      10.163  11.162   0.223  0.00  0.00     0.022 A 
ATOM      6  C   LIG d   1       9.607  10.192  -0.598  0.00  0.00     0.132 A 
ATOM      7  H   LIG d   1      12.306   9.237   2.006  0.00  0.00     0.066 H 
ATOM      8  H   LIG d   1       9.844  12.189   0.134  0.00  0.00     0.069 H 
ENDROOT
BRANCH   1   9
ATOM      9  C   LIG d   1       9.425   7.822  -1.347  0.00  0.00     0.204 C 
ATOM     10  O   LIG d   1       8.300   7.415  -1.127  0.00  0.00    -0.286 OA
BRANCH   9  11
ATOM     11  C   LIG d   1      10.196   7.282  -2.478  0.00  0.00     0.105 A 
ATOM     12  C   LIG d   1      10.605   5.939  -2.477  0.00  0.00     0.131 A 
ATOM     13  C   LIG d   1      11.331   5.440  -3.546  0.00  0.00    -0.016 A 
ATOM     14  C   LIG d   1      11.653   6.260  -4.612  0.00  0.00    -0.043 A 
ATOM     15  H   LIG d   1      11.646   4.407  -3.547  0.00  0.00     0.066 H 
ATOM     16  C   LIG d   1      11.260   7.585  -4.621  0.00  0.00    -0.016 A 
ATOM     17  C   LIG d   1      10.529   8.104  -3.565  0.00  0.00     0.131 A 
ATOM     18  H   LIG d   1      11.521   8.218  -5.457  0.00  0.00     0.066 H 
BRANCH  12  19
ATOM     19  O   LIG d   1      10.290   5.132  -1.432  0.00  0.00    -0.506 OA
ATOM     20  H   LIG d   1      11.026   4.966  -0.828  0.00  0.00     0.292 HD
ENDBRANCH  12  19
BRANCH  14  21
ATOM     21  C   LIG d   1      12.443   5.705  -5.770  0.00  0.00    -0.040 C 
ATOM     22  H   LIG d   1      12.187   4.655  -5.913  0.00  0.00     0.028 H 
ATOM     23  H   LIG d   1      12.203   6.264  -6.674  0.00  0.00     0.028 H 
ATOM     24  H   LIG d   1      13.508   5.794  -5.559  0.00  0.00     0.028 H 
ENDBRANCH  14  21
BRANCH  17  25
ATOM     25  O   LIG d   1      10.140   9.404  -3.579  0.00  0.00    -0.506 OA
ATOM     26  H   LIG d   1       9.905   9.753  -2.709  0.00  0.00     0.292 HD
ENDBRANCH  17  25
ENDBRANCH   9  11
ENDBRANCH   1   9
BRANCH   6  27
ATOM     27  O   LIG d   1       8.665  10.535  -1.512  0.00  0.00    -0.506 OA
ATOM     28  H   LIG d   1       9.014  11.011  -2.278  0.00  0.00     0.292 HD
ENDBRANCH   6  27
BRANCH   2  29
ATOM     29  C   LIG d   1      11.447   7.109   0.598  0.00  0.00     0.340 C 
ATOM     30  O   LIG d   1      12.564   6.792   0.246  0.00  0.00    -0.245 OA
BRANCH  29  31
ATOM     31  O   LIG d   1      10.612   6.182   1.108  0.00  0.00    -0.464 OA
BRANCH  31  32
ATOM     32  C   LIG d   1      10.899   5.705   2.424  0.00  0.00     0.082 C 
ATOM     33  H   LIG d   1      11.917   5.317   2.455  0.00  0.00     0.066 H 
ATOM     34  H   LIG d   1      10.801   6.523   3.137  0.00  0.00     0.066 H 
ATOM     35  H   LIG d   1      10.200   4.911   2.684  0.00  0.00     0.066 H 
ENDBRANCH  31  32
ENDBRANCH  29  31
ENDBRANCH   2  29
BRANCH   4  36
ATOM     36  O   LIG d   1      11.672  11.776   1.949  0.00  0.00    -0.507 OA
ATOM     37  H   LIG d   1      11.019  12.304   2.427  0.00  0.00     0.292 HD
ENDBRANCH   4  36
TORSDOF 10
ENDMDL
MODEL 5
REMARK VINA RESULT:      -5.1     10.963     13.957
REMARK  10 active torsions:
REMARK  status: ('A' for Active; 'I' for Inactive)
REMARK    1  A    between atoms: C_1  and  C_2 
REMARK    2  A    between atoms: C_4  and  O_23 
REMARK    3  A    between atoms: C_5  and  C_9 
REMARK    4  A    between atoms: C_6  and  O_8 
REMARK    5  A    between atoms: C_9  and  C_11 
REMARK    6  A    between atoms: C_12  and  C_19 
REMARK    7  A    between atoms: C_14  and  O_18 
REMARK    8  A    between atoms: C_16  and  O_17 
REMARK    9  A    between atoms: C_19  and  O_21 
REMARK   10  A    between atoms: O_21  and  C_22 
ROOT
ATOM      1  C   LIG d   1      10.017   8.856  -0.479  0.00  0.00     0.078 A 
ATOM      2  C   LIG d   1      11.003   8.510   0.469  0.00  0.00     0.077 A 
ATOM      3  C   LIG d   1      11.553   9.496   1.280  0.00  0.00    -0.005 A 
ATOM      4  C   LIG d   1      11.131  10.816   1.156  0.00  0.00     0.121 A 
ATOM      5  C   LIG d   1      10.162  11.159   0.226  0.00  0.00     0.022 A 
ATOM      6  C   LIG d   1       9.607  10.189  -0.595  0.00  0.00     0.132 A 
ATOM      7  H   LIG d   1      12.308   9.236   2.006  0.00  0.00     0.066 H 
ATOM      8  H   LIG d   1       9.842  12.186   0.138  0.00  0.00     0.069 H 
ENDROOT
BRANCH   1   9
ATOM      9  C   LIG d   1       9.426   7.820  -1.345  0.00  0.00     0.204 C 
ATOM     10  O   LIG d   1       8.301   7.413  -1.126  0.00  0.00    -0.286 OA
BRANCH   9  11
ATOM     11  C   LIG d   1      10.198   7.278  -2.475  0.00  0.00     0.105 A 
ATOM     12  C   LIG d   1      10.532   8.102  -3.562  0.00  0.00     0.131 A 
ATOM     13  C   LIG d   1      11.258   7.583  -4.620  0.00  0.00    -0.016 A 
ATOM     14  C   LIG d   1      11.656   6.258  -4.610  0.00  0.00    -0.043 A 
ATOM     15  H   LIG d   1      11.517   8.215  -5.457  0.00  0.00     0.066 H 
ATOM     16  C   LIG d   1      11.328   5.437  -3.547  0.00  0.00    -0.016 A 
ATOM     17  C   LIG d   1      10.606   5.936  -2.476  0.00  0.00     0.131 A 
ATOM     18  H   LIG d   1      11.640   4.402  -3.551  0.00  0.00     0.066 H 
BRANCH  12  19
ATOM     19  O   LIG d   1      10.144   9.403  -3.575  0.00  0.00    -0.506 OA
ATOM     20  H   LIG d   1      10.573   9.933  -4.260  0.00  0.00     0.292 HD
ENDBRANCH  12  19
BRANCH  14  21
ATOM     21  C   LIG d   1      12.446   5.705  -5.767  0.00  0.00    -0.040 C 
ATOM     22  H   LIG d   1      12.900   6.527  -6.322  0.00  0.00     0.028 H 
ATOM     23  H   LIG d   1      13.227   5.045  -5.392  0.00  0.00     0.028 H 
ATOM     24  H   LIG d   1      11.783   5.146  -6.426  0.00  0.00     0.028 H 
ENDBRANCH  14  21
BRANCH  17  25
ATOM     25  O   LIG d   1      10.291   5.129  -1.431  0.00  0.00    -0.506 OA
ATOM     26  H   LIG d   1       9.395   4.766  -1.471  0.00  0.00     0.292 HD
ENDBRANCH  17  25
ENDBRANCH   9  11
ENDBRANCH   1   9
BRANCH   6  27
ATOM     27  O   LIG d   1       8.663  10.532  -1.508  0.00  0.00    -0.506 OA
ATOM     28  H   LIG d   1       8.004  11.157  -1.176  0.00  0.00     0.292 HD
ENDBRANCH   6  27
BRANCH   2  29
ATOM     29  C   LIG d   1      11.450   7.107   0.598  0.00  0.00     0.340 C 
ATOM     30  O   LIG d   1      12.566   6.790   0.242  0.00  0.00    -0.245 OA
BRANCH  29  31
ATOM     31  O   LIG d   1      10.617   6.181   1.112  0.00  0.00    -0.464 OA
BRANCH  31  32
ATOM     32  C   LIG d   1      10.897   5.721   2.436  0.00  0.00     0.082 C 
ATOM     33  H   LIG d   1      10.439   6.395   3.159  0.00  0.00     0.066 H 
ATOM     34  H   LIG d   1      10.492   4.718   2.566  0.00  0.00     0.066 H 
ATOM     35  H   LIG d   1      11.976   5.699   2.592  0.00  0.00     0.066 H 
ENDBRANCH  31  32
ENDBRANCH  29  31
ENDBRANCH   2  29
BRANCH   4  36
ATOM     36  O   LIG d   1      11.672  11.774   1.951  0.00  0.00    -0.507 OA
ATOM     37  H   LIG d   1      12.535  11.539   2.318  0.00  0.00     0.292 HD
ENDBRANCH   4  36
TORSDOF 10
ENDMDL
MODEL 6
REMARK VINA RESULT:      -5.1      1.767      5.952
REMARK  10 active torsions:
REMARK  status: ('A' for Active; 'I' for Inactive)
REMARK    1  A    between atoms: C_1  and  C_2 
REMARK    2  A    between atoms: C_4  and  O_23 
REMARK    3  A    between atoms: C_5  and  C_9 
REMARK    4  A    between atoms: C_6  and  O_8 
REMARK    5  A    between atoms: C_9  and  C_11 
REMARK    6  A    between atoms: C_12  and  C_19 
REMARK    7  A    between atoms: C_14  and  O_18 
REMARK    8  A    between atoms: C_16  and  O_17 
REMARK    9  A    between atoms: C_19  and  O_21 
REMARK   10  A    between atoms: O_21  and  C_22 
ROOT
ATOM      1  C   LIG d   1       5.312  -0.758  -5.729  0.00  0.00     0.078 A 
ATOM      2  C   LIG d   1       5.570  -1.819  -4.836  0.00  0.00     0.077 A 
ATOM      3  C   LIG d   1       6.880  -2.119  -4.484  0.00  0.00    -0.005 A 
ATOM      4  C   LIG d   1       7.931  -1.373  -5.009  0.00  0.00     0.121 A 
ATOM      5  C   LIG d   1       7.681  -0.329  -5.887  0.00  0.00     0.022 A 
ATOM      6  C   LIG d   1       6.380  -0.020  -6.254  0.00  0.00     0.132 A 
ATOM      7  H   LIG d   1       7.082  -2.930  -3.801  0.00  0.00     0.066 H 
ATOM      8  H   LIG d   1       8.504   0.242  -6.289  0.00  0.00     0.069 H 
ENDROOT
BRANCH   1   9
ATOM      9  C   LIG d   1       3.926  -0.431  -6.111  0.00  0.00     0.204 C 
ATOM     10  O   LIG d   1       3.131  -0.069  -5.264  0.00  0.00    -0.286 OA
BRANCH   9  11
ATOM     11  C   LIG d   1       3.506  -0.541  -7.517  0.00  0.00     0.105 A 
ATOM     12  C   LIG d   1       3.124   0.604  -8.232  0.00  0.00     0.131 A 
ATOM     13  C   LIG d   1       2.729   0.489  -9.554  0.00  0.00    -0.016 A 
ATOM     14  C   LIG d   1       2.711  -0.749 -10.171  0.00  0.00    -0.043 A 
ATOM     15  H   LIG d   1       2.436   1.370 -10.107  0.00  0.00     0.066 H 
ATOM     16  C   LIG d   1       3.079  -1.884  -9.474  0.00  0.00    -0.016 A 
ATOM     17  C   LIG d   1       3.482  -1.792  -8.152  0.00  0.00     0.131 A 
ATOM     18  H   LIG d   1       3.057  -2.847  -9.964  0.00  0.00     0.066 H 
BRANCH  12  19
ATOM     19  O   LIG d   1       3.142   1.821  -7.630  0.00  0.00    -0.506 OA
ATOM     20  H   LIG d   1       2.476   1.926  -6.937  0.00  0.00     0.292 HD
ENDBRANCH  12  19
BRANCH  14  21
ATOM     21  C   LIG d   1       2.280  -0.861 -11.611  0.00  0.00    -0.040 C 
ATOM     22  H   LIG d   1       1.418  -1.526 -11.680  0.00  0.00     0.028 H 
ATOM     23  H   LIG d   1       2.009   0.125 -11.987  0.00  0.00     0.028 H 
ATOM     24  H   LIG d   1       3.099  -1.265 -12.205  0.00  0.00     0.028 H 
ENDBRANCH  14  21
BRANCH  17  25
ATOM     25  O   LIG d   1       3.849  -2.907  -7.473  0.00  0.00    -0.506 OA
ATOM     26  H   LIG d   1       4.579  -3.394  -7.880  0.00  0.00     0.292 HD
ENDBRANCH  17  25
ENDBRANCH   9  11
ENDBRANCH   1   9
BRANCH   6  27
ATOM     27  O   LIG d   1       6.142   0.998  -7.117  0.00  0.00    -0.506 OA
ATOM     28  H   LIG d   1       5.271   1.407  -7.012  0.00  0.00     0.292 HD
ENDBRANCH   6  27
BRANCH   2  29
ATOM     29  C   LIG d   1       4.452  -2.610  -4.279  0.00  0.00     0.340 C 
ATOM     30  O   LIG d   1       4.243  -3.734  -4.685  0.00  0.00    -0.245 OA
BRANCH  29  31
ATOM     31  O   LIG d   1       3.665  -2.081  -3.322  0.00  0.00    -0.464 OA
BRANCH  31  32
ATOM     32  C   LIG d   1       4.302  -1.691  -2.103  0.00  0.00     0.082 C 
ATOM     33  H   LIG d   1       3.543  -1.459  -1.355  0.00  0.00     0.066 H 
ATOM     34  H   LIG d   1       4.929  -2.506  -1.743  0.00  0.00     0.066 H 
ATOM     35  H   LIG d   1       4.918  -0.810  -2.280  0.00  0.00     0.066 H 
ENDBRANCH  31  32
ENDBRANCH  29  31
ENDBRANCH   2  29
BRANCH   4  36
ATOM     36  O   LIG d   1       9.209  -1.671  -4.661  0.00  0.00    -0.507 OA
ATOM     37  H   LIG d   1       9.835  -1.635  -5.396  0.00  0.00     0.292 HD
ENDBRANCH   4  36
TORSDOF 10
ENDMDL
MODEL 7
REMARK VINA RESULT:      -4.9     10.279     13.295
REMARK  10 active torsions:
REMARK  status: ('A' for Active; 'I' for Inactive)
REMARK    1  A    between atoms: C_1  and  C_2 
REMARK    2  A    between atoms: C_4  and  O_23 
REMARK    3  A    between atoms: C_5  and  C_9 
REMARK    4  A    between atoms: C_6  and  O_8 
REMARK    5  A    between atoms: C_9  and  C_11 
REMARK    6  A    between atoms: C_12  and  C_19 
REMARK    7  A    between atoms: C_14  and  O_18 
REMARK    8  A    between atoms: C_16  and  O_17 
REMARK    9  A    between atoms: C_19  and  O_21 
REMARK   10  A    between atoms: O_21  and  C_22 
ROOT
ATOM      1  C   LIG d   1      10.324   8.127  -0.814  0.00  0.00     0.078 A 
ATOM      2  C   LIG d   1      11.471   8.947  -0.783  0.00  0.00     0.077 A 
ATOM      3  C   LIG d   1      11.328  10.329  -0.803  0.00  0.00    -0.005 A 
ATOM      4  C   LIG d   1      10.060  10.898  -0.851  0.00  0.00     0.121 A 
ATOM      5  C   LIG d   1       8.930  10.095  -0.882  0.00  0.00     0.022 A 
ATOM      6  C   LIG d   1       9.054   8.714  -0.868  0.00  0.00     0.132 A 
ATOM      7  H   LIG d   1      12.203  10.961  -0.780  0.00  0.00     0.066 H 
ATOM      8  H   LIG d   1       7.951  10.546  -0.919  0.00  0.00     0.069 H 
ENDROOT
BRANCH   1   9
ATOM      9  C   LIG d   1      10.462   6.659  -0.793  0.00  0.00     0.204 C 
ATOM     10  O   LIG d   1      10.229   6.040   0.228  0.00  0.00    -0.286 OA
BRANCH   9  11
ATOM     11  C   LIG d   1      10.882   5.943  -2.009  0.00  0.00     0.105 A 
ATOM     12  C   LIG d   1      12.028   5.132  -1.991  0.00  0.00     0.131 A 
ATOM     13  C   LIG d   1      12.414   4.463  -3.140  0.00  0.00    -0.016 A 
ATOM     14  C   LIG d   1      11.677   4.592  -4.303  0.00  0.00    -0.043 A 
ATOM     15  H   LIG d   1      13.295   3.837  -3.128  0.00  0.00     0.066 H 
ATOM     16  C   LIG d   1      10.550   5.392  -4.333  0.00  0.00    -0.016 A 
ATOM     17  C   LIG d   1      10.142   6.067  -3.194  0.00  0.00     0.131 A 
ATOM     18  H   LIG d   1       9.983   5.489  -5.248  0.00  0.00     0.066 H 
BRANCH  12  19
ATOM     19  O   LIG d   1      12.753   5.003  -0.851  0.00  0.00    -0.506 OA
ATOM     20  H   LIG d   1      12.218   4.968  -0.047  0.00  0.00     0.292 HD
ENDBRANCH  12  19
BRANCH  14  21
ATOM     21  C   LIG d   1      12.108   3.858  -5.547  0.00  0.00    -0.040 C 
ATOM     22  H   LIG d   1      11.441   4.118  -6.370  0.00  0.00     0.028 H 
ATOM     23  H   LIG d   1      13.127   4.144  -5.803  0.00  0.00     0.028 H 
ATOM     24  H   LIG d   1      12.064   2.784  -5.369  0.00  0.00     0.028 H 
ENDBRANCH  14  21
BRANCH  17  25
ATOM     25  O   LIG d   1       9.033   6.847  -3.226  0.00  0.00    -0.506 OA
ATOM     26  H   LIG d   1       8.243   6.422  -2.864  0.00  0.00     0.292 HD
ENDBRANCH  17  25
ENDBRANCH   9  11
ENDBRANCH   1   9
BRANCH   6  27
ATOM     27  O   LIG d   1       7.946   7.932  -0.903  0.00  0.00    -0.506 OA
ATOM     28  H   LIG d   1       8.123   6.992  -0.759  0.00  0.00     0.292 HD
ENDBRANCH   6  27
BRANCH   2  29
ATOM     29  C   LIG d   1      12.818   8.340  -0.731  0.00  0.00     0.340 C 
ATOM     30  O   LIG d   1      13.238   7.884   0.312  0.00  0.00    -0.245 OA
BRANCH  29  31
ATOM     31  O   LIG d   1      13.579   8.294  -1.842  0.00  0.00    -0.464 OA
BRANCH  31  32
ATOM     32  C   LIG d   1      14.886   7.733  -1.709  0.00  0.00     0.082 C 
ATOM     33  H   LIG d   1      15.592   8.311  -2.306  0.00  0.00     0.066 H 
ATOM     34  H   LIG d   1      15.188   7.759  -0.663  0.00  0.00     0.066 H 
ATOM     35  H   LIG d   1      14.876   6.701  -2.058  0.00  0.00     0.066 H 
ENDBRANCH  31  32
ENDBRANCH  29  31
ENDBRANCH   2  29
BRANCH   4  36
ATOM     36  O   LIG d   1       9.927  12.249  -0.870  0.00  0.00    -0.507 OA
ATOM     37  H   LIG d   1       9.206  12.565  -1.431  0.00  0.00     0.292 HD
ENDBRANCH   4  36
TORSDOF 10
ENDMDL
MODEL 8
REMARK VINA RESULT:      -4.9     11.475     13.550
REMARK  10 active torsions:
REMARK  status: ('A' for Active; 'I' for Inactive)
REMARK    1  A    between atoms: C_1  and  C_2 
REMARK    2  A    between atoms: C_4  and  O_23 
REMARK    3  A    between atoms: C_5  and  C_9 
REMARK    4  A    between atoms: C_6  and  O_8 
REMARK    5  A    between atoms: C_9  and  C_11 
REMARK    6  A    between atoms: C_12  and  C_19 
REMARK    7  A    between atoms: C_14  and  O_18 
REMARK    8  A    between atoms: C_16  and  O_17 
REMARK    9  A    between atoms: C_19  and  O_21 
REMARK   10  A    between atoms: O_21  and  C_22 
ROOT
ATOM      1  C   LIG d   1      10.597   6.975  -1.349  0.00  0.00     0.078 A 
ATOM      2  C   LIG d   1      11.189   7.057  -2.626  0.00  0.00     0.077 A 
ATOM      3  C   LIG d   1      12.094   6.082  -3.028  0.00  0.00    -0.005 A 
ATOM      4  C   LIG d   1      12.411   5.031  -2.174  0.00  0.00     0.121 A 
ATOM      5  C   LIG d   1      11.831   4.948  -0.917  0.00  0.00     0.022 A 
ATOM      6  C   LIG d   1      10.930   5.915  -0.497  0.00  0.00     0.132 A 
ATOM      7  H   LIG d   1      12.550   6.141  -4.004  0.00  0.00     0.066 H 
ATOM      8  H   LIG d   1      12.084   4.128  -0.262  0.00  0.00     0.069 H 
ENDROOT
BRANCH   1   9
ATOM      9  C   LIG d   1       9.635   8.004  -0.910  0.00  0.00     0.204 C 
ATOM     10  O   LIG d   1       8.444   7.760  -0.905  0.00  0.00    -0.286 OA
BRANCH   9  11
ATOM     11  C   LIG d   1      10.119   9.325  -0.478  0.00  0.00     0.105 A 
ATOM     12  C   LIG d   1       9.762  10.478  -1.196  0.00  0.00     0.131 A 
ATOM     13  C   LIG d   1      10.222  11.716  -0.781  0.00  0.00    -0.016 A 
ATOM     14  C   LIG d   1      11.031  11.821   0.336  0.00  0.00    -0.043 A 
ATOM     15  H   LIG d   1       9.948  12.604  -1.332  0.00  0.00     0.066 H 
ATOM     16  C   LIG d   1      11.393  10.692   1.047  0.00  0.00    -0.016 A 
ATOM     17  C   LIG d   1      10.940   9.444   0.653  0.00  0.00     0.131 A 
ATOM     18  H   LIG d   1      12.029  10.784   1.916  0.00  0.00     0.066 H 
BRANCH  12  19
ATOM     19  O   LIG d   1       8.967  10.378  -2.292  0.00  0.00    -0.506 OA
ATOM     20  H   LIG d   1       9.306   9.777  -2.969  0.00  0.00     0.292 HD
ENDBRANCH  12  19
BRANCH  14  21
ATOM     21  C   LIG d   1      11.525  13.174   0.777  0.00  0.00    -0.040 C 
ATOM     22  H   LIG d   1      12.554  13.312   0.441  0.00  0.00     0.028 H 
ATOM     23  H   LIG d   1      10.895  13.950   0.344  0.00  0.00     0.028 H 
ATOM     24  H   LIG d   1      11.487  13.238   1.864  0.00  0.00     0.028 H 
ENDBRANCH  14  21
BRANCH  17  25
ATOM     25  O   LIG d   1      11.293   8.338   1.357  0.00  0.00    -0.506 OA
ATOM     26  H   LIG d   1      11.599   7.603   0.807  0.00  0.00     0.292 HD
ENDBRANCH  17  25
ENDBRANCH   9  11
ENDBRANCH   1   9
BRANCH   6  27
ATOM     27  O   LIG d   1      10.369   5.832   0.735  0.00  0.00    -0.506 OA
ATOM     28  H   LIG d   1      10.867   5.284   1.358  0.00  0.00     0.292 HD
ENDBRANCH   6  27
BRANCH   2  29
ATOM     29  C   LIG d   1      10.850   8.175  -3.532  0.00  0.00     0.340 C 
ATOM     30  O   LIG d   1      11.599   9.126  -3.629  0.00  0.00    -0.245 OA
BRANCH  29  31
ATOM     31  O   LIG d   1       9.711   8.138  -4.249  0.00  0.00    -0.464 OA
BRANCH  31  32
ATOM     32  C   LIG d   1       9.682   8.897  -5.460  0.00  0.00     0.082 C 
ATOM     33  H   LIG d   1      10.225   8.360  -6.238  0.00  0.00     0.066 H 
ATOM     34  H   LIG d   1       8.649   9.044  -5.773  0.00  0.00     0.066 H 
ATOM     35  H   LIG d   1      10.153   9.866  -5.293  0.00  0.00     0.066 H 
ENDBRANCH  31  32
ENDBRANCH  29  31
ENDBRANCH   2  29
BRANCH   4  36
ATOM     36  O   LIG d   1      13.296   4.082  -2.572  0.00  0.00    -0.507 OA
ATOM     37  H   LIG d   1      13.657   4.228  -3.456  0.00  0.00     0.292 HD
ENDBRANCH   4  36
TORSDOF 10
ENDMDL
MODEL 9
REMARK VINA RESULT:      -4.9     11.025     13.980
REMARK  10 active torsions:
REMARK  status: ('A' for Active; 'I' for Inactive)
REMARK    1  A    between atoms: C_1  and  C_2 
REMARK    2  A    between atoms: C_4  and  O_23 
REMARK    3  A    between atoms: C_5  and  C_9 
REMARK    4  A    between atoms: C_6  and  O_8 
REMARK    5  A    between atoms: C_9  and  C_11 
REMARK    6  A    between atoms: C_12  and  C_19 
REMARK    7  A    between atoms: C_14  and  O_18 
REMARK    8  A    between atoms: C_16  and  O_17 
REMARK    9  A    between atoms: C_19  and  O_21 
REMARK   10  A    between atoms: O_21  and  C_22 
ROOT
ATOM      1  C   LIG d   1      10.998   8.364   0.452  0.00  0.00     0.078 A 
ATOM      2  C   LIG d   1      10.192   8.856  -0.595  0.00  0.00     0.077 A 
ATOM      3  C   LIG d   1       9.887  10.211  -0.649  0.00  0.00    -0.005 A 
ATOM      4  C   LIG d   1      10.376  11.075   0.325  0.00  0.00     0.121 A 
ATOM      5  C   LIG d   1      11.169  10.594   1.356  0.00  0.00     0.022 A 
ATOM      6  C   LIG d   1      11.478   9.244   1.429  0.00  0.00     0.132 A 
ATOM      7  H   LIG d   1       9.271  10.592  -1.449  0.00  0.00     0.066 H 
ATOM      8  H   LIG d   1      11.543  11.273   2.107  0.00  0.00     0.069 H 
ENDROOT
BRANCH   1   9
ATOM      9  C   LIG d   1      11.328   6.928   0.521  0.00  0.00     0.204 C 
ATOM     10  O   LIG d   1      10.812   6.226   1.370  0.00  0.00    -0.286 OA
BRANCH   9  11
ATOM     11  C   LIG d   1      12.282   6.347  -0.437  0.00  0.00     0.105 A 
ATOM     12  C   LIG d   1      13.591   6.846  -0.523  0.00  0.00     0.131 A 
ATOM     13  C   LIG d   1      14.481   6.293  -1.427  0.00  0.00    -0.016 A 
ATOM     14  C   LIG d   1      14.085   5.250  -2.245  0.00  0.00    -0.043 A 
ATOM     15  H   LIG d   1      15.489   6.675  -1.494  0.00  0.00     0.066 H 
ATOM     16  C   LIG d   1      12.796   4.753  -2.173  0.00  0.00    -0.016 A 
ATOM     17  C   LIG d   1      11.891   5.289  -1.271  0.00  0.00     0.131 A 
ATOM     18  H   LIG d   1      12.496   3.941  -2.819  0.00  0.00     0.066 H 
BRANCH  12  19
ATOM     19  O   LIG d   1      13.983   7.869   0.280  0.00  0.00    -0.506 OA
ATOM     20  H   LIG d   1      14.423   7.584   1.092  0.00  0.00     0.292 HD
ENDBRANCH  12  19
BRANCH  14  21
ATOM     21  C   LIG d   1      15.062   4.655  -3.225  0.00  0.00    -0.040 C 
ATOM     22  H   LIG d   1      14.762   4.917  -4.241  0.00  0.00     0.028 H 
ATOM     23  H   LIG d   1      16.059   5.048  -3.029  0.00  0.00     0.028 H 
ATOM     24  H   LIG d   1      15.070   3.571  -3.118  0.00  0.00     0.028 H 
ENDBRANCH  14  21
BRANCH  17  25
ATOM     25  O   LIG d   1      10.629   4.795  -1.199  0.00  0.00    -0.506 OA
ATOM     26  H   LIG d   1      10.499   3.976  -1.696  0.00  0.00     0.292 HD
ENDBRANCH  17  25
ENDBRANCH   9  11
ENDBRANCH   1   9
BRANCH   6  27
ATOM     27  O   LIG d   1      12.250   8.778   2.443  0.00  0.00    -0.506 OA
ATOM     28  H   LIG d   1      12.134   7.835   2.624  0.00  0.00     0.292 HD
ENDBRANCH   6  27
BRANCH   2  29
ATOM     29  C   LIG d   1       9.674   7.936  -1.629  0.00  0.00     0.340 C 
ATOM     30  O   LIG d   1       8.750   7.191  -1.371  0.00  0.00    -0.245 OA
BRANCH  29  31
ATOM     31  O   LIG d   1      10.226   7.924  -2.858  0.00  0.00    -0.464 OA
BRANCH  31  32
ATOM     32  C   LIG d   1       9.705   6.979  -3.794  0.00  0.00     0.082 C 
ATOM     33  H   LIG d   1       9.463   7.487  -4.728  0.00  0.00     0.066 H 
ATOM     34  H   LIG d   1      10.448   6.205  -3.982  0.00  0.00     0.066 H 
ATOM     35  H   LIG d   1       8.803   6.523  -3.385  0.00  0.00     0.066 H 
ENDBRANCH  31  32
ENDBRANCH  29  31
ENDBRANCH   2  29
BRANCH   4  36
ATOM     36  O   LIG d   1      10.075  12.397   0.266  0.00  0.00    -0.507 OA
ATOM     37  H   LIG d   1       9.492  12.635  -0.467  0.00  0.00     0.292 HD
ENDBRANCH   4  36
TORSDOF 10
ENDMDL
MODEL 10
REMARK VINA RESULT:      -4.8      1.771      5.951
REMARK  10 active torsions:
REMARK  status: ('A' for Active; 'I' for Inactive)
REMARK    1  A    between atoms: C_1  and  C_2 
REMARK    2  A    between atoms: C_4  and  O_23 
REMARK    3  A    between atoms: C_5  and  C_9 
REMARK    4  A    between atoms: C_6  and  O_8 
REMARK    5  A    between atoms: C_9  and  C_11 
REMARK    6  A    between atoms: C_12  and  C_19 
REMARK    7  A    between atoms: C_14  and  O_18 
REMARK    8  A    between atoms: C_16  and  O_17 
REMARK    9  A    between atoms: C_19  and  O_21 
REMARK   10  A    between atoms: O_21  and  C_22 
ROOT
ATOM      1  C   LIG d   1       4.681  -0.623  -5.550  0.00  0.00     0.078 A 
ATOM      2  C   LIG d   1       5.576  -1.543  -4.967  0.00  0.00     0.077 A 
ATOM      3  C   LIG d   1       5.334  -2.019  -3.684  0.00  0.00    -0.005 A 
ATOM      4  C   LIG d   1       4.214  -1.589  -2.981  0.00  0.00     0.121 A 
ATOM      5  C   LIG d   1       3.331  -0.684  -3.551  0.00  0.00     0.022 A 
ATOM      6  C   LIG d   1       3.560  -0.194  -4.828  0.00  0.00     0.132 A 
ATOM      7  H   LIG d   1       6.017  -2.724  -3.234  0.00  0.00     0.066 H 
ATOM      8  H   LIG d   1       2.465  -0.357  -2.997  0.00  0.00     0.069 H 
ENDROOT
BRANCH   1   9
ATOM      9  C   LIG d   1       4.927  -0.110  -6.911  0.00  0.00     0.204 C 
ATOM     10  O   LIG d   1       5.951   0.500  -7.155  0.00  0.00    -0.286 OA
BRANCH   9  11
ATOM     11  C   LIG d   1       3.933  -0.336  -7.973  0.00  0.00     0.105 A 
ATOM     12  C   LIG d   1       3.668  -1.638  -8.426  0.00  0.00     0.131 A 
ATOM     13  C   LIG d   1       2.731  -1.840  -9.426  0.00  0.00    -0.016 A 
ATOM     14  C   LIG d   1       2.057  -0.766  -9.977  0.00  0.00    -0.043 A 
ATOM     15  H   LIG d   1       2.525  -2.842  -9.775  0.00  0.00     0.066 H 
ATOM     16  C   LIG d   1       2.315   0.521  -9.542  0.00  0.00    -0.016 A 
ATOM     17  C   LIG d   1       3.244   0.746  -8.540  0.00  0.00     0.131 A 
ATOM     18  H   LIG d   1       1.785   1.354  -9.982  0.00  0.00     0.066 H 
BRANCH  12  19
ATOM     19  O   LIG d   1       4.327  -2.695  -7.886  0.00  0.00    -0.506 OA
ATOM     20  H   LIG d   1       4.850  -2.473  -7.104  0.00  0.00     0.292 HD
ENDBRANCH  12  19
BRANCH  14  21
ATOM     21  C   LIG d   1       1.040  -0.999 -11.064  0.00  0.00    -0.040 C 
ATOM     22  H   LIG d   1       0.046  -0.754 -10.689  0.00  0.00     0.028 H 
ATOM     23  H   LIG d   1       1.271  -0.367 -11.920  0.00  0.00     0.028 H 
ATOM     24  H   LIG d   1       1.065  -2.046 -11.367  0.00  0.00     0.028 H 
ENDBRANCH  14  21
BRANCH  17  25
ATOM     25  O   LIG d   1       3.490   2.010  -8.111  0.00  0.00    -0.506 OA
ATOM     26  H   LIG d   1       3.108   2.212  -7.245  0.00  0.00     0.292 HD
ENDBRANCH  17  25
ENDBRANCH   9  11
ENDBRANCH   1   9
BRANCH   6  27
ATOM     27  O   LIG d   1       2.697   0.695  -5.379  0.00  0.00    -0.506 OA
ATOM     28  H   LIG d   1       2.568   0.580  -6.331  0.00  0.00     0.292 HD
ENDBRANCH   6  27
BRANCH   2  29
ATOM     29  C   LIG d   1       6.766  -1.999  -5.716  0.00  0.00     0.340 C 
ATOM     30  O   LIG d   1       7.834  -1.444  -5.556  0.00  0.00    -0.245 OA
BRANCH  29  31
ATOM     31  O   LIG d   1       6.665  -3.030  -6.578  0.00  0.00    -0.464 OA
BRANCH  31  32
ATOM     32  C   LIG d   1       7.033  -4.321  -6.089  0.00  0.00     0.082 C 
ATOM     33  H   LIG d   1       7.285  -4.251  -5.031  0.00  0.00     0.066 H 
ATOM     34  H   LIG d   1       6.199  -5.010  -6.219  0.00  0.00     0.066 H 
ATOM     35  H   LIG d   1       7.896  -4.688  -6.644  0.00  0.00     0.066 H 
ENDBRANCH  31  32
ENDBRANCH  29  31
ENDBRANCH   2  29
BRANCH   4  36
ATOM     36  O   LIG d   1       3.983  -2.058  -1.728  0.00  0.00    -0.507 OA
ATOM     37  H   LIG d   1       3.067  -2.325  -1.571  0.00  0.00     0.292 HD
ENDBRANCH   4  36
TORSDOF 10
ENDMDL
