MODEL 1
REMARK VINA RESULT:      -7.2      0.000      0.000
REMARK  3 active torsions:
REMARK  status: ('A' for Active; 'I' for Inactive)
REMARK    1  A    between atoms: C_1  and  C_2 
REMARK    2  A    between atoms: C_8  and  C_19 
REMARK    3  A    between atoms: C_9  and  C_13 
ROOT
ATOM      1  C   LIG d   1       4.064   0.058  -2.950  0.00  0.00    -0.050 A 
ATOM      2  C   LIG d   1       4.171  -1.072  -2.153  0.00  0.00    -0.055 A 
ATOM      3  C   LIG d   1       4.293  -2.323  -2.720  0.00  0.00    -0.018 A 
ATOM      4  C   LIG d   1       4.328  -2.461  -4.104  0.00  0.00     0.140 A 
ATOM      5  C   LIG d   1       4.225  -1.317  -4.910  0.00  0.00     0.026 A 
ATOM      6  C   LIG d   1       4.090  -0.056  -4.322  0.00  0.00    -0.048 A 
ATOM      7  C   LIG d   1       4.256  -1.458  -6.376  0.00  0.00     0.007 A 
ATOM      8  C   LIG d   1       4.398  -2.739  -6.905  0.00  0.00     0.075 A 
ATOM      9  C   LIG d   1       4.504  -3.870  -5.985  0.00  0.00     0.346 A 
ATOM     10  O   LIG d   1       4.630  -4.997  -6.430  0.00  0.00    -0.244 OA
ATOM     11  O   LIG d   1       4.465  -3.684  -4.656  0.00  0.00    -0.422 OA
ATOM     12  H   LIG d   1       4.148  -0.973  -1.078  0.00  0.00     0.062 H 
ATOM     13  H   LIG d   1       4.375  -3.196  -2.090  0.00  0.00     0.065 H 
ATOM     14  H   LIG d   1       4.006   0.825  -4.940  0.00  0.00     0.063 H 
ENDROOT
BRANCH   7  15
ATOM     15  C   LIG d   1       4.144  -0.277  -7.257  0.00  0.00    -0.016 A 
ATOM     16  C   LIG d   1       5.289   0.290  -7.820  0.00  0.00    -0.054 A 
ATOM     17  C   LIG d   1       5.177   1.393  -8.641  0.00  0.00    -0.061 A 
ATOM     18  H   LIG d   1       6.261  -0.132  -7.611  0.00  0.00     0.062 H 
ATOM     19  C   LIG d   1       3.933   1.936  -8.909  0.00  0.00    -0.062 A 
ATOM     20  H   LIG d   1       6.063   1.832  -9.076  0.00  0.00     0.062 H 
ATOM     21  C   LIG d   1       2.793   1.377  -8.357  0.00  0.00    -0.061 A 
ATOM     22  H   LIG d   1       3.850   2.798  -9.553  0.00  0.00     0.062 H 
ATOM     23  C   LIG d   1       2.891   0.279  -7.529  0.00  0.00    -0.054 A 
ATOM     24  H   LIG d   1       1.825   1.807  -8.570  0.00  0.00     0.062 H 
ATOM     25  H   LIG d   1       2.002  -0.152  -7.094  0.00  0.00     0.062 H 
ENDBRANCH   7  15
BRANCH   8  26
ATOM     26  C   LIG d   1       4.441  -2.949  -8.369  0.00  0.00    -0.010 A 
ATOM     27  C   LIG d   1       5.666  -3.013  -9.032  0.00  0.00    -0.054 A 
ATOM     28  C   LIG d   1       5.700  -3.211 -10.397  0.00  0.00    -0.061 A 
ATOM     29  H   LIG d   1       6.588  -2.908  -8.478  0.00  0.00     0.062 H 
ATOM     30  C   LIG d   1       4.522  -3.345 -11.109  0.00  0.00    -0.062 A 
ATOM     31  H   LIG d   1       6.649  -3.260 -10.911  0.00  0.00     0.062 H 
ATOM     32  C   LIG d   1       3.302  -3.282 -10.458  0.00  0.00    -0.061 A 
ATOM     33  H   LIG d   1       4.553  -3.500 -12.178  0.00  0.00     0.062 H 
ATOM     34  C   LIG d   1       3.255  -3.091  -9.092  0.00  0.00    -0.054 A 
ATOM     35  H   LIG d   1       2.386  -3.387 -11.018  0.00  0.00     0.062 H 
ATOM     36  H   LIG d   1       2.304  -3.047  -8.584  0.00  0.00     0.062 H 
ENDBRANCH   8  26
BRANCH   1  37
ATOM     37  C   LIG d   1       3.918   1.415  -2.312  0.00  0.00    -0.040 C 
ATOM     38  H   LIG d   1       2.860   1.643  -2.179  0.00  0.00     0.028 H 
ATOM     39  H   LIG d   1       4.415   1.416  -1.342  0.00  0.00     0.028 H 
ATOM     40  H   LIG d   1       4.373   2.169  -2.954  0.00  0.00     0.028 H 
ENDBRANCH   1  37
TORSDOF 3
ENDMDL
MODEL 2
REMARK VINA RESULT:      -6.8      1.404      2.051
REMARK  3 active torsions:
REMARK  status: ('A' for Active; 'I' for Inactive)
REMARK    1  A    between atoms: C_1  and  C_2 
REMARK    2  A    between atoms: C_8  and  C_19 
REMARK    3  A    between atoms: C_9  and  C_13 
ROOT
ATOM      1  C   LIG d   1       5.493  -0.702  -4.051  0.00  0.00    -0.050 A 
ATOM      2  C   LIG d   1       5.551  -2.004  -3.579  0.00  0.00    -0.055 A 
ATOM      3  C   LIG d   1       5.153  -3.058  -4.374  0.00  0.00    -0.018 A 
ATOM      4  C   LIG d   1       4.704  -2.824  -5.669  0.00  0.00     0.140 A 
ATOM      5  C   LIG d   1       4.651  -1.507  -6.149  0.00  0.00     0.026 A 
ATOM      6  C   LIG d   1       5.046  -0.446  -5.328  0.00  0.00    -0.048 A 
ATOM      7  C   LIG d   1       4.170  -1.252  -7.518  0.00  0.00     0.007 A 
ATOM      8  C   LIG d   1       3.795  -2.349  -8.291  0.00  0.00     0.075 A 
ATOM      9  C   LIG d   1       3.891  -3.686  -7.707  0.00  0.00     0.346 A 
ATOM     10  O   LIG d   1       3.568  -4.655  -8.369  0.00  0.00    -0.244 OA
ATOM     11  O   LIG d   1       4.331  -3.859  -6.451  0.00  0.00    -0.422 OA
ATOM     12  H   LIG d   1       5.902  -2.195  -2.575  0.00  0.00     0.062 H 
ATOM     13  H   LIG d   1       5.202  -4.069  -3.995  0.00  0.00     0.065 H 
ATOM     14  H   LIG d   1       5.001   0.568  -5.694  0.00  0.00     0.063 H 
ENDROOT
BRANCH   7  15
ATOM     15  C   LIG d   1       4.094   0.121  -8.056  0.00  0.00    -0.016 A 
ATOM     16  C   LIG d   1       5.203   0.692  -8.682  0.00  0.00    -0.054 A 
ATOM     17  C   LIG d   1       5.125   1.976  -9.182  0.00  0.00    -0.061 A 
ATOM     18  H   LIG d   1       6.121   0.132  -8.775  0.00  0.00     0.062 H 
ATOM     19  C   LIG d   1       3.950   2.697  -9.064  0.00  0.00    -0.062 A 
ATOM     20  H   LIG d   1       5.983   2.419  -9.666  0.00  0.00     0.062 H 
ATOM     21  C   LIG d   1       2.845   2.136  -8.446  0.00  0.00    -0.061 A 
ATOM     22  H   LIG d   1       3.893   3.701  -9.457  0.00  0.00     0.062 H 
ATOM     23  C   LIG d   1       2.912   0.856  -7.936  0.00  0.00    -0.054 A 
ATOM     24  H   LIG d   1       1.931   2.705  -8.356  0.00  0.00     0.062 H 
ATOM     25  H   LIG d   1       2.051   0.422  -7.449  0.00  0.00     0.062 H 
ENDBRANCH   7  15
BRANCH   8  26
ATOM     26  C   LIG d   1       3.308  -2.163  -9.676  0.00  0.00    -0.010 A 
ATOM     27  C   LIG d   1       1.949  -1.975  -9.923  0.00  0.00    -0.054 A 
ATOM     28  C   LIG d   1       1.501  -1.801 -11.216  0.00  0.00    -0.061 A 
ATOM     29  H   LIG d   1       1.246  -1.964  -9.102  0.00  0.00     0.062 H 
ATOM     30  C   LIG d   1       2.399  -1.815 -12.269  0.00  0.00    -0.062 A 
ATOM     31  H   LIG d   1       0.449  -1.656 -11.408  0.00  0.00     0.062 H 
ATOM     32  C   LIG d   1       3.750  -2.001 -12.032  0.00  0.00    -0.061 A 
ATOM     33  H   LIG d   1       2.044  -1.679 -13.280  0.00  0.00     0.062 H 
ATOM     34  C   LIG d   1       4.210  -2.170 -10.742  0.00  0.00    -0.054 A 
ATOM     35  H   LIG d   1       4.445  -2.012 -12.858  0.00  0.00     0.062 H 
ATOM     36  H   LIG d   1       5.264  -2.311 -10.558  0.00  0.00     0.062 H 
ENDBRANCH   8  26
BRANCH   1  37
ATOM     37  C   LIG d   1       5.921   0.438  -3.164  0.00  0.00    -0.040 C 
ATOM     38  H   LIG d   1       6.633   0.074  -2.422  0.00  0.00     0.028 H 
ATOM     39  H   LIG d   1       6.390   1.214  -3.769  0.00  0.00     0.028 H 
ATOM     40  H   LIG d   1       5.048   0.851  -2.657  0.00  0.00     0.028 H 
ENDBRANCH   1  37
TORSDOF 3
ENDMDL
MODEL 3
REMARK VINA RESULT:      -6.6      2.156      6.488
REMARK  3 active torsions:
REMARK  status: ('A' for Active; 'I' for Inactive)
REMARK    1  A    between atoms: C_1  and  C_2 
REMARK    2  A    between atoms: C_8  and  C_19 
REMARK    3  A    between atoms: C_9  and  C_13 
ROOT
ATOM      1  C   LIG d   1       4.121  -1.841 -10.347  0.00  0.00    -0.050 A 
ATOM      2  C   LIG d   1       3.293  -0.789 -10.706  0.00  0.00    -0.055 A 
ATOM      3  C   LIG d   1       2.781   0.061  -9.748  0.00  0.00    -0.018 A 
ATOM      4  C   LIG d   1       3.107  -0.121  -8.409  0.00  0.00     0.140 A 
ATOM      5  C   LIG d   1       3.950  -1.182  -8.045  0.00  0.00     0.026 A 
ATOM      6  C   LIG d   1       4.452  -2.044  -9.026  0.00  0.00    -0.048 A 
ATOM      7  C   LIG d   1       4.293  -1.384  -6.628  0.00  0.00     0.007 A 
ATOM      8  C   LIG d   1       3.767  -0.491  -5.696  0.00  0.00     0.075 A 
ATOM      9  C   LIG d   1       2.903   0.589  -6.170  0.00  0.00     0.346 A 
ATOM     10  O   LIG d   1       2.435   1.379  -5.370  0.00  0.00    -0.244 OA
ATOM     11  O   LIG d   1       2.618   0.722  -7.475  0.00  0.00    -0.422 OA
ATOM     12  H   LIG d   1       3.038  -0.639 -11.745  0.00  0.00     0.062 H 
ATOM     13  H   LIG d   1       2.136   0.877 -10.040  0.00  0.00     0.065 H 
ATOM     14  H   LIG d   1       5.096  -2.864  -8.748  0.00  0.00     0.063 H 
ENDROOT
BRANCH   7  15
ATOM     15  C   LIG d   1       5.172  -2.494  -6.206  0.00  0.00    -0.016 A 
ATOM     16  C   LIG d   1       4.642  -3.769  -5.998  0.00  0.00    -0.054 A 
ATOM     17  C   LIG d   1       5.468  -4.801  -5.603  0.00  0.00    -0.061 A 
ATOM     18  H   LIG d   1       3.586  -3.946  -6.143  0.00  0.00     0.062 H 
ATOM     19  C   LIG d   1       6.820  -4.575  -5.416  0.00  0.00    -0.062 A 
ATOM     20  H   LIG d   1       5.059  -5.787  -5.441  0.00  0.00     0.062 H 
ATOM     21  C   LIG d   1       7.354  -3.314  -5.623  0.00  0.00    -0.061 A 
ATOM     22  H   LIG d   1       7.463  -5.386  -5.108  0.00  0.00     0.062 H 
ATOM     23  C   LIG d   1       6.537  -2.272  -6.011  0.00  0.00    -0.054 A 
ATOM     24  H   LIG d   1       8.410  -3.145  -5.474  0.00  0.00     0.062 H 
ATOM     25  H   LIG d   1       6.954  -1.288  -6.167  0.00  0.00     0.062 H 
ENDBRANCH   7  15
BRANCH   8  26
ATOM     26  C   LIG d   1       4.077  -0.633  -4.257  0.00  0.00    -0.010 A 
ATOM     27  C   LIG d   1       4.988   0.230  -3.647  0.00  0.00    -0.054 A 
ATOM     28  C   LIG d   1       5.272   0.093  -2.304  0.00  0.00    -0.061 A 
ATOM     29  H   LIG d   1       5.469   1.005  -4.225  0.00  0.00     0.062 H 
ATOM     30  C   LIG d   1       4.656  -0.898  -1.561  0.00  0.00    -0.062 A 
ATOM     31  H   LIG d   1       5.977   0.761  -1.831  0.00  0.00     0.062 H 
ATOM     32  C   LIG d   1       3.752  -1.759  -2.160  0.00  0.00    -0.061 A 
ATOM     33  H   LIG d   1       4.882  -1.002  -0.510  0.00  0.00     0.062 H 
ATOM     34  C   LIG d   1       3.455  -1.628  -3.501  0.00  0.00    -0.054 A 
ATOM     35  H   LIG d   1       3.276  -2.532  -1.575  0.00  0.00     0.062 H 
ATOM     36  H   LIG d   1       2.746  -2.297  -3.966  0.00  0.00     0.062 H 
ENDBRANCH   8  26
BRANCH   1  37
ATOM     37  C   LIG d   1       4.661  -2.767 -11.406  0.00  0.00    -0.040 C 
ATOM     38  H   LIG d   1       5.514  -3.318 -11.007  0.00  0.00     0.028 H 
ATOM     39  H   LIG d   1       3.883  -3.469 -11.707  0.00  0.00     0.028 H 
ATOM     40  H   LIG d   1       4.978  -2.184 -12.271  0.00  0.00     0.028 H 
ENDBRANCH   1  37
TORSDOF 3
ENDMDL
MODEL 4
REMARK VINA RESULT:      -6.3      1.923      4.926
REMARK  3 active torsions:
REMARK  status: ('A' for Active; 'I' for Inactive)
REMARK    1  A    between atoms: C_1  and  C_2 
REMARK    2  A    between atoms: C_8  and  C_19 
REMARK    3  A    between atoms: C_9  and  C_13 
ROOT
ATOM      1  C   LIG d   1       4.421  -5.789  -6.941  0.00  0.00    -0.050 A 
ATOM      2  C   LIG d   1       4.777  -5.703  -5.603  0.00  0.00    -0.055 A 
ATOM      3  C   LIG d   1       4.959  -4.477  -5.001  0.00  0.00    -0.018 A 
ATOM      4  C   LIG d   1       4.769  -3.307  -5.730  0.00  0.00     0.140 A 
ATOM      5  C   LIG d   1       4.403  -3.393  -7.082  0.00  0.00     0.026 A 
ATOM      6  C   LIG d   1       4.233  -4.644  -7.683  0.00  0.00    -0.048 A 
ATOM      7  C   LIG d   1       4.206  -2.158  -7.860  0.00  0.00     0.007 A 
ATOM      8  C   LIG d   1       4.384  -0.941  -7.206  0.00  0.00     0.075 A 
ATOM      9  C   LIG d   1       4.759  -0.951  -5.793  0.00  0.00     0.346 A 
ATOM     10  O   LIG d   1       4.918   0.104  -5.206  0.00  0.00    -0.244 OA
ATOM     11  O   LIG d   1       4.931  -2.107  -5.134  0.00  0.00    -0.422 OA
ATOM     12  H   LIG d   1       4.923  -6.607  -5.030  0.00  0.00     0.062 H 
ATOM     13  H   LIG d   1       5.237  -4.422  -3.959  0.00  0.00     0.065 H 
ATOM     14  H   LIG d   1       3.956  -4.712  -8.724  0.00  0.00     0.063 H 
ENDROOT
BRANCH   7  15
ATOM     15  C   LIG d   1       3.826  -2.209  -9.287  0.00  0.00    -0.016 A 
ATOM     16  C   LIG d   1       2.480  -2.202  -9.656  0.00  0.00    -0.054 A 
ATOM     17  C   LIG d   1       2.133  -2.250 -10.990  0.00  0.00    -0.061 A 
ATOM     18  H   LIG d   1       1.711  -2.161  -8.898  0.00  0.00     0.062 H 
ATOM     19  C   LIG d   1       3.116  -2.304 -11.962  0.00  0.00    -0.062 A 
ATOM     20  H   LIG d   1       1.092  -2.245 -11.277  0.00  0.00     0.062 H 
ATOM     21  C   LIG d   1       4.454  -2.308 -11.604  0.00  0.00    -0.061 A 
ATOM     22  H   LIG d   1       2.840  -2.341 -13.005  0.00  0.00     0.062 H 
ATOM     23  C   LIG d   1       4.814  -2.267 -10.273  0.00  0.00    -0.054 A 
ATOM     24  H   LIG d   1       5.216  -2.351 -12.367  0.00  0.00     0.062 H 
ATOM     25  H   LIG d   1       5.858  -2.277  -9.995  0.00  0.00     0.062 H 
ENDBRANCH   7  15
BRANCH   8  26
ATOM     26  C   LIG d   1       4.196   0.337  -7.928  0.00  0.00    -0.010 A 
ATOM     27  C   LIG d   1       2.941   0.943  -7.966  0.00  0.00    -0.054 A 
ATOM     28  C   LIG d   1       2.772   2.135  -8.640  0.00  0.00    -0.061 A 
ATOM     29  H   LIG d   1       2.101   0.481  -7.468  0.00  0.00     0.062 H 
ATOM     30  C   LIG d   1       3.846   2.730  -9.278  0.00  0.00    -0.062 A 
ATOM     31  H   LIG d   1       1.800   2.605  -8.669  0.00  0.00     0.062 H 
ATOM     32  C   LIG d   1       5.095   2.134  -9.246  0.00  0.00    -0.061 A 
ATOM     33  H   LIG d   1       3.709   3.663  -9.805  0.00  0.00     0.062 H 
ATOM     34  C   LIG d   1       5.277   0.945  -8.569  0.00  0.00    -0.054 A 
ATOM     35  H   LIG d   1       5.928   2.602  -9.747  0.00  0.00     0.062 H 
ATOM     36  H   LIG d   1       6.253   0.483  -8.541  0.00  0.00     0.062 H 
ENDBRANCH   8  26
BRANCH   1  37
ATOM     37  C   LIG d   1       4.238  -7.138  -7.584  0.00  0.00    -0.040 C 
ATOM     38  H   LIG d   1       4.862  -7.203  -8.477  0.00  0.00     0.028 H 
ATOM     39  H   LIG d   1       4.527  -7.919  -6.881  0.00  0.00     0.028 H 
ATOM     40  H   LIG d   1       3.192  -7.270  -7.863  0.00  0.00     0.028 H 
ENDBRANCH   1  37
TORSDOF 3
ENDMDL
MODEL 5
REMARK VINA RESULT:      -6.3      4.305      6.168
REMARK  3 active torsions:
REMARK  status: ('A' for Active; 'I' for Inactive)
REMARK    1  A    between atoms: C_1  and  C_2 
REMARK    2  A    between atoms: C_8  and  C_19 
REMARK    3  A    between atoms: C_9  and  C_13 
ROOT
ATOM      1  C   LIG d   1       4.494  -1.252  -2.464  0.00  0.00    -0.050 A 
ATOM      2  C   LIG d   1       4.213   0.008  -1.958  0.00  0.00    -0.055 A 
ATOM      3  C   LIG d   1       5.016   1.085  -2.271  0.00  0.00    -0.018 A 
ATOM      4  C   LIG d   1       6.108   0.919  -3.114  0.00  0.00     0.140 A 
ATOM      5  C   LIG d   1       6.389  -0.355  -3.631  0.00  0.00     0.026 A 
ATOM      6  C   LIG d   1       5.574  -1.441  -3.296  0.00  0.00    -0.048 A 
ATOM      7  C   LIG d   1       7.549  -0.538  -4.520  0.00  0.00     0.007 A 
ATOM      8  C   LIG d   1       8.322   0.581  -4.822  0.00  0.00     0.075 A 
ATOM      9  C   LIG d   1       7.948   1.870  -4.241  0.00  0.00     0.346 A 
ATOM     10  O   LIG d   1       8.611   2.859  -4.495  0.00  0.00    -0.244 OA
ATOM     11  O   LIG d   1       6.882   1.978  -3.432  0.00  0.00    -0.422 OA
ATOM     12  H   LIG d   1       3.364   0.146  -1.305  0.00  0.00     0.062 H 
ATOM     13  H   LIG d   1       4.788   2.062  -1.870  0.00  0.00     0.065 H 
ATOM     14  H   LIG d   1       5.791  -2.423  -3.689  0.00  0.00     0.063 H 
ENDROOT
BRANCH   7  15
ATOM     15  C   LIG d   1       7.879  -1.865  -5.078  0.00  0.00    -0.016 A 
ATOM     16  C   LIG d   1       8.692  -2.745  -4.361  0.00  0.00    -0.054 A 
ATOM     17  C   LIG d   1       8.998  -3.983  -4.889  0.00  0.00    -0.061 A 
ATOM     18  H   LIG d   1       9.083  -2.458  -3.397  0.00  0.00     0.062 H 
ATOM     19  C   LIG d   1       8.500  -4.353  -6.125  0.00  0.00    -0.062 A 
ATOM     20  H   LIG d   1       9.627  -4.665  -4.335  0.00  0.00     0.062 H 
ATOM     21  C   LIG d   1       7.691  -3.487  -6.841  0.00  0.00    -0.061 A 
ATOM     22  H   LIG d   1       8.740  -5.323  -6.534  0.00  0.00     0.062 H 
ATOM     23  C   LIG d   1       7.383  -2.244  -6.328  0.00  0.00    -0.054 A 
ATOM     24  H   LIG d   1       7.305  -3.782  -7.805  0.00  0.00     0.062 H 
ATOM     25  H   LIG d   1       6.757  -1.567  -6.890  0.00  0.00     0.062 H 
ENDBRANCH   7  15
BRANCH   8  26
ATOM     26  C   LIG d   1       9.497   0.467  -5.713  0.00  0.00    -0.010 A 
ATOM     27  C   LIG d   1       9.357   0.664  -7.087  0.00  0.00    -0.054 A 
ATOM     28  C   LIG d   1      10.457   0.558  -7.913  0.00  0.00    -0.061 A 
ATOM     29  H   LIG d   1       8.389   0.900  -7.504  0.00  0.00     0.062 H 
ATOM     30  C   LIG d   1      11.698   0.256  -7.382  0.00  0.00    -0.062 A 
ATOM     31  H   LIG d   1      10.349   0.710  -8.977  0.00  0.00     0.062 H 
ATOM     32  C   LIG d   1      11.845   0.059  -6.019  0.00  0.00    -0.061 A 
ATOM     33  H   LIG d   1      12.556   0.174  -8.032  0.00  0.00     0.062 H 
ATOM     34  C   LIG d   1      10.753   0.169  -5.182  0.00  0.00    -0.054 A 
ATOM     35  H   LIG d   1      12.815  -0.177  -5.610  0.00  0.00     0.062 H 
ATOM     36  H   LIG d   1      10.869   0.019  -4.119  0.00  0.00     0.062 H 
ENDBRANCH   8  26
BRANCH   1  37
ATOM     37  C   LIG d   1       3.613  -2.419  -2.102  0.00  0.00    -0.040 C 
ATOM     38  H   LIG d   1       2.844  -2.546  -2.865  0.00  0.00     0.028 H 
ATOM     39  H   LIG d   1       4.216  -3.325  -2.039  0.00  0.00     0.028 H 
ATOM     40  H   LIG d   1       3.139  -2.232  -1.138  0.00  0.00     0.028 H 
ENDBRANCH   1  37
TORSDOF 3
ENDMDL
MODEL 6
REMARK VINA RESULT:      -6.2      2.535      4.099
REMARK  3 active torsions:
REMARK  status: ('A' for Active; 'I' for Inactive)
REMARK    1  A    between atoms: C_1  and  C_2 
REMARK    2  A    between atoms: C_8  and  C_19 
REMARK    3  A    between atoms: C_9  and  C_13 
ROOT
ATOM      1  C   LIG d   1       3.714  -1.314  -3.689  0.00  0.00    -0.050 A 
ATOM      2  C   LIG d   1       3.125  -0.110  -3.332  0.00  0.00    -0.055 A 
ATOM      3  C   LIG d   1       2.794   0.822  -4.292  0.00  0.00    -0.018 A 
ATOM      4  C   LIG d   1       3.034   0.555  -5.636  0.00  0.00     0.140 A 
ATOM      5  C   LIG d   1       3.624  -0.665  -5.998  0.00  0.00     0.026 A 
ATOM      6  C   LIG d   1       3.965  -1.597  -5.013  0.00  0.00    -0.048 A 
ATOM      7  C   LIG d   1       3.886  -0.951  -7.419  0.00  0.00     0.007 A 
ATOM      8  C   LIG d   1       3.520   0.012  -8.356  0.00  0.00     0.075 A 
ATOM      9  C   LIG d   1       2.904   1.252  -7.884  0.00  0.00     0.346 A 
ATOM     10  O   LIG d   1       2.577   2.105  -8.689  0.00  0.00    -0.244 OA
ATOM     11  O   LIG d   1       2.694   1.463  -6.575  0.00  0.00    -0.422 OA
ATOM     12  H   LIG d   1       2.932   0.103  -2.291  0.00  0.00     0.062 H 
ATOM     13  H   LIG d   1       2.337   1.757  -4.003  0.00  0.00     0.065 H 
ATOM     14  H   LIG d   1       4.424  -2.534  -5.289  0.00  0.00     0.063 H 
ENDROOT
BRANCH   7  15
ATOM     15  C   LIG d   1       4.512  -2.222  -7.838  0.00  0.00    -0.016 A 
ATOM     16  C   LIG d   1       3.718  -3.293  -8.253  0.00  0.00    -0.054 A 
ATOM     17  C   LIG d   1       4.309  -4.477  -8.642  0.00  0.00    -0.061 A 
ATOM     18  H   LIG d   1       2.642  -3.195  -8.268  0.00  0.00     0.062 H 
ATOM     19  C   LIG d   1       5.687  -4.605  -8.622  0.00  0.00    -0.062 A 
ATOM     20  H   LIG d   1       3.696  -5.306  -8.963  0.00  0.00     0.062 H 
ATOM     21  C   LIG d   1       6.481  -3.547  -8.214  0.00  0.00    -0.061 A 
ATOM     22  H   LIG d   1       6.145  -5.533  -8.929  0.00  0.00     0.062 H 
ATOM     23  C   LIG d   1       5.902  -2.359  -7.816  0.00  0.00    -0.054 A 
ATOM     24  H   LIG d   1       7.555  -3.653  -8.201  0.00  0.00     0.062 H 
ATOM     25  H   LIG d   1       6.523  -1.537  -7.493  0.00  0.00     0.062 H 
ENDBRANCH   7  15
BRANCH   8  26
ATOM     26  C   LIG d   1       3.750  -0.214  -9.800  0.00  0.00    -0.010 A 
ATOM     27  C   LIG d   1       4.999   0.050 -10.361  0.00  0.00    -0.054 A 
ATOM     28  C   LIG d   1       5.207  -0.164 -11.708  0.00  0.00    -0.061 A 
ATOM     29  H   LIG d   1       5.802   0.423  -9.742  0.00  0.00     0.062 H 
ATOM     30  C   LIG d   1       4.180  -0.641 -12.503  0.00  0.00    -0.062 A 
ATOM     31  H   LIG d   1       6.174   0.041 -12.143  0.00  0.00     0.062 H 
ATOM     32  C   LIG d   1       2.938  -0.906 -11.953  0.00  0.00    -0.061 A 
ATOM     33  H   LIG d   1       4.348  -0.807 -13.557  0.00  0.00     0.062 H 
ATOM     34  C   LIG d   1       2.719  -0.701 -10.605  0.00  0.00    -0.054 A 
ATOM     35  H   LIG d   1       2.139  -1.276 -12.578  0.00  0.00     0.062 H 
ATOM     36  H   LIG d   1       1.751  -0.912 -10.177  0.00  0.00     0.062 H 
ENDBRANCH   8  26
BRANCH   1  37
ATOM     37  C   LIG d   1       4.079  -2.315  -2.625  0.00  0.00    -0.040 C 
ATOM     38  H   LIG d   1       3.246  -2.429  -1.931  0.00  0.00     0.028 H 
ATOM     39  H   LIG d   1       4.300  -3.277  -3.090  0.00  0.00     0.028 H 
ATOM     40  H   LIG d   1       4.958  -1.965  -2.082  0.00  0.00     0.028 H 
ENDBRANCH   1  37
TORSDOF 3
ENDMDL
MODEL 7
REMARK VINA RESULT:      -5.8      2.029      3.968
REMARK  3 active torsions:
REMARK  status: ('A' for Active; 'I' for Inactive)
REMARK    1  A    between atoms: C_1  and  C_2 
REMARK    2  A    between atoms: C_8  and  C_19 
REMARK    3  A    between atoms: C_9  and  C_13 
ROOT
ATOM      1  C   LIG d   1       4.105  -0.736  -2.828  0.00  0.00    -0.050 A 
ATOM      2  C   LIG d   1       3.357   0.430  -2.904  0.00  0.00    -0.055 A 
ATOM      3  C   LIG d   1       2.926   0.910  -4.122  0.00  0.00    -0.018 A 
ATOM      4  C   LIG d   1       3.224   0.216  -5.290  0.00  0.00     0.140 A 
ATOM      5  C   LIG d   1       3.974  -0.967  -5.213  0.00  0.00     0.026 A 
ATOM      6  C   LIG d   1       4.416  -1.436  -3.972  0.00  0.00    -0.048 A 
ATOM      7  C   LIG d   1       4.297  -1.703  -6.447  0.00  0.00     0.007 A 
ATOM      8  C   LIG d   1       3.826  -1.190  -7.654  0.00  0.00     0.075 A 
ATOM      9  C   LIG d   1       3.046   0.046  -7.634  0.00  0.00     0.346 A 
ATOM     10  O   LIG d   1       2.625   0.508  -8.680  0.00  0.00    -0.244 OA
ATOM     11  O   LIG d   1       2.786   0.679  -6.480  0.00  0.00    -0.422 OA
ATOM     12  H   LIG d   1       3.120   0.972  -2.001  0.00  0.00     0.062 H 
ATOM     13  H   LIG d   1       2.346   1.819  -4.169  0.00  0.00     0.065 H 
ATOM     14  H   LIG d   1       4.998  -2.343  -3.911  0.00  0.00     0.063 H 
ENDROOT
BRANCH   7  15
ATOM     15  C   LIG d   1       5.091  -2.948  -6.407  0.00  0.00    -0.016 A 
ATOM     16  C   LIG d   1       4.456  -4.180  -6.240  0.00  0.00    -0.054 A 
ATOM     17  C   LIG d   1       5.204  -5.339  -6.202  0.00  0.00    -0.061 A 
ATOM     18  H   LIG d   1       3.382  -4.226  -6.138  0.00  0.00     0.062 H 
ATOM     19  C   LIG d   1       6.580  -5.282  -6.330  0.00  0.00    -0.062 A 
ATOM     20  H   LIG d   1       4.714  -6.293  -6.072  0.00  0.00     0.062 H 
ATOM     21  C   LIG d   1       7.217  -4.064  -6.499  0.00  0.00    -0.061 A 
ATOM     22  H   LIG d   1       7.162  -6.191  -6.301  0.00  0.00     0.062 H 
ATOM     23  C   LIG d   1       6.482  -2.897  -6.532  0.00  0.00    -0.054 A 
ATOM     24  H   LIG d   1       8.292  -4.027  -6.598  0.00  0.00     0.062 H 
ATOM     25  H   LIG d   1       6.980  -1.947  -6.658  0.00  0.00     0.062 H 
ENDBRANCH   7  15
BRANCH   8  26
ATOM     26  C   LIG d   1       4.110  -1.883  -8.930  0.00  0.00    -0.010 A 
ATOM     27  C   LIG d   1       3.233  -2.855  -9.411  0.00  0.00    -0.054 A 
ATOM     28  C   LIG d   1       3.502  -3.497 -10.602  0.00  0.00    -0.061 A 
ATOM     29  H   LIG d   1       2.343  -3.104  -8.852  0.00  0.00     0.062 H 
ATOM     30  C   LIG d   1       4.642  -3.179 -11.320  0.00  0.00    -0.062 A 
ATOM     31  H   LIG d   1       2.823  -4.249 -10.974  0.00  0.00     0.062 H 
ATOM     32  C   LIG d   1       5.517  -2.216 -10.849  0.00  0.00    -0.061 A 
ATOM     33  H   LIG d   1       4.849  -3.684 -12.251  0.00  0.00     0.062 H 
ATOM     34  C   LIG d   1       5.255  -1.562  -9.662  0.00  0.00    -0.054 A 
ATOM     35  H   LIG d   1       6.405  -1.973 -11.413  0.00  0.00     0.062 H 
ATOM     36  H   LIG d   1       5.937  -0.808  -9.298  0.00  0.00     0.062 H 
ENDBRANCH   8  26
BRANCH   1  37
ATOM     37  C   LIG d   1       4.578  -1.239  -1.489  0.00  0.00    -0.040 C 
ATOM     38  H   LIG d   1       3.753  -1.205  -0.776  0.00  0.00     0.028 H 
ATOM     39  H   LIG d   1       4.930  -2.266  -1.589  0.00  0.00     0.028 H 
ATOM     40  H   LIG d   1       5.393  -0.609  -1.131  0.00  0.00     0.028 H 
ENDBRANCH   1  37
TORSDOF 3
ENDMDL
MODEL 8
REMARK VINA RESULT:      -5.8      3.929      6.682
REMARK  3 active torsions:
REMARK  status: ('A' for Active; 'I' for Inactive)
REMARK    1  A    between atoms: C_1  and  C_2 
REMARK    2  A    between atoms: C_8  and  C_19 
REMARK    3  A    between atoms: C_9  and  C_13 
ROOT
ATOM      1  C   LIG d   1      10.905  -1.015  -6.674  0.00  0.00    -0.050 A 
ATOM      2  C   LIG d   1      11.392   0.208  -6.237  0.00  0.00    -0.055 A 
ATOM      3  C   LIG d   1      10.627   1.021  -5.428  0.00  0.00    -0.018 A 
ATOM      4  C   LIG d   1       9.360   0.612  -5.027  0.00  0.00     0.140 A 
ATOM      5  C   LIG d   1       8.869  -0.628  -5.463  0.00  0.00     0.026 A 
ATOM      6  C   LIG d   1       9.651  -1.437  -6.293  0.00  0.00    -0.048 A 
ATOM      7  C   LIG d   1       7.526  -1.064  -5.046  0.00  0.00     0.007 A 
ATOM      8  C   LIG d   1       6.795  -0.219  -4.215  0.00  0.00     0.075 A 
ATOM      9  C   LIG d   1       7.392   1.052  -3.806  0.00  0.00     0.346 A 
ATOM     10  O   LIG d   1       6.768   1.803  -3.078  0.00  0.00    -0.244 OA
ATOM     11  O   LIG d   1       8.620   1.402  -4.221  0.00  0.00    -0.422 OA
ATOM     12  H   LIG d   1      12.377   0.532  -6.542  0.00  0.00     0.062 H 
ATOM     13  H   LIG d   1      11.017   1.972  -5.095  0.00  0.00     0.065 H 
ATOM     14  H   LIG d   1       9.273  -2.389  -6.635  0.00  0.00     0.063 H 
ENDROOT
BRANCH   7  15
ATOM     15  C   LIG d   1       6.973  -2.360  -5.491  0.00  0.00    -0.016 A 
ATOM     16  C   LIG d   1       6.182  -2.428  -6.640  0.00  0.00    -0.054 A 
ATOM     17  C   LIG d   1       5.668  -3.641  -7.049  0.00  0.00    -0.061 A 
ATOM     18  H   LIG d   1       5.972  -1.533  -7.206  0.00  0.00     0.062 H 
ATOM     19  C   LIG d   1       5.935  -4.789  -6.324  0.00  0.00    -0.062 A 
ATOM     20  H   LIG d   1       5.056  -3.695  -7.938  0.00  0.00     0.062 H 
ATOM     21  C   LIG d   1       6.720  -4.730  -5.185  0.00  0.00    -0.061 A 
ATOM     22  H   LIG d   1       5.531  -5.737  -6.649  0.00  0.00     0.062 H 
ATOM     23  C   LIG d   1       7.235  -3.522  -4.761  0.00  0.00    -0.054 A 
ATOM     24  H   LIG d   1       6.925  -5.629  -4.624  0.00  0.00     0.062 H 
ATOM     25  H   LIG d   1       7.843  -3.476  -3.870  0.00  0.00     0.062 H 
ENDBRANCH   7  15
BRANCH   8  26
ATOM     26  C   LIG d   1       5.441  -0.599  -3.754  0.00  0.00    -0.010 A 
ATOM     27  C   LIG d   1       5.285  -1.420  -2.638  0.00  0.00    -0.054 A 
ATOM     28  C   LIG d   1       4.020  -1.770  -2.212  0.00  0.00    -0.061 A 
ATOM     29  H   LIG d   1       6.154  -1.781  -2.106  0.00  0.00     0.062 H 
ATOM     30  C   LIG d   1       2.907  -1.310  -2.892  0.00  0.00    -0.062 A 
ATOM     31  H   LIG d   1       3.899  -2.406  -1.348  0.00  0.00     0.062 H 
ATOM     32  C   LIG d   1       3.054  -0.495  -4.001  0.00  0.00    -0.061 A 
ATOM     33  H   LIG d   1       1.918  -1.587  -2.556  0.00  0.00     0.062 H 
ATOM     34  C   LIG d   1       4.314  -0.132  -4.432  0.00  0.00    -0.054 A 
ATOM     35  H   LIG d   1       2.181  -0.139  -4.528  0.00  0.00     0.062 H 
ATOM     36  H   LIG d   1       4.427   0.507  -5.295  0.00  0.00     0.062 H 
ENDBRANCH   8  26
BRANCH   1  37
ATOM     37  C   LIG d   1      11.751  -1.884  -7.568  0.00  0.00    -0.040 C 
ATOM     38  H   LIG d   1      12.718  -1.406  -7.731  0.00  0.00     0.028 H 
ATOM     39  H   LIG d   1      11.900  -2.855  -7.095  0.00  0.00     0.028 H 
ATOM     40  H   LIG d   1      11.247  -2.019  -8.525  0.00  0.00     0.028 H 
ENDBRANCH   1  37
TORSDOF 3
ENDMDL
MODEL 9
REMARK VINA RESULT:      -5.8      4.659      6.418
REMARK  3 active torsions:
REMARK  status: ('A' for Active; 'I' for Inactive)
REMARK    1  A    between atoms: C_1  and  C_2 
REMARK    2  A    between atoms: C_8  and  C_19 
REMARK    3  A    between atoms: C_9  and  C_13 
ROOT
ATOM      1  C   LIG d   1       4.754  -1.185  -2.610  0.00  0.00    -0.050 A 
ATOM      2  C   LIG d   1       4.659   0.192  -2.471  0.00  0.00    -0.055 A 
ATOM      3  C   LIG d   1       5.645   1.018  -2.968  0.00  0.00    -0.018 A 
ATOM      4  C   LIG d   1       6.739   0.475  -3.632  0.00  0.00     0.140 A 
ATOM      5  C   LIG d   1       6.833  -0.917  -3.779  0.00  0.00     0.026 A 
ATOM      6  C   LIG d   1       5.832  -1.744  -3.259  0.00  0.00    -0.048 A 
ATOM      7  C   LIG d   1       7.993  -1.498  -4.476  0.00  0.00     0.007 A 
ATOM      8  C   LIG d   1       8.956  -0.625  -4.977  0.00  0.00     0.075 A 
ATOM      9  C   LIG d   1       8.770   0.812  -4.782  0.00  0.00     0.346 A 
ATOM     10  O   LIG d   1       9.601   1.590  -5.215  0.00  0.00    -0.244 OA
ATOM     11  O   LIG d   1       7.695   1.287  -4.133  0.00  0.00    -0.422 OA
ATOM     12  H   LIG d   1       3.810   0.621  -1.959  0.00  0.00     0.062 H 
ATOM     13  H   LIG d   1       5.561   2.089  -2.853  0.00  0.00     0.065 H 
ATOM     14  H   LIG d   1       5.903  -2.815  -3.366  0.00  0.00     0.063 H 
ENDROOT
BRANCH   7  15
ATOM     15  C   LIG d   1       8.128  -2.959  -4.643  0.00  0.00    -0.016 A 
ATOM     16  C   LIG d   1       7.583  -3.591  -5.762  0.00  0.00    -0.054 A 
ATOM     17  C   LIG d   1       7.713  -4.957  -5.912  0.00  0.00    -0.061 A 
ATOM     18  H   LIG d   1       7.059  -3.013  -6.509  0.00  0.00     0.062 H 
ATOM     19  C   LIG d   1       8.383  -5.699  -4.956  0.00  0.00    -0.062 A 
ATOM     20  H   LIG d   1       7.291  -5.447  -6.777  0.00  0.00     0.062 H 
ATOM     21  C   LIG d   1       8.928  -5.079  -3.845  0.00  0.00    -0.061 A 
ATOM     22  H   LIG d   1       8.483  -6.768  -5.077  0.00  0.00     0.062 H 
ATOM     23  C   LIG d   1       8.800  -3.716  -3.680  0.00  0.00    -0.054 A 
ATOM     24  H   LIG d   1       9.449  -5.665  -3.102  0.00  0.00     0.062 H 
ATOM     25  H   LIG d   1       9.221  -3.234  -2.810  0.00  0.00     0.062 H 
ENDBRANCH   7  15
BRANCH   8  26
ATOM     26  C   LIG d   1      10.143  -1.142  -5.693  0.00  0.00    -0.010 A 
ATOM     27  C   LIG d   1      11.302  -1.463  -4.987  0.00  0.00    -0.054 A 
ATOM     28  C   LIG d   1      12.406  -1.946  -5.660  0.00  0.00    -0.061 A 
ATOM     29  H   LIG d   1      11.337  -1.334  -3.915  0.00  0.00     0.062 H 
ATOM     30  C   LIG d   1      12.364  -2.112  -7.033  0.00  0.00    -0.062 A 
ATOM     31  H   LIG d   1      13.304  -2.194  -5.114  0.00  0.00     0.062 H 
ATOM     32  C   LIG d   1      11.217  -1.796  -7.740  0.00  0.00    -0.061 A 
ATOM     33  H   LIG d   1      13.230  -2.491  -7.556  0.00  0.00     0.062 H 
ATOM     34  C   LIG d   1      10.105  -1.318  -7.077  0.00  0.00    -0.054 A 
ATOM     35  H   LIG d   1      11.191  -1.926  -8.811  0.00  0.00     0.062 H 
ATOM     36  H   LIG d   1       9.209  -1.075  -7.629  0.00  0.00     0.062 H 
ENDBRANCH   8  26
BRANCH   1  37
ATOM     37  C   LIG d   1       3.673  -2.071  -2.049  0.00  0.00    -0.040 C 
ATOM     38  H   LIG d   1       3.145  -2.564  -2.867  0.00  0.00     0.028 H 
ATOM     39  H   LIG d   1       4.120  -2.824  -1.399  0.00  0.00     0.028 H 
ATOM     40  H   LIG d   1       2.969  -1.468  -1.474  0.00  0.00     0.028 H 
ENDBRANCH   1  37
TORSDOF 3
ENDMDL
MODEL 10
REMARK VINA RESULT:      -5.8      2.507      3.453
REMARK  3 active torsions:
REMARK  status: ('A' for Active; 'I' for Inactive)
REMARK    1  A    between atoms: C_1  and  C_2 
REMARK    2  A    between atoms: C_8  and  C_19 
REMARK    3  A    between atoms: C_9  and  C_13 
ROOT
ATOM      1  C   LIG d   1       4.684  -0.238  -2.367  0.00  0.00    -0.050 A 
ATOM      2  C   LIG d   1       3.853  -1.283  -1.991  0.00  0.00    -0.055 A 
ATOM      3  C   LIG d   1       3.852  -2.468  -2.695  0.00  0.00    -0.018 A 
ATOM      4  C   LIG d   1       4.701  -2.633  -3.784  0.00  0.00     0.140 A 
ATOM      5  C   LIG d   1       5.547  -1.579  -4.161  0.00  0.00     0.026 A 
ATOM      6  C   LIG d   1       5.529  -0.378  -3.445  0.00  0.00    -0.048 A 
ATOM      7  C   LIG d   1       6.444  -1.746  -5.317  0.00  0.00     0.007 A 
ATOM      8  C   LIG d   1       6.422  -2.966  -5.988  0.00  0.00     0.075 A 
ATOM      9  C   LIG d   1       5.512  -4.010  -5.518  0.00  0.00     0.346 A 
ATOM     10  O   LIG d   1       5.480  -5.083  -6.092  0.00  0.00    -0.244 OA
ATOM     11  O   LIG d   1       4.711  -3.801  -4.461  0.00  0.00    -0.422 OA
ATOM     12  H   LIG d   1       3.193  -1.164  -1.145  0.00  0.00     0.062 H 
ATOM     13  H   LIG d   1       3.200  -3.275  -2.394  0.00  0.00     0.065 H 
ATOM     14  H   LIG d   1       6.175   0.437  -3.737  0.00  0.00     0.063 H 
ENDROOT
BRANCH   7  15
ATOM     15  C   LIG d   1       7.343  -0.656  -5.748  0.00  0.00    -0.016 A 
ATOM     16  C   LIG d   1       6.920   0.265  -6.709  0.00  0.00    -0.054 A 
ATOM     17  C   LIG d   1       7.765   1.280  -7.107  0.00  0.00    -0.061 A 
ATOM     18  H   LIG d   1       5.934   0.181  -7.141  0.00  0.00     0.062 H 
ATOM     19  C   LIG d   1       9.030   1.387  -6.555  0.00  0.00    -0.062 A 
ATOM     20  H   LIG d   1       7.439   1.992  -7.851  0.00  0.00     0.062 H 
ATOM     21  C   LIG d   1       9.455   0.480  -5.600  0.00  0.00    -0.061 A 
ATOM     22  H   LIG d   1       9.688   2.184  -6.869  0.00  0.00     0.062 H 
ATOM     23  C   LIG d   1       8.623  -0.544  -5.198  0.00  0.00    -0.054 A 
ATOM     24  H   LIG d   1      10.443   0.570  -5.174  0.00  0.00     0.062 H 
ATOM     25  H   LIG d   1       8.958  -1.254  -4.457  0.00  0.00     0.062 H 
ENDBRANCH   7  15
BRANCH   8  26
ATOM     26  C   LIG d   1       7.302  -3.202  -7.154  0.00  0.00    -0.010 A 
ATOM     27  C   LIG d   1       6.855  -2.907  -8.442  0.00  0.00    -0.054 A 
ATOM     28  C   LIG d   1       7.681  -3.127  -9.524  0.00  0.00    -0.061 A 
ATOM     29  H   LIG d   1       5.863  -2.505  -8.591  0.00  0.00     0.062 H 
ATOM     30  C   LIG d   1       8.951  -3.641  -9.335  0.00  0.00    -0.062 A 
ATOM     31  H   LIG d   1       7.335  -2.899 -10.521  0.00  0.00     0.062 H 
ATOM     32  C   LIG d   1       9.402  -3.937  -8.060  0.00  0.00    -0.061 A 
ATOM     33  H   LIG d   1       9.595  -3.812 -10.186  0.00  0.00     0.062 H 
ATOM     34  C   LIG d   1       8.587  -3.714  -6.969  0.00  0.00    -0.054 A 
ATOM     35  H   LIG d   1      10.394  -4.338  -7.919  0.00  0.00     0.062 H 
ATOM     36  H   LIG d   1       8.941  -3.941  -5.974  0.00  0.00     0.062 H 
ENDBRANCH   8  26
BRANCH   1  37
ATOM     37  C   LIG d   1       4.662   1.054  -1.593  0.00  0.00    -0.040 C 
ATOM     38  H   LIG d   1       3.642   1.437  -1.553  0.00  0.00     0.028 H 
ATOM     39  H   LIG d   1       5.025   0.878  -0.580  0.00  0.00     0.028 H 
ATOM     40  H   LIG d   1       5.304   1.784  -2.086  0.00  0.00     0.028 H 
ENDBRANCH   1  37
TORSDOF 3
ENDMDL
