MODEL 1
REMARK VINA RESULT:      -5.1      0.000      0.000
REMARK  17 active torsions:
REMARK  status: ('A' for Active; 'I' for Inactive)
REMARK    1  A    between atoms: C_1  and  C_2 
REMARK    2  A    between atoms: C_2  and  C_3 
REMARK    3  A    between atoms: C_3  and  C_4 
REMARK    4  A    between atoms: C_4  and  O_5 
REMARK    5  A    between atoms: O_5  and  C_6 
REMARK    6  A    between atoms: C_8  and  N_30 
REMARK    7  A    between atoms: C_10  and  O_26 
REMARK    8  A    between atoms: C_12  and  O_22 
REMARK    9  A    between atoms: C_14  and  C_17 
REMARK   10  A    between atoms: C_17  and  O_18 
REMARK   11  A    between atoms: O_18  and  C_19 
REMARK   12  A    between atoms: C_19  and  C_21 
REMARK   13  A    between atoms: O_22  and  C_23 
REMARK   14  A    between atoms: C_23  and  C_25 
REMARK   15  A    between atoms: O_26  and  C_27 
REMARK   16  A    between atoms: C_27  and  C_29 
REMARK       I    between atoms: N_30  and  C_31 
REMARK   17  A    between atoms: C_31  and  C_33 
ROOT
ATOM      1  C   LIG d   1       4.046  -0.209  -7.076  0.00  0.00     0.181 C 
ATOM      2  H   LIG d   1       5.008   0.056  -7.515  0.00  0.00     0.093 H 
ATOM      3  C   LIG d   1       4.271  -0.832  -5.695  0.00  0.00     0.115 C 
ATOM      4  H   LIG d   1       3.308  -1.060  -5.238  0.00  0.00     0.059 H 
ATOM      5  C   LIG d   1       5.081  -2.123  -5.852  0.00  0.00     0.165 C 
ATOM      6  H   LIG d   1       6.064  -1.890  -6.264  0.00  0.00     0.079 H 
ATOM      7  C   LIG d   1       4.338  -3.067  -6.803  0.00  0.00     0.171 C 
ATOM      8  H   LIG d   1       3.377  -3.339  -6.367  0.00  0.00     0.080 H 
ATOM      9  C   LIG d   1       4.111  -2.357  -8.140  0.00  0.00     0.136 C 
ATOM     10  H   LIG d   1       5.073  -2.121  -8.595  0.00  0.00     0.067 H 
ATOM     11  O   LIG d   1       3.379  -1.150  -7.919  0.00  0.00    -0.339 OA
ENDROOT
BRANCH   1  12
ATOM     12  O   LIG d   1       3.243   0.966  -6.943  0.00  0.00    -0.349 OA
BRANCH  12  13
ATOM     13  C   LIG d   1       2.762   1.483  -8.186  0.00  0.00     0.051 C 
ATOM     14  H   LIG d   1       1.985   2.223  -7.995  0.00  0.00     0.056 H 
ATOM     15  H   LIG d   1       2.350   0.670  -8.783  0.00  0.00     0.056 H 
BRANCH  13  16
ATOM     16  C   LIG d   1       3.916   2.139  -8.945  0.00  0.00    -0.030 C 
ATOM     17  H   LIG d   1       3.876   3.220  -8.805  0.00  0.00     0.029 H 
ATOM     18  H   LIG d   1       4.864   1.758  -8.566  0.00  0.00     0.029 H 
BRANCH  16  19
ATOM     19  C   LIG d   1       3.797   1.814 -10.435  0.00  0.00    -0.054 C 
ATOM     20  H   LIG d   1       2.755   1.599 -10.678  0.00  0.00     0.026 H 
ATOM     21  H   LIG d   1       4.137   2.668 -11.022  0.00  0.00     0.026 H 
BRANCH  19  22
ATOM     22  C   LIG d   1       4.660   0.596 -10.764  0.00  0.00    -0.065 C 
ATOM     23  H   LIG d   1       5.157   0.247  -9.858  0.00  0.00     0.023 H 
ATOM     24  H   LIG d   1       4.029  -0.201 -11.159  0.00  0.00     0.023 H 
ATOM     25  H   LIG d   1       5.409   0.869 -11.507  0.00  0.00     0.023 H 
ENDBRANCH  19  22
ENDBRANCH  16  19
ENDBRANCH  13  16
ENDBRANCH  12  13
ENDBRANCH   1  12
BRANCH   3  26
ATOM     26  N   LIG d   1       5.007   0.108  -4.848  0.00  0.00    -0.304 N 
ATOM     27  C   LIG d   1       4.526   0.440  -3.633  0.00  0.00     0.210 C 
ATOM     28  O   LIG d   1       3.484  -0.041  -3.242  0.00  0.00    -0.276 OA
ATOM     29  H   LIG d   1       5.842   0.492  -5.161  0.00  0.00     0.149 HD
BRANCH  27  30
ATOM     30  C   LIG d   1       5.284   1.407  -2.762  0.00  0.00     0.012 C 
ATOM     31  H   LIG d   1       5.035   1.227  -1.716  0.00  0.00     0.032 H 
ATOM     32  H   LIG d   1       6.355   1.267  -2.909  0.00  0.00     0.032 H 
ATOM     33  H   LIG d   1       5.011   2.429  -3.029  0.00  0.00     0.032 H 
ENDBRANCH  27  30
ENDBRANCH   3  26
BRANCH   9  34
ATOM     34  C   LIG d   1       3.317  -3.273  -9.075  0.00  0.00     0.122 C 
ATOM     35  H   LIG d   1       3.922  -4.140  -9.335  0.00  0.00     0.072 H 
ATOM     36  H   LIG d   1       2.406  -3.601  -8.573  0.00  0.00     0.072 H 
BRANCH  34  37
ATOM     37  O   LIG d   1       2.968  -2.545 -10.283  0.00  0.00    -0.462 OA
BRANCH  37  38
ATOM     38  C   LIG d   1       1.666  -2.294 -10.488  0.00  0.00     0.304 C 
ATOM     39  O   LIG d   1       0.855  -3.185 -10.385  0.00  0.00    -0.251 OA
BRANCH  38  40
ATOM     40  C   LIG d   1       1.214  -0.902 -10.845  0.00  0.00     0.033 C 
ATOM     41  H   LIG d   1       0.529  -0.948 -11.692  0.00  0.00     0.034 H 
ATOM     42  H   LIG d   1       0.704  -0.455  -9.991  0.00  0.00     0.034 H 
ATOM     43  H   LIG d   1       2.080  -0.295 -11.110  0.00  0.00     0.034 H 
ENDBRANCH  38  40
ENDBRANCH  37  38
ENDBRANCH  34  37
ENDBRANCH   9  34
BRANCH   5  44
ATOM     44  O   LIG d   1       5.235  -2.760  -4.557  0.00  0.00    -0.456 OA
BRANCH  44  45
ATOM     45  C   LIG d   1       6.470  -2.779  -4.031  0.00  0.00     0.304 C 
ATOM     46  O   LIG d   1       6.762  -2.012  -3.145  0.00  0.00    -0.251 OA
BRANCH  45  47
ATOM     47  C   LIG d   1       7.492  -3.761  -4.544  0.00  0.00     0.033 C 
ATOM     48  H   LIG d   1       7.169  -4.776  -4.310  0.00  0.00     0.034 H 
ATOM     49  H   LIG d   1       7.590  -3.650  -5.624  0.00  0.00     0.034 H 
ATOM     50  H   LIG d   1       8.453  -3.567  -4.070  0.00  0.00     0.034 H 
ENDBRANCH  45  47
ENDBRANCH  44  45
ENDBRANCH   5  44
BRANCH   7  51
ATOM     51  O   LIG d   1       5.131  -4.264  -7.018  0.00  0.00    -0.455 OA
BRANCH  51  52
ATOM     52  C   LIG d   1       4.674  -5.403  -6.474  0.00  0.00     0.304 C 
ATOM     53  O   LIG d   1       3.511  -5.499  -6.161  0.00  0.00    -0.251 OA
BRANCH  52  54
ATOM     54  C   LIG d   1       5.611  -6.563  -6.255  0.00  0.00     0.033 C 
ATOM     55  H   LIG d   1       5.138  -7.291  -5.595  0.00  0.00     0.034 H 
ATOM     56  H   LIG d   1       5.839  -7.032  -7.211  0.00  0.00     0.034 H 
ATOM     57  H   LIG d   1       6.533  -6.204  -5.797  0.00  0.00     0.034 H 
ENDBRANCH  52  54
ENDBRANCH  51  52
ENDBRANCH   7  51
TORSDOF 17
ENDMDL
MODEL 2
REMARK VINA RESULT:      -5.0      1.834      5.748
REMARK  17 active torsions:
REMARK  status: ('A' for Active; 'I' for Inactive)
REMARK    1  A    between atoms: C_1  and  C_2 
REMARK    2  A    between atoms: C_2  and  C_3 
REMARK    3  A    between atoms: C_3  and  C_4 
REMARK    4  A    between atoms: C_4  and  O_5 
REMARK    5  A    between atoms: O_5  and  C_6 
REMARK    6  A    between atoms: C_8  and  N_30 
REMARK    7  A    between atoms: C_10  and  O_26 
REMARK    8  A    between atoms: C_12  and  O_22 
REMARK    9  A    between atoms: C_14  and  C_17 
REMARK   10  A    between atoms: C_17  and  O_18 
REMARK   11  A    between atoms: O_18  and  C_19 
REMARK   12  A    between atoms: C_19  and  C_21 
REMARK   13  A    between atoms: O_22  and  C_23 
REMARK   14  A    between atoms: C_23  and  C_25 
REMARK   15  A    between atoms: O_26  and  C_27 
REMARK   16  A    between atoms: C_27  and  C_29 
REMARK       I    between atoms: N_30  and  C_31 
REMARK   17  A    between atoms: C_31  and  C_33 
ROOT
ATOM      1  C   LIG d   1       5.139  -2.078  -6.026  0.00  0.00     0.181 C 
ATOM      2  H   LIG d   1       6.138  -1.880  -6.414  0.00  0.00     0.093 H 
ATOM      3  C   LIG d   1       4.573  -3.335  -6.694  0.00  0.00     0.115 C 
ATOM      4  H   LIG d   1       3.591  -3.558  -6.277  0.00  0.00     0.059 H 
ATOM      5  C   LIG d   1       4.447  -3.092  -8.201  0.00  0.00     0.165 C 
ATOM      6  H   LIG d   1       5.435  -2.918  -8.627  0.00  0.00     0.079 H 
ATOM      7  C   LIG d   1       3.564  -1.861  -8.435  0.00  0.00     0.171 C 
ATOM      8  H   LIG d   1       2.562  -2.055  -8.054  0.00  0.00     0.080 H 
ATOM      9  C   LIG d   1       4.169  -0.661  -7.701  0.00  0.00     0.136 C 
ATOM     10  H   LIG d   1       5.155  -0.443  -8.110  0.00  0.00     0.067 H 
ATOM     11  O   LIG d   1       4.287  -0.966  -6.310  0.00  0.00    -0.339 OA
ENDROOT
BRANCH   1  12
ATOM     12  O   LIG d   1       5.206  -2.279  -4.613  0.00  0.00    -0.349 OA
BRANCH  12  13
ATOM     13  C   LIG d   1       3.980  -2.011  -3.930  0.00  0.00     0.051 C 
ATOM     14  H   LIG d   1       3.414  -2.937  -3.822  0.00  0.00     0.056 H 
ATOM     15  H   LIG d   1       3.394  -1.292  -4.502  0.00  0.00     0.056 H 
BRANCH  13  16
ATOM     16  C   LIG d   1       4.284  -1.435  -2.545  0.00  0.00    -0.030 C 
ATOM     17  H   LIG d   1       3.903  -2.110  -1.779  0.00  0.00     0.029 H 
ATOM     18  H   LIG d   1       5.361  -1.321  -2.427  0.00  0.00     0.029 H 
BRANCH  16  19
ATOM     19  C   LIG d   1       3.609  -0.069  -2.402  0.00  0.00    -0.054 C 
ATOM     20  H   LIG d   1       3.346   0.312  -3.390  0.00  0.00     0.026 H 
ATOM     21  H   LIG d   1       2.705  -0.172  -1.801  0.00  0.00     0.026 H 
BRANCH  19  22
ATOM     22  C   LIG d   1       4.568   0.905  -1.717  0.00  0.00    -0.065 C 
ATOM     23  H   LIG d   1       5.251   1.324  -2.456  0.00  0.00     0.023 H 
ATOM     24  H   LIG d   1       3.997   1.712  -1.255  0.00  0.00     0.023 H 
ATOM     25  H   LIG d   1       5.138   0.379  -0.952  0.00  0.00     0.023 H 
ENDBRANCH  19  22
ENDBRANCH  16  19
ENDBRANCH  13  16
ENDBRANCH  12  13
ENDBRANCH   1  12
BRANCH   3  26
ATOM     26  N   LIG d   1       5.475  -4.464  -6.454  0.00  0.00    -0.304 N 
ATOM     27  C   LIG d   1       5.030  -5.557  -5.803  0.00  0.00     0.210 C 
ATOM     28  O   LIG d   1       3.882  -5.605  -5.415  0.00  0.00    -0.276 OA
ATOM     29  H   LIG d   1       6.394  -4.425  -6.765  0.00  0.00     0.149 HD
BRANCH  27  30
ATOM     30  C   LIG d   1       5.958  -6.718  -5.557  0.00  0.00     0.012 C 
ATOM     31  H   LIG d   1       6.393  -6.632  -4.561  0.00  0.00     0.032 H 
ATOM     32  H   LIG d   1       5.400  -7.651  -5.630  0.00  0.00     0.032 H 
ATOM     33  H   LIG d   1       6.755  -6.711  -6.302  0.00  0.00     0.032 H 
ENDBRANCH  27  30
ENDBRANCH   3  26
BRANCH   9  34
ATOM     34  C   LIG d   1       3.260   0.557  -7.881  0.00  0.00     0.122 C 
ATOM     35  H   LIG d   1       2.630   0.413  -8.758  0.00  0.00     0.072 H 
ATOM     36  H   LIG d   1       2.633   0.676  -6.998  0.00  0.00     0.072 H 
BRANCH  34  37
ATOM     37  O   LIG d   1       4.076   1.746  -8.061  0.00  0.00    -0.462 OA
BRANCH  37  38
ATOM     38  C   LIG d   1       4.623   1.931  -9.272  0.00  0.00     0.304 C 
ATOM     39  O   LIG d   1       5.797   2.201  -9.371  0.00  0.00    -0.251 OA
BRANCH  38  40
ATOM     40  C   LIG d   1       3.773   1.801 -10.510  0.00  0.00     0.033 C 
ATOM     41  H   LIG d   1       3.468   0.762 -10.634  0.00  0.00     0.034 H 
ATOM     42  H   LIG d   1       2.887   2.430 -10.409  0.00  0.00     0.034 H 
ATOM     43  H   LIG d   1       4.347   2.119 -11.380  0.00  0.00     0.034 H 
ENDBRANCH  38  40
ENDBRANCH  37  38
ENDBRANCH  34  37
ENDBRANCH   9  34
BRANCH   5  44
ATOM     44  O   LIG d   1       3.843  -4.251  -8.831  0.00  0.00    -0.456 OA
BRANCH  44  45
ATOM     45  C   LIG d   1       4.586  -4.910  -9.734  0.00  0.00     0.304 C 
ATOM     46  O   LIG d   1       5.516  -5.590  -9.371  0.00  0.00    -0.251 OA
BRANCH  45  47
ATOM     47  C   LIG d   1       4.258  -4.803 -11.202  0.00  0.00     0.033 C 
ATOM     48  H   LIG d   1       5.159  -4.983 -11.789  0.00  0.00     0.034 H 
ATOM     49  H   LIG d   1       3.502  -5.546 -11.458  0.00  0.00     0.034 H 
ATOM     50  H   LIG d   1       3.876  -3.806 -11.417  0.00  0.00     0.034 H 
ENDBRANCH  45  47
ENDBRANCH  44  45
ENDBRANCH   5  44
BRANCH   7  51
ATOM     51  O   LIG d   1       3.496  -1.576  -9.857  0.00  0.00    -0.455 OA
BRANCH  51  52
ATOM     52  C   LIG d   1       2.297  -1.696 -10.447  0.00  0.00     0.304 C 
ATOM     53  O   LIG d   1       1.366  -2.162  -9.832  0.00  0.00    -0.251 OA
BRANCH  52  54
ATOM     54  C   LIG d   1       2.108  -1.249 -11.874  0.00  0.00     0.033 C 
ATOM     55  H   LIG d   1       1.149  -0.739 -11.970  0.00  0.00     0.034 H 
ATOM     56  H   LIG d   1       2.912  -0.567 -12.150  0.00  0.00     0.034 H 
ATOM     57  H   LIG d   1       2.126  -2.117 -12.532  0.00  0.00     0.034 H 
ENDBRANCH  52  54
ENDBRANCH  51  52
ENDBRANCH   7  51
TORSDOF 17
ENDMDL
MODEL 3
REMARK VINA RESULT:      -4.9      1.685      5.345
REMARK  17 active torsions:
REMARK  status: ('A' for Active; 'I' for Inactive)
REMARK    1  A    between atoms: C_1  and  C_2 
REMARK    2  A    between atoms: C_2  and  C_3 
REMARK    3  A    between atoms: C_3  and  C_4 
REMARK    4  A    between atoms: C_4  and  O_5 
REMARK    5  A    between atoms: O_5  and  C_6 
REMARK    6  A    between atoms: C_8  and  N_30 
REMARK    7  A    between atoms: C_10  and  O_26 
REMARK    8  A    between atoms: C_12  and  O_22 
REMARK    9  A    between atoms: C_14  and  C_17 
REMARK   10  A    between atoms: C_17  and  O_18 
REMARK   11  A    between atoms: O_18  and  C_19 
REMARK   12  A    between atoms: C_19  and  C_21 
REMARK   13  A    between atoms: O_22  and  C_23 
REMARK   14  A    between atoms: C_23  and  C_25 
REMARK   15  A    between atoms: O_26  and  C_27 
REMARK   16  A    between atoms: C_27  and  C_29 
REMARK       I    between atoms: N_30  and  C_31 
REMARK   17  A    between atoms: C_31  and  C_33 
ROOT
ATOM      1  C   LIG d   1       4.006  -0.607  -7.030  0.00  0.00     0.181 C 
ATOM      2  H   LIG d   1       3.159  -0.661  -6.347  0.00  0.00     0.093 H 
ATOM      3  C   LIG d   1       4.343  -2.013  -7.536  0.00  0.00     0.115 C 
ATOM      4  H   LIG d   1       5.164  -1.956  -8.250  0.00  0.00     0.059 H 
ATOM      5  C   LIG d   1       4.756  -2.889  -6.349  0.00  0.00     0.165 C 
ATOM      6  H   LIG d   1       3.919  -2.988  -5.658  0.00  0.00     0.079 H 
ATOM      7  C   LIG d   1       5.939  -2.231  -5.631  0.00  0.00     0.171 C 
ATOM      8  H   LIG d   1       6.792  -2.179  -6.308  0.00  0.00     0.080 H 
ATOM      9  C   LIG d   1       5.541  -0.817  -5.199  0.00  0.00     0.136 C 
ATOM     10  H   LIG d   1       4.714  -0.872  -4.491  0.00  0.00     0.067 H 
ATOM     11  O   LIG d   1       5.138  -0.066  -6.345  0.00  0.00    -0.339 OA
ENDROOT
BRANCH   1  12
ATOM     12  O   LIG d   1       3.674   0.231  -8.139  0.00  0.00    -0.349 OA
BRANCH  12  13
ATOM     13  C   LIG d   1       4.809   0.732  -8.848  0.00  0.00     0.051 C 
ATOM     14  H   LIG d   1       5.473  -0.093  -9.101  0.00  0.00     0.056 H 
ATOM     15  H   LIG d   1       5.341   1.449  -8.222  0.00  0.00     0.056 H 
BRANCH  13  16
ATOM     16  C   LIG d   1       4.343   1.424 -10.131  0.00  0.00    -0.030 C 
ATOM     17  H   LIG d   1       3.771   2.317  -9.875  0.00  0.00     0.029 H 
ATOM     18  H   LIG d   1       5.210   1.707 -10.727  0.00  0.00     0.029 H 
BRANCH  16  19
ATOM     19  C   LIG d   1       3.461   0.468 -10.935  0.00  0.00    -0.054 C 
ATOM     20  H   LIG d   1       3.150  -0.362 -10.299  0.00  0.00     0.026 H 
ATOM     21  H   LIG d   1       2.580   1.000 -11.292  0.00  0.00     0.026 H 
BRANCH  19  22
ATOM     22  C   LIG d   1       4.249  -0.072 -12.129  0.00  0.00    -0.065 C 
ATOM     23  H   LIG d   1       5.308  -0.119 -11.875  0.00  0.00     0.023 H 
ATOM     24  H   LIG d   1       3.892  -1.071 -12.379  0.00  0.00     0.023 H 
ATOM     25  H   LIG d   1       4.110   0.588 -12.986  0.00  0.00     0.023 H 
ENDBRANCH  19  22
ENDBRANCH  16  19
ENDBRANCH  13  16
ENDBRANCH  12  13
ENDBRANCH   1  12
BRANCH   3  26
ATOM     26  N   LIG d   1       3.166  -2.594  -8.186  0.00  0.00    -0.304 N 
ATOM     27  C   LIG d   1       3.243  -3.021  -9.462  0.00  0.00     0.210 C 
ATOM     28  O   LIG d   1       4.286  -2.924 -10.072  0.00  0.00    -0.276 OA
ATOM     29  H   LIG d   1       2.331  -2.672  -7.698  0.00  0.00     0.149 HD
BRANCH  27  30
ATOM     30  C   LIG d   1       2.032  -3.618 -10.131  0.00  0.00     0.012 C 
ATOM     31  H   LIG d   1       2.257  -3.821 -11.178  0.00  0.00     0.032 H 
ATOM     32  H   LIG d   1       1.763  -4.549  -9.631  0.00  0.00     0.032 H 
ATOM     33  H   LIG d   1       1.198  -2.917 -10.068  0.00  0.00     0.032 H 
ENDBRANCH  27  30
ENDBRANCH   3  26
BRANCH   9  34
ATOM     34  C   LIG d   1       6.736  -0.132  -4.533  0.00  0.00     0.122 C 
ATOM     35  H   LIG d   1       7.642  -0.702  -4.738  0.00  0.00     0.072 H 
ATOM     36  H   LIG d   1       6.844   0.877  -4.932  0.00  0.00     0.072 H 
BRANCH  34  37
ATOM     37  O   LIG d   1       6.519  -0.066  -3.099  0.00  0.00    -0.462 OA
BRANCH  37  38
ATOM     38  C   LIG d   1       5.558   0.767  -2.667  0.00  0.00     0.304 C 
ATOM     39  O   LIG d   1       5.555   1.922  -3.023  0.00  0.00    -0.251 OA
BRANCH  38  40
ATOM     40  C   LIG d   1       4.484   0.261  -1.739  0.00  0.00     0.033 C 
ATOM     41  H   LIG d   1       4.240   1.033  -1.010  0.00  0.00     0.034 H 
ATOM     42  H   LIG d   1       3.593   0.012  -2.317  0.00  0.00     0.034 H 
ATOM     43  H   LIG d   1       4.841  -0.629  -1.221  0.00  0.00     0.034 H 
ENDBRANCH  38  40
ENDBRANCH  37  38
ENDBRANCH  34  37
ENDBRANCH   9  34
BRANCH   5  44
ATOM     44  O   LIG d   1       5.149  -4.202  -6.828  0.00  0.00    -0.456 OA
BRANCH  44  45
ATOM     45  C   LIG d   1       4.479  -5.256  -6.335  0.00  0.00     0.304 C 
ATOM     46  O   LIG d   1       3.275  -5.300  -6.421  0.00  0.00    -0.251 OA
BRANCH  45  47
ATOM     47  C   LIG d   1       5.230  -6.384  -5.676  0.00  0.00     0.033 C 
ATOM     48  H   LIG d   1       5.309  -7.221  -6.370  0.00  0.00     0.034 H 
ATOM     49  H   LIG d   1       6.228  -6.043  -5.401  0.00  0.00     0.034 H 
ATOM     50  H   LIG d   1       4.696  -6.703  -4.782  0.00  0.00     0.034 H 
ENDBRANCH  45  47
ENDBRANCH  44  45
ENDBRANCH   5  44
BRANCH   7  51
ATOM     51  O   LIG d   1       6.294  -3.013  -4.461  0.00  0.00    -0.455 OA
BRANCH  51  52
ATOM     52  C   LIG d   1       7.576  -3.394  -4.347  0.00  0.00     0.304 C 
ATOM     53  O   LIG d   1       8.208  -3.098  -3.361  0.00  0.00    -0.251 OA
BRANCH  52  54
ATOM     54  C   LIG d   1       8.228  -4.190  -5.448  0.00  0.00     0.033 C 
ATOM     55  H   LIG d   1       7.835  -3.865  -6.412  0.00  0.00     0.034 H 
ATOM     56  H   LIG d   1       9.305  -4.031  -5.423  0.00  0.00     0.034 H 
ATOM     57  H   LIG d   1       8.014  -5.249  -5.307  0.00  0.00     0.034 H 
ENDBRANCH  52  54
ENDBRANCH  51  52
ENDBRANCH   7  51
TORSDOF 17
ENDMDL
MODEL 4
REMARK VINA RESULT:      -4.9      1.595      2.094
REMARK  17 active torsions:
REMARK  status: ('A' for Active; 'I' for Inactive)
REMARK    1  A    between atoms: C_1  and  C_2 
REMARK    2  A    between atoms: C_2  and  C_3 
REMARK    3  A    between atoms: C_3  and  C_4 
REMARK    4  A    between atoms: C_4  and  O_5 
REMARK    5  A    between atoms: O_5  and  C_6 
REMARK    6  A    between atoms: C_8  and  N_30 
REMARK    7  A    between atoms: C_10  and  O_26 
REMARK    8  A    between atoms: C_12  and  O_22 
REMARK    9  A    between atoms: C_14  and  C_17 
REMARK   10  A    between atoms: C_17  and  O_18 
REMARK   11  A    between atoms: O_18  and  C_19 
REMARK   12  A    between atoms: C_19  and  C_21 
REMARK   13  A    between atoms: O_22  and  C_23 
REMARK   14  A    between atoms: C_23  and  C_25 
REMARK   15  A    between atoms: O_26  and  C_27 
REMARK   16  A    between atoms: C_27  and  C_29 
REMARK       I    between atoms: N_30  and  C_31 
REMARK   17  A    between atoms: C_31  and  C_33 
ROOT
ATOM      1  C   LIG d   1       3.992  -0.588  -7.119  0.00  0.00     0.181 C 
ATOM      2  H   LIG d   1       4.846   0.011  -7.437  0.00  0.00     0.093 H 
ATOM      3  C   LIG d   1       4.206  -1.055  -5.676  0.00  0.00     0.115 C 
ATOM      4  H   LIG d   1       3.335  -1.620  -5.344  0.00  0.00     0.059 H 
ATOM      5  C   LIG d   1       5.449  -1.949  -5.616  0.00  0.00     0.165 C 
ATOM      6  H   LIG d   1       6.329  -1.371  -5.901  0.00  0.00     0.079 H 
ATOM      7  C   LIG d   1       5.269  -3.121  -6.587  0.00  0.00     0.171 C 
ATOM      8  H   LIG d   1       4.419  -3.727  -6.272  0.00  0.00     0.080 H 
ATOM      9  C   LIG d   1       5.014  -2.574  -7.994  0.00  0.00     0.136 C 
ATOM     10  H   LIG d   1       5.880  -2.002  -8.324  0.00  0.00     0.067 H 
ATOM     11  O   LIG d   1       3.864  -1.727  -7.973  0.00  0.00    -0.339 OA
ENDROOT
BRANCH   1  12
ATOM     12  O   LIG d   1       2.802   0.200  -7.193  0.00  0.00    -0.349 OA
BRANCH  12  13
ATOM     13  C   LIG d   1       2.543   0.739  -8.491  0.00  0.00     0.051 C 
ATOM     14  H   LIG d   1       1.493   0.591  -8.743  0.00  0.00     0.056 H 
ATOM     15  H   LIG d   1       3.169   0.234  -9.226  0.00  0.00     0.056 H 
BRANCH  13  16
ATOM     16  C   LIG d   1       2.862   2.236  -8.493  0.00  0.00    -0.030 C 
ATOM     17  H   LIG d   1       1.968   2.798  -8.762  0.00  0.00     0.029 H 
ATOM     18  H   LIG d   1       3.197   2.538  -7.501  0.00  0.00     0.029 H 
BRANCH  16  19
ATOM     19  C   LIG d   1       3.967   2.520  -9.512  0.00  0.00    -0.054 C 
ATOM     20  H   LIG d   1       3.816   3.508  -9.948  0.00  0.00     0.026 H 
ATOM     21  H   LIG d   1       4.937   2.488  -9.015  0.00  0.00     0.026 H 
BRANCH  19  22
ATOM     22  C   LIG d   1       3.927   1.464 -10.617  0.00  0.00    -0.065 C 
ATOM     23  H   LIG d   1       4.771   0.784 -10.502  0.00  0.00     0.023 H 
ATOM     24  H   LIG d   1       2.997   0.899 -10.547  0.00  0.00     0.023 H 
ATOM     25  H   LIG d   1       3.983   1.952 -11.590  0.00  0.00     0.023 H 
ENDBRANCH  19  22
ENDBRANCH  16  19
ENDBRANCH  13  16
ENDBRANCH  12  13
ENDBRANCH   1  12
BRANCH   3  26
ATOM     26  N   LIG d   1       4.398   0.109  -4.809  0.00  0.00    -0.304 N 
ATOM     27  C   LIG d   1       3.571   0.314  -3.764  0.00  0.00     0.210 C 
ATOM     28  O   LIG d   1       2.669  -0.465  -3.543  0.00  0.00    -0.276 OA
ATOM     29  H   LIG d   1       5.121   0.732  -4.985  0.00  0.00     0.149 HD
BRANCH  27  30
ATOM     30  C   LIG d   1       3.769   1.512  -2.871  0.00  0.00     0.012 C 
ATOM     31  H   LIG d   1       2.864   1.685  -2.289  0.00  0.00     0.032 H 
ATOM     32  H   LIG d   1       4.605   1.328  -2.197  0.00  0.00     0.032 H 
ATOM     33  H   LIG d   1       3.981   2.390  -3.482  0.00  0.00     0.032 H 
ENDBRANCH  27  30
ENDBRANCH   3  26
BRANCH   9  34
ATOM     34  C   LIG d   1       4.774  -3.738  -8.958  0.00  0.00     0.122 C 
ATOM     35  H   LIG d   1       4.703  -3.358  -9.976  0.00  0.00     0.072 H 
ATOM     36  H   LIG d   1       5.603  -4.443  -8.889  0.00  0.00     0.072 H 
BRANCH  34  37
ATOM     37  O   LIG d   1       3.536  -4.411  -8.603  0.00  0.00    -0.462 OA
BRANCH  37  38
ATOM     38  C   LIG d   1       3.417  -5.697  -8.967  0.00  0.00     0.304 C 
ATOM     39  O   LIG d   1       2.321  -6.196  -9.076  0.00  0.00    -0.251 OA
BRANCH  38  40
ATOM     40  C   LIG d   1       4.650  -6.518  -9.243  0.00  0.00     0.033 C 
ATOM     41  H   LIG d   1       5.088  -6.209 -10.191  0.00  0.00     0.034 H 
ATOM     42  H   LIG d   1       5.374  -6.367  -8.442  0.00  0.00     0.034 H 
ATOM     43  H   LIG d   1       4.380  -7.574  -9.293  0.00  0.00     0.034 H 
ENDBRANCH  38  40
ENDBRANCH  37  38
ENDBRANCH  34  37
ENDBRANCH   9  34
BRANCH   5  44
ATOM     44  O   LIG d   1       5.617  -2.457  -4.267  0.00  0.00    -0.456 OA
BRANCH  44  45
ATOM     45  C   LIG d   1       6.721  -2.074  -3.605  0.00  0.00     0.304 C 
ATOM     46  O   LIG d   1       6.740  -1.016  -3.022  0.00  0.00    -0.251 OA
BRANCH  45  47
ATOM     47  C   LIG d   1       7.936  -2.966  -3.588  0.00  0.00     0.033 C 
ATOM     48  H   LIG d   1       8.416  -2.906  -2.611  0.00  0.00     0.034 H 
ATOM     49  H   LIG d   1       7.632  -3.995  -3.782  0.00  0.00     0.034 H 
ATOM     50  H   LIG d   1       8.636  -2.642  -4.357  0.00  0.00     0.034 H 
ENDBRANCH  45  47
ENDBRANCH  44  45
ENDBRANCH   5  44
BRANCH   7  51
ATOM     51  O   LIG d   1       6.470  -3.935  -6.594  0.00  0.00    -0.455 OA
BRANCH  51  52
ATOM     52  C   LIG d   1       6.358  -5.191  -6.134  0.00  0.00     0.304 C 
ATOM     53  O   LIG d   1       7.314  -5.931  -6.160  0.00  0.00    -0.251 OA
BRANCH  52  54
ATOM     54  C   LIG d   1       5.042  -5.681  -5.586  0.00  0.00     0.033 C 
ATOM     55  H   LIG d   1       4.371  -4.833  -5.446  0.00  0.00     0.034 H 
ATOM     56  H   LIG d   1       4.596  -6.385  -6.287  0.00  0.00     0.034 H 
ATOM     57  H   LIG d   1       5.208  -6.175  -4.630  0.00  0.00     0.034 H 
ENDBRANCH  52  54
ENDBRANCH  51  52
ENDBRANCH   7  51
TORSDOF 17
ENDMDL
MODEL 5
REMARK VINA RESULT:      -4.7      1.548      1.993
REMARK  17 active torsions:
REMARK  status: ('A' for Active; 'I' for Inactive)
REMARK    1  A    between atoms: C_1  and  C_2 
REMARK    2  A    between atoms: C_2  and  C_3 
REMARK    3  A    between atoms: C_3  and  C_4 
REMARK    4  A    between atoms: C_4  and  O_5 
REMARK    5  A    between atoms: O_5  and  C_6 
REMARK    6  A    between atoms: C_8  and  N_30 
REMARK    7  A    between atoms: C_10  and  O_26 
REMARK    8  A    between atoms: C_12  and  O_22 
REMARK    9  A    between atoms: C_14  and  C_17 
REMARK   10  A    between atoms: C_17  and  O_18 
REMARK   11  A    between atoms: O_18  and  C_19 
REMARK   12  A    between atoms: C_19  and  C_21 
REMARK   13  A    between atoms: O_22  and  C_23 
REMARK   14  A    between atoms: C_23  and  C_25 
REMARK   15  A    between atoms: O_26  and  C_27 
REMARK   16  A    between atoms: C_27  and  C_29 
REMARK       I    between atoms: N_30  and  C_31 
REMARK   17  A    between atoms: C_31  and  C_33 
ROOT
ATOM      1  C   LIG d   1       5.020  -0.333  -7.224  0.00  0.00     0.181 C 
ATOM      2  H   LIG d   1       6.056  -0.161  -6.935  0.00  0.00     0.093 H 
ATOM      3  C   LIG d   1       4.213  -0.765  -5.996  0.00  0.00     0.115 C 
ATOM      4  H   LIG d   1       3.168  -0.900  -6.276  0.00  0.00     0.059 H 
ATOM      5  C   LIG d   1       4.774  -2.088  -5.465  0.00  0.00     0.165 C 
ATOM      6  H   LIG d   1       5.804  -1.944  -5.139  0.00  0.00     0.079 H 
ATOM      7  C   LIG d   1       4.733  -3.134  -6.586  0.00  0.00     0.171 C 
ATOM      8  H   LIG d   1       3.698  -3.314  -6.876  0.00  0.00     0.080 H 
ATOM      9  C   LIG d   1       5.520  -2.610  -7.790  0.00  0.00     0.136 C 
ATOM     10  H   LIG d   1       6.563  -2.467  -7.509  0.00  0.00     0.067 H 
ATOM     11  O   LIG d   1       4.966  -1.363  -8.214  0.00  0.00    -0.339 OA
ENDROOT
BRANCH   1  12
ATOM     12  O   LIG d   1       4.466   0.871  -7.758  0.00  0.00    -0.349 OA
BRANCH  12  13
ATOM     13  C   LIG d   1       4.014   0.753  -9.109  0.00  0.00     0.051 C 
ATOM     14  H   LIG d   1       4.323  -0.211  -9.513  0.00  0.00     0.056 H 
ATOM     15  H   LIG d   1       4.446   1.554  -9.708  0.00  0.00     0.056 H 
BRANCH  13  16
ATOM     16  C   LIG d   1       2.488   0.856  -9.146  0.00  0.00    -0.030 C 
ATOM     17  H   LIG d   1       2.132   1.323  -8.227  0.00  0.00     0.029 H 
ATOM     18  H   LIG d   1       2.185   1.459 -10.001  0.00  0.00     0.029 H 
BRANCH  16  19
ATOM     19  C   LIG d   1       1.885  -0.545  -9.271  0.00  0.00    -0.054 C 
ATOM     20  H   LIG d   1       2.645  -1.291  -9.033  0.00  0.00     0.026 H 
ATOM     21  H   LIG d   1       1.050  -0.644  -8.578  0.00  0.00     0.026 H 
BRANCH  19  22
ATOM     22  C   LIG d   1       1.388  -0.761 -10.701  0.00  0.00    -0.065 C 
ATOM     23  H   LIG d   1       2.005  -1.514 -11.191  0.00  0.00     0.023 H 
ATOM     24  H   LIG d   1       0.352  -1.102 -10.678  0.00  0.00     0.023 H 
ATOM     25  H   LIG d   1       1.449   0.176 -11.254  0.00  0.00     0.023 H 
ENDBRANCH  19  22
ENDBRANCH  16  19
ENDBRANCH  13  16
ENDBRANCH  12  13
ENDBRANCH   1  12
BRANCH   3  26
ATOM     26  N   LIG d   1       4.315   0.262  -4.957  0.00  0.00    -0.304 N 
ATOM     27  C   LIG d   1       3.208   0.684  -4.315  0.00  0.00     0.210 C 
ATOM     28  O   LIG d   1       2.127   0.212  -4.597  0.00  0.00    -0.276 OA
ATOM     29  H   LIG d   1       5.181   0.638  -4.731  0.00  0.00     0.149 HD
BRANCH  27  30
ATOM     30  C   LIG d   1       3.314   1.740  -3.246  0.00  0.00     0.012 C 
ATOM     31  H   LIG d   1       4.155   1.513  -2.591  0.00  0.00     0.032 H 
ATOM     32  H   LIG d   1       3.471   2.714  -3.711  0.00  0.00     0.032 H 
ATOM     33  H   LIG d   1       2.394   1.761  -2.661  0.00  0.00     0.032 H 
ENDBRANCH  27  30
ENDBRANCH   3  26
BRANCH   9  34
ATOM     34  C   LIG d   1       5.434  -3.622  -8.934  0.00  0.00     0.122 C 
ATOM     35  H   LIG d   1       6.013  -3.262  -9.783  0.00  0.00     0.072 H 
ATOM     36  H   LIG d   1       5.833  -4.581  -8.602  0.00  0.00     0.072 H 
BRANCH  34  37
ATOM     37  O   LIG d   1       4.045  -3.787  -9.330  0.00  0.00    -0.462 OA
BRANCH  37  38
ATOM     38  C   LIG d   1       3.768  -3.668 -10.638  0.00  0.00     0.304 C 
ATOM     39  O   LIG d   1       2.914  -4.360 -11.141  0.00  0.00    -0.251 OA
BRANCH  38  40
ATOM     40  C   LIG d   1       4.520  -2.669 -11.479  0.00  0.00     0.033 C 
ATOM     41  H   LIG d   1       4.018  -2.551 -12.439  0.00  0.00     0.034 H 
ATOM     42  H   LIG d   1       4.548  -1.708 -10.964  0.00  0.00     0.034 H 
ATOM     43  H   LIG d   1       5.538  -3.023 -11.642  0.00  0.00     0.034 H 
ENDBRANCH  38  40
ENDBRANCH  37  38
ENDBRANCH  34  37
ENDBRANCH   9  34
BRANCH   5  44
ATOM     44  O   LIG d   1       3.969  -2.543  -4.347  0.00  0.00    -0.456 OA
BRANCH  44  45
ATOM     45  C   LIG d   1       4.468  -2.345  -3.116  0.00  0.00     0.304 C 
ATOM     46  O   LIG d   1       3.744  -2.415  -2.152  0.00  0.00    -0.251 OA
BRANCH  45  47
ATOM     47  C   LIG d   1       5.933  -2.038  -2.939  0.00  0.00     0.033 C 
ATOM     48  H   LIG d   1       6.123  -1.761  -1.902  0.00  0.00     0.034 H 
ATOM     49  H   LIG d   1       6.522  -2.920  -3.193  0.00  0.00     0.034 H 
ATOM     50  H   LIG d   1       6.214  -1.214  -3.593  0.00  0.00     0.034 H 
ENDBRANCH  45  47
ENDBRANCH  44  45
ENDBRANCH   5  44
BRANCH   7  51
ATOM     51  O   LIG d   1       5.330  -4.371  -6.117  0.00  0.00    -0.455 OA
BRANCH  51  52
ATOM     52  C   LIG d   1       4.517  -5.432  -5.995  0.00  0.00     0.304 C 
ATOM     53  O   LIG d   1       3.339  -5.321  -6.239  0.00  0.00    -0.251 OA
BRANCH  52  54
ATOM     54  C   LIG d   1       5.072  -6.761  -5.552  0.00  0.00     0.033 C 
ATOM     55  H   LIG d   1       5.869  -7.066  -6.232  0.00  0.00     0.034 H 
ATOM     56  H   LIG d   1       5.471  -6.671  -4.543  0.00  0.00     0.034 H 
ATOM     57  H   LIG d   1       4.279  -7.509  -5.565  0.00  0.00     0.034 H 
ENDBRANCH  52  54
ENDBRANCH  51  52
ENDBRANCH   7  51
TORSDOF 17
ENDMDL
MODEL 6
REMARK VINA RESULT:      -4.7      1.754      5.612
REMARK  17 active torsions:
REMARK  status: ('A' for Active; 'I' for Inactive)
REMARK    1  A    between atoms: C_1  and  C_2 
REMARK    2  A    between atoms: C_2  and  C_3 
REMARK    3  A    between atoms: C_3  and  C_4 
REMARK    4  A    between atoms: C_4  and  O_5 
REMARK    5  A    between atoms: O_5  and  C_6 
REMARK    6  A    between atoms: C_8  and  N_30 
REMARK    7  A    between atoms: C_10  and  O_26 
REMARK    8  A    between atoms: C_12  and  O_22 
REMARK    9  A    between atoms: C_14  and  C_17 
REMARK   10  A    between atoms: C_17  and  O_18 
REMARK   11  A    between atoms: O_18  and  C_19 
REMARK   12  A    between atoms: C_19  and  C_21 
REMARK   13  A    between atoms: O_22  and  C_23 
REMARK   14  A    between atoms: C_23  and  C_25 
REMARK   15  A    between atoms: O_26  and  C_27 
REMARK   16  A    between atoms: C_27  and  C_29 
REMARK       I    between atoms: N_30  and  C_31 
REMARK   17  A    between atoms: C_31  and  C_33 
ROOT
ATOM      1  C   LIG d   1       4.558  -0.862  -5.869  0.00  0.00     0.181 C 
ATOM      2  H   LIG d   1       3.529  -0.853  -5.509  0.00  0.00     0.093 H 
ATOM      3  C   LIG d   1       4.565  -0.713  -7.393  0.00  0.00     0.115 C 
ATOM      4  H   LIG d   1       5.595  -0.681  -7.751  0.00  0.00     0.059 H 
ATOM      5  C   LIG d   1       3.843  -1.911  -8.019  0.00  0.00     0.165 C 
ATOM      6  H   LIG d   1       2.801  -1.916  -7.701  0.00  0.00     0.079 H 
ATOM      7  C   LIG d   1       4.527  -3.203  -7.556  0.00  0.00     0.171 C 
ATOM      8  H   LIG d   1       5.555  -3.220  -7.918  0.00  0.00     0.080 H 
ATOM      9  C   LIG d   1       4.520  -3.255  -6.026  0.00  0.00     0.136 C 
ATOM     10  H   LIG d   1       3.492  -3.278  -5.667  0.00  0.00     0.067 H 
ATOM     11  O   LIG d   1       5.179  -2.097  -5.509  0.00  0.00    -0.339 OA
ENDROOT
BRANCH   1  12
ATOM     12  O   LIG d   1       5.279   0.224  -5.281  0.00  0.00    -0.349 OA
BRANCH  12  13
ATOM     13  C   LIG d   1       6.040  -0.142  -4.128  0.00  0.00     0.051 C 
ATOM     14  H   LIG d   1       7.083  -0.286  -4.412  0.00  0.00     0.056 H 
ATOM     15  H   LIG d   1       5.645  -1.068  -3.711  0.00  0.00     0.056 H 
BRANCH  13  16
ATOM     16  C   LIG d   1       5.945   0.970  -3.082  0.00  0.00    -0.030 C 
ATOM     17  H   LIG d   1       6.909   1.087  -2.586  0.00  0.00     0.029 H 
ATOM     18  H   LIG d   1       5.671   1.906  -3.569  0.00  0.00     0.029 H 
BRANCH  16  19
ATOM     19  C   LIG d   1       4.881   0.605  -2.045  0.00  0.00    -0.054 C 
ATOM     20  H   LIG d   1       4.716  -0.473  -2.056  0.00  0.00     0.026 H 
ATOM     21  H   LIG d   1       5.218   0.911  -1.055  0.00  0.00     0.026 H 
BRANCH  19  22
ATOM     22  C   LIG d   1       3.573   1.324  -2.381  0.00  0.00    -0.065 C 
ATOM     23  H   LIG d   1       3.751   2.398  -2.433  0.00  0.00     0.023 H 
ATOM     24  H   LIG d   1       3.202   0.972  -3.344  0.00  0.00     0.023 H 
ATOM     25  H   LIG d   1       2.833   1.115  -1.608  0.00  0.00     0.023 H 
ENDBRANCH  19  22
ENDBRANCH  16  19
ENDBRANCH  13  16
ENDBRANCH  12  13
ENDBRANCH   1  12
BRANCH   3  26
ATOM     26  N   LIG d   1       3.876   0.524  -7.767  0.00  0.00    -0.304 N 
ATOM     27  C   LIG d   1       4.428   1.355  -8.674  0.00  0.00     0.210 C 
ATOM     28  O   LIG d   1       5.495   1.078  -9.179  0.00  0.00    -0.276 OA
ATOM     29  H   LIG d   1       3.022   0.744  -7.363  0.00  0.00     0.149 HD
BRANCH  27  30
ATOM     30  C   LIG d   1       3.719   2.627  -9.059  0.00  0.00     0.012 C 
ATOM     31  H   LIG d   1       3.806   2.781 -10.134  0.00  0.00     0.032 H 
ATOM     32  H   LIG d   1       2.665   2.552  -8.787  0.00  0.00     0.032 H 
ATOM     33  H   LIG d   1       4.171   3.469  -8.533  0.00  0.00     0.032 H 
ENDBRANCH  27  30
ENDBRANCH   3  26
BRANCH   9  34
ATOM     34  C   LIG d   1       5.254  -4.513  -5.556  0.00  0.00     0.122 C 
ATOM     35  H   LIG d   1       5.992  -4.803  -6.302  0.00  0.00     0.072 H 
ATOM     36  H   LIG d   1       5.754  -4.309  -4.609  0.00  0.00     0.072 H 
BRANCH  34  37
ATOM     37  O   LIG d   1       4.296  -5.591  -5.375  0.00  0.00    -0.462 OA
BRANCH  37  38
ATOM     38  C   LIG d   1       4.668  -6.811  -5.793  0.00  0.00     0.304 C 
ATOM     39  O   LIG d   1       3.956  -7.436  -6.543  0.00  0.00    -0.251 OA
BRANCH  38  40
ATOM     40  C   LIG d   1       5.975  -7.400  -5.328  0.00  0.00     0.033 C 
ATOM     41  H   LIG d   1       5.925  -8.487  -5.386  0.00  0.00     0.034 H 
ATOM     42  H   LIG d   1       6.783  -7.040  -5.966  0.00  0.00     0.034 H 
ATOM     43  H   LIG d   1       6.164  -7.098  -4.298  0.00  0.00     0.034 H 
ENDBRANCH  38  40
ENDBRANCH  37  38
ENDBRANCH  34  37
ENDBRANCH   9  34
BRANCH   5  44
ATOM     44  O   LIG d   1       3.911  -1.817  -9.465  0.00  0.00    -0.456 OA
BRANCH  44  45
ATOM     45  C   LIG d   1       2.747  -1.684 -10.122  0.00  0.00     0.304 C 
ATOM     46  O   LIG d   1       1.799  -2.367  -9.817  0.00  0.00    -0.251 OA
BRANCH  45  47
ATOM     47  C   LIG d   1       2.623  -0.679 -11.239  0.00  0.00     0.033 C 
ATOM     48  H   LIG d   1       3.527  -0.701 -11.848  0.00  0.00     0.034 H 
ATOM     49  H   LIG d   1       1.761  -0.929 -11.857  0.00  0.00     0.034 H 
ATOM     50  H   LIG d   1       2.493   0.318 -10.818  0.00  0.00     0.034 H 
ENDBRANCH  45  47
ENDBRANCH  44  45
ENDBRANCH   5  44
BRANCH   7  51
ATOM     51  O   LIG d   1       3.807  -4.348  -8.083  0.00  0.00    -0.455 OA
BRANCH  51  52
ATOM     52  C   LIG d   1       4.397  -5.035  -9.074  0.00  0.00     0.304 C 
ATOM     53  O   LIG d   1       5.563  -5.340  -8.986  0.00  0.00    -0.251 OA
BRANCH  52  54
ATOM     54  C   LIG d   1       3.606  -5.428 -10.295  0.00  0.00     0.033 C 
ATOM     55  H   LIG d   1       2.624  -5.791  -9.989  0.00  0.00     0.034 H 
ATOM     56  H   LIG d   1       3.487  -4.563 -10.945  0.00  0.00     0.034 H 
ATOM     57  H   LIG d   1       4.134  -6.217 -10.832  0.00  0.00     0.034 H 
ENDBRANCH  52  54
ENDBRANCH  51  52
ENDBRANCH   7  51
TORSDOF 17
ENDMDL
MODEL 7
REMARK VINA RESULT:      -4.6      1.801      5.798
REMARK  17 active torsions:
REMARK  status: ('A' for Active; 'I' for Inactive)
REMARK    1  A    between atoms: C_1  and  C_2 
REMARK    2  A    between atoms: C_2  and  C_3 
REMARK    3  A    between atoms: C_3  and  C_4 
REMARK    4  A    between atoms: C_4  and  O_5 
REMARK    5  A    between atoms: O_5  and  C_6 
REMARK    6  A    between atoms: C_8  and  N_30 
REMARK    7  A    between atoms: C_10  and  O_26 
REMARK    8  A    between atoms: C_12  and  O_22 
REMARK    9  A    between atoms: C_14  and  C_17 
REMARK   10  A    between atoms: C_17  and  O_18 
REMARK   11  A    between atoms: O_18  and  C_19 
REMARK   12  A    between atoms: C_19  and  C_21 
REMARK   13  A    between atoms: O_22  and  C_23 
REMARK   14  A    between atoms: C_23  and  C_25 
REMARK   15  A    between atoms: O_26  and  C_27 
REMARK   16  A    between atoms: C_27  and  C_29 
REMARK       I    between atoms: N_30  and  C_31 
REMARK   17  A    between atoms: C_31  and  C_33 
ROOT
ATOM      1  C   LIG d   1       4.591  -0.801  -5.551  0.00  0.00     0.181 C 
ATOM      2  H   LIG d   1       3.595  -0.829  -5.110  0.00  0.00     0.093 H 
ATOM      3  C   LIG d   1       4.470  -0.728  -7.076  0.00  0.00     0.115 C 
ATOM      4  H   LIG d   1       5.465  -0.659  -7.517  0.00  0.00     0.059 H 
ATOM      5  C   LIG d   1       3.771  -1.992  -7.587  0.00  0.00     0.165 C 
ATOM      6  H   LIG d   1       2.758  -2.037  -7.186  0.00  0.00     0.079 H 
ATOM      7  C   LIG d   1       4.560  -3.221  -7.123  0.00  0.00     0.171 C 
ATOM      8  H   LIG d   1       5.556  -3.201  -7.565  0.00  0.00     0.080 H 
ATOM      9  C   LIG d   1       4.677  -3.197  -5.597  0.00  0.00     0.136 C 
ATOM     10  H   LIG d   1       3.683  -3.257  -5.155  0.00  0.00     0.067 H 
ATOM     11  O   LIG d   1       5.308  -1.982  -5.188  0.00  0.00    -0.339 OA
ENDROOT
BRANCH   1  12
ATOM     12  O   LIG d   1       5.292   0.349  -5.074  0.00  0.00    -0.349 OA
BRANCH  12  13
ATOM     13  C   LIG d   1       5.885   0.173  -3.785  0.00  0.00     0.051 C 
ATOM     14  H   LIG d   1       6.971   0.215  -3.876  0.00  0.00     0.056 H 
ATOM     15  H   LIG d   1       5.591  -0.794  -3.379  0.00  0.00     0.056 H 
BRANCH  13  16
ATOM     16  C   LIG d   1       5.408   1.285  -2.849  0.00  0.00    -0.030 C 
ATOM     17  H   LIG d   1       6.251   1.657  -2.266  0.00  0.00     0.029 H 
ATOM     18  H   LIG d   1       4.986   2.100  -3.438  0.00  0.00     0.029 H 
BRANCH  16  19
ATOM     19  C   LIG d   1       4.339   0.733  -1.904  0.00  0.00    -0.054 C 
ATOM     20  H   LIG d   1       4.488   1.145  -0.906  0.00  0.00     0.026 H 
ATOM     21  H   LIG d   1       3.351   1.015  -2.269  0.00  0.00     0.026 H 
BRANCH  19  22
ATOM     22  C   LIG d   1       4.444  -0.791  -1.849  0.00  0.00    -0.065 C 
ATOM     23  H   LIG d   1       5.439  -1.099  -2.170  0.00  0.00     0.023 H 
ATOM     24  H   LIG d   1       4.274  -1.131  -0.827  0.00  0.00     0.023 H 
ATOM     25  H   LIG d   1       3.697  -1.233  -2.507  0.00  0.00     0.023 H 
ENDBRANCH  19  22
ENDBRANCH  16  19
ENDBRANCH  13  16
ENDBRANCH  12  13
ENDBRANCH   1  12
BRANCH   3  26
ATOM     26  N   LIG d   1       3.685   0.450  -7.449  0.00  0.00    -0.304 N 
ATOM     27  C   LIG d   1       4.119   1.267  -8.430  0.00  0.00     0.210 C 
ATOM     28  O   LIG d   1       5.159   1.026  -9.003  0.00  0.00    -0.276 OA
ATOM     29  H   LIG d   1       2.851   0.643  -6.991  0.00  0.00     0.149 HD
BRANCH  27  30
ATOM     30  C   LIG d   1       3.310   2.479  -8.813  0.00  0.00     0.012 C 
ATOM     31  H   LIG d   1       2.262   2.199  -8.919  0.00  0.00     0.032 H 
ATOM     32  H   LIG d   1       3.405   3.240  -8.038  0.00  0.00     0.032 H 
ATOM     33  H   LIG d   1       3.677   2.877  -9.760  0.00  0.00     0.032 H 
ENDBRANCH  27  30
ENDBRANCH   3  26
BRANCH   9  34
ATOM     34  C   LIG d   1       5.515  -4.390  -5.131  0.00  0.00     0.122 C 
ATOM     35  H   LIG d   1       5.511  -4.434  -4.043  0.00  0.00     0.072 H 
ATOM     36  H   LIG d   1       5.093  -5.310  -5.534  0.00  0.00     0.072 H 
BRANCH  34  37
ATOM     37  O   LIG d   1       6.880  -4.235  -5.605  0.00  0.00    -0.462 OA
BRANCH  37  38
ATOM     38  C   LIG d   1       7.860  -4.412  -4.705  0.00  0.00     0.304 C 
ATOM     39  O   LIG d   1       8.377  -5.497  -4.579  0.00  0.00    -0.251 OA
BRANCH  38  40
ATOM     40  C   LIG d   1       8.317  -3.257  -3.853  0.00  0.00     0.033 C 
ATOM     41  H   LIG d   1       7.564  -3.046  -3.093  0.00  0.00     0.034 H 
ATOM     42  H   LIG d   1       9.259  -3.513  -3.369  0.00  0.00     0.034 H 
ATOM     43  H   LIG d   1       8.458  -2.376  -4.480  0.00  0.00     0.034 H 
ENDBRANCH  38  40
ENDBRANCH  37  38
ENDBRANCH  34  37
ENDBRANCH   9  34
BRANCH   5  44
ATOM     44  O   LIG d   1       3.719  -1.966  -9.037  0.00  0.00    -0.456 OA
BRANCH  44  45
ATOM     45  C   LIG d   1       2.502  -1.998  -9.603  0.00  0.00     0.304 C 
ATOM     46  O   LIG d   1       1.759  -1.053  -9.492  0.00  0.00    -0.251 OA
BRANCH  45  47
ATOM     47  C   LIG d   1       2.065  -3.214 -10.380  0.00  0.00     0.033 C 
ATOM     48  H   LIG d   1       0.981  -3.203 -10.491  0.00  0.00     0.034 H 
ATOM     49  H   LIG d   1       2.532  -3.201 -11.366  0.00  0.00     0.034 H 
ATOM     50  H   LIG d   1       2.367  -4.115  -9.847  0.00  0.00     0.034 H 
ENDBRANCH  45  47
ENDBRANCH  44  45
ENDBRANCH   5  44
BRANCH   7  51
ATOM     51  O   LIG d   1       3.868  -4.428  -7.538  0.00  0.00    -0.455 OA
BRANCH  51  52
ATOM     52  C   LIG d   1       4.506  -5.229  -8.405  0.00  0.00     0.304 C 
ATOM     53  O   LIG d   1       5.591  -4.913  -8.834  0.00  0.00    -0.251 OA
BRANCH  52  54
ATOM     54  C   LIG d   1       3.872  -6.524  -8.844  0.00  0.00     0.033 C 
ATOM     55  H   LIG d   1       2.802  -6.372  -8.992  0.00  0.00     0.034 H 
ATOM     56  H   LIG d   1       4.325  -6.853  -9.778  0.00  0.00     0.034 H 
ATOM     57  H   LIG d   1       4.028  -7.283  -8.077  0.00  0.00     0.034 H 
ENDBRANCH  52  54
ENDBRANCH  51  52
ENDBRANCH   7  51
TORSDOF 17
ENDMDL
MODEL 8
REMARK VINA RESULT:      -4.4      8.508     11.858
REMARK  17 active torsions:
REMARK  status: ('A' for Active; 'I' for Inactive)
REMARK    1  A    between atoms: C_1  and  C_2 
REMARK    2  A    between atoms: C_2  and  C_3 
REMARK    3  A    between atoms: C_3  and  C_4 
REMARK    4  A    between atoms: C_4  and  O_5 
REMARK    5  A    between atoms: O_5  and  C_6 
REMARK    6  A    between atoms: C_8  and  N_30 
REMARK    7  A    between atoms: C_10  and  O_26 
REMARK    8  A    between atoms: C_12  and  O_22 
REMARK    9  A    between atoms: C_14  and  C_17 
REMARK   10  A    between atoms: C_17  and  O_18 
REMARK   11  A    between atoms: O_18  and  C_19 
REMARK   12  A    between atoms: C_19  and  C_21 
REMARK   13  A    between atoms: O_22  and  C_23 
REMARK   14  A    between atoms: C_23  and  C_25 
REMARK   15  A    between atoms: O_26  and  C_27 
REMARK   16  A    between atoms: C_27  and  C_29 
REMARK       I    between atoms: N_30  and  C_31 
REMARK   17  A    between atoms: C_31  and  C_33 
ROOT
ATOM      1  C   LIG d   1       9.382   6.774  -1.974  0.00  0.00     0.181 C 
ATOM      2  H   LIG d   1       8.299   6.808  -2.095  0.00  0.00     0.093 H 
ATOM      3  C   LIG d   1      10.036   7.740  -2.967  0.00  0.00     0.115 C 
ATOM      4  H   LIG d   1      11.116   7.736  -2.820  0.00  0.00     0.059 H 
ATOM      5  C   LIG d   1       9.713   7.288  -4.395  0.00  0.00     0.165 C 
ATOM      6  H   LIG d   1       8.637   7.338  -4.560  0.00  0.00     0.079 H 
ATOM      7  C   LIG d   1      10.194   5.845  -4.583  0.00  0.00     0.171 C 
ATOM      8  H   LIG d   1      11.277   5.805  -4.468  0.00  0.00     0.080 H 
ATOM      9  C   LIG d   1       9.534   4.953  -3.528  0.00  0.00     0.136 C 
ATOM     10  H   LIG d   1       8.453   4.963  -3.669  0.00  0.00     0.067 H 
ATOM     11  O   LIG d   1       9.849   5.447  -2.225  0.00  0.00    -0.339 OA
ENDROOT
BRANCH   1  12
ATOM     12  O   LIG d   1       9.726   7.157  -0.641  0.00  0.00    -0.349 OA
BRANCH  12  13
ATOM     13  C   LIG d   1      10.796   6.396  -0.077  0.00  0.00     0.051 C 
ATOM     14  H   LIG d   1      11.599   6.300  -0.808  0.00  0.00     0.056 H 
ATOM     15  H   LIG d   1      10.433   5.406   0.198  0.00  0.00     0.056 H 
BRANCH  13  16
ATOM     16  C   LIG d   1      11.324   7.108   1.170  0.00  0.00    -0.030 C 
ATOM     17  H   LIG d   1      10.690   6.866   2.024  0.00  0.00     0.029 H 
ATOM     18  H   LIG d   1      12.344   6.781   1.371  0.00  0.00     0.029 H 
BRANCH  16  19
ATOM     19  C   LIG d   1      11.311   8.620   0.939  0.00  0.00    -0.054 C 
ATOM     20  H   LIG d   1      11.824   8.850   0.004  0.00  0.00     0.026 H 
ATOM     21  H   LIG d   1      10.280   8.969   0.882  0.00  0.00     0.026 H 
BRANCH  19  22
ATOM     22  C   LIG d   1      12.022   9.321   2.097  0.00  0.00    -0.065 C 
ATOM     23  H   LIG d   1      11.760   8.831   3.035  0.00  0.00     0.023 H 
ATOM     24  H   LIG d   1      13.101   9.264   1.949  0.00  0.00     0.023 H 
ATOM     25  H   LIG d   1      11.716  10.366   2.135  0.00  0.00     0.023 H 
ENDBRANCH  19  22
ENDBRANCH  16  19
ENDBRANCH  13  16
ENDBRANCH  12  13
ENDBRANCH   1  12
BRANCH   3  26
ATOM     26  N   LIG d   1       9.515   9.091  -2.751  0.00  0.00    -0.304 N 
ATOM     27  C   LIG d   1      10.356  10.096  -2.438  0.00  0.00     0.210 C 
ATOM     28  O   LIG d   1      11.545   9.881  -2.335  0.00  0.00    -0.276 OA
ATOM     29  H   LIG d   1       8.563   9.263  -2.835  0.00  0.00     0.149 HD
BRANCH  27  30
ATOM     30  C   LIG d   1       9.819  11.486  -2.216  0.00  0.00     0.012 C 
ATOM     31  H   LIG d   1       9.010  11.452  -1.486  0.00  0.00     0.032 H 
ATOM     32  H   LIG d   1      10.617  12.129  -1.843  0.00  0.00     0.032 H 
ATOM     33  H   LIG d   1       9.441  11.885  -3.158  0.00  0.00     0.032 H 
ENDBRANCH  27  30
ENDBRANCH   3  26
BRANCH   9  34
ATOM     34  C   LIG d   1      10.055   3.522  -3.672  0.00  0.00     0.122 C 
ATOM     35  H   LIG d   1      10.248   3.310  -4.723  0.00  0.00     0.072 H 
ATOM     36  H   LIG d   1      10.979   3.413  -3.104  0.00  0.00     0.072 H 
BRANCH  34  37
ATOM     37  O   LIG d   1       9.061   2.592  -3.164  0.00  0.00    -0.462 OA
BRANCH  37  38
ATOM     38  C   LIG d   1       8.120   2.177  -4.027  0.00  0.00     0.304 C 
ATOM     39  O   LIG d   1       7.024   1.867  -3.623  0.00  0.00    -0.251 OA
BRANCH  38  40
ATOM     40  C   LIG d   1       8.430   2.100  -5.499  0.00  0.00     0.033 C 
ATOM     41  H   LIG d   1       9.018   1.205  -5.700  0.00  0.00     0.034 H 
ATOM     42  H   LIG d   1       7.499   2.056  -6.065  0.00  0.00     0.034 H 
ATOM     43  H   LIG d   1       8.995   2.982  -5.799  0.00  0.00     0.034 H 
ENDBRANCH  38  40
ENDBRANCH  37  38
ENDBRANCH  34  37
ENDBRANCH   9  34
BRANCH   5  44
ATOM     44  O   LIG d   1      10.391   8.154  -5.343  0.00  0.00    -0.456 OA
BRANCH  44  45
ATOM     45  C   LIG d   1       9.618   8.939  -6.110  0.00  0.00     0.304 C 
ATOM     46  O   LIG d   1       9.316  10.046  -5.731  0.00  0.00    -0.251 OA
BRANCH  45  47
ATOM     47  C   LIG d   1       9.129   8.440  -7.446  0.00  0.00     0.033 C 
ATOM     48  H   LIG d   1       9.674   8.947  -8.243  0.00  0.00     0.034 H 
ATOM     49  H   LIG d   1       9.299   7.366  -7.515  0.00  0.00     0.034 H 
ATOM     50  H   LIG d   1       8.064   8.648  -7.544  0.00  0.00     0.034 H 
ENDBRANCH  45  47
ENDBRANCH  44  45
ENDBRANCH   5  44
BRANCH   7  51
ATOM     51  O   LIG d   1       9.828   5.380  -5.909  0.00  0.00    -0.455 OA
BRANCH  51  52
ATOM     52  C   LIG d   1      10.831   5.133  -6.766  0.00  0.00     0.304 C 
ATOM     53  O   LIG d   1      11.976   5.172  -6.384  0.00  0.00    -0.251 OA
BRANCH  52  54
ATOM     54  C   LIG d   1      10.529   4.807  -8.207  0.00  0.00     0.033 C 
ATOM     55  H   LIG d   1      11.344   5.164  -8.837  0.00  0.00     0.034 H 
ATOM     56  H   LIG d   1      10.426   3.729  -8.321  0.00  0.00     0.034 H 
ATOM     57  H   LIG d   1       9.600   5.294  -8.503  0.00  0.00     0.034 H 
ENDBRANCH  52  54
ENDBRANCH  51  52
ENDBRANCH   7  51
TORSDOF 17
ENDMDL
MODEL 9
REMARK VINA RESULT:      -4.3      3.587      7.183
REMARK  17 active torsions:
REMARK  status: ('A' for Active; 'I' for Inactive)
REMARK    1  A    between atoms: C_1  and  C_2 
REMARK    2  A    between atoms: C_2  and  C_3 
REMARK    3  A    between atoms: C_3  and  C_4 
REMARK    4  A    between atoms: C_4  and  O_5 
REMARK    5  A    between atoms: O_5  and  C_6 
REMARK    6  A    between atoms: C_8  and  N_30 
REMARK    7  A    between atoms: C_10  and  O_26 
REMARK    8  A    between atoms: C_12  and  O_22 
REMARK    9  A    between atoms: C_14  and  C_17 
REMARK   10  A    between atoms: C_17  and  O_18 
REMARK   11  A    between atoms: O_18  and  C_19 
REMARK   12  A    between atoms: C_19  and  C_21 
REMARK   13  A    between atoms: O_22  and  C_23 
REMARK   14  A    between atoms: C_23  and  C_25 
REMARK   15  A    between atoms: O_26  and  C_27 
REMARK   16  A    between atoms: C_27  and  C_29 
REMARK       I    between atoms: N_30  and  C_31 
REMARK   17  A    between atoms: C_31  and  C_33 
ROOT
ATOM      1  C   LIG d   1       4.724  -0.480  -6.331  0.00  0.00     0.181 C 
ATOM      2  H   LIG d   1       4.931  -1.546  -6.419  0.00  0.00     0.093 H 
ATOM      3  C   LIG d   1       4.629   0.137  -7.730  0.00  0.00     0.115 C 
ATOM      4  H   LIG d   1       4.383   1.196  -7.645  0.00  0.00     0.059 H 
ATOM      5  C   LIG d   1       5.978  -0.018  -8.440  0.00  0.00     0.165 C 
ATOM      6  H   LIG d   1       6.203  -1.076  -8.571  0.00  0.00     0.079 H 
ATOM      7  C   LIG d   1       7.070   0.638  -7.588  0.00  0.00     0.171 C 
ATOM      8  H   LIG d   1       6.871   1.706  -7.500  0.00  0.00     0.080 H 
ATOM      9  C   LIG d   1       7.070   0.001  -6.195  0.00  0.00     0.136 C 
ATOM     10  H   LIG d   1       7.308  -1.059  -6.280  0.00  0.00     0.067 H 
ATOM     11  O   LIG d   1       5.779   0.153  -5.604  0.00  0.00    -0.339 OA
ENDROOT
BRANCH   1  12
ATOM     12  O   LIG d   1       3.487  -0.289  -5.642  0.00  0.00    -0.349 OA
BRANCH  12  13
ATOM     13  C   LIG d   1       3.592  -0.395  -4.221  0.00  0.00     0.051 C 
ATOM     14  H   LIG d   1       4.627  -0.599  -3.947  0.00  0.00     0.056 H 
ATOM     15  H   LIG d   1       2.956  -1.207  -3.869  0.00  0.00     0.056 H 
BRANCH  13  16
ATOM     16  C   LIG d   1       3.144   0.919  -3.577  0.00  0.00    -0.030 C 
ATOM     17  H   LIG d   1       3.388   1.750  -4.239  0.00  0.00     0.029 H 
ATOM     18  H   LIG d   1       2.067   0.893  -3.409  0.00  0.00     0.029 H 
BRANCH  16  19
ATOM     19  C   LIG d   1       3.865   1.105  -2.241  0.00  0.00    -0.054 C 
ATOM     20  H   LIG d   1       4.652   1.850  -2.353  0.00  0.00     0.026 H 
ATOM     21  H   LIG d   1       3.152   1.440  -1.488  0.00  0.00     0.026 H 
BRANCH  19  22
ATOM     22  C   LIG d   1       4.479  -0.225  -1.803  0.00  0.00    -0.065 C 
ATOM     23  H   LIG d   1       5.064  -0.075  -0.895  0.00  0.00     0.023 H 
ATOM     24  H   LIG d   1       3.685  -0.946  -1.606  0.00  0.00     0.023 H 
ATOM     25  H   LIG d   1       5.126  -0.605  -2.593  0.00  0.00     0.023 H 
ENDBRANCH  19  22
ENDBRANCH  16  19
ENDBRANCH  13  16
ENDBRANCH  12  13
ENDBRANCH   1  12
BRANCH   3  26
ATOM     26  N   LIG d   1       3.589  -0.549  -8.498  0.00  0.00    -0.304 N 
ATOM     27  C   LIG d   1       2.561   0.151  -9.017  0.00  0.00     0.210 C 
ATOM     28  O   LIG d   1       2.497   1.349  -8.847  0.00  0.00    -0.276 OA
ATOM     29  H   LIG d   1       3.641  -1.509  -8.635  0.00  0.00     0.149 HD
BRANCH  27  30
ATOM     30  C   LIG d   1       1.491  -0.557  -9.808  0.00  0.00     0.012 C 
ATOM     31  H   LIG d   1       1.537  -1.627  -9.606  0.00  0.00     0.032 H 
ATOM     32  H   LIG d   1       0.512  -0.175  -9.517  0.00  0.00     0.032 H 
ATOM     33  H   LIG d   1       1.649  -0.381 -10.872  0.00  0.00     0.032 H 
ENDBRANCH  27  30
ENDBRANCH   3  26
BRANCH   9  34
ATOM     34  C   LIG d   1       8.118   0.691  -5.320  0.00  0.00     0.122 C 
ATOM     35  H   LIG d   1       8.019   0.343  -4.292  0.00  0.00     0.072 H 
ATOM     36  H   LIG d   1       9.115   0.453  -5.690  0.00  0.00     0.072 H 
BRANCH  34  37
ATOM     37  O   LIG d   1       7.915   2.129  -5.366  0.00  0.00    -0.462 OA
BRANCH  37  38
ATOM     38  C   LIG d   1       8.997   2.902  -5.186  0.00  0.00     0.304 C 
ATOM     39  O   LIG d   1       8.874   4.024  -4.754  0.00  0.00    -0.251 OA
BRANCH  38  40
ATOM     40  C   LIG d   1      10.366   2.370  -5.522  0.00  0.00     0.033 C 
ATOM     41  H   LIG d   1      11.023   2.486  -4.660  0.00  0.00     0.034 H 
ATOM     42  H   LIG d   1      10.292   1.314  -5.782  0.00  0.00     0.034 H 
ATOM     43  H   LIG d   1      10.774   2.924  -6.368  0.00  0.00     0.034 H 
ENDBRANCH  38  40
ENDBRANCH  37  38
ENDBRANCH  34  37
ENDBRANCH   9  34
BRANCH   5  44
ATOM     44  O   LIG d   1       5.920   0.630  -9.738  0.00  0.00    -0.456 OA
BRANCH  44  45
ATOM     45  C   LIG d   1       5.967  -0.165 -10.819  0.00  0.00     0.304 C 
ATOM     46  O   LIG d   1       4.948  -0.459 -11.397  0.00  0.00    -0.251 OA
BRANCH  45  47
ATOM     47  C   LIG d   1       7.291  -0.689 -11.311  0.00  0.00     0.033 C 
ATOM     48  H   LIG d   1       7.135  -1.628 -11.842  0.00  0.00     0.034 H 
ATOM     49  H   LIG d   1       7.741   0.040 -11.985  0.00  0.00     0.034 H 
ATOM     50  H   LIG d   1       7.954  -0.857 -10.463  0.00  0.00     0.034 H 
ENDBRANCH  45  47
ENDBRANCH  44  45
ENDBRANCH   5  44
BRANCH   7  51
ATOM     51  O   LIG d   1       8.363   0.434  -8.214  0.00  0.00    -0.455 OA
BRANCH  51  52
ATOM     52  C   LIG d   1       8.939   1.502  -8.786  0.00  0.00     0.304 C 
ATOM     53  O   LIG d   1       8.422   2.591  -8.690  0.00  0.00    -0.251 OA
BRANCH  52  54
ATOM     54  C   LIG d   1      10.229   1.347  -9.550  0.00  0.00     0.033 C 
ATOM     55  H   LIG d   1      11.063   1.308  -8.848  0.00  0.00     0.034 H 
ATOM     56  H   LIG d   1      10.200   0.426 -10.130  0.00  0.00     0.034 H 
ATOM     57  H   LIG d   1      10.359   2.196 -10.221  0.00  0.00     0.034 H 
ENDBRANCH  52  54
ENDBRANCH  51  52
ENDBRANCH   7  51
TORSDOF 17
ENDMDL
