MODEL 1
REMARK VINA RESULT:      -6.7      0.000      0.000
REMARK  7 active torsions:
REMARK  status: ('A' for Active; 'I' for Inactive)
REMARK    1  A    between atoms: C_1  and  C_2 
REMARK    2  A    between atoms: C_13  and  C_37 
REMARK    3  A    between atoms: C_15  and  C_27 
REMARK    4  A    between atoms: C_27  and  C_29 
REMARK    5  A    between atoms: C_32  and  O_35 
REMARK    6  A    between atoms: O_35  and  C_36 
REMARK    7  A    between atoms: C_37  and  C_39 
ROOT
ATOM      1  C   LIG d   1       4.743   0.310  -2.818  0.00  0.00    -0.050 A 
ATOM      2  C   LIG d   1       5.922  -0.212  -3.323  0.00  0.00    -0.057 A 
ATOM      3  C   LIG d   1       6.009  -0.595  -4.649  0.00  0.00    -0.040 A 
ATOM      4  C   LIG d   1       4.914  -0.460  -5.478  0.00  0.00     0.038 A 
ATOM      5  C   LIG d   1       3.708   0.069  -4.965  0.00  0.00    -0.004 A 
ATOM      6  C   LIG d   1       3.635   0.447  -3.631  0.00  0.00    -0.050 A 
ATOM      7  C   LIG d   1       2.544   0.195  -5.873  0.00  0.00    -0.055 C 
ATOM      8  C   LIG d   1       2.793   0.290  -7.192  0.00  0.00    -0.062 C 
ATOM      9  C   LIG d   1       4.235   0.256  -7.597  0.00  0.00     0.062 C 
ATOM     10  H   LIG d   1       4.697   1.222  -7.390  0.00  0.00     0.056 H 
ATOM     11  N   LIG d   1       4.916  -0.808  -6.808  0.00  0.00    -0.311 NA
ATOM     12  C   LIG d   1       6.204  -0.983  -7.489  0.00  0.00     0.093 C 
ATOM     13  H   LIG d   1       6.610  -1.856  -7.216  0.00  0.00     0.059 H 
ATOM     14  C   LIG d   1       5.826  -0.933  -8.997  0.00  0.00     0.067 C 
ATOM     15  H   LIG d   1       6.556  -0.480  -9.509  0.00  0.00     0.042 H 
ATOM     16  C   LIG d   1       4.502  -0.142  -9.039  0.00  0.00     0.108 A 
ATOM     17  C   LIG d   1       3.398  -0.947  -9.635  0.00  0.00    -0.008 A 
ATOM     18  C   LIG d   1       2.827  -2.145  -9.263  0.00  0.00    -0.056 A 
ATOM     19  C   LIG d   1       1.794  -2.628 -10.058  0.00  0.00    -0.061 A 
ATOM     20  C   LIG d   1       1.360  -1.936 -11.172  0.00  0.00    -0.060 A 
ATOM     21  C   LIG d   1       1.929  -0.731 -11.553  0.00  0.00    -0.040 A 
ATOM     22  C   LIG d   1       2.967  -0.235 -10.764  0.00  0.00     0.038 A 
ATOM     23  N   LIG d   1       3.705   0.927 -10.910  0.00  0.00    -0.284 N 
ATOM     24  C   LIG d   1       4.634   1.063  -9.939  0.00  0.00     0.231 A 
ATOM     25  O   LIG d   1       5.420   1.977  -9.812  0.00  0.00    -0.274 OA
ATOM     26  H   LIG d   1       6.781  -0.320  -2.676  0.00  0.00     0.062 H 
ATOM     27  H   LIG d   1       6.933  -1.001  -5.035  0.00  0.00     0.064 H 
ATOM     28  H   LIG d   1       2.716   0.851  -3.232  0.00  0.00     0.063 H 
ATOM     29  H   LIG d   1       1.534   0.208  -5.491  0.00  0.00     0.062 H 
ATOM     30  H   LIG d   1       1.999   0.385  -7.917  0.00  0.00     0.059 H 
ATOM     31  H   LIG d   1       3.167  -2.685  -8.391  0.00  0.00     0.062 H 
ATOM     32  H   LIG d   1       1.322  -3.564  -9.801  0.00  0.00     0.062 H 
ATOM     33  H   LIG d   1       0.555  -2.346 -11.762  0.00  0.00     0.062 H 
ATOM     34  H   LIG d   1       1.582  -0.198 -12.426  0.00  0.00     0.064 H 
ATOM     35  H   LIG d   1       3.570   1.568 -11.626  0.00  0.00     0.155 HD
ENDROOT
BRANCH  14  36
ATOM     36  C   LIG d   1       5.626  -2.327  -9.535  0.00  0.00     0.170 C 
ATOM     37  O   LIG d   1       5.430  -3.248  -8.772  0.00  0.00    -0.292 OA
BRANCH  36  38
ATOM     38  C   LIG d   1       5.668  -2.568 -10.983  0.00  0.00     0.018 A 
ATOM     39  C   LIG d   1       6.315  -1.656 -11.828  0.00  0.00    -0.048 A 
ATOM     40  C   LIG d   1       6.352  -1.886 -13.180  0.00  0.00    -0.019 A 
ATOM     41  H   LIG d   1       6.783  -0.774 -11.416  0.00  0.00     0.063 H 
ATOM     42  C   LIG d   1       5.750  -3.021 -13.711  0.00  0.00     0.120 A 
ATOM     43  H   LIG d   1       6.850  -1.183 -13.832  0.00  0.00     0.065 H 
ATOM     44  C   LIG d   1       5.106  -3.929 -12.877  0.00  0.00    -0.019 A 
ATOM     45  C   LIG d   1       5.069  -3.712 -11.524  0.00  0.00    -0.048 A 
ATOM     46  H   LIG d   1       4.640  -4.809 -13.295  0.00  0.00     0.065 H 
ATOM     47  H   LIG d   1       4.573  -4.420 -10.876  0.00  0.00     0.063 H 
BRANCH  42  48
ATOM     48  O   LIG d   1       5.790  -3.244 -15.049  0.00  0.00    -0.495 OA
BRANCH  48  49
ATOM     49  C   LIG d   1       6.133  -2.135 -15.882  0.00  0.00     0.079 C 
ATOM     50  H   LIG d   1       7.189  -1.898 -15.755  0.00  0.00     0.066 H 
ATOM     51  H   LIG d   1       5.941  -2.391 -16.923  0.00  0.00     0.066 H 
ATOM     52  H   LIG d   1       5.531  -1.270 -15.603  0.00  0.00     0.066 H 
ENDBRANCH  48  49
ENDBRANCH  42  48
ENDBRANCH  36  38
ENDBRANCH  14  36
BRANCH  12  53
ATOM     53  C   LIG d   1       7.146   0.140  -7.141  0.00  0.00     0.151 C 
ATOM     54  O   LIG d   1       6.764   1.285  -7.186  0.00  0.00    -0.296 OA
BRANCH  53  55
ATOM     55  C   LIG d   1       8.565  -0.164  -6.737  0.00  0.00    -0.004 C 
ATOM     56  H   LIG d   1       9.100   0.681  -6.737  0.00  0.00     0.031 H 
ATOM     57  H   LIG d   1       8.573  -0.598  -5.736  0.00  0.00     0.031 H 
ATOM     58  H   LIG d   1       9.001  -0.871  -7.442  0.00  0.00     0.031 H 
ENDBRANCH  53  55
ENDBRANCH  12  53
BRANCH   1  59
ATOM     59  C   LIG d   1       4.668   0.726  -1.371  0.00  0.00    -0.040 C 
ATOM     60  H   LIG d   1       5.588   0.439  -0.862  0.00  0.00     0.028 H 
ATOM     61  H   LIG d   1       3.820   0.234  -0.895  0.00  0.00     0.028 H 
ATOM     62  H   LIG d   1       4.542   1.807  -1.311  0.00  0.00     0.028 H 
ENDBRANCH   1  59
TORSDOF 7
ENDMDL
MODEL 2
REMARK VINA RESULT:      -6.3      2.035      3.525
REMARK  7 active torsions:
REMARK  status: ('A' for Active; 'I' for Inactive)
REMARK    1  A    between atoms: C_1  and  C_2 
REMARK    2  A    between atoms: C_13  and  C_37 
REMARK    3  A    between atoms: C_15  and  C_27 
REMARK    4  A    between atoms: C_27  and  C_29 
REMARK    5  A    between atoms: C_32  and  O_35 
REMARK    6  A    between atoms: O_35  and  C_36 
REMARK    7  A    between atoms: C_37  and  C_39 
ROOT
ATOM      1  C   LIG d   1       4.564   0.366  -2.904  0.00  0.00    -0.050 A 
ATOM      2  C   LIG d   1       5.670  -0.357  -3.320  0.00  0.00    -0.057 A 
ATOM      3  C   LIG d   1       5.754  -0.825  -4.619  0.00  0.00    -0.040 A 
ATOM      4  C   LIG d   1       4.730  -0.573  -5.510  0.00  0.00     0.038 A 
ATOM      5  C   LIG d   1       3.600   0.161  -5.087  0.00  0.00    -0.004 A 
ATOM      6  C   LIG d   1       3.527   0.623  -3.780  0.00  0.00    -0.050 A 
ATOM      7  C   LIG d   1       2.510   0.410  -6.061  0.00  0.00    -0.055 C 
ATOM      8  C   LIG d   1       2.828   0.391  -7.368  0.00  0.00    -0.062 C 
ATOM      9  C   LIG d   1       4.264   0.115  -7.695  0.00  0.00     0.062 C 
ATOM     10  H   LIG d   1       4.861   1.009  -7.512  0.00  0.00     0.056 H 
ATOM     11  N   LIG d   1       4.737  -0.993  -6.819  0.00  0.00    -0.311 NA
ATOM     12  C   LIG d   1       6.011  -1.402  -7.422  0.00  0.00     0.093 C 
ATOM     13  H   LIG d   1       6.265  -2.308  -7.085  0.00  0.00     0.059 H 
ATOM     14  C   LIG d   1       5.712  -1.381  -8.948  0.00  0.00     0.067 C 
ATOM     15  H   LIG d   1       6.525  -1.075  -9.443  0.00  0.00     0.042 H 
ATOM     16  C   LIG d   1       4.529  -0.402  -9.099  0.00  0.00     0.108 A 
ATOM     17  C   LIG d   1       3.341  -1.063  -9.711  0.00  0.00    -0.008 A 
ATOM     18  C   LIG d   1       2.576  -2.137  -9.309  0.00  0.00    -0.056 A 
ATOM     19  C   LIG d   1       1.517  -2.502 -10.132  0.00  0.00    -0.061 A 
ATOM     20  C   LIG d   1       1.244  -1.818 -11.300  0.00  0.00    -0.060 A 
ATOM     21  C   LIG d   1       2.009  -0.738 -11.711  0.00  0.00    -0.040 A 
ATOM     22  C   LIG d   1       3.076  -0.360 -10.895  0.00  0.00     0.038 A 
ATOM     23  N   LIG d   1       3.990   0.666 -11.060  0.00  0.00    -0.284 N 
ATOM     24  C   LIG d   1       4.886   0.714 -10.050  0.00  0.00     0.231 A 
ATOM     25  O   LIG d   1       5.798   1.504  -9.929  0.00  0.00    -0.274 OA
ATOM     26  H   LIG d   1       6.472  -0.557  -2.625  0.00  0.00     0.062 H 
ATOM     27  H   LIG d   1       6.620  -1.389  -4.936  0.00  0.00     0.064 H 
ATOM     28  H   LIG d   1       2.665   1.184  -3.450  0.00  0.00     0.063 H 
ATOM     29  H   LIG d   1       1.498   0.599  -5.733  0.00  0.00     0.062 H 
ATOM     30  H   LIG d   1       2.091   0.563  -8.138  0.00  0.00     0.059 H 
ATOM     31  H   LIG d   1       2.790  -2.671  -8.395  0.00  0.00     0.062 H 
ATOM     32  H   LIG d   1       0.895  -3.339  -9.853  0.00  0.00     0.062 H 
ATOM     33  H   LIG d   1       0.412  -2.134 -11.910  0.00  0.00     0.062 H 
ATOM     34  H   LIG d   1       1.788  -0.209 -12.626  0.00  0.00     0.064 H 
ATOM     35  H   LIG d   1       3.988   1.277 -11.814  0.00  0.00     0.155 HD
ENDROOT
BRANCH  14  36
ATOM     36  C   LIG d   1       5.323  -2.757  -9.425  0.00  0.00     0.170 C 
ATOM     37  O   LIG d   1       5.083  -2.947 -10.598  0.00  0.00    -0.292 OA
BRANCH  36  38
ATOM     38  C   LIG d   1       5.234  -3.868  -8.468  0.00  0.00     0.018 A 
ATOM     39  C   LIG d   1       4.023  -4.143  -7.821  0.00  0.00    -0.048 A 
ATOM     40  C   LIG d   1       3.945  -5.181  -6.928  0.00  0.00    -0.019 A 
ATOM     41  H   LIG d   1       3.151  -3.538  -8.024  0.00  0.00     0.063 H 
ATOM     42  C   LIG d   1       5.067  -5.961  -6.666  0.00  0.00     0.120 A 
ATOM     43  H   LIG d   1       3.012  -5.393  -6.428  0.00  0.00     0.065 H 
ATOM     44  C   LIG d   1       6.272  -5.692  -7.305  0.00  0.00    -0.019 A 
ATOM     45  C   LIG d   1       6.358  -4.660  -8.204  0.00  0.00    -0.048 A 
ATOM     46  H   LIG d   1       7.140  -6.300  -7.098  0.00  0.00     0.065 H 
ATOM     47  H   LIG d   1       7.294  -4.455  -8.704  0.00  0.00     0.063 H 
BRANCH  42  48
ATOM     48  O   LIG d   1       4.985  -6.987  -5.782  0.00  0.00    -0.495 OA
BRANCH  48  49
ATOM     49  C   LIG d   1       6.215  -7.577  -5.357  0.00  0.00     0.079 C 
ATOM     50  H   LIG d   1       6.005  -8.448  -4.738  0.00  0.00     0.066 H 
ATOM     51  H   LIG d   1       6.791  -7.882  -6.230  0.00  0.00     0.066 H 
ATOM     52  H   LIG d   1       6.787  -6.850  -4.780  0.00  0.00     0.066 H 
ENDBRANCH  48  49
ENDBRANCH  42  48
ENDBRANCH  36  38
ENDBRANCH  14  36
BRANCH  12  53
ATOM     53  C   LIG d   1       7.100  -0.416  -7.082  0.00  0.00     0.151 C 
ATOM     54  O   LIG d   1       6.860   0.767  -7.068  0.00  0.00    -0.296 OA
BRANCH  53  55
ATOM     55  C   LIG d   1       8.487  -0.907  -6.760  0.00  0.00    -0.004 C 
ATOM     56  H   LIG d   1       8.808  -1.506  -7.493  0.00  0.00     0.031 H 
ATOM     57  H   LIG d   1       9.162  -0.056  -6.666  0.00  0.00     0.031 H 
ATOM     58  H   LIG d   1       8.468  -1.460  -5.821  0.00  0.00     0.031 H 
ENDBRANCH  53  55
ENDBRANCH  12  53
BRANCH   1  59
ATOM     59  C   LIG d   1       4.491   0.871  -1.487  0.00  0.00    -0.040 C 
ATOM     60  H   LIG d   1       5.060   0.209  -0.834  0.00  0.00     0.028 H 
ATOM     61  H   LIG d   1       3.451   0.894  -1.162  0.00  0.00     0.028 H 
ATOM     62  H   LIG d   1       4.909   1.877  -1.438  0.00  0.00     0.028 H 
ENDBRANCH   1  59
TORSDOF 7
ENDMDL
MODEL 3
REMARK VINA RESULT:      -6.1      2.749      6.999
REMARK  7 active torsions:
REMARK  status: ('A' for Active; 'I' for Inactive)
REMARK    1  A    between atoms: C_1  and  C_2 
REMARK    2  A    between atoms: C_13  and  C_37 
REMARK    3  A    between atoms: C_15  and  C_27 
REMARK    4  A    between atoms: C_27  and  C_29 
REMARK    5  A    between atoms: C_32  and  O_35 
REMARK    6  A    between atoms: O_35  and  C_36 
REMARK    7  A    between atoms: C_37  and  C_39 
ROOT
ATOM      1  C   LIG d   1       4.140   0.003 -10.864  0.00  0.00    -0.050 A 
ATOM      2  C   LIG d   1       5.402  -0.552 -10.736  0.00  0.00    -0.057 A 
ATOM      3  C   LIG d   1       5.929  -0.816  -9.485  0.00  0.00    -0.040 A 
ATOM      4  C   LIG d   1       5.195  -0.524  -8.352  0.00  0.00     0.038 A 
ATOM      5  C   LIG d   1       3.908   0.046  -8.480  0.00  0.00    -0.004 A 
ATOM      6  C   LIG d   1       3.393   0.308  -9.743  0.00  0.00    -0.050 A 
ATOM      7  C   LIG d   1       3.144   0.359  -7.250  0.00  0.00    -0.055 C 
ATOM      8  C   LIG d   1       3.446  -0.337  -6.137  0.00  0.00    -0.062 C 
ATOM      9  C   LIG d   1       4.533  -1.358  -6.272  0.00  0.00     0.062 C 
ATOM     10  H   LIG d   1       4.146  -2.242  -6.778  0.00  0.00     0.056 H 
ATOM     11  N   LIG d   1       5.638  -0.762  -7.073  0.00  0.00    -0.311 NA
ATOM     12  C   LIG d   1       6.759  -1.688  -6.875  0.00  0.00     0.093 C 
ATOM     13  H   LIG d   1       7.614  -1.238  -7.134  0.00  0.00     0.059 H 
ATOM     14  C   LIG d   1       6.684  -2.028  -5.360  0.00  0.00     0.067 C 
ATOM     15  H   LIG d   1       6.950  -2.982  -5.219  0.00  0.00     0.042 H 
ATOM     16  C   LIG d   1       5.214  -1.766  -4.975  0.00  0.00     0.108 A 
ATOM     17  C   LIG d   1       5.099  -0.732  -3.907  0.00  0.00    -0.008 A 
ATOM     18  C   LIG d   1       5.488   0.589  -3.859  0.00  0.00    -0.056 A 
ATOM     19  C   LIG d   1       5.227   1.283  -2.683  0.00  0.00    -0.061 A 
ATOM     20  C   LIG d   1       4.604   0.675  -1.611  0.00  0.00    -0.060 A 
ATOM     21  C   LIG d   1       4.210  -0.653  -1.652  0.00  0.00    -0.040 A 
ATOM     22  C   LIG d   1       4.467  -1.362  -2.826  0.00  0.00     0.038 A 
ATOM     23  N   LIG d   1       4.185  -2.682  -3.136  0.00  0.00    -0.284 N 
ATOM     24  C   LIG d   1       4.593  -3.007  -4.382  0.00  0.00     0.231 A 
ATOM     25  O   LIG d   1       4.479  -4.087  -4.922  0.00  0.00    -0.274 OA
ATOM     26  H   LIG d   1       5.980  -0.781 -11.619  0.00  0.00     0.062 H 
ATOM     27  H   LIG d   1       6.915  -1.250  -9.393  0.00  0.00     0.064 H 
ATOM     28  H   LIG d   1       2.411   0.744  -9.848  0.00  0.00     0.063 H 
ATOM     29  H   LIG d   1       2.375   1.117  -7.245  0.00  0.00     0.062 H 
ATOM     30  H   LIG d   1       2.934  -0.167  -5.202  0.00  0.00     0.059 H 
ATOM     31  H   LIG d   1       5.975   1.064  -4.698  0.00  0.00     0.062 H 
ATOM     32  H   LIG d   1       5.518   2.320  -2.606  0.00  0.00     0.062 H 
ATOM     33  H   LIG d   1       4.419   1.250  -0.717  0.00  0.00     0.062 H 
ATOM     34  H   LIG d   1       3.724  -1.121  -0.808  0.00  0.00     0.064 H 
ATOM     35  H   LIG d   1       3.748  -3.300  -2.529  0.00  0.00     0.155 HD
ENDROOT
BRANCH  14  36
ATOM     36  C   LIG d   1       7.604  -1.129  -4.574  0.00  0.00     0.170 C 
ATOM     37  O   LIG d   1       7.661  -1.227  -3.367  0.00  0.00    -0.292 OA
BRANCH  36  38
ATOM     38  C   LIG d   1       8.431  -0.135  -5.271  0.00  0.00     0.018 A 
ATOM     39  C   LIG d   1       8.032   1.207  -5.312  0.00  0.00    -0.048 A 
ATOM     40  C   LIG d   1       8.807   2.130  -5.965  0.00  0.00    -0.019 A 
ATOM     41  H   LIG d   1       7.115   1.513  -4.831  0.00  0.00     0.063 H 
ATOM     42  C   LIG d   1       9.989   1.737  -6.584  0.00  0.00     0.120 A 
ATOM     43  H   LIG d   1       8.500   3.165  -5.997  0.00  0.00     0.065 H 
ATOM     44  C   LIG d   1      10.390   0.406  -6.547  0.00  0.00    -0.019 A 
ATOM     45  C   LIG d   1       9.625  -0.525  -5.892  0.00  0.00    -0.048 A 
ATOM     46  H   LIG d   1      11.308   0.105  -7.029  0.00  0.00     0.065 H 
ATOM     47  H   LIG d   1       9.940  -1.558  -5.859  0.00  0.00     0.063 H 
BRANCH  42  48
ATOM     48  O   LIG d   1      10.753   2.654  -7.227  0.00  0.00    -0.495 OA
BRANCH  48  49
ATOM     49  C   LIG d   1      10.127   3.890  -7.578  0.00  0.00     0.079 C 
ATOM     50  H   LIG d   1      10.329   4.632  -6.807  0.00  0.00     0.066 H 
ATOM     51  H   LIG d   1      10.522   4.239  -8.531  0.00  0.00     0.066 H 
ATOM     52  H   LIG d   1       9.050   3.740  -7.664  0.00  0.00     0.066 H 
ENDBRANCH  48  49
ENDBRANCH  42  48
ENDBRANCH  36  38
ENDBRANCH  14  36
BRANCH  12  53
ATOM     53  C   LIG d   1       6.573  -2.931  -7.707  0.00  0.00     0.151 C 
ATOM     54  O   LIG d   1       5.489  -3.458  -7.772  0.00  0.00    -0.296 OA
BRANCH  53  55
ATOM     55  C   LIG d   1       7.741  -3.516  -8.459  0.00  0.00    -0.004 C 
ATOM     56  H   LIG d   1       7.405  -4.148  -9.157  0.00  0.00     0.031 H 
ATOM     57  H   LIG d   1       8.305  -2.714  -8.936  0.00  0.00     0.031 H 
ATOM     58  H   LIG d   1       8.388  -4.052  -7.765  0.00  0.00     0.031 H 
ENDBRANCH  53  55
ENDBRANCH  12  53
BRANCH   1  59
ATOM     59  C   LIG d   1       3.581   0.280 -12.236  0.00  0.00    -0.040 C 
ATOM     60  H   LIG d   1       3.561   1.356 -12.410  0.00  0.00     0.028 H 
ATOM     61  H   LIG d   1       2.568  -0.117 -12.303  0.00  0.00     0.028 H 
ATOM     62  H   LIG d   1       4.209  -0.198 -12.987  0.00  0.00     0.028 H 
ENDBRANCH   1  59
TORSDOF 7
ENDMDL
MODEL 4
REMARK VINA RESULT:      -6.1      2.982      7.388
REMARK  7 active torsions:
REMARK  status: ('A' for Active; 'I' for Inactive)
REMARK    1  A    between atoms: C_1  and  C_2 
REMARK    2  A    between atoms: C_13  and  C_37 
REMARK    3  A    between atoms: C_15  and  C_27 
REMARK    4  A    between atoms: C_27  and  C_29 
REMARK    5  A    between atoms: C_32  and  O_35 
REMARK    6  A    between atoms: O_35  and  C_36 
REMARK    7  A    between atoms: C_37  and  C_39 
ROOT
ATOM      1  C   LIG d   1       1.682  -1.367 -10.848  0.00  0.00    -0.050 A 
ATOM      2  C   LIG d   1       2.601  -2.374 -11.090  0.00  0.00    -0.057 A 
ATOM      3  C   LIG d   1       3.655  -2.586 -10.219  0.00  0.00    -0.040 A 
ATOM      4  C   LIG d   1       3.795  -1.790  -9.100  0.00  0.00     0.038 A 
ATOM      5  C   LIG d   1       2.860  -0.760  -8.852  0.00  0.00    -0.004 A 
ATOM      6  C   LIG d   1       1.809  -0.557  -9.736  0.00  0.00    -0.050 A 
ATOM      7  C   LIG d   1       3.038   0.086  -7.649  0.00  0.00    -0.055 C 
ATOM      8  C   LIG d   1       3.727  -0.437  -6.617  0.00  0.00    -0.062 C 
ATOM      9  C   LIG d   1       4.241  -1.831  -6.806  0.00  0.00     0.062 C 
ATOM     10  H   LIG d   1       3.425  -2.544  -6.687  0.00  0.00     0.056 H 
ATOM     11  N   LIG d   1       4.806  -1.938  -8.180  0.00  0.00    -0.311 NA
ATOM     12  C   LIG d   1       5.559  -3.198  -8.156  0.00  0.00     0.093 C 
ATOM     13  H   LIG d   1       6.198  -3.220  -8.925  0.00  0.00     0.059 H 
ATOM     14  C   LIG d   1       6.271  -3.167  -6.774  0.00  0.00     0.067 C 
ATOM     15  H   LIG d   1       6.315  -4.094  -6.401  0.00  0.00     0.042 H 
ATOM     16  C   LIG d   1       5.404  -2.228  -5.910  0.00  0.00     0.108 A 
ATOM     17  C   LIG d   1       6.183  -1.057  -5.415  0.00  0.00    -0.008 A 
ATOM     18  C   LIG d   1       6.853  -0.051  -6.077  0.00  0.00    -0.056 A 
ATOM     19  C   LIG d   1       7.491   0.904  -5.294  0.00  0.00    -0.061 A 
ATOM     20  C   LIG d   1       7.454   0.847  -3.915  0.00  0.00    -0.060 A 
ATOM     21  C   LIG d   1       6.783  -0.162  -3.243  0.00  0.00    -0.040 A 
ATOM     22  C   LIG d   1       6.138  -1.128  -4.016  0.00  0.00     0.038 A 
ATOM     23  N   LIG d   1       5.404  -2.231  -3.613  0.00  0.00    -0.284 N 
ATOM     24  C   LIG d   1       4.934  -2.938  -4.664  0.00  0.00     0.231 A 
ATOM     25  O   LIG d   1       4.263  -3.947  -4.616  0.00  0.00    -0.274 OA
ATOM     26  H   LIG d   1       2.495  -2.997 -11.965  0.00  0.00     0.062 H 
ATOM     27  H   LIG d   1       4.368  -3.374 -10.415  0.00  0.00     0.064 H 
ATOM     28  H   LIG d   1       1.092   0.229  -9.553  0.00  0.00     0.063 H 
ATOM     29  H   LIG d   1       2.632   1.086  -7.602  0.00  0.00     0.062 H 
ATOM     30  H   LIG d   1       3.898   0.116  -5.706  0.00  0.00     0.059 H 
ATOM     31  H   LIG d   1       6.881  -0.007  -7.156  0.00  0.00     0.062 H 
ATOM     32  H   LIG d   1       8.029   1.708  -5.775  0.00  0.00     0.062 H 
ATOM     33  H   LIG d   1       7.962   1.609  -3.345  0.00  0.00     0.062 H 
ATOM     34  H   LIG d   1       6.759  -0.199  -2.164  0.00  0.00     0.064 H 
ATOM     35  H   LIG d   1       5.247  -2.468  -2.685  0.00  0.00     0.155 HD
ENDROOT
BRANCH  14  36
ATOM     36  C   LIG d   1       7.667  -2.616  -6.914  0.00  0.00     0.170 C 
ATOM     37  O   LIG d   1       7.945  -1.903  -7.855  0.00  0.00    -0.292 OA
BRANCH  36  38
ATOM     38  C   LIG d   1       8.690  -2.942  -5.912  0.00  0.00     0.018 A 
ATOM     39  C   LIG d   1       8.490  -4.010  -5.027  0.00  0.00    -0.048 A 
ATOM     40  C   LIG d   1       9.448  -4.310  -4.093  0.00  0.00    -0.019 A 
ATOM     41  H   LIG d   1       7.584  -4.594  -5.080  0.00  0.00     0.063 H 
ATOM     42  C   LIG d   1      10.616  -3.558  -4.024  0.00  0.00     0.120 A 
ATOM     43  H   LIG d   1       9.295  -5.133  -3.410  0.00  0.00     0.065 H 
ATOM     44  C   LIG d   1      10.819  -2.497  -4.899  0.00  0.00    -0.019 A 
ATOM     45  C   LIG d   1       9.870  -2.192  -5.841  0.00  0.00    -0.048 A 
ATOM     46  H   LIG d   1      11.727  -1.916  -4.842  0.00  0.00     0.065 H 
ATOM     47  H   LIG d   1      10.031  -1.371  -6.525  0.00  0.00     0.063 H 
BRANCH  42  48
ATOM     48  O   LIG d   1      11.560  -3.860  -3.098  0.00  0.00    -0.495 OA
BRANCH  48  49
ATOM     49  C   LIG d   1      12.923  -3.821  -3.525  0.00  0.00     0.079 C 
ATOM     50  H   LIG d   1      13.071  -2.975  -4.195  0.00  0.00     0.066 H 
ATOM     51  H   LIG d   1      13.572  -3.715  -2.656  0.00  0.00     0.066 H 
ATOM     52  H   LIG d   1      13.167  -4.746  -4.049  0.00  0.00     0.066 H 
ENDBRANCH  48  49
ENDBRANCH  42  48
ENDBRANCH  36  38
ENDBRANCH  14  36
BRANCH  12  53
ATOM     53  C   LIG d   1       4.625  -4.377  -8.244  0.00  0.00     0.151 C 
ATOM     54  O   LIG d   1       3.623  -4.406  -7.571  0.00  0.00    -0.296 OA
BRANCH  53  55
ATOM     55  C   LIG d   1       4.940  -5.520  -9.174  0.00  0.00    -0.004 C 
ATOM     56  H   LIG d   1       4.157  -6.141  -9.217  0.00  0.00     0.031 H 
ATOM     57  H   LIG d   1       5.149  -5.131 -10.171  0.00  0.00     0.031 H 
ATOM     58  H   LIG d   1       5.812  -6.059  -8.804  0.00  0.00     0.031 H 
ENDBRANCH  53  55
ENDBRANCH  12  53
BRANCH   1  59
ATOM     59  C   LIG d   1       0.538  -1.152 -11.805  0.00  0.00    -0.040 C 
ATOM     60  H   LIG d   1       0.923  -1.092 -12.824  0.00  0.00     0.028 H 
ATOM     61  H   LIG d   1       0.024  -0.224 -11.555  0.00  0.00     0.028 H 
ATOM     62  H   LIG d   1      -0.160  -1.986 -11.729  0.00  0.00     0.028 H 
ENDBRANCH   1  59
TORSDOF 7
ENDMDL
MODEL 5
REMARK VINA RESULT:      -6.0      4.299      6.496
REMARK  7 active torsions:
REMARK  status: ('A' for Active; 'I' for Inactive)
REMARK    1  A    between atoms: C_1  and  C_2 
REMARK    2  A    between atoms: C_13  and  C_37 
REMARK    3  A    between atoms: C_15  and  C_27 
REMARK    4  A    between atoms: C_27  and  C_29 
REMARK    5  A    between atoms: C_32  and  O_35 
REMARK    6  A    between atoms: O_35  and  C_36 
REMARK    7  A    between atoms: C_37  and  C_39 
ROOT
ATOM      1  C   LIG d   1      11.472   2.692  -4.910  0.00  0.00    -0.050 A 
ATOM      2  C   LIG d   1      11.777   1.457  -5.456  0.00  0.00    -0.057 A 
ATOM      3  C   LIG d   1      10.834   0.446  -5.475  0.00  0.00    -0.040 A 
ATOM      4  C   LIG d   1       9.578   0.665  -4.945  0.00  0.00     0.038 A 
ATOM      5  C   LIG d   1       9.265   1.923  -4.384  0.00  0.00    -0.004 A 
ATOM      6  C   LIG d   1      10.223   2.928  -4.369  0.00  0.00    -0.050 A 
ATOM      7  C   LIG d   1       7.914   2.130  -3.812  0.00  0.00    -0.055 C 
ATOM      8  C   LIG d   1       6.917   1.353  -4.276  0.00  0.00    -0.062 C 
ATOM      9  C   LIG d   1       7.293   0.356  -5.328  0.00  0.00     0.062 C 
ATOM     10  H   LIG d   1       7.412   0.860  -6.288  0.00  0.00     0.056 H 
ATOM     11  N   LIG d   1       8.579  -0.280  -4.931  0.00  0.00    -0.311 NA
ATOM     12  C   LIG d   1       8.693  -1.439  -5.824  0.00  0.00     0.093 C 
ATOM     13  H   LIG d   1       9.365  -2.081  -5.454  0.00  0.00     0.059 H 
ATOM     14  C   LIG d   1       7.249  -2.017  -5.850  0.00  0.00     0.067 C 
ATOM     15  H   LIG d   1       7.051  -2.378  -6.762  0.00  0.00     0.042 H 
ATOM     16  C   LIG d   1       6.345  -0.823  -5.483  0.00  0.00     0.108 A 
ATOM     17  C   LIG d   1       5.547  -1.093  -4.253  0.00  0.00    -0.008 A 
ATOM     18  C   LIG d   1       5.920  -1.383  -2.958  0.00  0.00    -0.056 A 
ATOM     19  C   LIG d   1       4.900  -1.585  -2.036  0.00  0.00    -0.061 A 
ATOM     20  C   LIG d   1       3.571  -1.500  -2.403  0.00  0.00    -0.060 A 
ATOM     21  C   LIG d   1       3.188  -1.209  -3.703  0.00  0.00    -0.040 A 
ATOM     22  C   LIG d   1       4.202  -1.004  -4.639  0.00  0.00     0.038 A 
ATOM     23  N   LIG d   1       4.107  -0.704  -5.987  0.00  0.00    -0.284 N 
ATOM     24  C   LIG d   1       5.322  -0.581  -6.565  0.00  0.00     0.231 A 
ATOM     25  O   LIG d   1       5.547  -0.324  -7.729  0.00  0.00    -0.274 OA
ATOM     26  H   LIG d   1      12.759   1.281  -5.871  0.00  0.00     0.062 H 
ATOM     27  H   LIG d   1      11.079  -0.516  -5.904  0.00  0.00     0.064 H 
ATOM     28  H   LIG d   1       9.991   3.892  -3.940  0.00  0.00     0.063 H 
ATOM     29  H   LIG d   1       7.735   2.876  -3.051  0.00  0.00     0.062 H 
ATOM     30  H   LIG d   1       5.905   1.444  -3.911  0.00  0.00     0.059 H 
ATOM     31  H   LIG d   1       6.960  -1.449  -2.673  0.00  0.00     0.062 H 
ATOM     32  H   LIG d   1       5.151  -1.816  -1.012  0.00  0.00     0.062 H 
ATOM     33  H   LIG d   1       2.810  -1.663  -1.656  0.00  0.00     0.062 H 
ATOM     34  H   LIG d   1       2.146  -1.144  -3.980  0.00  0.00     0.064 H 
ATOM     35  H   LIG d   1       3.267  -0.596  -6.460  0.00  0.00     0.155 HD
ENDROOT
BRANCH  14  36
ATOM     36  C   LIG d   1       7.107  -3.120  -4.833  0.00  0.00     0.170 C 
ATOM     37  O   LIG d   1       7.600  -2.997  -3.732  0.00  0.00    -0.292 OA
BRANCH  36  38
ATOM     38  C   LIG d   1       6.370  -4.345  -5.176  0.00  0.00     0.018 A 
ATOM     39  C   LIG d   1       4.976  -4.310  -5.312  0.00  0.00    -0.048 A 
ATOM     40  C   LIG d   1       4.293  -5.456  -5.632  0.00  0.00    -0.019 A 
ATOM     41  H   LIG d   1       4.441  -3.384  -5.165  0.00  0.00     0.063 H 
ATOM     42  C   LIG d   1       4.982  -6.649  -5.822  0.00  0.00     0.120 A 
ATOM     43  H   LIG d   1       3.218  -5.430  -5.737  0.00  0.00     0.065 H 
ATOM     44  C   LIG d   1       6.366  -6.688  -5.687  0.00  0.00    -0.019 A 
ATOM     45  C   LIG d   1       7.059  -5.547  -5.373  0.00  0.00    -0.048 A 
ATOM     46  H   LIG d   1       6.896  -7.617  -5.835  0.00  0.00     0.065 H 
ATOM     47  H   LIG d   1       8.134  -5.578  -5.274  0.00  0.00     0.063 H 
BRANCH  42  48
ATOM     48  O   LIG d   1       4.302  -7.779  -6.139  0.00  0.00    -0.495 OA
BRANCH  48  49
ATOM     49  C   LIG d   1       4.668  -8.973  -5.445  0.00  0.00     0.079 C 
ATOM     50  H   LIG d   1       5.652  -8.845  -4.995  0.00  0.00     0.066 H 
ATOM     51  H   LIG d   1       3.935  -9.179  -4.666  0.00  0.00     0.066 H 
ATOM     52  H   LIG d   1       4.696  -9.807  -6.147  0.00  0.00     0.066 H 
ENDBRANCH  48  49
ENDBRANCH  42  48
ENDBRANCH  36  38
ENDBRANCH  14  36
BRANCH  12  53
ATOM     53  C   LIG d   1       9.116  -1.007  -7.204  0.00  0.00     0.151 C 
ATOM     54  O   LIG d   1       8.616  -0.032  -7.711  0.00  0.00    -0.296 OA
BRANCH  53  55
ATOM     55  C   LIG d   1      10.164  -1.790  -7.950  0.00  0.00    -0.004 C 
ATOM     56  H   LIG d   1      10.743  -1.162  -8.470  0.00  0.00     0.031 H 
ATOM     57  H   LIG d   1      10.778  -2.345  -7.241  0.00  0.00     0.031 H 
ATOM     58  H   LIG d   1       9.679  -2.488  -8.634  0.00  0.00     0.031 H 
ENDBRANCH  53  55
ENDBRANCH  12  53
BRANCH   1  59
ATOM     59  C   LIG d   1      12.512   3.783  -4.901  0.00  0.00    -0.040 C 
ATOM     60  H   LIG d   1      13.429   3.416  -5.362  0.00  0.00     0.028 H 
ATOM     61  H   LIG d   1      12.716   4.082  -3.873  0.00  0.00     0.028 H 
ATOM     62  H   LIG d   1      12.141   4.641  -5.462  0.00  0.00     0.028 H 
ENDBRANCH   1  59
TORSDOF 7
ENDMDL
MODEL 6
REMARK VINA RESULT:      -6.0     11.147     15.650
REMARK  7 active torsions:
REMARK  status: ('A' for Active; 'I' for Inactive)
REMARK    1  A    between atoms: C_1  and  C_2 
REMARK    2  A    between atoms: C_13  and  C_37 
REMARK    3  A    between atoms: C_15  and  C_27 
REMARK    4  A    between atoms: C_27  and  C_29 
REMARK    5  A    between atoms: C_32  and  O_35 
REMARK    6  A    between atoms: O_35  and  C_36 
REMARK    7  A    between atoms: C_37  and  C_39 
ROOT
ATOM      1  C   LIG d   1       9.629   7.239  -7.474  0.00  0.00    -0.050 A 
ATOM      2  C   LIG d   1      10.248   6.316  -6.647  0.00  0.00    -0.057 A 
ATOM      3  C   LIG d   1      10.674   6.682  -5.383  0.00  0.00    -0.040 A 
ATOM      4  C   LIG d   1      10.484   7.975  -4.939  0.00  0.00     0.038 A 
ATOM      5  C   LIG d   1       9.856   8.919  -5.782  0.00  0.00    -0.004 A 
ATOM      6  C   LIG d   1       9.436   8.539  -7.050  0.00  0.00    -0.050 A 
ATOM      7  C   LIG d   1       9.673  10.304  -5.286  0.00  0.00    -0.055 C 
ATOM      8  C   LIG d   1       9.633  10.486  -3.953  0.00  0.00    -0.062 C 
ATOM      9  C   LIG d   1       9.781   9.254  -3.114  0.00  0.00     0.062 C 
ATOM     10  H   LIG d   1       8.846   8.694  -3.115  0.00  0.00     0.056 H 
ATOM     11  N   LIG d   1      10.869   8.420  -3.696  0.00  0.00    -0.311 NA
ATOM     12  C   LIG d   1      11.155   7.431  -2.651  0.00  0.00     0.093 C 
ATOM     13  H   LIG d   1      12.046   7.011  -2.824  0.00  0.00     0.059 H 
ATOM     14  C   LIG d   1      11.121   8.269  -1.341  0.00  0.00     0.067 C 
ATOM     15  H   LIG d   1      10.736   7.716  -0.602  0.00  0.00     0.042 H 
ATOM     16  C   LIG d   1      10.238   9.488  -1.683  0.00  0.00     0.108 A 
ATOM     17  C   LIG d   1      10.979  10.770  -1.510  0.00  0.00    -0.008 A 
ATOM     18  C   LIG d   1      12.122  11.260  -2.103  0.00  0.00    -0.056 A 
ATOM     19  C   LIG d   1      12.551  12.520  -1.703  0.00  0.00    -0.061 A 
ATOM     20  C   LIG d   1      11.862  13.247  -0.752  0.00  0.00    -0.060 A 
ATOM     21  C   LIG d   1      10.713  12.761  -0.150  0.00  0.00    -0.040 A 
ATOM     22  C   LIG d   1      10.270  11.497  -0.543  0.00  0.00     0.038 A 
ATOM     23  N   LIG d   1       9.168  10.778  -0.112  0.00  0.00    -0.284 N 
ATOM     24  C   LIG d   1       9.072   9.580  -0.729  0.00  0.00     0.231 A 
ATOM     25  O   LIG d   1       8.213   8.742  -0.554  0.00  0.00    -0.274 OA
ATOM     26  H   LIG d   1      10.399   5.304  -6.991  0.00  0.00     0.062 H 
ATOM     27  H   LIG d   1      11.156   5.956  -4.743  0.00  0.00     0.064 H 
ATOM     28  H   LIG d   1       8.956   9.256  -7.700  0.00  0.00     0.063 H 
ATOM     29  H   LIG d   1       9.576  11.136  -5.969  0.00  0.00     0.062 H 
ATOM     30  H   LIG d   1       9.501  11.464  -3.515  0.00  0.00     0.059 H 
ATOM     31  H   LIG d   1      12.660  10.691  -2.847  0.00  0.00     0.062 H 
ATOM     32  H   LIG d   1      13.444  12.940  -2.143  0.00  0.00     0.062 H 
ATOM     33  H   LIG d   1      12.229  14.222  -0.470  0.00  0.00     0.062 H 
ATOM     34  H   LIG d   1      10.180  13.337   0.592  0.00  0.00     0.064 H 
ATOM     35  H   LIG d   1       8.540  11.097   0.555  0.00  0.00     0.155 HD
ENDROOT
BRANCH  14  36
ATOM     36  C   LIG d   1      12.511   8.712  -0.965  0.00  0.00     0.170 C 
ATOM     37  O   LIG d   1      13.399   8.689  -1.790  0.00  0.00    -0.292 OA
BRANCH  36  38
ATOM     38  C   LIG d   1      12.790   9.173   0.402  0.00  0.00     0.018 A 
ATOM     39  C   LIG d   1      11.904   8.864   1.442  0.00  0.00    -0.048 A 
ATOM     40  C   LIG d   1      12.168   9.297   2.716  0.00  0.00    -0.019 A 
ATOM     41  H   LIG d   1      11.013   8.286   1.240  0.00  0.00     0.063 H 
ATOM     42  C   LIG d   1      13.314  10.040   2.976  0.00  0.00     0.120 A 
ATOM     43  H   LIG d   1      11.485   9.059   3.518  0.00  0.00     0.065 H 
ATOM     44  C   LIG d   1      14.197  10.350   1.948  0.00  0.00    -0.019 A 
ATOM     45  C   LIG d   1      13.945   9.917   0.671  0.00  0.00    -0.048 A 
ATOM     46  H   LIG d   1      15.086  10.928   2.155  0.00  0.00     0.065 H 
ATOM     47  H   LIG d   1      14.634  10.154  -0.126  0.00  0.00     0.063 H 
BRANCH  42  48
ATOM     48  O   LIG d   1      13.572  10.465   4.239  0.00  0.00    -0.495 OA
BRANCH  48  49
ATOM     49  C   LIG d   1      12.667  10.047   5.262  0.00  0.00     0.079 C 
ATOM     50  H   LIG d   1      11.662  10.389   5.021  0.00  0.00     0.066 H 
ATOM     51  H   LIG d   1      12.674   8.959   5.330  0.00  0.00     0.066 H 
ATOM     52  H   LIG d   1      12.976  10.472   6.217  0.00  0.00     0.066 H 
ENDBRANCH  48  49
ENDBRANCH  42  48
ENDBRANCH  36  38
ENDBRANCH  14  36
BRANCH  12  53
ATOM     53  C   LIG d   1      10.093   6.363  -2.625  0.00  0.00     0.151 C 
ATOM     54  O   LIG d   1       8.929   6.665  -2.741  0.00  0.00    -0.296 OA
BRANCH  53  55
ATOM     55  C   LIG d   1      10.481   4.917  -2.455  0.00  0.00    -0.004 C 
ATOM     56  H   LIG d   1      10.459   4.459  -3.343  0.00  0.00     0.031 H 
ATOM     57  H   LIG d   1      11.489   4.858  -2.042  0.00  0.00     0.031 H 
ATOM     58  H   LIG d   1       9.781   4.430  -1.776  0.00  0.00     0.031 H 
ENDBRANCH  53  55
ENDBRANCH  12  53
BRANCH   1  59
ATOM     59  C   LIG d   1       9.168   6.821  -8.847  0.00  0.00    -0.040 C 
ATOM     60  H   LIG d   1       8.509   5.957  -8.762  0.00  0.00     0.028 H 
ATOM     61  H   LIG d   1      10.032   6.561  -9.457  0.00  0.00     0.028 H 
ATOM     62  H   LIG d   1       8.628   7.645  -9.314  0.00  0.00     0.028 H 
ENDBRANCH   1  59
TORSDOF 7
ENDMDL
MODEL 7
REMARK VINA RESULT:      -5.9      4.244      7.210
REMARK  7 active torsions:
REMARK  status: ('A' for Active; 'I' for Inactive)
REMARK    1  A    between atoms: C_1  and  C_2 
REMARK    2  A    between atoms: C_13  and  C_37 
REMARK    3  A    between atoms: C_15  and  C_27 
REMARK    4  A    between atoms: C_27  and  C_29 
REMARK    5  A    between atoms: C_32  and  O_35 
REMARK    6  A    between atoms: O_35  and  C_36 
REMARK    7  A    between atoms: C_37  and  C_39 
ROOT
ATOM      1  C   LIG d   1      10.424  -7.522  -3.389  0.00  0.00    -0.050 A 
ATOM      2  C   LIG d   1       9.821  -7.576  -4.635  0.00  0.00    -0.057 A 
ATOM      3  C   LIG d   1       9.010  -6.542  -5.066  0.00  0.00    -0.040 A 
ATOM      4  C   LIG d   1       8.797  -5.447  -4.252  0.00  0.00     0.038 A 
ATOM      5  C   LIG d   1       9.409  -5.392  -2.980  0.00  0.00    -0.004 A 
ATOM      6  C   LIG d   1      10.218  -6.438  -2.558  0.00  0.00    -0.050 A 
ATOM      7  C   LIG d   1       9.156  -4.211  -2.121  0.00  0.00    -0.055 C 
ATOM      8  C   LIG d   1       8.805  -3.063  -2.731  0.00  0.00    -0.062 C 
ATOM      9  C   LIG d   1       8.707  -3.112  -4.225  0.00  0.00     0.062 C 
ATOM     10  H   LIG d   1       9.707  -3.094  -4.660  0.00  0.00     0.056 H 
ATOM     11  N   LIG d   1       8.014  -4.373  -4.606  0.00  0.00    -0.311 NA
ATOM     12  C   LIG d   1       7.680  -4.180  -6.022  0.00  0.00     0.093 C 
ATOM     13  H   LIG d   1       6.976  -4.837  -6.292  0.00  0.00     0.059 H 
ATOM     14  C   LIG d   1       7.191  -2.705  -6.080  0.00  0.00     0.067 C 
ATOM     15  H   LIG d   1       7.476  -2.293  -6.945  0.00  0.00     0.042 H 
ATOM     16  C   LIG d   1       7.851  -2.028  -4.861  0.00  0.00     0.108 A 
ATOM     17  C   LIG d   1       6.836  -1.464  -3.927  0.00  0.00    -0.008 A 
ATOM     18  C   LIG d   1       5.812  -2.051  -3.216  0.00  0.00    -0.056 A 
ATOM     19  C   LIG d   1       5.034  -1.217  -2.421  0.00  0.00    -0.061 A 
ATOM     20  C   LIG d   1       5.278   0.140  -2.348  0.00  0.00    -0.060 A 
ATOM     21  C   LIG d   1       6.306   0.738  -3.060  0.00  0.00    -0.040 A 
ATOM     22  C   LIG d   1       7.095  -0.087  -3.862  0.00  0.00     0.038 A 
ATOM     23  N   LIG d   1       8.171   0.238  -4.669  0.00  0.00    -0.284 N 
ATOM     24  C   LIG d   1       8.679  -0.844  -5.298  0.00  0.00     0.231 A 
ATOM     25  O   LIG d   1       9.619  -0.862  -6.063  0.00  0.00    -0.274 OA
ATOM     26  H   LIG d   1       9.985  -8.431  -5.273  0.00  0.00     0.062 H 
ATOM     27  H   LIG d   1       8.543  -6.590  -6.040  0.00  0.00     0.064 H 
ATOM     28  H   LIG d   1      10.688  -6.403  -1.587  0.00  0.00     0.063 H 
ATOM     29  H   LIG d   1       9.249  -4.269  -1.046  0.00  0.00     0.062 H 
ATOM     30  H   LIG d   1       8.606  -2.159  -2.175  0.00  0.00     0.059 H 
ATOM     31  H   LIG d   1       5.622  -3.113  -3.273  0.00  0.00     0.062 H 
ATOM     32  H   LIG d   1       4.221  -1.638  -1.849  0.00  0.00     0.062 H 
ATOM     33  H   LIG d   1       4.651   0.752  -1.719  0.00  0.00     0.062 H 
ATOM     34  H   LIG d   1       6.489   1.801  -2.997  0.00  0.00     0.064 H 
ATOM     35  H   LIG d   1       8.519   1.139  -4.771  0.00  0.00     0.155 HD
ENDROOT
BRANCH  14  36
ATOM     36  C   LIG d   1       5.689  -2.646  -5.967  0.00  0.00     0.170 C 
ATOM     37  O   LIG d   1       5.087  -3.538  -5.408  0.00  0.00    -0.292 OA
BRANCH  36  38
ATOM     38  C   LIG d   1       4.954  -1.508  -6.536  0.00  0.00     0.018 A 
ATOM     39  C   LIG d   1       5.354  -0.954  -7.759  0.00  0.00    -0.048 A 
ATOM     40  C   LIG d   1       4.666   0.108  -8.285  0.00  0.00    -0.019 A 
ATOM     41  H   LIG d   1       6.204  -1.363  -8.286  0.00  0.00     0.063 H 
ATOM     42  C   LIG d   1       3.571   0.635  -7.608  0.00  0.00     0.120 A 
ATOM     43  H   LIG d   1       4.974   0.536  -9.228  0.00  0.00     0.065 H 
ATOM     44  C   LIG d   1       3.170   0.090  -6.393  0.00  0.00    -0.019 A 
ATOM     45  C   LIG d   1       3.849  -0.977  -5.861  0.00  0.00    -0.048 A 
ATOM     46  H   LIG d   1       2.320   0.502  -5.871  0.00  0.00     0.065 H 
ATOM     47  H   LIG d   1       3.533  -1.404  -4.920  0.00  0.00     0.063 H 
BRANCH  42  48
ATOM     48  O   LIG d   1       2.893   1.686  -8.133  0.00  0.00    -0.495 OA
BRANCH  48  49
ATOM     49  C   LIG d   1       3.596   2.514  -9.061  0.00  0.00     0.079 C 
ATOM     50  H   LIG d   1       3.014   2.608  -9.977  0.00  0.00     0.066 H 
ATOM     51  H   LIG d   1       3.748   3.500  -8.624  0.00  0.00     0.066 H 
ATOM     52  H   LIG d   1       4.562   2.065  -9.290  0.00  0.00     0.066 H 
ENDBRANCH  48  49
ENDBRANCH  42  48
ENDBRANCH  36  38
ENDBRANCH  14  36
BRANCH  12  53
ATOM     53  C   LIG d   1       8.901  -4.368  -6.886  0.00  0.00     0.151 C 
ATOM     54  O   LIG d   1       9.957  -3.888  -6.551  0.00  0.00    -0.296 OA
BRANCH  53  55
ATOM     55  C   LIG d   1       8.804  -5.154  -8.167  0.00  0.00    -0.004 C 
ATOM     56  H   LIG d   1       8.593  -6.109  -7.957  0.00  0.00     0.031 H 
ATOM     57  H   LIG d   1       8.013  -4.738  -8.791  0.00  0.00     0.031 H 
ATOM     58  H   LIG d   1       9.753  -5.100  -8.700  0.00  0.00     0.031 H 
ENDBRANCH  53  55
ENDBRANCH  12  53
BRANCH   1  59
ATOM     59  C   LIG d   1      11.308  -8.656  -2.937  0.00  0.00    -0.040 C 
ATOM     60  H   LIG d   1      10.868  -9.605  -3.244  0.00  0.00     0.028 H 
ATOM     61  H   LIG d   1      11.402  -8.633  -1.851  0.00  0.00     0.028 H 
ATOM     62  H   LIG d   1      12.294  -8.550  -3.389  0.00  0.00     0.028 H 
ENDBRANCH   1  59
TORSDOF 7
ENDMDL
MODEL 8
REMARK VINA RESULT:      -5.8      4.051      7.076
REMARK  7 active torsions:
REMARK  status: ('A' for Active; 'I' for Inactive)
REMARK    1  A    between atoms: C_1  and  C_2 
REMARK    2  A    between atoms: C_13  and  C_37 
REMARK    3  A    between atoms: C_15  and  C_27 
REMARK    4  A    between atoms: C_27  and  C_29 
REMARK    5  A    between atoms: C_32  and  O_35 
REMARK    6  A    between atoms: O_35  and  C_36 
REMARK    7  A    between atoms: C_37  and  C_39 
ROOT
ATOM      1  C   LIG d   1      11.576   1.888  -5.199  0.00  0.00    -0.050 A 
ATOM      2  C   LIG d   1      11.627   0.684  -5.881  0.00  0.00    -0.057 A 
ATOM      3  C   LIG d   1      10.531  -0.160  -5.897  0.00  0.00    -0.040 A 
ATOM      4  C   LIG d   1       9.377   0.196  -5.229  0.00  0.00     0.038 A 
ATOM      5  C   LIG d   1       9.324   1.423  -4.530  0.00  0.00    -0.004 A 
ATOM      6  C   LIG d   1      10.433   2.259  -4.520  0.00  0.00    -0.050 A 
ATOM      7  C   LIG d   1       8.077   1.778  -3.812  0.00  0.00    -0.055 C 
ATOM      8  C   LIG d   1       6.931   1.219  -4.244  0.00  0.00    -0.062 C 
ATOM      9  C   LIG d   1       7.049   0.289  -5.412  0.00  0.00     0.062 C 
ATOM     10  H   LIG d   1       7.171   0.866  -6.330  0.00  0.00     0.056 H 
ATOM     11  N   LIG d   1       8.241  -0.578  -5.201  0.00  0.00    -0.311 NA
ATOM     12  C   LIG d   1       8.088  -1.641  -6.200  0.00  0.00     0.093 C 
ATOM     13  H   LIG d   1       8.673  -2.415  -5.957  0.00  0.00     0.059 H 
ATOM     14  C   LIG d   1       6.571  -1.981  -6.136  0.00  0.00     0.067 C 
ATOM     15  H   LIG d   1       6.242  -2.209  -7.053  0.00  0.00     0.042 H 
ATOM     16  C   LIG d   1       5.910  -0.704  -5.577  0.00  0.00     0.108 A 
ATOM     17  C   LIG d   1       5.183  -0.973  -4.304  0.00  0.00    -0.008 A 
ATOM     18  C   LIG d   1       5.609  -1.450  -3.083  0.00  0.00    -0.056 A 
ATOM     19  C   LIG d   1       4.648  -1.585  -2.087  0.00  0.00    -0.061 A 
ATOM     20  C   LIG d   1       3.327  -1.256  -2.312  0.00  0.00    -0.060 A 
ATOM     21  C   LIG d   1       2.891  -0.775  -3.537  0.00  0.00    -0.040 A 
ATOM     22  C   LIG d   1       3.844  -0.635  -4.546  0.00  0.00     0.038 A 
ATOM     23  N   LIG d   1       3.689  -0.186  -5.846  0.00  0.00    -0.284 N 
ATOM     24  C   LIG d   1       4.855  -0.195  -6.528  0.00  0.00     0.231 A 
ATOM     25  O   LIG d   1       5.022   0.143  -7.680  0.00  0.00    -0.274 OA
ATOM     26  H   LIG d   1      12.529   0.401  -6.404  0.00  0.00     0.062 H 
ATOM     27  H   LIG d   1      10.579  -1.098  -6.432  0.00  0.00     0.064 H 
ATOM     28  H   LIG d   1      10.399   3.197  -3.986  0.00  0.00     0.063 H 
ATOM     29  H   LIG d   1       8.087   2.459  -2.974  0.00  0.00     0.062 H 
ATOM     30  H   LIG d   1       5.982   1.428  -3.774  0.00  0.00     0.059 H 
ATOM     31  H   LIG d   1       6.643  -1.707  -2.908  0.00  0.00     0.062 H 
ATOM     32  H   LIG d   1       4.942  -1.957  -1.117  0.00  0.00     0.062 H 
ATOM     33  H   LIG d   1       2.613  -1.375  -1.512  0.00  0.00     0.062 H 
ATOM     34  H   LIG d   1       1.854  -0.520  -3.704  0.00  0.00     0.064 H 
ATOM     35  H   LIG d   1       2.841   0.101  -6.223  0.00  0.00     0.155 HD
ENDROOT
BRANCH  14  36
ATOM     36  C   LIG d   1       6.333  -3.148  -5.212  0.00  0.00     0.170 C 
ATOM     37  O   LIG d   1       5.203  -3.536  -5.006  0.00  0.00    -0.292 OA
BRANCH  36  38
ATOM     38  C   LIG d   1       7.470  -3.813  -4.562  0.00  0.00     0.018 A 
ATOM     39  C   LIG d   1       7.920  -5.053  -5.032  0.00  0.00    -0.048 A 
ATOM     40  C   LIG d   1       8.982  -5.671  -4.421  0.00  0.00    -0.019 A 
ATOM     41  H   LIG d   1       7.432  -5.523  -5.873  0.00  0.00     0.063 H 
ATOM     42  C   LIG d   1       9.611  -5.066  -3.338  0.00  0.00     0.120 A 
ATOM     43  H   LIG d   1       9.329  -6.627  -4.783  0.00  0.00     0.065 H 
ATOM     44  C   LIG d   1       9.168  -3.835  -2.868  0.00  0.00    -0.019 A 
ATOM     45  C   LIG d   1       8.111  -3.207  -3.475  0.00  0.00    -0.048 A 
ATOM     46  H   LIG d   1       9.660  -3.370  -2.026  0.00  0.00     0.065 H 
ATOM     47  H   LIG d   1       7.771  -2.248  -3.112  0.00  0.00     0.063 H 
BRANCH  42  48
ATOM     48  O   LIG d   1      10.661  -5.680  -2.738  0.00  0.00    -0.495 OA
BRANCH  48  49
ATOM     49  C   LIG d   1      10.358  -6.679  -1.763  0.00  0.00     0.079 C 
ATOM     50  H   LIG d   1      10.542  -6.281  -0.765  0.00  0.00     0.066 H 
ATOM     51  H   LIG d   1       9.311  -6.967  -1.852  0.00  0.00     0.066 H 
ATOM     52  H   LIG d   1      10.990  -7.552  -1.927  0.00  0.00     0.066 H 
ENDBRANCH  48  49
ENDBRANCH  42  48
ENDBRANCH  36  38
ENDBRANCH  14  36
BRANCH  12  53
ATOM     53  C   LIG d   1       8.461  -1.139  -7.571  0.00  0.00     0.151 C 
ATOM     54  O   LIG d   1       8.084  -0.053  -7.941  0.00  0.00    -0.296 OA
BRANCH  53  55
ATOM     55  C   LIG d   1       9.306  -1.992  -8.481  0.00  0.00    -0.004 C 
ATOM     56  H   LIG d   1       9.809  -1.406  -9.117  0.00  0.00     0.031 H 
ATOM     57  H   LIG d   1      10.013  -2.571  -7.886  0.00  0.00     0.031 H 
ATOM     58  H   LIG d   1       8.664  -2.671  -9.043  0.00  0.00     0.031 H 
ENDBRANCH  53  55
ENDBRANCH  12  53
BRANCH   1  59
ATOM     59  C   LIG d   1      12.779   2.796  -5.196  0.00  0.00    -0.040 C 
ATOM     60  H   LIG d   1      13.552   2.380  -5.842  0.00  0.00     0.028 H 
ATOM     61  H   LIG d   1      13.164   2.886  -4.180  0.00  0.00     0.028 H 
ATOM     62  H   LIG d   1      12.490   3.781  -5.564  0.00  0.00     0.028 H 
ENDBRANCH   1  59
TORSDOF 7
ENDMDL
MODEL 9
REMARK VINA RESULT:      -5.7     10.561     12.447
REMARK  7 active torsions:
REMARK  status: ('A' for Active; 'I' for Inactive)
REMARK    1  A    between atoms: C_1  and  C_2 
REMARK    2  A    between atoms: C_13  and  C_37 
REMARK    3  A    between atoms: C_15  and  C_27 
REMARK    4  A    between atoms: C_27  and  C_29 
REMARK    5  A    between atoms: C_32  and  O_35 
REMARK    6  A    between atoms: O_35  and  C_36 
REMARK    7  A    between atoms: C_37  and  C_39 
ROOT
ATOM      1  C   LIG d   1      11.070   6.602   1.887  0.00  0.00    -0.050 A 
ATOM      2  C   LIG d   1      10.933   5.563   0.982  0.00  0.00    -0.057 A 
ATOM      3  C   LIG d   1      10.867   5.820  -0.375  0.00  0.00    -0.040 A 
ATOM      4  C   LIG d   1      10.937   7.120  -0.835  0.00  0.00     0.038 A 
ATOM      5  C   LIG d   1      11.073   8.182   0.087  0.00  0.00    -0.004 A 
ATOM      6  C   LIG d   1      11.135   7.910   1.447  0.00  0.00    -0.050 A 
ATOM      7  C   LIG d   1      11.136   9.569  -0.431  0.00  0.00    -0.055 C 
ATOM      8  C   LIG d   1      11.560   9.740  -1.697  0.00  0.00    -0.062 C 
ATOM      9  C   LIG d   1      11.924   8.496  -2.447  0.00  0.00     0.062 C 
ATOM     10  H   LIG d   1      12.899   8.139  -2.116  0.00  0.00     0.056 H 
ATOM     11  N   LIG d   1      10.888   7.463  -2.166  0.00  0.00    -0.311 NA
ATOM     12  C   LIG d   1      11.142   6.424  -3.171  0.00  0.00     0.093 C 
ATOM     13  H   LIG d   1      10.340   5.832  -3.250  0.00  0.00     0.059 H 
ATOM     14  C   LIG d   1      11.429   7.237  -4.466  0.00  0.00     0.067 C 
ATOM     15  H   LIG d   1      12.126   6.767  -5.007  0.00  0.00     0.042 H 
ATOM     16  C   LIG d   1      11.907   8.614  -3.962  0.00  0.00     0.108 A 
ATOM     17  C   LIG d   1      11.029   9.715  -4.451  0.00  0.00    -0.008 A 
ATOM     18  C   LIG d   1       9.686   9.968  -4.276  0.00  0.00    -0.056 A 
ATOM     19  C   LIG d   1       9.172  11.108  -4.883  0.00  0.00    -0.061 A 
ATOM     20  C   LIG d   1       9.974  11.950  -5.628  0.00  0.00    -0.060 A 
ATOM     21  C   LIG d   1      11.326  11.703  -5.808  0.00  0.00    -0.040 A 
ATOM     22  C   LIG d   1      11.855  10.562  -5.204  0.00  0.00     0.038 A 
ATOM     23  N   LIG d   1      13.152  10.079  -5.220  0.00  0.00    -0.284 N 
ATOM     24  C   LIG d   1      13.275   8.933  -4.515  0.00  0.00     0.231 A 
ATOM     25  O   LIG d   1      14.289   8.288  -4.354  0.00  0.00    -0.274 OA
ATOM     26  H   LIG d   1      10.877   4.546   1.338  0.00  0.00     0.062 H 
ATOM     27  H   LIG d   1      10.761   5.004  -1.076  0.00  0.00     0.064 H 
ATOM     28  H   LIG d   1      11.238   8.717   2.157  0.00  0.00     0.063 H 
ATOM     29  H   LIG d   1      10.850  10.410   0.183  0.00  0.00     0.062 H 
ATOM     30  H   LIG d   1      11.634  10.719  -2.146  0.00  0.00     0.059 H 
ATOM     31  H   LIG d   1       9.059   9.309  -3.693  0.00  0.00     0.062 H 
ATOM     32  H   LIG d   1       8.124  11.340  -4.771  0.00  0.00     0.062 H 
ATOM     33  H   LIG d   1       9.536  12.826  -6.082  0.00  0.00     0.062 H 
ATOM     34  H   LIG d   1      11.946  12.368  -6.392  0.00  0.00     0.064 H 
ATOM     35  H   LIG d   1      13.886  10.513  -5.684  0.00  0.00     0.155 HD
ENDROOT
BRANCH  14  36
ATOM     36  C   LIG d   1      10.171   7.382  -5.284  0.00  0.00     0.170 C 
ATOM     37  O   LIG d   1       9.090   7.176  -4.775  0.00  0.00    -0.292 OA
BRANCH  36  38
ATOM     38  C   LIG d   1      10.256   7.771  -6.698  0.00  0.00     0.018 A 
ATOM     39  C   LIG d   1      11.449   7.582  -7.408  0.00  0.00    -0.048 A 
ATOM     40  C   LIG d   1      11.524   7.948  -8.728  0.00  0.00    -0.019 A 
ATOM     41  H   LIG d   1      12.309   7.151  -6.917  0.00  0.00     0.063 H 
ATOM     42  C   LIG d   1      10.417   8.503  -9.361  0.00  0.00     0.120 A 
ATOM     43  H   LIG d   1      12.443   7.803  -9.276  0.00  0.00     0.065 H 
ATOM     44  C   LIG d   1       9.231   8.693  -8.661  0.00  0.00    -0.019 A 
ATOM     45  C   LIG d   1       9.144   8.325  -7.343  0.00  0.00    -0.048 A 
ATOM     46  H   LIG d   1       8.374   9.125  -9.158  0.00  0.00     0.065 H 
ATOM     47  H   LIG d   1       8.220   8.468  -6.801  0.00  0.00     0.063 H 
BRANCH  42  48
ATOM     48  O   LIG d   1      10.495   8.862 -10.667  0.00  0.00    -0.495 OA
BRANCH  48  49
ATOM     49  C   LIG d   1      10.360   7.821 -11.636  0.00  0.00     0.079 C 
ATOM     50  H   LIG d   1      10.947   6.958 -11.327  0.00  0.00     0.066 H 
ATOM     51  H   LIG d   1       9.311   7.538 -11.719  0.00  0.00     0.066 H 
ATOM     52  H   LIG d   1      10.717   8.176 -12.603  0.00  0.00     0.066 H 
ENDBRANCH  48  49
ENDBRANCH  42  48
ENDBRANCH  36  38
ENDBRANCH  14  36
BRANCH  12  53
ATOM     53  C   LIG d   1      12.342   5.596  -2.789  0.00  0.00     0.151 C 
ATOM     54  O   LIG d   1      13.315   6.128  -2.311  0.00  0.00    -0.296 OA
BRANCH  53  55
ATOM     55  C   LIG d   1      12.327   4.105  -3.001  0.00  0.00    -0.004 C 
ATOM     56  H   LIG d   1      11.481   3.843  -3.465  0.00  0.00     0.031 H 
ATOM     57  H   LIG d   1      13.181   3.816  -3.614  0.00  0.00     0.031 H 
ATOM     58  H   LIG d   1      12.385   3.600  -2.037  0.00  0.00     0.031 H 
ENDBRANCH  53  55
ENDBRANCH  12  53
BRANCH   1  59
ATOM     59  C   LIG d   1      11.143   6.304   3.363  0.00  0.00    -0.040 C 
ATOM     60  H   LIG d   1      11.454   7.200   3.900  0.00  0.00     0.028 H 
ATOM     61  H   LIG d   1      11.867   5.507   3.537  0.00  0.00     0.028 H 
ATOM     62  H   LIG d   1      10.163   5.988   3.719  0.00  0.00     0.028 H 
ENDBRANCH   1  59
TORSDOF 7
ENDMDL
