MODEL 1
REMARK VINA RESULT:      -6.7      0.000      0.000
REMARK  5 active torsions:
REMARK  status: ('A' for Active; 'I' for Inactive)
REMARK    1  A    between atoms: CG1_1  and  CB_2 
REMARK    2  A    between atoms: CB_2  and  CG2_3 
REMARK    3  A    between atoms: CB_2  and  CA_4 
REMARK       I    between atoms: CA_4  and  C_6 
REMARK       I    between atoms: CA_4  and  N_8 
REMARK       I    between atoms: N_8  and  C_9 
REMARK    4  A    between atoms: C_9  and  C_11 
REMARK    5  A    between atoms: C_11  and  C_12 
ROOT
ATOM      1  CA  VAL d   1       4.917  -0.545  -4.096  0.00  0.00     0.065 C 
ATOM      2  HA  VAL d   1       4.751  -1.605  -4.292  0.00  0.00     0.056 H 
ATOM      3  C   VAL d   1       6.339  -0.188  -4.440  0.00  0.00     0.062 C 
ATOM      4  O   VAL d   1       6.565   0.648  -5.283  0.00  0.00    -0.548 OA
ATOM      5  N   VAL d   1       4.001   0.252  -4.918  0.00  0.00    -0.307 N 
ATOM      6  H   VAL d   1       3.633   1.079  -4.569  0.00  0.00     0.149 HD
ATOM      7  OXT VAL d   1       7.355  -0.796  -3.808  0.00  0.00    -0.548 OA
ATOM      8  C   UNK d   0       3.670  -0.165  -6.156  0.00  0.00     0.218 C 
ATOM      9  O   UNK d   0       4.131  -1.199  -6.591  0.00  0.00    -0.275 OA
ENDROOT
BRANCH   8  10
ATOM     10  C   UNK d   0       2.729   0.654  -7.001  0.00  0.00     0.051 C 
ATOM     11  H   UNK d   0       1.739   0.201  -6.985  0.00  0.00     0.041 H 
ATOM     12  H   UNK d   0       2.670   1.667  -6.601  0.00  0.00     0.041 H 
BRANCH  10  13
ATOM     13  C   UNK d   0       3.238   0.703  -8.417  0.00  0.00    -0.014 A 
ATOM     14  C   UNK d   0       2.706  -0.043  -9.560  0.00  0.00     0.003 A 
ATOM     15  C   UNK d   0       3.496   0.323 -10.665  0.00  0.00     0.047 A 
ATOM     16  C   UNK d   0       1.664  -0.957  -9.722  0.00  0.00    -0.052 A 
ATOM     17  N   UNK d   0       4.434   1.225 -10.214  0.00  0.00    -0.360 N 
ATOM     18  C   UNK d   0       3.225  -0.233 -11.912  0.00  0.00    -0.038 A 
ATOM     19  C   UNK d   0       4.261   1.442  -8.874  0.00  0.00     0.006 A 
ATOM     20  H   UNK d   0       5.112   1.645 -10.764  0.00  0.00     0.165 HD
ATOM     21  H   UNK d   0       4.861   2.109  -8.273  0.00  0.00     0.081 H 
ATOM     22  C   UNK d   0       2.191  -1.133 -12.048  0.00  0.00    -0.060 A 
ATOM     23  H   UNK d   0       3.823   0.038 -12.769  0.00  0.00     0.064 H 
ATOM     24  C   UNK d   0       1.414  -1.491 -10.955  0.00  0.00    -0.061 A 
ATOM     25  H   UNK d   0       1.981  -1.564 -13.016  0.00  0.00     0.062 H 
ATOM     26  H   UNK d   0       0.608  -2.198 -11.080  0.00  0.00     0.062 H 
ATOM     27  H   UNK d   0       1.055  -1.240  -8.876  0.00  0.00     0.062 H 
ENDBRANCH  10  13
ENDBRANCH   8  10
BRANCH   1  28
ATOM     28  CB  VAL d   1       4.660  -0.253  -2.617  0.00  0.00    -0.023 C 
ATOM     29  HB  VAL d   1       5.567   0.144  -2.163  0.00  0.00     0.032 H 
BRANCH  28  30
ATOM     30  CG1 VAL d   1       4.256  -1.545  -1.905  0.00  0.00    -0.061 C 
ATOM     31 1HG1 VAL d   1       3.992  -1.323  -0.871  0.00  0.00     0.023 H 
ATOM     32 2HG1 VAL d   1       5.090  -2.247  -1.923  0.00  0.00     0.023 H 
ATOM     33 3HG1 VAL d   1       3.398  -1.987  -2.412  0.00  0.00     0.023 H 
ENDBRANCH  28  30
BRANCH  28  34
ATOM     34  CG2 VAL d   1       3.533   0.774  -2.487  0.00  0.00    -0.061 C 
ATOM     35 1HG2 VAL d   1       2.625   0.376  -2.940  0.00  0.00     0.023 H 
ATOM     36 2HG2 VAL d   1       3.352   0.984  -1.433  0.00  0.00     0.023 H 
ATOM     37 3HG2 VAL d   1       3.820   1.695  -2.996  0.00  0.00     0.023 H 
ENDBRANCH  28  34
ENDBRANCH   1  28
TORSDOF 7
ENDMDL
MODEL 2
REMARK VINA RESULT:      -6.5      4.875      6.571
REMARK  5 active torsions:
REMARK  status: ('A' for Active; 'I' for Inactive)
REMARK    1  A    between atoms: CG1_1  and  CB_2 
REMARK    2  A    between atoms: CB_2  and  CG2_3 
REMARK    3  A    between atoms: CB_2  and  CA_4 
REMARK       I    between atoms: CA_4  and  C_6 
REMARK       I    between atoms: CA_4  and  N_8 
REMARK       I    between atoms: N_8  and  C_9 
REMARK    4  A    between atoms: C_9  and  C_11 
REMARK    5  A    between atoms: C_11  and  C_12 
ROOT
ATOM      1  CA  VAL d   1       9.100   0.627  -5.506  0.00  0.00     0.065 C 
ATOM      2  HA  VAL d   1       9.724   0.012  -6.155  0.00  0.00     0.056 H 
ATOM      3  C   VAL d   1       8.020   1.286  -6.323  0.00  0.00     0.062 C 
ATOM      4  O   VAL d   1       6.857   1.073  -6.072  0.00  0.00    -0.548 OA
ATOM      5  N   VAL d   1       8.487  -0.218  -4.476  0.00  0.00    -0.307 N 
ATOM      6  H   VAL d   1       8.347   0.132  -3.583  0.00  0.00     0.149 HD
ATOM      7  OXT VAL d   1       8.349   2.111  -7.330  0.00  0.00    -0.548 OA
ATOM      8  C   UNK d   0       8.120  -1.480  -4.772  0.00  0.00     0.218 C 
ATOM      9  O   UNK d   0       8.296  -1.918  -5.889  0.00  0.00    -0.275 OA
ENDROOT
BRANCH   8  10
ATOM     10  C   UNK d   0       7.490  -2.349  -3.714  0.00  0.00     0.051 C 
ATOM     11  H   UNK d   0       7.745  -3.391  -3.901  0.00  0.00     0.041 H 
ATOM     12  H   UNK d   0       7.863  -2.055  -2.732  0.00  0.00     0.041 H 
BRANCH  10  13
ATOM     13  C   UNK d   0       5.994  -2.182  -3.753  0.00  0.00    -0.014 A 
ATOM     14  C   UNK d   0       5.228  -1.059  -3.205  0.00  0.00     0.003 A 
ATOM     15  C   UNK d   0       3.877  -1.340  -3.478  0.00  0.00     0.047 A 
ATOM     16  C   UNK d   0       5.573   0.114  -2.532  0.00  0.00    -0.052 A 
ATOM     17  N   UNK d   0       3.838  -2.546  -4.142  0.00  0.00    -0.360 N 
ATOM     18  C   UNK d   0       2.897  -0.440  -3.070  0.00  0.00    -0.038 A 
ATOM     19  C   UNK d   0       5.109  -3.029  -4.300  0.00  0.00     0.006 A 
ATOM     20  H   UNK d   0       3.031  -2.985  -4.453  0.00  0.00     0.165 HD
ATOM     21  H   UNK d   0       5.361  -3.957  -4.793  0.00  0.00     0.081 H 
ATOM     22  C   UNK d   0       3.261   0.712  -2.407  0.00  0.00    -0.060 A 
ATOM     23  H   UNK d   0       1.856  -0.643  -3.273  0.00  0.00     0.064 H 
ATOM     24  C   UNK d   0       4.595   0.985  -2.141  0.00  0.00    -0.061 A 
ATOM     25  H   UNK d   0       2.499   1.410  -2.092  0.00  0.00     0.062 H 
ATOM     26  H   UNK d   0       4.862   1.892  -1.619  0.00  0.00     0.062 H 
ATOM     27  H   UNK d   0       6.609   0.333  -2.321  0.00  0.00     0.062 H 
ENDBRANCH  10  13
ENDBRANCH   8  10
BRANCH   1  28
ATOM     28  CB  VAL d   1       9.961   1.700  -4.838  0.00  0.00    -0.023 C 
ATOM     29  HB  VAL d   1      10.138   2.514  -5.540  0.00  0.00     0.032 H 
BRANCH  28  30
ATOM     30  CG1 VAL d   1      11.300   1.091  -4.416  0.00  0.00    -0.061 C 
ATOM     31 1HG1 VAL d   1      11.956   1.877  -4.042  0.00  0.00     0.023 H 
ATOM     32 2HG1 VAL d   1      11.766   0.607  -5.275  0.00  0.00     0.023 H 
ATOM     33 3HG1 VAL d   1      11.133   0.354  -3.631  0.00  0.00     0.023 H 
ENDBRANCH  28  30
BRANCH  28  34
ATOM     34  CG2 VAL d   1       9.237   2.242  -3.603  0.00  0.00    -0.061 C 
ATOM     35 1HG2 VAL d   1       9.900   2.190  -2.740  0.00  0.00     0.023 H 
ATOM     36 2HG2 VAL d   1       8.947   3.278  -3.777  0.00  0.00     0.023 H 
ATOM     37 3HG2 VAL d   1       8.346   1.643  -3.414  0.00  0.00     0.023 H 
ENDBRANCH  28  34
ENDBRANCH   1  28
TORSDOF 7
ENDMDL
MODEL 3
REMARK VINA RESULT:      -6.5      2.447      6.701
REMARK  5 active torsions:
REMARK  status: ('A' for Active; 'I' for Inactive)
REMARK    1  A    between atoms: CG1_1  and  CB_2 
REMARK    2  A    between atoms: CB_2  and  CG2_3 
REMARK    3  A    between atoms: CB_2  and  CA_4 
REMARK       I    between atoms: CA_4  and  C_6 
REMARK       I    between atoms: CA_4  and  N_8 
REMARK       I    between atoms: N_8  and  C_9 
REMARK    4  A    between atoms: C_9  and  C_11 
REMARK    5  A    between atoms: C_11  and  C_12 
ROOT
ATOM      1  CA  VAL d   1       3.852  -0.751  -8.150  0.00  0.00     0.065 C 
ATOM      2  HA  VAL d   1       4.576  -0.204  -8.755  0.00  0.00     0.056 H 
ATOM      3  C   VAL d   1       3.246  -1.859  -8.971  0.00  0.00     0.062 C 
ATOM      4  O   VAL d   1       3.365  -3.008  -8.616  0.00  0.00    -0.548 OA
ATOM      5  N   VAL d   1       4.526  -1.322  -6.980  0.00  0.00    -0.307 N 
ATOM      6  H   VAL d   1       4.059  -1.380  -6.133  0.00  0.00     0.149 HD
ATOM      7  OXT VAL d   1       2.574  -1.571 -10.097  0.00  0.00    -0.548 OA
ATOM      8  C   UNK d   0       5.795  -1.764  -7.084  0.00  0.00     0.218 C 
ATOM      9  O   UNK d   0       6.379  -1.690  -8.144  0.00  0.00    -0.275 OA
ENDROOT
BRANCH   8  10
ATOM     10  C   UNK d   0       6.489  -2.351  -5.881  0.00  0.00     0.051 C 
ATOM     11  H   UNK d   0       6.721  -3.398  -6.071  0.00  0.00     0.041 H 
ATOM     12  H   UNK d   0       7.412  -1.803  -5.691  0.00  0.00     0.041 H 
BRANCH  10  13
ATOM     13  C   UNK d   0       5.586  -2.245  -4.680  0.00  0.00    -0.014 A 
ATOM     14  C   UNK d   0       5.420  -1.074  -3.815  0.00  0.00     0.003 A 
ATOM     15  C   UNK d   0       4.481  -1.445  -2.836  0.00  0.00     0.047 A 
ATOM     16  C   UNK d   0       5.975   0.206  -3.799  0.00  0.00    -0.052 A 
ATOM     17  N   UNK d   0       4.112  -2.746  -3.097  0.00  0.00    -0.360 N 
ATOM     18  C   UNK d   0       4.116  -0.524  -1.858  0.00  0.00    -0.038 A 
ATOM     19  C   UNK d   0       4.777  -3.203  -4.202  0.00  0.00     0.006 A 
ATOM     20  H   UNK d   0       3.474  -3.259  -2.577  0.00  0.00     0.165 HD
ATOM     21  H   UNK d   0       4.668  -4.191  -4.625  0.00  0.00     0.081 H 
ATOM     22  C   UNK d   0       4.676   0.735  -1.862  0.00  0.00    -0.060 A 
ATOM     23  H   UNK d   0       3.396  -0.795  -1.100  0.00  0.00     0.064 H 
ATOM     24  C   UNK d   0       5.601   1.096  -2.830  0.00  0.00    -0.061 A 
ATOM     25  H   UNK d   0       4.391   1.449  -1.103  0.00  0.00     0.062 H 
ATOM     26  H   UNK d   0       6.031   2.086  -2.818  0.00  0.00     0.062 H 
ATOM     27  H   UNK d   0       6.695   0.495  -4.550  0.00  0.00     0.062 H 
ENDBRANCH  10  13
ENDBRANCH   8  10
BRANCH   1  28
ATOM     28  CB  VAL d   1       2.749   0.203  -7.688  0.00  0.00    -0.023 C 
ATOM     29  HB  VAL d   1       1.777  -0.207  -7.961  0.00  0.00     0.032 H 
BRANCH  28  30
ATOM     30  CG1 VAL d   1       2.937   1.564  -8.360  0.00  0.00    -0.061 C 
ATOM     31 1HG1 VAL d   1       3.625   1.463  -9.199  0.00  0.00     0.023 H 
ATOM     32 2HG1 VAL d   1       3.345   2.273  -7.640  0.00  0.00     0.023 H 
ATOM     33 3HG1 VAL d   1       1.974   1.927  -8.722  0.00  0.00     0.023 H 
ENDBRANCH  28  30
BRANCH  28  34
ATOM     34  CG2 VAL d   1       2.823   0.371  -6.169  0.00  0.00    -0.061 C 
ATOM     35 1HG2 VAL d   1       3.794   0.782  -5.895  0.00  0.00     0.023 H 
ATOM     36 2HG2 VAL d   1       2.035   1.048  -5.839  0.00  0.00     0.023 H 
ATOM     37 3HG2 VAL d   1       2.691  -0.600  -5.689  0.00  0.00     0.023 H 
ENDBRANCH  28  34
ENDBRANCH   1  28
TORSDOF 7
ENDMDL
MODEL 4
REMARK VINA RESULT:      -6.5      2.481      6.721
REMARK  5 active torsions:
REMARK  status: ('A' for Active; 'I' for Inactive)
REMARK    1  A    between atoms: CG1_1  and  CB_2 
REMARK    2  A    between atoms: CB_2  and  CG2_3 
REMARK    3  A    between atoms: CB_2  and  CA_4 
REMARK       I    between atoms: CA_4  and  C_6 
REMARK       I    between atoms: CA_4  and  N_8 
REMARK       I    between atoms: N_8  and  C_9 
REMARK    4  A    between atoms: C_9  and  C_11 
REMARK    5  A    between atoms: C_11  and  C_12 
ROOT
ATOM      1  CA  VAL d   1       3.867  -1.891  -8.297  0.00  0.00     0.065 C 
ATOM      2  HA  VAL d   1       4.823  -1.549  -8.695  0.00  0.00     0.056 H 
ATOM      3  C   VAL d   1       3.370  -3.055  -9.113  0.00  0.00     0.062 C 
ATOM      4  O   VAL d   1       3.181  -4.126  -8.585  0.00  0.00    -0.548 OA
ATOM      5  N   VAL d   1       4.042  -2.310  -6.903  0.00  0.00    -0.307 N 
ATOM      6  H   VAL d   1       3.333  -2.160  -6.259  0.00  0.00     0.149 HD
ATOM      7  OXT VAL d   1       3.136  -2.904 -10.426  0.00  0.00    -0.548 OA
ATOM      8  C   UNK d   0       5.189  -2.904  -6.517  0.00  0.00     0.218 C 
ATOM      9  O   UNK d   0       6.076  -3.092  -7.323  0.00  0.00    -0.275 OA
ENDROOT
BRANCH   8  10
ATOM     10  C   UNK d   0       5.370  -3.335  -5.085  0.00  0.00     0.051 C 
ATOM     11  H   UNK d   0       4.429  -3.732  -4.703  0.00  0.00     0.041 H 
ATOM     12  H   UNK d   0       6.137  -4.108  -5.032  0.00  0.00     0.041 H 
BRANCH  10  13
ATOM     13  C   UNK d   0       5.791  -2.152  -4.253  0.00  0.00    -0.014 A 
ATOM     14  C   UNK d   0       4.904  -1.194  -3.590  0.00  0.00     0.003 A 
ATOM     15  C   UNK d   0       5.745  -0.273  -2.937  0.00  0.00     0.047 A 
ATOM     16  C   UNK d   0       3.518  -1.052  -3.504  0.00  0.00    -0.052 A 
ATOM     17  N   UNK d   0       7.043  -0.656  -3.193  0.00  0.00    -0.360 N 
ATOM     18  C   UNK d   0       5.180   0.771  -2.212  0.00  0.00    -0.038 A 
ATOM     19  C   UNK d   0       7.050  -1.779  -3.974  0.00  0.00     0.006 A 
ATOM     20  H   UNK d   0       7.833  -0.199  -2.866  0.00  0.00     0.165 HD
ATOM     21  H   UNK d   0       7.938  -2.289  -4.317  0.00  0.00     0.081 H 
ATOM     22  C   UNK d   0       3.809   0.891  -2.140  0.00  0.00    -0.060 A 
ATOM     23  H   UNK d   0       5.812   1.485  -1.706  0.00  0.00     0.064 H 
ATOM     24  C   UNK d   0       2.984  -0.020  -2.786  0.00  0.00    -0.061 A 
ATOM     25  H   UNK d   0       3.372   1.701  -1.576  0.00  0.00     0.062 H 
ATOM     26  H   UNK d   0       1.912   0.089  -2.720  0.00  0.00     0.062 H 
ATOM     27  H   UNK d   0       2.870  -1.757  -4.003  0.00  0.00     0.062 H 
ENDBRANCH  10  13
ENDBRANCH   8  10
BRANCH   1  28
ATOM     28  CB  VAL d   1       2.850  -0.751  -8.361  0.00  0.00    -0.023 C 
ATOM     29  HB  VAL d   1       1.858  -1.159  -8.555  0.00  0.00     0.032 H 
BRANCH  28  30
ATOM     30  CG1 VAL d   1       3.234   0.212  -9.487  0.00  0.00    -0.061 C 
ATOM     31 1HG1 VAL d   1       4.041   0.862  -9.149  0.00  0.00     0.023 H 
ATOM     32 2HG1 VAL d   1       2.369   0.819  -9.757  0.00  0.00     0.023 H 
ATOM     33 3HG1 VAL d   1       3.564  -0.357 -10.355  0.00  0.00     0.023 H 
ENDBRANCH  28  30
BRANCH  28  34
ATOM     34  CG2 VAL d   1       2.840   0.001  -7.029  0.00  0.00    -0.061 C 
ATOM     35 1HG2 VAL d   1       3.839   0.384  -6.820  0.00  0.00     0.023 H 
ATOM     36 2HG2 VAL d   1       2.137   0.833  -7.086  0.00  0.00     0.023 H 
ATOM     37 3HG2 VAL d   1       2.535  -0.677  -6.232  0.00  0.00     0.023 H 
ENDBRANCH  28  34
ENDBRANCH   1  28
TORSDOF 7
ENDMDL
MODEL 5
REMARK VINA RESULT:      -6.4      2.480      6.483
REMARK  5 active torsions:
REMARK  status: ('A' for Active; 'I' for Inactive)
REMARK    1  A    between atoms: CG1_1  and  CB_2 
REMARK    2  A    between atoms: CB_2  and  CG2_3 
REMARK    3  A    between atoms: CB_2  and  CA_4 
REMARK       I    between atoms: CA_4  and  C_6 
REMARK       I    between atoms: CA_4  and  N_8 
REMARK       I    between atoms: N_8  and  C_9 
REMARK    4  A    between atoms: C_9  and  C_11 
REMARK    5  A    between atoms: C_11  and  C_12 
ROOT
ATOM      1  CA  VAL d   1       4.910   0.859  -8.436  0.00  0.00     0.065 C 
ATOM      2  HA  VAL d   1       5.219   1.904  -8.458  0.00  0.00     0.056 H 
ATOM      3  C   VAL d   1       5.311   0.189  -9.724  0.00  0.00     0.062 C 
ATOM      4  O   VAL d   1       6.062  -0.758  -9.703  0.00  0.00    -0.548 OA
ATOM      5  N   VAL d   1       5.560   0.182  -7.309  0.00  0.00    -0.307 N 
ATOM      6  H   VAL d   1       5.088  -0.512  -6.825  0.00  0.00     0.149 HD
ATOM      7  OXT VAL d   1       4.833   0.641 -10.893  0.00  0.00    -0.548 OA
ATOM      8  C   UNK d   0       6.812   0.526  -6.948  0.00  0.00     0.218 C 
ATOM      9  O   UNK d   0       7.401   1.396  -7.555  0.00  0.00    -0.275 OA
ENDROOT
BRANCH   8  10
ATOM     10  C   UNK d   0       7.480  -0.169  -5.790  0.00  0.00     0.051 C 
ATOM     11  H   UNK d   0       7.527  -1.239  -5.988  0.00  0.00     0.041 H 
ATOM     12  H   UNK d   0       8.490   0.221  -5.666  0.00  0.00     0.041 H 
BRANCH  10  13
ATOM     13  C   UNK d   0       6.689   0.076  -4.533  0.00  0.00    -0.014 A 
ATOM     14  C   UNK d   0       5.725  -0.840  -3.917  0.00  0.00     0.003 A 
ATOM     15  C   UNK d   0       5.245  -0.184  -2.768  0.00  0.00     0.047 A 
ATOM     16  C   UNK d   0       5.254  -2.113  -4.240  0.00  0.00    -0.052 A 
ATOM     17  N   UNK d   0       5.877   1.038  -2.703  0.00  0.00    -0.360 N 
ATOM     18  C   UNK d   0       4.301  -0.817  -1.967  0.00  0.00    -0.038 A 
ATOM     19  C   UNK d   0       6.736   1.172  -3.759  0.00  0.00     0.006 A 
ATOM     20  H   UNK d   0       5.736   1.702  -2.011  0.00  0.00     0.165 HD
ATOM     21  H   UNK d   0       7.360   2.035  -3.944  0.00  0.00     0.081 H 
ATOM     22  C   UNK d   0       3.849  -2.075  -2.305  0.00  0.00    -0.060 A 
ATOM     23  H   UNK d   0       3.923  -0.326  -1.082  0.00  0.00     0.064 H 
ATOM     24  C   UNK d   0       4.327  -2.717  -3.438  0.00  0.00    -0.061 A 
ATOM     25  H   UNK d   0       3.117  -2.565  -1.681  0.00  0.00     0.062 H 
ATOM     26  H   UNK d   0       3.962  -3.702  -3.689  0.00  0.00     0.062 H 
ATOM     27  H   UNK d   0       5.621  -2.619  -5.120  0.00  0.00     0.062 H 
ENDBRANCH  10  13
ENDBRANCH   8  10
BRANCH   1  28
ATOM     28  CB  VAL d   1       3.391   0.780  -8.270  0.00  0.00    -0.023 C 
ATOM     29  HB  VAL d   1       2.976   0.129  -9.039  0.00  0.00     0.032 H 
BRANCH  28  30
ATOM     30  CG1 VAL d   1       2.790   2.180  -8.407  0.00  0.00    -0.061 C 
ATOM     31 1HG1 VAL d   1       2.199   2.410  -7.520  0.00  0.00     0.023 H 
ATOM     32 2HG1 VAL d   1       2.149   2.216  -9.288  0.00  0.00     0.023 H 
ATOM     33 3HG1 VAL d   1       3.591   2.911  -8.510  0.00  0.00     0.023 H 
ENDBRANCH  28  30
BRANCH  28  34
ATOM     34  CG2 VAL d   1       3.057   0.214  -6.888  0.00  0.00    -0.061 C 
ATOM     35 1HG2 VAL d   1       3.842  -0.475  -6.578  0.00  0.00     0.023 H 
ATOM     36 2HG2 VAL d   1       2.984   1.031  -6.169  0.00  0.00     0.023 H 
ATOM     37 3HG2 VAL d   1       2.105  -0.315  -6.933  0.00  0.00     0.023 H 
ENDBRANCH  28  34
ENDBRANCH   1  28
TORSDOF 7
ENDMDL
MODEL 6
REMARK VINA RESULT:      -6.4      1.844      2.641
REMARK  5 active torsions:
REMARK  status: ('A' for Active; 'I' for Inactive)
REMARK    1  A    between atoms: CG1_1  and  CB_2 
REMARK    2  A    between atoms: CB_2  and  CG2_3 
REMARK    3  A    between atoms: CB_2  and  CA_4 
REMARK       I    between atoms: CA_4  and  C_6 
REMARK       I    between atoms: CA_4  and  N_8 
REMARK       I    between atoms: N_8  and  C_9 
REMARK    4  A    between atoms: C_9  and  C_11 
REMARK    5  A    between atoms: C_11  and  C_12 
ROOT
ATOM      1  CA  VAL d   1       4.645  -0.022  -3.622  0.00  0.00     0.065 C 
ATOM      2  HA  VAL d   1       4.788  -0.981  -3.124  0.00  0.00     0.056 H 
ATOM      3  C   VAL d   1       5.416   1.045  -2.889  0.00  0.00     0.062 C 
ATOM      4  O   VAL d   1       6.280   1.667  -3.462  0.00  0.00    -0.548 OA
ATOM      5  N   VAL d   1       5.128  -0.112  -5.003  0.00  0.00    -0.307 N 
ATOM      6  H   VAL d   1       4.674   0.374  -5.708  0.00  0.00     0.149 HD
ATOM      7  OXT VAL d   1       5.142   1.306  -1.602  0.00  0.00    -0.548 OA
ATOM      8  C   UNK d   0       6.203  -0.872  -5.292  0.00  0.00     0.218 C 
ATOM      9  O   UNK d   0       6.771  -1.481  -4.410  0.00  0.00    -0.275 OA
ENDROOT
BRANCH   8  10
ATOM     10  C   UNK d   0       6.701  -0.966  -6.712  0.00  0.00     0.051 C 
ATOM     11  H   UNK d   0       7.775  -0.787  -6.733  0.00  0.00     0.041 H 
ATOM     12  H   UNK d   0       6.491  -1.960  -7.106  0.00  0.00     0.041 H 
BRANCH  10  13
ATOM     13  C   UNK d   0       6.003   0.067  -7.557  0.00  0.00    -0.014 A 
ATOM     14  C   UNK d   0       4.661  -0.044  -8.136  0.00  0.00     0.003 A 
ATOM     15  C   UNK d   0       4.441   1.156  -8.838  0.00  0.00     0.047 A 
ATOM     16  C   UNK d   0       3.673  -1.029  -8.114  0.00  0.00    -0.052 A 
ATOM     17  N   UNK d   0       5.571   1.928  -8.688  0.00  0.00    -0.360 N 
ATOM     18  C   UNK d   0       3.234   1.344  -9.503  0.00  0.00    -0.038 A 
ATOM     19  C   UNK d   0       6.488   1.265  -7.919  0.00  0.00     0.006 A 
ATOM     20  H   UNK d   0       5.697   2.811  -9.069  0.00  0.00     0.165 HD
ATOM     21  H   UNK d   0       7.459   1.649  -7.644  0.00  0.00     0.081 H 
ATOM     22  C   UNK d   0       2.272   0.358  -9.468  0.00  0.00    -0.060 A 
ATOM     23  H   UNK d   0       3.051   2.259 -10.046  0.00  0.00     0.064 H 
ATOM     24  C   UNK d   0       2.494  -0.823  -8.774  0.00  0.00    -0.061 A 
ATOM     25  H   UNK d   0       1.335   0.506  -9.984  0.00  0.00     0.062 H 
ATOM     26  H   UNK d   0       1.730  -1.586  -8.756  0.00  0.00     0.062 H 
ATOM     27  H   UNK d   0       3.839  -1.950  -7.576  0.00  0.00     0.062 H 
ENDBRANCH  10  13
ENDBRANCH   8  10
BRANCH   1  28
ATOM     28  CB  VAL d   1       3.157   0.335  -3.626  0.00  0.00    -0.023 C 
ATOM     29  HB  VAL d   1       2.995   1.222  -3.016  0.00  0.00     0.032 H 
BRANCH  28  30
ATOM     30  CG1 VAL d   1       2.352  -0.833  -3.052  0.00  0.00    -0.061 C 
ATOM     31 1HG1 VAL d   1       1.701  -0.469  -2.257  0.00  0.00     0.023 H 
ATOM     32 2HG1 VAL d   1       3.034  -1.582  -2.648  0.00  0.00     0.023 H 
ATOM     33 3HG1 VAL d   1       1.748  -1.280  -3.841  0.00  0.00     0.023 H 
ENDBRANCH  28  30
BRANCH  28  34
ATOM     34  CG2 VAL d   1       2.702   0.612  -5.060  0.00  0.00    -0.061 C 
ATOM     35 1HG2 VAL d   1       2.696   1.687  -5.239  0.00  0.00     0.023 H 
ATOM     36 2HG2 VAL d   1       3.387   0.131  -5.759  0.00  0.00     0.023 H 
ATOM     37 3HG2 VAL d   1       1.697   0.213  -5.205  0.00  0.00     0.023 H 
ENDBRANCH  28  34
ENDBRANCH   1  28
TORSDOF 7
ENDMDL
MODEL 7
REMARK VINA RESULT:      -6.2      2.135      2.597
REMARK  5 active torsions:
REMARK  status: ('A' for Active; 'I' for Inactive)
REMARK    1  A    between atoms: CG1_1  and  CB_2 
REMARK    2  A    between atoms: CB_2  and  CG2_3 
REMARK    3  A    between atoms: CB_2  and  CA_4 
REMARK       I    between atoms: CA_4  and  C_6 
REMARK       I    between atoms: CA_4  and  N_8 
REMARK       I    between atoms: N_8  and  C_9 
REMARK    4  A    between atoms: C_9  and  C_11 
REMARK    5  A    between atoms: C_11  and  C_12 
ROOT
ATOM      1  CA  VAL d   1       4.010  -0.370  -3.405  0.00  0.00     0.065 C 
ATOM      2  HA  VAL d   1       3.084   0.113  -3.090  0.00  0.00     0.056 H 
ATOM      3  C   VAL d   1       3.886  -1.860  -3.227  0.00  0.00     0.062 C 
ATOM      4  O   VAL d   1       3.998  -2.594  -4.182  0.00  0.00    -0.548 OA
ATOM      5  N   VAL d   1       4.263  -0.065  -4.817  0.00  0.00    -0.307 N 
ATOM      6  H   VAL d   1       5.172   0.055  -5.131  0.00  0.00     0.149 HD
ATOM      7  OXT VAL d   1       3.653  -2.374  -2.010  0.00  0.00    -0.548 OA
ATOM      8  C   UNK d   0       3.231   0.048  -5.677  0.00  0.00     0.218 C 
ATOM      9  O   UNK d   0       2.094  -0.102  -5.283  0.00  0.00    -0.275 OA
ENDROOT
BRANCH   8  10
ATOM     10  C   UNK d   0       3.490   0.361  -7.128  0.00  0.00     0.051 C 
ATOM     11  H   UNK d   0       2.736   1.059  -7.489  0.00  0.00     0.041 H 
ATOM     12  H   UNK d   0       4.479   0.809  -7.232  0.00  0.00     0.041 H 
BRANCH  10  13
ATOM     13  C   UNK d   0       3.427  -0.909  -7.934  0.00  0.00    -0.014 A 
ATOM     14  C   UNK d   0       2.612  -1.143  -9.129  0.00  0.00     0.003 A 
ATOM     15  C   UNK d   0       2.882  -2.464  -9.532  0.00  0.00     0.047 A 
ATOM     16  C   UNK d   0       1.710  -0.365  -9.856  0.00  0.00    -0.052 A 
ATOM     17  N   UNK d   0       3.795  -2.982  -8.640  0.00  0.00    -0.360 N 
ATOM     18  C   UNK d   0       2.244  -2.978 -10.656  0.00  0.00    -0.038 A 
ATOM     19  C   UNK d   0       4.111  -2.040  -7.700  0.00  0.00     0.006 A 
ATOM     20  H   UNK d   0       4.161  -3.879  -8.676  0.00  0.00     0.165 HD
ATOM     21  H   UNK d   0       4.807  -2.186  -6.886  0.00  0.00     0.081 H 
ATOM     22  C   UNK d   0       1.357  -2.191 -11.359  0.00  0.00    -0.060 A 
ATOM     23  H   UNK d   0       2.441  -3.990 -10.977  0.00  0.00     0.064 H 
ATOM     24  C   UNK d   0       1.094  -0.889 -10.958  0.00  0.00    -0.061 A 
ATOM     25  H   UNK d   0       0.863  -2.592 -12.231  0.00  0.00     0.062 H 
ATOM     26  H   UNK d   0       0.396  -0.286 -11.519  0.00  0.00     0.062 H 
ATOM     27  H   UNK d   0       1.500   0.650  -9.550  0.00  0.00     0.062 H 
ENDBRANCH  10  13
ENDBRANCH   8  10
BRANCH   1  28
ATOM     28  CB  VAL d   1       5.171   0.151  -2.556  0.00  0.00    -0.023 C 
ATOM     29  HB  VAL d   1       5.637  -0.681  -2.030  0.00  0.00     0.032 H 
BRANCH  28  30
ATOM     30  CG1 VAL d   1       4.645   1.167  -1.541  0.00  0.00    -0.061 C 
ATOM     31 1HG1 VAL d   1       5.484   1.691  -1.083  0.00  0.00     0.023 H 
ATOM     32 2HG1 VAL d   1       4.076   0.649  -0.769  0.00  0.00     0.023 H 
ATOM     33 3HG1 VAL d   1       4.001   1.886  -2.047  0.00  0.00     0.023 H 
ENDBRANCH  28  30
BRANCH  28  34
ATOM     34  CG2 VAL d   1       6.205   0.824  -3.462  0.00  0.00    -0.061 C 
ATOM     35 1HG2 VAL d   1       7.084   1.090  -2.875  0.00  0.00     0.023 H 
ATOM     36 2HG2 VAL d   1       6.493   0.137  -4.258  0.00  0.00     0.023 H 
ATOM     37 3HG2 VAL d   1       5.772   1.724  -3.900  0.00  0.00     0.023 H 
ENDBRANCH  28  34
ENDBRANCH   1  28
TORSDOF 7
ENDMDL
MODEL 8
REMARK VINA RESULT:      -6.0      1.872      2.398
REMARK  5 active torsions:
REMARK  status: ('A' for Active; 'I' for Inactive)
REMARK    1  A    between atoms: CG1_1  and  CB_2 
REMARK    2  A    between atoms: CB_2  and  CG2_3 
REMARK    3  A    between atoms: CB_2  and  CA_4 
REMARK       I    between atoms: CA_4  and  C_6 
REMARK       I    between atoms: CA_4  and  N_8 
REMARK       I    between atoms: N_8  and  C_9 
REMARK    4  A    between atoms: C_9  and  C_11 
REMARK    5  A    between atoms: C_11  and  C_12 
ROOT
ATOM      1  CA  VAL d   1       5.347  -1.151  -3.978  0.00  0.00     0.065 C 
ATOM      2  HA  VAL d   1       5.986  -2.010  -3.771  0.00  0.00     0.056 H 
ATOM      3  C   VAL d   1       6.204   0.050  -4.280  0.00  0.00     0.062 C 
ATOM      4  O   VAL d   1       6.111   0.605  -5.349  0.00  0.00    -0.548 OA
ATOM      5  N   VAL d   1       4.494  -1.445  -5.133  0.00  0.00    -0.307 N 
ATOM      6  H   VAL d   1       3.589  -1.098  -5.168  0.00  0.00     0.149 HD
ATOM      7  OXT VAL d   1       7.069   0.506  -3.360  0.00  0.00    -0.548 OA
ATOM      8  C   UNK d   0       4.967  -2.198  -6.146  0.00  0.00     0.218 C 
ATOM      9  O   UNK d   0       6.099  -2.632  -6.102  0.00  0.00    -0.275 OA
ENDROOT
BRANCH   8  10
ATOM     10  C   UNK d   0       4.090  -2.500  -7.334  0.00  0.00     0.051 C 
ATOM     11  H   UNK d   0       4.236  -3.536  -7.639  0.00  0.00     0.041 H 
ATOM     12  H   UNK d   0       3.045  -2.346  -7.062  0.00  0.00     0.041 H 
BRANCH  10  13
ATOM     13  C   UNK d   0       4.454  -1.584  -8.472  0.00  0.00    -0.014 A 
ATOM     14  C   UNK d   0       3.986  -0.209  -8.668  0.00  0.00     0.003 A 
ATOM     15  C   UNK d   0       4.588   0.240  -9.857  0.00  0.00     0.047 A 
ATOM     16  C   UNK d   0       3.138   0.637  -7.954  0.00  0.00    -0.052 A 
ATOM     17  N   UNK d   0       5.361  -0.794 -10.338  0.00  0.00    -0.360 N 
ATOM     18  C   UNK d   0       4.328   1.531 -10.308  0.00  0.00    -0.038 A 
ATOM     19  C   UNK d   0       5.272  -1.869  -9.498  0.00  0.00     0.006 A 
ATOM     20  H   UNK d   0       5.891  -0.762 -11.150  0.00  0.00     0.165 HD
ATOM     21  H   UNK d   0       5.783  -2.810  -9.640  0.00  0.00     0.081 H 
ATOM     22  C   UNK d   0       3.487   2.350  -9.586  0.00  0.00    -0.060 A 
ATOM     23  H   UNK d   0       4.783   1.889 -11.219  0.00  0.00     0.064 H 
ATOM     24  C   UNK d   0       2.896   1.902  -8.413  0.00  0.00    -0.061 A 
ATOM     25  H   UNK d   0       3.287   3.351  -9.937  0.00  0.00     0.062 H 
ATOM     26  H   UNK d   0       2.239   2.556  -7.861  0.00  0.00     0.062 H 
ATOM     27  H   UNK d   0       2.675   0.296  -7.040  0.00  0.00     0.062 H 
ENDBRANCH  10  13
ENDBRANCH   8  10
BRANCH   1  28
ATOM     28  CB  VAL d   1       4.471  -0.860  -2.758  0.00  0.00    -0.023 C 
ATOM     29  HB  VAL d   1       5.087  -0.451  -1.959  0.00  0.00     0.032 H 
BRANCH  28  30
ATOM     30  CG1 VAL d   1       3.813  -2.157  -2.283  0.00  0.00    -0.061 C 
ATOM     31 1HG1 VAL d   1       2.956  -2.383  -2.917  0.00  0.00     0.023 H 
ATOM     32 2HG1 VAL d   1       3.479  -2.038  -1.251  0.00  0.00     0.023 H 
ATOM     33 3HG1 VAL d   1       4.533  -2.973  -2.340  0.00  0.00     0.023 H 
ENDBRANCH  28  30
BRANCH  28  34
ATOM     34  CG2 VAL d   1       3.388   0.152  -3.137  0.00  0.00    -0.061 C 
ATOM     35 1HG2 VAL d   1       3.156   0.776  -2.274  0.00  0.00     0.023 H 
ATOM     36 2HG2 VAL d   1       3.746   0.779  -3.953  0.00  0.00     0.023 H 
ATOM     37 3HG2 VAL d   1       2.490  -0.379  -3.455  0.00  0.00     0.023 H 
ENDBRANCH  28  34
ENDBRANCH   1  28
TORSDOF 7
ENDMDL
MODEL 9
REMARK VINA RESULT:      -6.0      2.199      6.457
REMARK  5 active torsions:
REMARK  status: ('A' for Active; 'I' for Inactive)
REMARK    1  A    between atoms: CG1_1  and  CB_2 
REMARK    2  A    between atoms: CB_2  and  CG2_3 
REMARK    3  A    between atoms: CB_2  and  CA_4 
REMARK       I    between atoms: CA_4  and  C_6 
REMARK       I    between atoms: CA_4  and  N_8 
REMARK       I    between atoms: N_8  and  C_9 
REMARK    4  A    between atoms: C_9  and  C_11 
REMARK    5  A    between atoms: C_11  and  C_12 
ROOT
ATOM      1  CA  VAL d   1       4.373  -0.146  -8.931  0.00  0.00     0.065 C 
ATOM      2  HA  VAL d   1       5.157  -0.287  -9.675  0.00  0.00     0.056 H 
ATOM      3  C   VAL d   1       3.709  -1.467  -8.645  0.00  0.00     0.062 C 
ATOM      4  O   VAL d   1       3.724  -1.921  -7.524  0.00  0.00    -0.548 OA
ATOM      5  N   VAL d   1       4.961   0.383  -7.697  0.00  0.00    -0.307 N 
ATOM      6  H   VAL d   1       4.463   1.014  -7.155  0.00  0.00     0.149 HD
ATOM      7  OXT VAL d   1       3.099  -2.141  -9.633  0.00  0.00    -0.548 OA
ATOM      8  C   UNK d   0       6.194  -0.007  -7.317  0.00  0.00     0.218 C 
ATOM      9  O   UNK d   0       6.816  -0.796  -7.996  0.00  0.00    -0.275 OA
ENDROOT
BRANCH   8  10
ATOM     10  C   UNK d   0       6.799   0.537  -6.049  0.00  0.00     0.051 C 
ATOM     11  H   UNK d   0       7.879   0.617  -6.167  0.00  0.00     0.041 H 
ATOM     12  H   UNK d   0       6.382   1.523  -5.841  0.00  0.00     0.041 H 
BRANCH  10  13
ATOM     13  C   UNK d   0       6.485  -0.391  -4.905  0.00  0.00    -0.014 A 
ATOM     14  C   UNK d   0       5.183  -0.564  -4.256  0.00  0.00     0.003 A 
ATOM     15  C   UNK d   0       5.376  -1.529  -3.250  0.00  0.00     0.047 A 
ATOM     16  C   UNK d   0       3.922   0.004  -4.443  0.00  0.00    -0.052 A 
ATOM     17  N   UNK d   0       6.700  -1.906  -3.296  0.00  0.00    -0.360 N 
ATOM     18  C   UNK d   0       4.300  -1.906  -2.452  0.00  0.00    -0.038 A 
ATOM     19  C   UNK d   0       7.342  -1.221  -4.290  0.00  0.00     0.006 A 
ATOM     20  H   UNK d   0       7.113  -2.560  -2.712  0.00  0.00     0.165 HD
ATOM     21  H   UNK d   0       8.387  -1.331  -4.543  0.00  0.00     0.081 H 
ATOM     22  C   UNK d   0       3.064  -1.332  -2.655  0.00  0.00    -0.060 A 
ATOM     23  H   UNK d   0       4.433  -2.645  -1.676  0.00  0.00     0.064 H 
ATOM     24  C   UNK d   0       2.879  -0.381  -3.649  0.00  0.00    -0.061 A 
ATOM     25  H   UNK d   0       2.229  -1.627  -2.035  0.00  0.00     0.062 H 
ATOM     26  H   UNK d   0       1.904   0.059  -3.794  0.00  0.00     0.062 H 
ATOM     27  H   UNK d   0       3.770   0.744  -5.215  0.00  0.00     0.062 H 
ENDBRANCH  10  13
ENDBRANCH   8  10
BRANCH   1  28
ATOM     28  CB  VAL d   1       3.334   0.842  -9.465  0.00  0.00    -0.023 C 
ATOM     29  HB  VAL d   1       2.433   0.301  -9.752  0.00  0.00     0.032 H 
BRANCH  28  30
ATOM     30  CG1 VAL d   1       3.902   1.569 -10.685  0.00  0.00    -0.061 C 
ATOM     31 1HG1 VAL d   1       3.608   2.619 -10.652  0.00  0.00     0.023 H 
ATOM     32 2HG1 VAL d   1       3.513   1.112 -11.595  0.00  0.00     0.023 H 
ATOM     33 3HG1 VAL d   1       4.990   1.497 -10.678  0.00  0.00     0.023 H 
ENDBRANCH  28  30
BRANCH  28  34
ATOM     34  CG2 VAL d   1       2.993   1.862  -8.377  0.00  0.00    -0.061 C 
ATOM     35 1HG2 VAL d   1       3.791   1.884  -7.636  0.00  0.00     0.023 H 
ATOM     36 2HG2 VAL d   1       2.885   2.850  -8.825  0.00  0.00     0.023 H 
ATOM     37 3HG2 VAL d   1       2.057   1.579  -7.895  0.00  0.00     0.023 H 
ENDBRANCH  28  34
ENDBRANCH   1  28
TORSDOF 7
ENDMDL
MODEL 10
REMARK VINA RESULT:      -5.8      1.872      2.484
REMARK  5 active torsions:
REMARK  status: ('A' for Active; 'I' for Inactive)
REMARK    1  A    between atoms: CG1_1  and  CB_2 
REMARK    2  A    between atoms: CB_2  and  CG2_3 
REMARK    3  A    between atoms: CB_2  and  CA_4 
REMARK       I    between atoms: CA_4  and  C_6 
REMARK       I    between atoms: CA_4  and  N_8 
REMARK       I    between atoms: N_8  and  C_9 
REMARK    4  A    between atoms: C_9  and  C_11 
REMARK    5  A    between atoms: C_11  and  C_12 
ROOT
ATOM      1  CA  VAL d   1       4.475  -0.477  -3.794  0.00  0.00     0.065 C 
ATOM      2  HA  VAL d   1       5.468  -0.228  -3.418  0.00  0.00     0.056 H 
ATOM      3  C   VAL d   1       3.567   0.716  -3.644  0.00  0.00     0.062 C 
ATOM      4  O   VAL d   1       3.050   1.208  -4.619  0.00  0.00    -0.548 OA
ATOM      5  N   VAL d   1       4.568  -0.845  -5.210  0.00  0.00    -0.307 N 
ATOM      6  H   VAL d   1       3.987  -1.533  -5.571  0.00  0.00     0.149 HD
ATOM      7  OXT VAL d   1       3.332   1.231  -2.427  0.00  0.00    -0.548 OA
ATOM      8  C   UNK d   0       5.460  -0.228  -6.009  0.00  0.00     0.218 C 
ATOM      9  O   UNK d   0       6.186   0.632  -5.558  0.00  0.00    -0.275 OA
ENDROOT
BRANCH   8  10
ATOM     10  C   UNK d   0       5.556  -0.606  -7.465  0.00  0.00     0.051 C 
ATOM     11  H   UNK d   0       6.392  -0.079  -7.923  0.00  0.00     0.041 H 
ATOM     12  H   UNK d   0       5.715  -1.682  -7.551  0.00  0.00     0.041 H 
BRANCH  10  13
ATOM     13  C   UNK d   0       4.278  -0.230  -8.167  0.00  0.00    -0.014 A 
ATOM     14  C   UNK d   0       3.372  -1.139  -8.874  0.00  0.00     0.003 A 
ATOM     15  C   UNK d   0       2.322  -0.339  -9.361  0.00  0.00     0.047 A 
ATOM     16  C   UNK d   0       3.373  -2.512  -9.120  0.00  0.00    -0.052 A 
ATOM     17  N   UNK d   0       2.583   0.956  -8.973  0.00  0.00    -0.360 N 
ATOM     18  C   UNK d   0       1.293  -0.932 -10.087  0.00  0.00    -0.038 A 
ATOM     19  C   UNK d   0       3.749   1.000  -8.258  0.00  0.00     0.006 A 
ATOM     20  H   UNK d   0       2.022   1.722  -9.173  0.00  0.00     0.165 HD
ATOM     21  H   UNK d   0       4.181   1.895  -7.833  0.00  0.00     0.081 H 
ATOM     22  C   UNK d   0       1.315  -2.290 -10.317  0.00  0.00    -0.060 A 
ATOM     23  H   UNK d   0       0.481  -0.331 -10.467  0.00  0.00     0.064 H 
ATOM     24  C   UNK d   0       2.352  -3.075  -9.834  0.00  0.00    -0.061 A 
ATOM     25  H   UNK d   0       0.515  -2.750 -10.879  0.00  0.00     0.062 H 
ATOM     26  H   UNK d   0       2.354  -4.138 -10.024  0.00  0.00     0.062 H 
ATOM     27  H   UNK d   0       4.177  -3.129  -8.747  0.00  0.00     0.062 H 
ENDBRANCH  10  13
ENDBRANCH   8  10
BRANCH   1  28
ATOM     28  CB  VAL d   1       3.907  -1.654  -2.998  0.00  0.00    -0.023 C 
ATOM     29  HB  VAL d   1       2.821  -1.576  -2.960  0.00  0.00     0.032 H 
BRANCH  28  30
ATOM     30  CG1 VAL d   1       4.471  -1.626  -1.576  0.00  0.00    -0.061 C 
ATOM     31 1HG1 VAL d   1       3.790  -1.077  -0.926  0.00  0.00     0.023 H 
ATOM     32 2HG1 VAL d   1       5.444  -1.134  -1.580  0.00  0.00     0.023 H 
ATOM     33 3HG1 VAL d   1       4.581  -2.646  -1.209  0.00  0.00     0.023 H 
ENDBRANCH  28  30
BRANCH  28  34
ATOM     34  CG2 VAL d   1       4.301  -2.967  -3.677  0.00  0.00    -0.061 C 
ATOM     35 1HG2 VAL d   1       5.239  -3.328  -3.254  0.00  0.00     0.023 H 
ATOM     36 2HG2 VAL d   1       3.519  -3.709  -3.515  0.00  0.00     0.023 H 
ATOM     37 3HG2 VAL d   1       4.426  -2.799  -4.747  0.00  0.00     0.023 H 
ENDBRANCH  28  34
ENDBRANCH   1  28
TORSDOF 7
ENDMDL
