MODEL 1
REMARK VINA RESULT:      -4.8      0.000      0.000
REMARK  4 active torsions:
REMARK  status: ('A' for Active; 'I' for Inactive)
REMARK    1  A    between atoms: C_4  and  C_6 
REMARK    2  A    between atoms: C_6  and  CA_7 
REMARK    3  A    between atoms: CA_7  and  C_9 
REMARK    4  A    between atoms: CA_7  and  N_20 
ROOT
ATOM      1  C   LIG d   1       3.381   1.311  -3.825  0.00  0.00     0.003 C 
ATOM      2  H   LIG d   1       4.393   1.338  -4.229  0.00  0.00     0.033 H 
ATOM      3  H   LIG d   1       3.025   2.331  -3.674  0.00  0.00     0.033 H 
ENDROOT
BRANCH   1   4
ATOM      4  C   LIG d   1       3.385   0.569  -2.487  0.00  0.00    -0.011 A 
ATOM      5  C   LIG d   1       4.451  -0.474  -2.272  0.00  0.00    -0.072 A 
ATOM      6  C   LIG d   1       4.938  -1.661  -2.537  0.00  0.00    -0.099 C 
ATOM      7  C   LIG d   1       4.551   0.836  -1.533  0.00  0.00    -0.025 A 
ATOM      8  H   LIG d   1       4.427  -2.314  -3.228  0.00  0.00     0.053 H 
ATOM      9  H   LIG d   1       5.851  -1.987  -2.062  0.00  0.00     0.053 H 
ATOM     10  H   LIG d   1       5.317   1.540  -1.857  0.00  0.00     0.032 H 
ATOM     11  H   LIG d   1       4.339   0.828  -0.464  0.00  0.00     0.032 H 
ATOM     12  H   LIG d   1       2.405   0.386  -2.048  0.00  0.00     0.035 H 
ENDBRANCH   1   4
BRANCH   1  13
ATOM     13  CA  LIG d   1       2.459   0.588  -4.807  0.00  0.00     0.017 C 
ATOM     14  HA  LIG d   1       1.665   1.263  -5.124  0.00  0.00     0.091 H 
BRANCH  13  15
ATOM     15  C   LIG d   1       3.252   0.147  -6.011  0.00  0.00     0.089 C 
ATOM     16  O   LIG d   1       2.692  -0.054  -7.063  0.00  0.00    -0.544 OA
ATOM     17  OXT LIG d   1       4.579  -0.025  -5.913  0.00  0.00    -0.544 OA
ENDBRANCH  13  15
BRANCH  13  18
ATOM     18  N   LIG d   1       1.856  -0.596  -4.171  0.00  0.00     0.225 N 
ATOM     19  H1  LIG d   1       2.554  -1.087  -3.614  0.00  0.00     0.200 HD
ATOM     20  H2  LIG d   1       1.082  -0.315  -3.572  0.00  0.00     0.200 HD
ATOM     21  H3  LIG d   1       1.503  -1.229  -4.899  0.00  0.00     0.200 HD
ENDBRANCH  13  18
ENDBRANCH   1  13
TORSDOF 4
ENDMDL
MODEL 2
REMARK VINA RESULT:      -4.7      2.270      3.372
REMARK  4 active torsions:
REMARK  status: ('A' for Active; 'I' for Inactive)
REMARK    1  A    between atoms: C_4  and  C_6 
REMARK    2  A    between atoms: C_6  and  CA_7 
REMARK    3  A    between atoms: CA_7  and  C_9 
REMARK    4  A    between atoms: CA_7  and  N_20 
ROOT
ATOM      1  C   LIG d   1       3.649  -1.688  -2.750  0.00  0.00     0.003 C 
ATOM      2  H   LIG d   1       4.299  -1.592  -1.881  0.00  0.00     0.033 H 
ATOM      3  H   LIG d   1       2.991  -2.548  -2.616  0.00  0.00     0.033 H 
ENDROOT
BRANCH   1   4
ATOM      4  C   LIG d   1       4.500  -1.886  -4.005  0.00  0.00    -0.011 A 
ATOM      5  C   LIG d   1       5.932  -2.311  -3.816  0.00  0.00    -0.072 A 
ATOM      6  C   LIG d   1       7.157  -2.022  -3.453  0.00  0.00    -0.099 C 
ATOM      7  C   LIG d   1       4.937  -3.312  -4.347  0.00  0.00    -0.025 A 
ATOM      8  H   LIG d   1       7.395  -1.031  -3.095  0.00  0.00     0.053 H 
ATOM      9  H   LIG d   1       7.930  -2.774  -3.513  0.00  0.00     0.053 H 
ATOM     10  H   LIG d   1       4.620  -4.111  -3.677  0.00  0.00     0.032 H 
ATOM     11  H   LIG d   1       5.005  -3.579  -5.401  0.00  0.00     0.032 H 
ATOM     12  H   LIG d   1       4.279  -1.213  -4.834  0.00  0.00     0.035 H 
ENDBRANCH   1   4
BRANCH   1  13
ATOM     13  CA  LIG d   1       2.806  -0.420  -2.899  0.00  0.00     0.017 C 
ATOM     14  HA  LIG d   1       1.975  -0.451  -2.195  0.00  0.00     0.091 H 
BRANCH  13  15
ATOM     15  C   LIG d   1       3.661   0.788  -2.612  0.00  0.00     0.089 C 
ATOM     16  O   LIG d   1       3.598   1.757  -3.333  0.00  0.00    -0.544 OA
ATOM     17  OXT LIG d   1       4.491   0.788  -1.558  0.00  0.00    -0.544 OA
ENDBRANCH  13  15
BRANCH  13  18
ATOM     18  N   LIG d   1       2.272  -0.315  -4.268  0.00  0.00     0.225 N 
ATOM     19  H1  LIG d   1       2.999  -0.543  -4.945  0.00  0.00     0.200 HD
ATOM     20  H2  LIG d   1       1.487  -0.952  -4.387  0.00  0.00     0.200 HD
ATOM     21  H3  LIG d   1       1.951   0.646  -4.433  0.00  0.00     0.200 HD
ENDBRANCH  13  18
ENDBRANCH   1  13
TORSDOF 4
ENDMDL
MODEL 3
REMARK VINA RESULT:      -4.7      2.931      3.642
REMARK  4 active torsions:
REMARK  status: ('A' for Active; 'I' for Inactive)
REMARK    1  A    between atoms: C_4  and  C_6 
REMARK    2  A    between atoms: C_6  and  CA_7 
REMARK    3  A    between atoms: CA_7  and  C_9 
REMARK    4  A    between atoms: CA_7  and  N_20 
ROOT
ATOM      1  C   LIG d   1       5.409  -1.670  -4.258  0.00  0.00     0.003 C 
ATOM      2  H   LIG d   1       4.671  -1.008  -4.709  0.00  0.00     0.033 H 
ATOM      3  H   LIG d   1       5.296  -2.674  -4.670  0.00  0.00     0.033 H 
ENDROOT
BRANCH   1   4
ATOM      4  C   LIG d   1       5.199  -1.714  -2.743  0.00  0.00    -0.011 A 
ATOM      5  C   LIG d   1       4.445  -0.574  -2.111  0.00  0.00    -0.072 A 
ATOM      6  C   LIG d   1       4.404   0.679  -1.731  0.00  0.00    -0.099 C 
ATOM      7  C   LIG d   1       3.771  -1.916  -2.233  0.00  0.00    -0.025 A 
ATOM      8  H   LIG d   1       5.260   1.319  -1.886  0.00  0.00     0.053 H 
ATOM      9  H   LIG d   1       3.514   1.072  -1.262  0.00  0.00     0.053 H 
ATOM     10  H   LIG d   1       2.979  -2.017  -2.975  0.00  0.00     0.032 H 
ATOM     11  H   LIG d   1       3.639  -2.498  -1.320  0.00  0.00     0.032 H 
ATOM     12  H   LIG d   1       6.009  -2.163  -2.168  0.00  0.00     0.035 H 
ENDBRANCH   1   4
BRANCH   1  13
ATOM     13  CA  LIG d   1       6.815  -1.150  -4.563  0.00  0.00     0.017 C 
ATOM     14  HA  LIG d   1       7.267  -1.759  -5.344  0.00  0.00     0.091 H 
BRANCH  13  15
ATOM     15  C   LIG d   1       6.731   0.282  -5.028  0.00  0.00     0.089 C 
ATOM     16  O   LIG d   1       6.519   0.527  -6.193  0.00  0.00    -0.544 OA
ATOM     17  OXT LIG d   1       6.891   1.284  -4.150  0.00  0.00    -0.544 OA
ENDBRANCH  13  15
BRANCH  13  18
ATOM     18  N   LIG d   1       7.659  -1.211  -3.357  0.00  0.00     0.225 N 
ATOM     19  H1  LIG d   1       7.208  -1.782  -2.643  0.00  0.00     0.200 HD
ATOM     20  H2  LIG d   1       8.567  -1.611  -3.586  0.00  0.00     0.200 HD
ATOM     21  H3  LIG d   1       7.795  -0.262  -2.990  0.00  0.00     0.200 HD
ENDBRANCH  13  18
ENDBRANCH   1  13
TORSDOF 4
ENDMDL
MODEL 4
REMARK VINA RESULT:      -4.6      3.405      4.497
REMARK  4 active torsions:
REMARK  status: ('A' for Active; 'I' for Inactive)
REMARK    1  A    between atoms: C_4  and  C_6 
REMARK    2  A    between atoms: C_6  and  CA_7 
REMARK    3  A    between atoms: CA_7  and  C_9 
REMARK    4  A    between atoms: CA_7  and  N_20 
ROOT
ATOM      1  C   LIG d   1       5.430  -1.979  -3.653  0.00  0.00     0.003 C 
ATOM      2  H   LIG d   1       5.232  -1.215  -4.404  0.00  0.00     0.033 H 
ATOM      3  H   LIG d   1       5.210  -2.963  -4.071  0.00  0.00     0.033 H 
ENDROOT
BRANCH   1   4
ATOM      4  C   LIG d   1       4.544  -1.735  -2.431  0.00  0.00    -0.011 A 
ATOM      5  C   LIG d   1       4.168  -0.310  -2.116  0.00  0.00    -0.072 A 
ATOM      6  C   LIG d   1       4.508   0.875  -1.674  0.00  0.00    -0.099 C 
ATOM      7  C   LIG d   1       3.119  -1.235  -2.677  0.00  0.00    -0.025 A 
ATOM      8  H   LIG d   1       5.518   1.059  -1.341  0.00  0.00     0.053 H 
ATOM      9  H   LIG d   1       3.776   1.669  -1.642  0.00  0.00     0.053 H 
ATOM     10  H   LIG d   1       2.811  -1.079  -3.711  0.00  0.00     0.032 H 
ATOM     11  H   LIG d   1       2.338  -1.582  -2.000  0.00  0.00     0.032 H 
ATOM     12  H   LIG d   1       4.703  -2.411  -1.591  0.00  0.00     0.035 H 
ENDBRANCH   1   4
BRANCH   1  13
ATOM     13  CA  LIG d   1       6.900  -1.919  -3.238  0.00  0.00     0.017 C 
ATOM     14  HA  LIG d   1       6.984  -2.109  -2.169  0.00  0.00     0.091 H 
BRANCH  13  15
ATOM     15  C   LIG d   1       7.680  -2.964  -3.996  0.00  0.00     0.089 C 
ATOM     16  O   LIG d   1       7.313  -3.314  -5.093  0.00  0.00    -0.544 OA
ATOM     17  OXT LIG d   1       8.780  -3.507  -3.451  0.00  0.00    -0.544 OA
ENDBRANCH  13  15
BRANCH  13  18
ATOM     18  N   LIG d   1       7.466  -0.591  -3.537  0.00  0.00     0.225 N 
ATOM     19  H1  LIG d   1       7.552  -0.048  -2.679  0.00  0.00     0.200 HD
ATOM     20  H2  LIG d   1       8.382  -0.691  -3.969  0.00  0.00     0.200 HD
ATOM     21  H3  LIG d   1       6.842  -0.096  -4.185  0.00  0.00     0.200 HD
ENDBRANCH  13  18
ENDBRANCH   1  13
TORSDOF 4
ENDMDL
MODEL 5
REMARK VINA RESULT:      -4.0      2.446      3.368
REMARK  4 active torsions:
REMARK  status: ('A' for Active; 'I' for Inactive)
REMARK    1  A    between atoms: C_4  and  C_6 
REMARK    2  A    between atoms: C_6  and  CA_7 
REMARK    3  A    between atoms: CA_7  and  C_9 
REMARK    4  A    between atoms: CA_7  and  N_20 
ROOT
ATOM      1  C   LIG d   1       4.492  -0.917  -4.236  0.00  0.00     0.003 C 
ATOM      2  H   LIG d   1       4.136  -1.404  -5.144  0.00  0.00     0.033 H 
ATOM      3  H   LIG d   1       5.104  -0.055  -4.503  0.00  0.00     0.033 H 
ENDROOT
BRANCH   1   4
ATOM      4  C   LIG d   1       5.330  -1.905  -3.422  0.00  0.00    -0.011 A 
ATOM      5  C   LIG d   1       6.322  -2.758  -4.168  0.00  0.00    -0.072 A 
ATOM      6  C   LIG d   1       6.566  -3.756  -4.980  0.00  0.00    -0.099 C 
ATOM      7  C   LIG d   1       6.830  -1.632  -3.305  0.00  0.00    -0.025 A 
ATOM      8  H   LIG d   1       5.750  -4.335  -5.386  0.00  0.00     0.053 H 
ATOM      9  H   LIG d   1       7.585  -4.001  -5.243  0.00  0.00     0.053 H 
ATOM     10  H   LIG d   1       7.223  -0.749  -3.809  0.00  0.00     0.032 H 
ATOM     11  H   LIG d   1       7.320  -1.897  -2.367  0.00  0.00     0.032 H 
ATOM     12  H   LIG d   1       4.829  -2.349  -2.562  0.00  0.00     0.035 H 
ENDBRANCH   1   4
BRANCH   1  13
ATOM     13  CA  LIG d   1       3.295  -0.455  -3.403  0.00  0.00     0.017 C 
ATOM     14  HA  LIG d   1       3.136  -1.149  -2.579  0.00  0.00     0.091 H 
BRANCH  13  15
ATOM     15  C   LIG d   1       3.568   0.922  -2.853  0.00  0.00     0.089 C 
ATOM     16  O   LIG d   1       3.904   1.057  -1.699  0.00  0.00    -0.544 OA
ATOM     17  OXT LIG d   1       3.436   1.999  -3.643  0.00  0.00    -0.544 OA
ENDBRANCH  13  15
BRANCH  13  18
ATOM     18  N   LIG d   1       2.078  -0.407  -4.233  0.00  0.00     0.225 N 
ATOM     19  H1  LIG d   1       1.603   0.485  -4.104  0.00  0.00     0.200 HD
ATOM     20  H2  LIG d   1       2.321  -0.523  -5.215  0.00  0.00     0.200 HD
ATOM     21  H3  LIG d   1       1.447  -1.166  -3.951  0.00  0.00     0.200 HD
ENDBRANCH  13  18
ENDBRANCH   1  13
TORSDOF 4
ENDMDL
MODEL 6
REMARK VINA RESULT:      -4.0      3.381      4.038
REMARK  4 active torsions:
REMARK  status: ('A' for Active; 'I' for Inactive)
REMARK    1  A    between atoms: C_4  and  C_6 
REMARK    2  A    between atoms: C_6  and  CA_7 
REMARK    3  A    between atoms: CA_7  and  C_9 
REMARK    4  A    between atoms: CA_7  and  N_20 
ROOT
ATOM      1  C   LIG d   1       4.604  -2.362  -4.537  0.00  0.00     0.003 C 
ATOM      2  H   LIG d   1       5.139  -1.593  -5.095  0.00  0.00     0.033 H 
ATOM      3  H   LIG d   1       3.535  -2.273  -4.733  0.00  0.00     0.033 H 
ENDROOT
BRANCH   1   4
ATOM      4  C   LIG d   1       4.866  -2.183  -3.041  0.00  0.00    -0.011 A 
ATOM      5  C   LIG d   1       4.385  -0.908  -2.397  0.00  0.00    -0.072 A 
ATOM      6  C   LIG d   1       4.511   0.384  -2.220  0.00  0.00    -0.099 C 
ATOM      7  C   LIG d   1       3.656  -2.194  -2.104  0.00  0.00    -0.025 A 
ATOM      8  H   LIG d   1       5.301   0.924  -2.719  0.00  0.00     0.053 H 
ATOM      9  H   LIG d   1       3.823   0.909  -1.574  0.00  0.00     0.053 H 
ATOM     10  H   LIG d   1       2.672  -2.329  -2.553  0.00  0.00     0.032 H 
ATOM     11  H   LIG d   1       3.788  -2.634  -1.115  0.00  0.00     0.032 H 
ATOM     12  H   LIG d   1       5.795  -2.615  -2.671  0.00  0.00     0.035 H 
ENDBRANCH   1   4
BRANCH   1  13
ATOM     13  CA  LIG d   1       5.090  -3.744  -4.978  0.00  0.00     0.017 C 
ATOM     14  HA  LIG d   1       4.954  -4.454  -4.163  0.00  0.00     0.091 H 
BRANCH  13  15
ATOM     15  C   LIG d   1       4.295  -4.197  -6.177  0.00  0.00     0.089 C 
ATOM     16  O   LIG d   1       4.390  -3.602  -7.224  0.00  0.00    -0.544 OA
ATOM     17  OXT LIG d   1       3.483  -5.261  -6.080  0.00  0.00    -0.544 OA
ENDBRANCH  13  15
BRANCH  13  18
ATOM     18  N   LIG d   1       6.517  -3.695  -5.341  0.00  0.00     0.225 N 
ATOM     19  H1  LIG d   1       6.687  -2.930  -5.992  0.00  0.00     0.200 HD
ATOM     20  H2  LIG d   1       7.085  -3.562  -4.506  0.00  0.00     0.200 HD
ATOM     21  H3  LIG d   1       6.782  -4.581  -5.789  0.00  0.00     0.200 HD
ENDBRANCH  13  18
ENDBRANCH   1  13
TORSDOF 4
ENDMDL
MODEL 7
REMARK VINA RESULT:      -3.9      2.376      4.645
REMARK  4 active torsions:
REMARK  status: ('A' for Active; 'I' for Inactive)
REMARK    1  A    between atoms: C_4  and  C_6 
REMARK    2  A    between atoms: C_6  and  CA_7 
REMARK    3  A    between atoms: CA_7  and  C_9 
REMARK    4  A    between atoms: CA_7  and  N_20 
ROOT
ATOM      1  C   LIG d   1       4.249  -0.357  -6.417  0.00  0.00     0.003 C 
ATOM      2  H   LIG d   1       4.991   0.441  -6.412  0.00  0.00     0.033 H 
ATOM      3  H   LIG d   1       4.588  -1.162  -7.071  0.00  0.00     0.033 H 
ENDROOT
BRANCH   1   4
ATOM      4  C   LIG d   1       2.915   0.189  -6.929  0.00  0.00    -0.011 A 
ATOM      5  C   LIG d   1       2.946   1.075  -8.146  0.00  0.00    -0.072 A 
ATOM      6  C   LIG d   1       3.233   2.230  -8.695  0.00  0.00    -0.099 C 
ATOM      7  C   LIG d   1       2.409  -0.327  -8.277  0.00  0.00    -0.025 A 
ATOM      8  H   LIG d   1       3.659   3.021  -8.098  0.00  0.00     0.053 H 
ATOM      9  H   LIG d   1       3.041   2.390  -9.746  0.00  0.00     0.053 H 
ATOM     10  H   LIG d   1       3.027  -1.056  -8.802  0.00  0.00     0.032 H 
ATOM     11  H   LIG d   1       1.332  -0.445  -8.400  0.00  0.00     0.032 H 
ATOM     12  H   LIG d   1       2.173   0.411  -6.162  0.00  0.00     0.035 H 
ENDBRANCH   1   4
BRANCH   1  13
ATOM     13  CA  LIG d   1       4.069  -0.896  -4.997  0.00  0.00     0.017 C 
ATOM     14  HA  LIG d   1       4.186  -1.979  -5.001  0.00  0.00     0.091 H 
BRANCH  13  15
ATOM     15  C   LIG d   1       5.108  -0.283  -4.091  0.00  0.00     0.089 C 
ATOM     16  O   LIG d   1       5.163   0.918  -3.962  0.00  0.00    -0.544 OA
ATOM     17  OXT LIG d   1       5.970  -1.070  -3.430  0.00  0.00    -0.544 OA
ENDBRANCH  13  15
BRANCH  13  18
ATOM     18  N   LIG d   1       2.729  -0.559  -4.485  0.00  0.00     0.225 N 
ATOM     19  H1  LIG d   1       2.806   0.107  -3.717  0.00  0.00     0.200 HD
ATOM     20  H2  LIG d   1       2.162  -0.156  -5.228  0.00  0.00     0.200 HD
ATOM     21  H3  LIG d   1       2.274  -1.413  -4.142  0.00  0.00     0.200 HD
ENDBRANCH  13  18
ENDBRANCH   1  13
TORSDOF 4
ENDMDL
MODEL 8
REMARK VINA RESULT:      -3.7     10.324     11.280
REMARK  4 active torsions:
REMARK  status: ('A' for Active; 'I' for Inactive)
REMARK    1  A    between atoms: C_4  and  C_6 
REMARK    2  A    between atoms: C_6  and  CA_7 
REMARK    3  A    between atoms: CA_7  and  C_9 
REMARK    4  A    between atoms: CA_7  and  N_20 
ROOT
ATOM      1  C   LIG d   1      11.520   6.996  -0.781  0.00  0.00     0.003 C 
ATOM      2  H   LIG d   1      11.744   7.959  -0.323  0.00  0.00     0.033 H 
ATOM      3  H   LIG d   1      12.117   6.876  -1.685  0.00  0.00     0.033 H 
ENDROOT
BRANCH   1   4
ATOM      4  C   LIG d   1      10.034   6.935  -1.139  0.00  0.00    -0.011 A 
ATOM      5  C   LIG d   1       9.292   8.240  -1.263  0.00  0.00    -0.072 A 
ATOM      6  C   LIG d   1       8.756   9.292  -0.694  0.00  0.00    -0.099 C 
ATOM      7  C   LIG d   1       9.614   7.462  -2.513  0.00  0.00    -0.025 A 
ATOM      8  H   LIG d   1       8.790   9.403   0.379  0.00  0.00     0.053 H 
ATOM      9  H   LIG d   1       8.278  10.047  -1.300  0.00  0.00     0.053 H 
ATOM     10  H   LIG d   1      10.397   7.854  -3.163  0.00  0.00     0.032 H 
ATOM     11  H   LIG d   1       8.791   6.956  -3.018  0.00  0.00     0.032 H 
ATOM     12  H   LIG d   1       9.488   6.081  -0.738  0.00  0.00     0.035 H 
ENDBRANCH   1   4
BRANCH   1  13
ATOM     13  CA  LIG d   1      11.854   5.873   0.203  0.00  0.00     0.017 C 
ATOM     14  HA  LIG d   1      12.934   5.809   0.328  0.00  0.00     0.091 H 
BRANCH  13  15
ATOM     15  C   LIG d   1      11.212   6.165   1.536  0.00  0.00     0.089 C 
ATOM     16  O   LIG d   1      10.556   5.314   2.089  0.00  0.00    -0.544 OA
ATOM     17  OXT LIG d   1      11.367   7.370   2.106  0.00  0.00    -0.544 OA
ENDBRANCH  13  15
BRANCH  13  18
ATOM     18  N   LIG d   1      11.350   4.582  -0.299  0.00  0.00     0.225 N 
ATOM     19  H1  LIG d   1      10.337   4.620  -0.404  0.00  0.00     0.200 HD
ATOM     20  H2  LIG d   1      11.776   4.367  -1.197  0.00  0.00     0.200 HD
ATOM     21  H3  LIG d   1      11.590   3.842   0.372  0.00  0.00     0.200 HD
ENDBRANCH  13  18
ENDBRANCH   1  13
TORSDOF 4
ENDMDL
MODEL 9
REMARK VINA RESULT:      -3.6     10.143     10.969
REMARK  4 active torsions:
REMARK  status: ('A' for Active; 'I' for Inactive)
REMARK    1  A    between atoms: C_4  and  C_6 
REMARK    2  A    between atoms: C_6  and  CA_7 
REMARK    3  A    between atoms: CA_7  and  C_9 
REMARK    4  A    between atoms: CA_7  and  N_20 
ROOT
ATOM      1  C   LIG d   1       6.161 -10.653  -3.362  0.00  0.00     0.003 C 
ATOM      2  H   LIG d   1       6.836 -11.482  -3.570  0.00  0.00     0.033 H 
ATOM      3  H   LIG d   1       6.417  -9.807  -4.001  0.00  0.00     0.033 H 
ENDROOT
BRANCH   1   4
ATOM      4  C   LIG d   1       6.295 -10.242  -1.894  0.00  0.00    -0.011 A 
ATOM      5  C   LIG d   1       7.433 -10.834  -1.106  0.00  0.00    -0.072 A 
ATOM      6  C   LIG d   1       7.974 -11.866  -0.506  0.00  0.00    -0.099 C 
ATOM      7  C   LIG d   1       7.500  -9.383  -1.507  0.00  0.00    -0.025 A 
ATOM      8  H   LIG d   1       7.461 -12.815  -0.495  0.00  0.00     0.053 H 
ATOM      9  H   LIG d   1       8.934 -11.765  -0.021  0.00  0.00     0.053 H 
ATOM     10  H   LIG d   1       8.200  -9.110  -2.296  0.00  0.00     0.032 H 
ATOM     11  H   LIG d   1       7.357  -8.637  -0.724  0.00  0.00     0.032 H 
ATOM     12  H   LIG d   1       5.357 -10.063  -1.369  0.00  0.00     0.035 H 
ENDBRANCH   1   4
BRANCH   1  13
ATOM     13  CA  LIG d   1       4.720 -11.085  -3.642  0.00  0.00     0.017 C 
ATOM     14  HA  LIG d   1       4.357 -11.695  -2.816  0.00  0.00     0.091 H 
BRANCH  13  15
ATOM     15  C   LIG d   1       3.848  -9.863  -3.784  0.00  0.00     0.089 C 
ATOM     16  O   LIG d   1       4.172  -8.973  -4.535  0.00  0.00    -0.544 OA
ATOM     17  OXT LIG d   1       2.712  -9.764  -3.077  0.00  0.00    -0.544 OA
ENDBRANCH  13  15
BRANCH  13  18
ATOM     18  N   LIG d   1       4.651 -11.870  -4.887  0.00  0.00     0.225 N 
ATOM     19  H1  LIG d   1       3.704 -11.847  -5.262  0.00  0.00     0.200 HD
ATOM     20  H2  LIG d   1       5.298 -11.491  -5.575  0.00  0.00     0.200 HD
ATOM     21  H3  LIG d   1       4.908 -12.844  -4.686  0.00  0.00     0.200 HD
ENDBRANCH  13  18
ENDBRANCH   1  13
TORSDOF 4
ENDMDL
MODEL 10
REMARK VINA RESULT:      -3.6      2.392      2.897
REMARK  4 active torsions:
REMARK  status: ('A' for Active; 'I' for Inactive)
REMARK    1  A    between atoms: C_4  and  C_6 
REMARK    2  A    between atoms: C_6  and  CA_7 
REMARK    3  A    between atoms: CA_7  and  C_9 
REMARK    4  A    between atoms: CA_7  and  N_20 
ROOT
ATOM      1  C   LIG d   1       5.550  -1.505  -3.994  0.00  0.00     0.003 C 
ATOM      2  H   LIG d   1       5.395  -1.887  -2.985  0.00  0.00     0.033 H 
ATOM      3  H   LIG d   1       6.542  -1.795  -4.342  0.00  0.00     0.033 H 
ENDROOT
BRANCH   1   4
ATOM      4  C   LIG d   1       5.436   0.020  -3.986  0.00  0.00    -0.011 A 
ATOM      5  C   LIG d   1       5.261   0.699  -2.653  0.00  0.00    -0.072 A 
ATOM      6  C   LIG d   1       4.504   0.985  -1.622  0.00  0.00    -0.099 C 
ATOM      7  C   LIG d   1       6.587   0.813  -3.362  0.00  0.00    -0.025 A 
ATOM      8  H   LIG d   1       3.490   0.619  -1.579  0.00  0.00     0.053 H 
ATOM      9  H   LIG d   1       4.896   1.587  -0.816  0.00  0.00     0.053 H 
ATOM     10  H   LIG d   1       7.426   0.248  -2.955  0.00  0.00     0.032 H 
ATOM     11  H   LIG d   1       6.838   1.774  -3.810  0.00  0.00     0.032 H 
ATOM     12  H   LIG d   1       4.929   0.458  -4.846  0.00  0.00     0.035 H 
ENDBRANCH   1   4
BRANCH   1  13
ATOM     13  CA  LIG d   1       4.491  -2.092  -4.928  0.00  0.00     0.017 C 
ATOM     14  HA  LIG d   1       3.567  -1.523  -4.833  0.00  0.00     0.091 H 
BRANCH  13  15
ATOM     15  C   LIG d   1       4.980  -2.017  -6.353  0.00  0.00     0.089 C 
ATOM     16  O   LIG d   1       4.205  -1.765  -7.245  0.00  0.00    -0.544 OA
ATOM     17  OXT LIG d   1       6.276  -2.232  -6.629  0.00  0.00    -0.544 OA
ENDBRANCH  13  15
BRANCH  13  18
ATOM     18  N   LIG d   1       4.225  -3.500  -4.587  0.00  0.00     0.225 N 
ATOM     19  H1  LIG d   1       3.450  -3.855  -5.144  0.00  0.00     0.200 HD
ATOM     20  H2  LIG d   1       5.055  -4.064  -4.762  0.00  0.00     0.200 HD
ATOM     21  H3  LIG d   1       3.980  -3.566  -3.591  0.00  0.00     0.200 HD
ENDBRANCH  13  18
ENDBRANCH   1  13
TORSDOF 4
ENDMDL
