MODEL 1
REMARK VINA RESULT:      -7.2      0.000      0.000
REMARK  2 active torsions:
REMARK  status: ('A' for Active; 'I' for Inactive)
REMARK    1  A    between atoms: C_1  and  C_2 
REMARK    2  A    between atoms: C_3  and  C_18 
ROOT
ATOM      1  C   LIG d   1       3.321   0.509  -8.021  0.00  0.00     0.114 A 
ATOM      2  C   LIG d   1       3.795  -0.587  -8.669  0.00  0.00     0.067 A 
ATOM      3  C   LIG d   1       4.267  -1.731  -7.872  0.00  0.00     0.201 A 
ATOM      4  O   LIG d   1       4.704  -2.740  -8.398  0.00  0.00    -0.286 OA
ATOM      5  C   LIG d   1       4.186  -1.598  -6.406  0.00  0.00     0.069 A 
ATOM      6  C   LIG d   1       4.612  -2.624  -5.560  0.00  0.00    -0.044 A 
ATOM      7  C   LIG d   1       4.516  -2.475  -4.205  0.00  0.00    -0.015 A 
ATOM      8  C   LIG d   1       4.004  -1.298  -3.664  0.00  0.00     0.166 A 
ATOM      9  C   LIG d   1       3.584  -0.270  -4.490  0.00  0.00     0.205 A 
ATOM     10  C   LIG d   1       3.670  -0.405  -5.871  0.00  0.00     0.184 A 
ATOM     11  O   LIG d   1       3.265   0.588  -6.689  0.00  0.00    -0.455 OA
ATOM     12  O   LIG d   1       3.079   0.875  -3.941  0.00  0.00    -0.485 OA
ATOM     13  C   LIG d   1       4.014   1.691  -3.230  0.00  0.00     0.093 C 
ATOM     14  C   LIG d   1       4.172   1.204  -1.797  0.00  0.00     0.016 C 
ATOM     15  C   LIG d   1       4.782  -0.186  -1.723  0.00  0.00     0.093 C 
ATOM     16  O   LIG d   1       3.911  -1.154  -2.312  0.00  0.00    -0.488 OA
ATOM     17  H   LIG d   1       5.014  -3.536  -5.977  0.00  0.00     0.063 H 
ATOM     18  H   LIG d   1       4.842  -3.270  -3.551  0.00  0.00     0.066 H 
ATOM     19  H   LIG d   1       4.981   1.649  -3.731  0.00  0.00     0.070 H 
ATOM     20  H   LIG d   1       3.657   2.721  -3.221  0.00  0.00     0.070 H 
ATOM     21  H   LIG d   1       4.812   1.901  -1.257  0.00  0.00     0.033 H 
ATOM     22  H   LIG d   1       3.191   1.184  -1.321  0.00  0.00     0.033 H 
ATOM     23  H   LIG d   1       5.733  -0.189  -2.256  0.00  0.00     0.070 H 
ATOM     24  H   LIG d   1       4.955  -0.447  -0.679  0.00  0.00     0.070 H 
ENDROOT
BRANCH   2  25
ATOM     25  C   LIG d   1       3.837  -0.629 -10.150  0.00  0.00    -0.011 A 
ATOM     26  C   LIG d   1       5.007  -0.286 -10.827  0.00  0.00    -0.052 A 
ATOM     27  C   LIG d   1       5.040  -0.328 -12.206  0.00  0.00    -0.043 A 
ATOM     28  H   LIG d   1       5.884   0.012 -10.273  0.00  0.00     0.062 H 
ATOM     29  C   LIG d   1       3.916  -0.709 -12.917  0.00  0.00     0.041 A 
ATOM     30  H   LIG d   1       5.946  -0.062 -12.731  0.00  0.00     0.063 H 
ATOM     31  C   LIG d   1       2.751  -1.051 -12.250  0.00  0.00    -0.043 A 
ATOM     32 CL   LIG d   1       3.965  -0.759 -14.652  0.00  0.00    -0.084 Cl
ATOM     33  C   LIG d   1       2.708  -1.018 -10.871  0.00  0.00    -0.052 A 
ATOM     34  H   LIG d   1       1.877  -1.348 -12.809  0.00  0.00     0.063 H 
ATOM     35  H   LIG d   1       1.802  -1.288 -10.352  0.00  0.00     0.062 H 
ENDBRANCH   2  25
BRANCH   1  36
ATOM     36  C   LIG d   1       2.837   1.681  -8.836  0.00  0.00    -0.006 C 
ATOM     37  H   LIG d   1       3.599   1.956  -9.565  0.00  0.00     0.031 H 
ATOM     38  H   LIG d   1       1.919   1.406  -9.356  0.00  0.00     0.031 H 
ATOM     39  H   LIG d   1       2.642   2.526  -8.177  0.00  0.00     0.031 H 
ENDBRANCH   1  36
TORSDOF 2
ENDMDL
MODEL 2
REMARK VINA RESULT:      -6.1      1.447      2.896
REMARK  2 active torsions:
REMARK  status: ('A' for Active; 'I' for Inactive)
REMARK    1  A    between atoms: C_1  and  C_2 
REMARK    2  A    between atoms: C_3  and  C_18 
ROOT
ATOM      1  C   LIG d   1       4.666  -1.860  -8.997  0.00  0.00     0.114 A 
ATOM      2  C   LIG d   1       3.794  -1.059  -9.663  0.00  0.00     0.067 A 
ATOM      3  C   LIG d   1       2.969  -0.115  -8.891  0.00  0.00     0.201 A 
ATOM      4  O   LIG d   1       2.168   0.626  -9.434  0.00  0.00    -0.286 OA
ATOM      5  C   LIG d   1       3.157  -0.110  -7.429  0.00  0.00     0.069 A 
ATOM      6  C   LIG d   1       2.420   0.743  -6.605  0.00  0.00    -0.044 A 
ATOM      7  C   LIG d   1       2.624   0.731  -5.255  0.00  0.00    -0.015 A 
ATOM      8  C   LIG d   1       3.557  -0.138  -4.694  0.00  0.00     0.166 A 
ATOM      9  C   LIG d   1       4.290  -0.995  -5.497  0.00  0.00     0.205 A 
ATOM     10  C   LIG d   1       4.100  -0.995  -6.875  0.00  0.00     0.184 A 
ATOM     11  O   LIG d   1       4.806  -1.823  -7.670  0.00  0.00    -0.455 OA
ATOM     12  O   LIG d   1       5.203  -1.837  -4.929  0.00  0.00    -0.485 OA
ATOM     13  C   LIG d   1       4.667  -2.888  -4.122  0.00  0.00     0.093 C 
ATOM     14  C   LIG d   1       4.404  -2.398  -2.706  0.00  0.00     0.016 C 
ATOM     15  C   LIG d   1       3.329  -1.325  -2.657  0.00  0.00     0.093 C 
ATOM     16  O   LIG d   1       3.754  -0.147  -3.345  0.00  0.00    -0.488 OA
ATOM     17  H   LIG d   1       1.693   1.415  -7.037  0.00  0.00     0.063 H 
ATOM     18  H   LIG d   1       2.056   1.394  -4.618  0.00  0.00     0.066 H 
ATOM     19  H   LIG d   1       3.732  -3.236  -4.560  0.00  0.00     0.070 H 
ATOM     20  H   LIG d   1       5.378  -3.714  -4.088  0.00  0.00     0.070 H 
ATOM     21  H   LIG d   1       4.090  -3.242  -2.093  0.00  0.00     0.033 H 
ATOM     22  H   LIG d   1       5.328  -1.989  -2.296  0.00  0.00     0.033 H 
ATOM     23  H   LIG d   1       2.421  -1.705  -3.126  0.00  0.00     0.070 H 
ATOM     24  H   LIG d   1       3.117  -1.075  -1.617  0.00  0.00     0.070 H 
ENDROOT
BRANCH   2  25
ATOM     25  C   LIG d   1       3.675  -1.135 -11.139  0.00  0.00    -0.011 A 
ATOM     26  C   LIG d   1       2.716  -1.963 -11.722  0.00  0.00    -0.052 A 
ATOM     27  C   LIG d   1       2.609  -2.029 -13.096  0.00  0.00    -0.043 A 
ATOM     28  H   LIG d   1       2.059  -2.551 -11.099  0.00  0.00     0.062 H 
ATOM     29  C   LIG d   1       3.451  -1.275 -13.896  0.00  0.00     0.041 A 
ATOM     30  H   LIG d   1       1.867  -2.670 -13.548  0.00  0.00     0.063 H 
ATOM     31  C   LIG d   1       4.404  -0.451 -13.322  0.00  0.00    -0.043 A 
ATOM     32 CL   LIG d   1       3.311  -1.363 -15.624  0.00  0.00    -0.084 Cl
ATOM     33  C   LIG d   1       4.516  -0.373 -11.949  0.00  0.00    -0.052 A 
ATOM     34  H   LIG d   1       5.058   0.135 -13.950  0.00  0.00     0.063 H 
ATOM     35  H   LIG d   1       5.257   0.272 -11.502  0.00  0.00     0.062 H 
ENDBRANCH   2  25
BRANCH   1  36
ATOM     36  C   LIG d   1       5.511  -2.826  -9.787  0.00  0.00    -0.006 C 
ATOM     37  H   LIG d   1       4.903  -3.291 -10.563  0.00  0.00     0.031 H 
ATOM     38  H   LIG d   1       6.340  -2.289 -10.249  0.00  0.00     0.031 H 
ATOM     39  H   LIG d   1       5.903  -3.595  -9.121  0.00  0.00     0.031 H 
ENDBRANCH   1  36
TORSDOF 2
ENDMDL
MODEL 3
REMARK VINA RESULT:      -5.9      5.303      7.667
REMARK  2 active torsions:
REMARK  status: ('A' for Active; 'I' for Inactive)
REMARK    1  A    between atoms: C_1  and  C_2 
REMARK    2  A    between atoms: C_3  and  C_18 
ROOT
ATOM      1  C   LIG d   1       8.824   0.035  -4.992  0.00  0.00     0.114 A 
ATOM      2  C   LIG d   1       8.224   1.045  -4.309  0.00  0.00     0.067 A 
ATOM      3  C   LIG d   1       6.880   0.822  -3.752  0.00  0.00     0.201 A 
ATOM      4  O   LIG d   1       6.293   1.692  -3.132  0.00  0.00    -0.286 OA
ATOM      5  C   LIG d   1       6.276  -0.503  -3.981  0.00  0.00     0.069 A 
ATOM      6  C   LIG d   1       5.003  -0.814  -3.500  0.00  0.00    -0.044 A 
ATOM      7  C   LIG d   1       4.475  -2.054  -3.721  0.00  0.00    -0.015 A 
ATOM      8  C   LIG d   1       5.197  -3.007  -4.435  0.00  0.00     0.166 A 
ATOM      9  C   LIG d   1       6.457  -2.712  -4.925  0.00  0.00     0.205 A 
ATOM     10  C   LIG d   1       7.014  -1.456  -4.706  0.00  0.00     0.184 A 
ATOM     11  O   LIG d   1       8.241  -1.152  -5.177  0.00  0.00    -0.455 OA
ATOM     12  O   LIG d   1       7.153  -3.660  -5.619  0.00  0.00    -0.485 OA
ATOM     13  C   LIG d   1       6.625  -4.009  -6.901  0.00  0.00     0.093 C 
ATOM     14  C   LIG d   1       5.536  -5.063  -6.766  0.00  0.00     0.016 C 
ATOM     15  C   LIG d   1       4.324  -4.548  -6.008  0.00  0.00     0.093 C 
ATOM     16  O   LIG d   1       4.664  -4.242  -4.654  0.00  0.00    -0.488 OA
ATOM     17  H   LIG d   1       4.439  -0.075  -2.950  0.00  0.00     0.063 H 
ATOM     18  H   LIG d   1       3.491  -2.295  -3.345  0.00  0.00     0.066 H 
ATOM     19  H   LIG d   1       6.205  -3.119  -7.371  0.00  0.00     0.070 H 
ATOM     20  H   LIG d   1       7.427  -4.401  -7.525  0.00  0.00     0.070 H 
ATOM     21  H   LIG d   1       5.224  -5.377  -7.761  0.00  0.00     0.033 H 
ATOM     22  H   LIG d   1       5.943  -5.925  -6.236  0.00  0.00     0.033 H 
ATOM     23  H   LIG d   1       3.952  -3.646  -6.495  0.00  0.00     0.070 H 
ATOM     24  H   LIG d   1       3.543  -5.309  -6.018  0.00  0.00     0.070 H 
ENDROOT
BRANCH   2  25
ATOM     25  C   LIG d   1       8.912   2.346  -4.128  0.00  0.00    -0.011 A 
ATOM     26  C   LIG d   1       9.774   2.537  -3.049  0.00  0.00    -0.052 A 
ATOM     27  C   LIG d   1      10.412   3.750  -2.886  0.00  0.00    -0.043 A 
ATOM     28  H   LIG d   1       9.941   1.738  -2.343  0.00  0.00     0.062 H 
ATOM     29  C   LIG d   1      10.198   4.775  -3.791  0.00  0.00     0.041 A 
ATOM     30  H   LIG d   1      11.079   3.899  -2.050  0.00  0.00     0.063 H 
ATOM     31  C   LIG d   1       9.343   4.590  -4.865  0.00  0.00    -0.043 A 
ATOM     32 CL   LIG d   1      11.004   6.298  -3.580  0.00  0.00    -0.084 Cl
ATOM     33  C   LIG d   1       8.704   3.380  -5.040  0.00  0.00    -0.052 A 
ATOM     34  H   LIG d   1       9.180   5.392  -5.568  0.00  0.00     0.063 H 
ATOM     35  H   LIG d   1       8.041   3.235  -5.879  0.00  0.00     0.062 H 
ENDBRANCH   2  25
BRANCH   1  36
ATOM     36  C   LIG d   1      10.200   0.261  -5.562  0.00  0.00    -0.006 C 
ATOM     37  H   LIG d   1      10.926   0.315  -4.750  0.00  0.00     0.031 H 
ATOM     38  H   LIG d   1      10.459  -0.564  -6.225  0.00  0.00     0.031 H 
ATOM     39  H   LIG d   1      10.212   1.196  -6.123  0.00  0.00     0.031 H 
ENDBRANCH   1  36
TORSDOF 2
ENDMDL
MODEL 4
REMARK VINA RESULT:      -5.9      8.721     10.495
REMARK  2 active torsions:
REMARK  status: ('A' for Active; 'I' for Inactive)
REMARK    1  A    between atoms: C_1  and  C_2 
REMARK    2  A    between atoms: C_3  and  C_18 
ROOT
ATOM      1  C   LIG d   1       9.565   6.279  -3.670  0.00  0.00     0.114 A 
ATOM      2  C   LIG d   1       9.949   4.978  -3.589  0.00  0.00     0.067 A 
ATOM      3  C   LIG d   1      10.580   4.503  -2.346  0.00  0.00     0.201 A 
ATOM      4  O   LIG d   1      10.947   3.348  -2.217  0.00  0.00    -0.286 OA
ATOM      5  C   LIG d   1      10.748   5.492  -1.266  0.00  0.00     0.069 A 
ATOM      6  C   LIG d   1      11.339   5.144  -0.050  0.00  0.00    -0.044 A 
ATOM      7  C   LIG d   1      11.473   6.081   0.936  0.00  0.00    -0.015 A 
ATOM      8  C   LIG d   1      11.031   7.385   0.728  0.00  0.00     0.166 A 
ATOM      9  C   LIG d   1      10.449   7.747  -0.475  0.00  0.00     0.205 A 
ATOM     10  C   LIG d   1      10.300   6.806  -1.489  0.00  0.00     0.184 A 
ATOM     11  O   LIG d   1       9.736   7.142  -2.666  0.00  0.00    -0.455 OA
ATOM     12  O   LIG d   1      10.017   9.029  -0.658  0.00  0.00    -0.485 OA
ATOM     13  C   LIG d   1      11.038  10.027  -0.735  0.00  0.00     0.093 C 
ATOM     14  C   LIG d   1      11.451  10.482   0.656  0.00  0.00     0.016 C 
ATOM     15  C   LIG d   1      12.101   9.367   1.459  0.00  0.00     0.093 C 
ATOM     16  O   LIG d   1      11.168   8.316   1.715  0.00  0.00    -0.488 OA
ATOM     17  H   LIG d   1      11.687   4.134   0.112  0.00  0.00     0.063 H 
ATOM     18  H   LIG d   1      11.927   5.810   1.878  0.00  0.00     0.066 H 
ATOM     19  H   LIG d   1      11.905   9.614  -1.250  0.00  0.00     0.070 H 
ATOM     20  H   LIG d   1      10.661  10.883  -1.295  0.00  0.00     0.070 H 
ATOM     21  H   LIG d   1      12.156  11.308   0.562  0.00  0.00     0.033 H 
ATOM     22  H   LIG d   1      10.568  10.832   1.190  0.00  0.00     0.033 H 
ATOM     23  H   LIG d   1      12.946   8.967   0.899  0.00  0.00     0.070 H 
ATOM     24  H   LIG d   1      12.457   9.769   2.409  0.00  0.00     0.070 H 
ENDROOT
BRANCH   2  25
ATOM     25  C   LIG d   1       9.737   4.056  -4.730  0.00  0.00    -0.011 A 
ATOM     26  C   LIG d   1      10.599   4.089  -5.826  0.00  0.00    -0.052 A 
ATOM     27  C   LIG d   1      10.398   3.228  -6.885  0.00  0.00    -0.043 A 
ATOM     28  H   LIG d   1      11.422   4.788  -5.845  0.00  0.00     0.062 H 
ATOM     29  C   LIG d   1       9.344   2.331  -6.861  0.00  0.00     0.041 A 
ATOM     30  H   LIG d   1      11.065   3.253  -7.734  0.00  0.00     0.063 H 
ATOM     31  C   LIG d   1       8.485   2.294  -5.775  0.00  0.00    -0.043 A 
ATOM     32 CL   LIG d   1       9.096   1.251  -8.197  0.00  0.00    -0.084 Cl
ATOM     33  C   LIG d   1       8.680   3.147  -4.708  0.00  0.00    -0.052 A 
ATOM     34  H   LIG d   1       7.664   1.593  -5.761  0.00  0.00     0.063 H 
ATOM     35  H   LIG d   1       8.013   3.115  -3.861  0.00  0.00     0.062 H 
ENDBRANCH   2  25
BRANCH   1  36
ATOM     36  C   LIG d   1       8.918   6.766  -4.941  0.00  0.00    -0.006 C 
ATOM     37  H   LIG d   1       9.044   7.846  -5.023  0.00  0.00     0.031 H 
ATOM     38  H   LIG d   1       9.389   6.280  -5.796  0.00  0.00     0.031 H 
ATOM     39  H   LIG d   1       7.856   6.523  -4.925  0.00  0.00     0.031 H 
ENDBRANCH   1  36
TORSDOF 2
ENDMDL
MODEL 5
REMARK VINA RESULT:      -5.8      3.383      7.830
REMARK  2 active torsions:
REMARK  status: ('A' for Active; 'I' for Inactive)
REMARK    1  A    between atoms: C_1  and  C_2 
REMARK    2  A    between atoms: C_3  and  C_18 
ROOT
ATOM      1  C   LIG d   1       4.216  -2.269  -7.103  0.00  0.00     0.114 A 
ATOM      2  C   LIG d   1       3.993  -0.964  -6.800  0.00  0.00     0.067 A 
ATOM      3  C   LIG d   1       3.563  -0.052  -7.873  0.00  0.00     0.201 A 
ATOM      4  O   LIG d   1       3.350   1.129  -7.660  0.00  0.00    -0.286 OA
ATOM      5  C   LIG d   1       3.403  -0.636  -9.217  0.00  0.00     0.069 A 
ATOM      6  C   LIG d   1       3.005   0.144 -10.304  0.00  0.00    -0.044 A 
ATOM      7  C   LIG d   1       2.856  -0.428 -11.536  0.00  0.00    -0.015 A 
ATOM      8  C   LIG d   1       3.112  -1.785 -11.713  0.00  0.00     0.166 A 
ATOM      9  C   LIG d   1       3.515  -2.570 -10.647  0.00  0.00     0.205 A 
ATOM     10  C   LIG d   1       3.667  -2.007  -9.384  0.00  0.00     0.184 A 
ATOM     11  O   LIG d   1       4.059  -2.758  -8.335  0.00  0.00    -0.455 OA
ATOM     12  O   LIG d   1       3.756  -3.900 -10.840  0.00  0.00    -0.485 OA
ATOM     13  C   LIG d   1       4.899  -4.218 -11.637  0.00  0.00     0.093 C 
ATOM     14  C   LIG d   1       4.550  -4.180 -13.118  0.00  0.00     0.016 C 
ATOM     15  C   LIG d   1       4.166  -2.786 -13.584  0.00  0.00     0.093 C 
ATOM     16  O   LIG d   1       2.964  -2.350 -12.945  0.00  0.00    -0.488 OA
ATOM     17  H   LIG d   1       2.810   1.198 -10.170  0.00  0.00     0.063 H 
ATOM     18  H   LIG d   1       2.544   0.175 -12.376  0.00  0.00     0.066 H 
ATOM     19  H   LIG d   1       5.690  -3.495 -11.436  0.00  0.00     0.070 H 
ATOM     20  H   LIG d   1       5.251  -5.217 -11.378  0.00  0.00     0.070 H 
ATOM     21  H   LIG d   1       5.412  -4.520 -13.691  0.00  0.00     0.033 H 
ATOM     22  H   LIG d   1       3.715  -4.856 -13.301  0.00  0.00     0.033 H 
ATOM     23  H   LIG d   1       4.971  -2.091 -13.342  0.00  0.00     0.070 H 
ATOM     24  H   LIG d   1       4.014  -2.797 -14.664  0.00  0.00     0.070 H 
ENDROOT
BRANCH   2  25
ATOM     25  C   LIG d   1       4.180  -0.467  -5.415  0.00  0.00    -0.011 A 
ATOM     26  C   LIG d   1       3.073  -0.238  -4.599  0.00  0.00    -0.052 A 
ATOM     27  C   LIG d   1       3.252   0.223  -3.311  0.00  0.00    -0.043 A 
ATOM     28  H   LIG d   1       2.077  -0.421  -4.975  0.00  0.00     0.062 H 
ATOM     29  C   LIG d   1       4.528   0.457  -2.828  0.00  0.00     0.041 A 
ATOM     30  H   LIG d   1       2.395   0.401  -2.678  0.00  0.00     0.063 H 
ATOM     31  C   LIG d   1       5.632   0.231  -3.634  0.00  0.00    -0.043 A 
ATOM     32 CL   LIG d   1       4.747   1.037  -1.207  0.00  0.00    -0.084 Cl
ATOM     33  C   LIG d   1       5.463  -0.235  -4.922  0.00  0.00    -0.052 A 
ATOM     34  H   LIG d   1       6.624   0.415  -3.253  0.00  0.00     0.063 H 
ATOM     35  H   LIG d   1       6.323  -0.415  -5.549  0.00  0.00     0.062 H 
ENDBRANCH   2  25
BRANCH   1  36
ATOM     36  C   LIG d   1       4.655  -3.204  -6.005  0.00  0.00    -0.006 C 
ATOM     37  H   LIG d   1       3.836  -3.348  -5.300  0.00  0.00     0.031 H 
ATOM     38  H   LIG d   1       4.936  -4.164  -6.437  0.00  0.00     0.031 H 
ATOM     39  H   LIG d   1       5.512  -2.775  -5.484  0.00  0.00     0.031 H 
ENDBRANCH   1  36
TORSDOF 2
ENDMDL
MODEL 6
REMARK VINA RESULT:      -5.8     11.953     14.951
REMARK  2 active torsions:
REMARK  status: ('A' for Active; 'I' for Inactive)
REMARK    1  A    between atoms: C_1  and  C_2 
REMARK    2  A    between atoms: C_3  and  C_18 
ROOT
ATOM      1  C   LIG d   1      11.807   8.510   1.251  0.00  0.00     0.114 A 
ATOM      2  C   LIG d   1      11.315   7.253   1.093  0.00  0.00     0.067 A 
ATOM      3  C   LIG d   1      11.029   6.448   2.292  0.00  0.00     0.201 A 
ATOM      4  O   LIG d   1      10.589   5.315   2.211  0.00  0.00    -0.286 OA
ATOM      5  C   LIG d   1      11.303   7.079   3.596  0.00  0.00     0.069 A 
ATOM      6  C   LIG d   1      11.072   6.399   4.793  0.00  0.00    -0.044 A 
ATOM      7  C   LIG d   1      11.327   7.013   5.986  0.00  0.00    -0.015 A 
ATOM      8  C   LIG d   1      11.828   8.312   6.013  0.00  0.00     0.166 A 
ATOM      9  C   LIG d   1      12.069   8.997   4.835  0.00  0.00     0.205 A 
ATOM     10  C   LIG d   1      11.811   8.390   3.610  0.00  0.00     0.184 A 
ATOM     11  O   LIG d   1      12.041   9.043   2.453  0.00  0.00    -0.455 OA
ATOM     12  O   LIG d   1      12.555  10.272   4.881  0.00  0.00    -0.485 OA
ATOM     13  C   LIG d   1      13.897  10.412   5.355  0.00  0.00     0.093 C 
ATOM     14  C   LIG d   1      13.927  10.463   6.876  0.00  0.00     0.016 C 
ATOM     15  C   LIG d   1      13.458   9.162   7.506  0.00  0.00     0.093 C 
ATOM     16  O   LIG d   1      12.082   8.919   7.207  0.00  0.00    -0.488 OA
ATOM     17  H   LIG d   1      10.688   5.389   4.775  0.00  0.00     0.063 H 
ATOM     18  H   LIG d   1      11.145   6.488   6.913  0.00  0.00     0.066 H 
ATOM     19  H   LIG d   1      14.489   9.563   5.014  0.00  0.00     0.070 H 
ATOM     20  H   LIG d   1      14.324  11.332   4.958  0.00  0.00     0.070 H 
ATOM     21  H   LIG d   1      14.946  10.667   7.202  0.00  0.00     0.033 H 
ATOM     22  H   LIG d   1      13.279  11.272   7.215  0.00  0.00     0.033 H 
ATOM     23  H   LIG d   1      14.059   8.339   7.120  0.00  0.00     0.070 H 
ATOM     24  H   LIG d   1      13.584   9.222   8.588  0.00  0.00     0.070 H 
ENDROOT
BRANCH   2  25
ATOM     25  C   LIG d   1      11.070   6.704  -0.263  0.00  0.00    -0.011 A 
ATOM     26  C   LIG d   1      12.011   5.864  -0.857  0.00  0.00    -0.052 A 
ATOM     27  C   LIG d   1      11.778   5.355  -2.118  0.00  0.00    -0.043 A 
ATOM     28  H   LIG d   1      12.920   5.614  -0.332  0.00  0.00     0.062 H 
ATOM     29  C   LIG d   1      10.613   5.676  -2.793  0.00  0.00     0.041 A 
ATOM     30  H   LIG d   1      12.506   4.705  -2.580  0.00  0.00     0.063 H 
ATOM     31  C   LIG d   1       9.674   6.509  -2.206  0.00  0.00    -0.043 A 
ATOM     32 CL   LIG d   1      10.326   5.032  -4.379  0.00  0.00    -0.084 Cl
ATOM     33  C   LIG d   1       9.895   7.020  -0.944  0.00  0.00    -0.052 A 
ATOM     34  H   LIG d   1       8.767   6.757  -2.737  0.00  0.00     0.063 H 
ATOM     35  H   LIG d   1       9.162   7.665  -0.486  0.00  0.00     0.062 H 
ENDBRANCH   2  25
BRANCH   1  36
ATOM     36  C   LIG d   1      12.099   9.335   0.024  0.00  0.00    -0.006 C 
ATOM     37  H   LIG d   1      12.396   8.678  -0.793  0.00  0.00     0.031 H 
ATOM     38  H   LIG d   1      11.204   9.888  -0.262  0.00  0.00     0.031 H 
ATOM     39  H   LIG d   1      12.905  10.035   0.241  0.00  0.00     0.031 H 
ENDBRANCH   1  36
TORSDOF 2
ENDMDL
MODEL 7
REMARK VINA RESULT:      -5.8      8.605      9.620
REMARK  2 active torsions:
REMARK  status: ('A' for Active; 'I' for Inactive)
REMARK    1  A    between atoms: C_1  and  C_2 
REMARK    2  A    between atoms: C_3  and  C_18 
ROOT
ATOM      1  C   LIG d   1       9.688   7.758  -6.273  0.00  0.00     0.114 A 
ATOM      2  C   LIG d   1       9.884   6.544  -6.851  0.00  0.00     0.067 A 
ATOM      3  C   LIG d   1      10.096   5.373  -5.984  0.00  0.00     0.201 A 
ATOM      4  O   LIG d   1      10.279   4.260  -6.446  0.00  0.00    -0.286 OA
ATOM      5  C   LIG d   1      10.077   5.611  -4.529  0.00  0.00     0.069 A 
ATOM      6  C   LIG d   1      10.274   4.570  -3.621  0.00  0.00    -0.044 A 
ATOM      7  C   LIG d   1      10.242   4.820  -2.278  0.00  0.00    -0.015 A 
ATOM      8  C   LIG d   1      10.025   6.115  -1.812  0.00  0.00     0.166 A 
ATOM      9  C   LIG d   1       9.836   7.159  -2.700  0.00  0.00     0.205 A 
ATOM     10  C   LIG d   1       9.861   6.923  -4.071  0.00  0.00     0.184 A 
ATOM     11  O   LIG d   1       9.679   7.930  -4.948  0.00  0.00    -0.455 OA
ATOM     12  O   LIG d   1       9.621   8.421  -2.224  0.00  0.00    -0.485 OA
ATOM     13  C   LIG d   1      10.732   9.041  -1.573  0.00  0.00     0.093 C 
ATOM     14  C   LIG d   1      10.803   8.621  -0.112  0.00  0.00     0.016 C 
ATOM     15  C   LIG d   1      11.078   7.135   0.048  0.00  0.00     0.093 C 
ATOM     16  O   LIG d   1       9.996   6.359  -0.471  0.00  0.00    -0.488 OA
ATOM     17  H   LIG d   1      10.446   3.566  -3.980  0.00  0.00     0.063 H 
ATOM     18  H   LIG d   1      10.389   4.013  -1.576  0.00  0.00     0.066 H 
ATOM     19  H   LIG d   1      11.653   8.747  -2.075  0.00  0.00     0.070 H 
ATOM     20  H   LIG d   1      10.622  10.124  -1.628  0.00  0.00     0.070 H 
ATOM     21  H   LIG d   1      11.597   9.183   0.378  0.00  0.00     0.033 H 
ATOM     22  H   LIG d   1       9.854   8.858   0.370  0.00  0.00     0.033 H 
ATOM     23  H   LIG d   1      11.991   6.879  -0.488  0.00  0.00     0.070 H 
ATOM     24  H   LIG d   1      11.207   6.906   1.107  0.00  0.00     0.070 H 
ENDROOT
BRANCH   2  25
ATOM     25  C   LIG d   1       9.885   6.402  -8.327  0.00  0.00    -0.011 A 
ATOM     26  C   LIG d   1      11.074   6.540  -9.042  0.00  0.00    -0.052 A 
ATOM     27  C   LIG d   1      11.069   6.406 -10.415  0.00  0.00    -0.043 A 
ATOM     28  H   LIG d   1      11.996   6.752  -8.522  0.00  0.00     0.062 H 
ATOM     29  C   LIG d   1       9.887   6.134 -11.083  0.00  0.00     0.041 A 
ATOM     30  H   LIG d   1      11.989   6.513 -10.970  0.00  0.00     0.063 H 
ATOM     31  C   LIG d   1       8.703   5.996 -10.377  0.00  0.00    -0.043 A 
ATOM     32 CL   LIG d   1       9.888   5.967 -12.811  0.00  0.00    -0.084 Cl
ATOM     33  C   LIG d   1       8.698   6.123  -9.003  0.00  0.00    -0.052 A 
ATOM     34  H   LIG d   1       7.784   5.784 -10.902  0.00  0.00     0.063 H 
ATOM     35  H   LIG d   1       7.776   6.011  -8.453  0.00  0.00     0.062 H 
ENDBRANCH   2  25
BRANCH   1  36
ATOM     36  C   LIG d   1       9.470   8.957  -7.160  0.00  0.00    -0.006 C 
ATOM     37  H   LIG d   1      10.352   9.115  -7.781  0.00  0.00     0.031 H 
ATOM     38  H   LIG d   1       8.604   8.783  -7.798  0.00  0.00     0.031 H 
ATOM     39  H   LIG d   1       9.297   9.838  -6.543  0.00  0.00     0.031 H 
ENDBRANCH   1  36
TORSDOF 2
ENDMDL
MODEL 8
REMARK VINA RESULT:      -5.7      9.694     12.032
REMARK  2 active torsions:
REMARK  status: ('A' for Active; 'I' for Inactive)
REMARK    1  A    between atoms: C_1  and  C_2 
REMARK    2  A    between atoms: C_3  and  C_18 
ROOT
ATOM      1  C   LIG d   1       9.859   6.678  -3.210  0.00  0.00     0.114 A 
ATOM      2  C   LIG d   1      10.469   5.649  -2.565  0.00  0.00     0.067 A 
ATOM      3  C   LIG d   1      11.026   5.886  -1.223  0.00  0.00     0.201 A 
ATOM      4  O   LIG d   1      11.586   5.002  -0.598  0.00  0.00    -0.286 OA
ATOM      5  C   LIG d   1      10.876   7.245  -0.671  0.00  0.00     0.069 A 
ATOM      6  C   LIG d   1      11.374   7.575   0.590  0.00  0.00    -0.044 A 
ATOM      7  C   LIG d   1      11.211   8.841   1.078  0.00  0.00    -0.015 A 
ATOM      8  C   LIG d   1      10.559   9.807   0.316  0.00  0.00     0.166 A 
ATOM      9  C   LIG d   1      10.066   9.497  -0.940  0.00  0.00     0.205 A 
ATOM     10  C   LIG d   1      10.218   8.213  -1.452  0.00  0.00     0.184 A 
ATOM     11  O   LIG d   1       9.744   7.895  -2.673  0.00  0.00    -0.455 OA
ATOM     12  O   LIG d   1       9.425  10.457  -1.670  0.00  0.00    -0.485 OA
ATOM     13  C   LIG d   1      10.242  11.530  -2.144  0.00  0.00     0.093 C 
ATOM     14  C   LIG d   1      10.395  12.602  -1.076  0.00  0.00     0.016 C 
ATOM     15  C   LIG d   1      11.143  12.096   0.147  0.00  0.00     0.093 C 
ATOM     16  O   LIG d   1      10.401  11.069   0.807  0.00  0.00    -0.488 OA
ATOM     17  H   LIG d   1      11.883   6.829   1.182  0.00  0.00     0.063 H 
ATOM     18  H   LIG d   1      11.593   9.095   2.056  0.00  0.00     0.066 H 
ATOM     19  H   LIG d   1      11.227  11.143  -2.407  0.00  0.00     0.070 H 
ATOM     20  H   LIG d   1       9.780  11.970  -3.028  0.00  0.00     0.070 H 
ATOM     21  H   LIG d   1      10.938  13.447  -1.498  0.00  0.00     0.033 H 
ATOM     22  H   LIG d   1       9.404  12.938  -0.768  0.00  0.00     0.033 H 
ATOM     23  H   LIG d   1      12.109  11.697  -0.163  0.00  0.00     0.070 H 
ATOM     24  H   LIG d   1      11.302  12.924   0.839  0.00  0.00     0.070 H 
ENDROOT
BRANCH   2  25
ATOM     25  C   LIG d   1      10.572   4.314  -3.201  0.00  0.00    -0.011 A 
ATOM     26  C   LIG d   1       9.509   3.415  -3.115  0.00  0.00    -0.052 A 
ATOM     27  C   LIG d   1       9.609   2.174  -3.710  0.00  0.00    -0.043 A 
ATOM     28  H   LIG d   1       8.611   3.690  -2.584  0.00  0.00     0.062 H 
ATOM     29  C   LIG d   1      10.762   1.820  -4.391  0.00  0.00     0.041 A 
ATOM     30  H   LIG d   1       8.787   1.477  -3.644  0.00  0.00     0.063 H 
ATOM     31  C   LIG d   1      11.820   2.710  -4.480  0.00  0.00    -0.043 A 
ATOM     32 CL   LIG d   1      10.881   0.258  -5.137  0.00  0.00    -0.084 Cl
ATOM     33  C   LIG d   1      11.728   3.955  -3.893  0.00  0.00    -0.052 A 
ATOM     34  H   LIG d   1      12.716   2.430  -5.012  0.00  0.00     0.063 H 
ATOM     35  H   LIG d   1      12.551   4.649  -3.966  0.00  0.00     0.062 H 
ENDBRANCH   2  25
BRANCH   1  36
ATOM     36  C   LIG d   1       9.288   6.436  -4.583  0.00  0.00    -0.006 C 
ATOM     37  H   LIG d   1       8.286   6.860  -4.640  0.00  0.00     0.031 H 
ATOM     38  H   LIG d   1       9.926   6.909  -5.330  0.00  0.00     0.031 H 
ATOM     39  H   LIG d   1       9.241   5.363  -4.773  0.00  0.00     0.031 H 
ENDBRANCH   1  36
TORSDOF 2
ENDMDL
MODEL 9
REMARK VINA RESULT:      -5.5      9.415     10.746
REMARK  2 active torsions:
REMARK  status: ('A' for Active; 'I' for Inactive)
REMARK    1  A    between atoms: C_1  and  C_2 
REMARK    2  A    between atoms: C_3  and  C_18 
ROOT
ATOM      1  C   LIG d   1      10.288   6.584  -6.586  0.00  0.00     0.114 A 
ATOM      2  C   LIG d   1       9.967   7.404  -7.621  0.00  0.00     0.067 A 
ATOM      3  C   LIG d   1       9.683   8.821  -7.340  0.00  0.00     0.201 A 
ATOM      4  O   LIG d   1       9.387   9.602  -8.228  0.00  0.00    -0.286 OA
ATOM      5  C   LIG d   1       9.772   9.250  -5.933  0.00  0.00     0.069 A 
ATOM      6  C   LIG d   1       9.516  10.570  -5.559  0.00  0.00    -0.044 A 
ATOM      7  C   LIG d   1       9.615  10.940  -4.248  0.00  0.00    -0.015 A 
ATOM      8  C   LIG d   1       9.960  10.000  -3.279  0.00  0.00     0.166 A 
ATOM      9  C   LIG d   1      10.210   8.685  -3.633  0.00  0.00     0.205 A 
ATOM     10  C   LIG d   1      10.118   8.291  -4.964  0.00  0.00     0.184 A 
ATOM     11  O   LIG d   1      10.358   7.015  -5.324  0.00  0.00    -0.455 OA
ATOM     12  O   LIG d   1      10.552   7.779  -2.670  0.00  0.00    -0.485 OA
ATOM     13  C   LIG d   1       9.522   7.440  -1.738  0.00  0.00     0.093 C 
ATOM     14  C   LIG d   1       9.465   8.455  -0.606  0.00  0.00     0.016 C 
ATOM     15  C   LIG d   1       9.065   9.839  -1.092  0.00  0.00     0.093 C 
ATOM     16  O   LIG d   1      10.056  10.374  -1.971  0.00  0.00    -0.488 OA
ATOM     17  H   LIG d   1       9.244  11.300  -6.307  0.00  0.00     0.063 H 
ATOM     18  H   LIG d   1       9.421  11.962  -3.959  0.00  0.00     0.066 H 
ATOM     19  H   LIG d   1       8.562   7.423  -2.254  0.00  0.00     0.070 H 
ATOM     20  H   LIG d   1       9.724   6.452  -1.323  0.00  0.00     0.070 H 
ATOM     21  H   LIG d   1       8.740   8.117   0.134  0.00  0.00     0.033 H 
ATOM     22  H   LIG d   1      10.446   8.516  -0.137  0.00  0.00     0.033 H 
ATOM     23  H   LIG d   1       8.115   9.773  -1.622  0.00  0.00     0.070 H 
ATOM     24  H   LIG d   1       8.953  10.502  -0.234  0.00  0.00     0.070 H 
ENDROOT
BRANCH   2  25
ATOM     25  C   LIG d   1       9.903   6.881  -9.007  0.00  0.00    -0.011 A 
ATOM     26  C   LIG d   1      11.036   6.913  -9.820  0.00  0.00    -0.052 A 
ATOM     27  C   LIG d   1      10.972   6.424 -11.108  0.00  0.00    -0.043 A 
ATOM     28  H   LIG d   1      11.961   7.321  -9.441  0.00  0.00     0.062 H 
ATOM     29  C   LIG d   1       9.786   5.901 -11.595  0.00  0.00     0.041 A 
ATOM     30  H   LIG d   1      11.848   6.450 -11.739  0.00  0.00     0.063 H 
ATOM     31  C   LIG d   1       8.658   5.865 -10.791  0.00  0.00    -0.043 A 
ATOM     32 CL   LIG d   1       9.712   5.287 -13.217  0.00  0.00    -0.084 Cl
ATOM     33  C   LIG d   1       8.713   6.347  -9.500  0.00  0.00    -0.052 A 
ATOM     34  H   LIG d   1       7.736   5.457 -11.175  0.00  0.00     0.063 H 
ATOM     35  H   LIG d   1       7.835   6.316  -8.873  0.00  0.00     0.062 H 
ENDBRANCH   2  25
BRANCH   1  36
ATOM     36  C   LIG d   1      10.580   5.134  -6.874  0.00  0.00    -0.006 C 
ATOM     37  H   LIG d   1      10.564   4.966  -7.951  0.00  0.00     0.031 H 
ATOM     38  H   LIG d   1      11.564   4.877  -6.481  0.00  0.00     0.031 H 
ATOM     39  H   LIG d   1       9.825   4.510  -6.397  0.00  0.00     0.031 H 
ENDBRANCH   1  36
TORSDOF 2
ENDMDL
MODEL 10
REMARK VINA RESULT:      -5.4      2.020      2.446
REMARK  2 active torsions:
REMARK  status: ('A' for Active; 'I' for Inactive)
REMARK    1  A    between atoms: C_1  and  C_2 
REMARK    2  A    between atoms: C_3  and  C_18 
ROOT
ATOM      1  C   LIG d   1       3.540  -0.661  -8.764  0.00  0.00     0.114 A 
ATOM      2  C   LIG d   1       3.288  -1.873  -9.324  0.00  0.00     0.067 A 
ATOM      3  C   LIG d   1       3.595  -3.087  -8.551  0.00  0.00     0.201 A 
ATOM      4  O   LIG d   1       3.391  -4.201  -9.002  0.00  0.00    -0.286 OA
ATOM      5  C   LIG d   1       4.163  -2.892  -7.204  0.00  0.00     0.069 A 
ATOM      6  C   LIG d   1       4.495  -3.978  -6.392  0.00  0.00    -0.044 A 
ATOM      7  C   LIG d   1       5.010  -3.765  -5.145  0.00  0.00    -0.015 A 
ATOM      8  C   LIG d   1       5.217  -2.467  -4.685  0.00  0.00     0.166 A 
ATOM      9  C   LIG d   1       4.900  -1.380  -5.481  0.00  0.00     0.205 A 
ATOM     10  C   LIG d   1       4.370  -1.577  -6.752  0.00  0.00     0.184 A 
ATOM     11  O   LIG d   1       4.056  -0.529  -7.540  0.00  0.00    -0.455 OA
ATOM     12  O   LIG d   1       5.106  -0.114  -5.011  0.00  0.00    -0.485 OA
ATOM     13  C   LIG d   1       6.471   0.277  -4.845  0.00  0.00     0.093 C 
ATOM     14  C   LIG d   1       7.005  -0.191  -3.499  0.00  0.00     0.016 C 
ATOM     15  C   LIG d   1       7.051  -1.707  -3.393  0.00  0.00     0.093 C 
ATOM     16  O   LIG d   1       5.734  -2.260  -3.441  0.00  0.00    -0.488 OA
ATOM     17  H   LIG d   1       4.339  -4.986  -6.748  0.00  0.00     0.063 H 
ATOM     18  H   LIG d   1       5.263  -4.605  -4.516  0.00  0.00     0.066 H 
ATOM     19  H   LIG d   1       7.070  -0.165  -5.642  0.00  0.00     0.070 H 
ATOM     20  H   LIG d   1       6.543   1.363  -4.900  0.00  0.00     0.070 H 
ATOM     21  H   LIG d   1       8.011   0.204  -3.363  0.00  0.00     0.033 H 
ATOM     22  H   LIG d   1       6.362   0.198  -2.710  0.00  0.00     0.033 H 
ATOM     23  H   LIG d   1       7.637  -2.108  -4.219  0.00  0.00     0.070 H 
ATOM     24  H   LIG d   1       7.522  -1.986  -2.449  0.00  0.00     0.070 H 
ENDROOT
BRANCH   2  25
ATOM     25  C   LIG d   1       2.713  -1.970 -10.688  0.00  0.00    -0.011 A 
ATOM     26  C   LIG d   1       1.330  -1.981 -10.864  0.00  0.00    -0.052 A 
ATOM     27  C   LIG d   1       0.800  -2.071 -12.135  0.00  0.00    -0.043 A 
ATOM     28  H   LIG d   1       0.675  -1.921 -10.008  0.00  0.00     0.062 H 
ATOM     29  C   LIG d   1       1.639  -2.149 -13.234  0.00  0.00     0.041 A 
ATOM     30  H   LIG d   1      -0.270  -2.080 -12.273  0.00  0.00     0.063 H 
ATOM     31  C   LIG d   1       3.014  -2.137 -13.064  0.00  0.00    -0.043 A 
ATOM     32 CL   LIG d   1       0.967  -2.261 -14.830  0.00  0.00    -0.084 Cl
ATOM     33  C   LIG d   1       3.554  -2.043 -11.797  0.00  0.00    -0.052 A 
ATOM     34  H   LIG d   1       3.664  -2.198 -13.923  0.00  0.00     0.063 H 
ATOM     35  H   LIG d   1       4.625  -2.030 -11.666  0.00  0.00     0.062 H 
ENDBRANCH   2  25
BRANCH   1  36
ATOM     36  C   LIG d   1       3.225   0.583  -9.555  0.00  0.00    -0.006 C 
ATOM     37  H   LIG d   1       3.132   0.328 -10.611  0.00  0.00     0.031 H 
ATOM     38  H   LIG d   1       2.286   1.009  -9.200  0.00  0.00     0.031 H 
ATOM     39  H   LIG d   1       4.026   1.309  -9.424  0.00  0.00     0.031 H 
ENDBRANCH   1  36
TORSDOF 2
ENDMDL
