MODEL 1
REMARK VINA RESULT:      -4.6      0.000      0.000
REMARK  6 active torsions:
REMARK  status: ('A' for Active; 'I' for Inactive)
REMARK    1  A    between atoms: C_1  and  N_2 
REMARK    2  A    between atoms: N_2  and  C_3 
REMARK    3  A    between atoms: N_5  and  C_6 
REMARK    4  A    between atoms: C_6  and  C_7 
REMARK    5  A    between atoms: C_7  and  C_8 
REMARK    6  A    between atoms: C_8  and  C_9 
ROOT
ATOM      1  C   LIG d   1       3.484   0.886  -2.285  0.00  0.00    -0.032 C 
ATOM      2  H   LIG d   1       2.982   1.004  -1.324  0.00  0.00     0.028 H 
ATOM      3  H   LIG d   1       3.321   1.777  -2.891  0.00  0.00     0.028 H 
ENDROOT
BRANCH   1   4
ATOM      4  C   LIG d   1       4.983   0.690  -2.056  0.00  0.00     0.011 C 
ATOM      5  H   LIG d   1       5.224  -0.372  -2.111  0.00  0.00     0.046 H 
ATOM      6  H   LIG d   1       5.254   1.074  -1.073  0.00  0.00     0.046 H 
BRANCH   4   7
ATOM      7  N   LIG d   1       5.733   1.413  -3.087  0.00  0.00    -0.327 N 
ATOM      8  C   LIG d   1       6.665   0.770  -3.819  0.00  0.00     0.130 C 
ATOM      9  S   LIG d   1       6.970  -0.892  -3.546  0.00  0.00    -0.019 SA
ATOM     10  H   LIG d   1       5.560   2.355  -3.241  0.00  0.00     0.148 HD
BRANCH   8  11
ATOM     11  N   LIG d   1       7.355   1.435  -4.766  0.00  0.00    -0.330 N 
ATOM     12  H   LIG d   1       7.177   1.266  -5.704  0.00  0.00     0.147 HD
BRANCH  11  13
ATOM     13  C   LIG d   1       8.373   2.415  -4.379  0.00  0.00    -0.001 C 
ATOM     14  H   LIG d   1       8.649   2.258  -3.335  0.00  0.00     0.043 H 
ATOM     15  H   LIG d   1       9.253   2.293  -5.009  0.00  0.00     0.043 H 
ATOM     16  H   LIG d   1       7.973   3.421  -4.502  0.00  0.00     0.043 H 
ENDBRANCH  11  13
ENDBRANCH   8  11
ENDBRANCH   4   7
ENDBRANCH   1   4
BRANCH   1  17
ATOM     17  C   LIG d   1       2.915  -0.335  -3.010  0.00  0.00    -0.010 C 
ATOM     18  H   LIG d   1       3.451  -1.230  -2.691  0.00  0.00     0.033 H 
ATOM     19  H   LIG d   1       1.857  -0.441  -2.771  0.00  0.00     0.033 H 
BRANCH  17  20
ATOM     20  C   LIG d   1       3.079  -0.158  -4.499  0.00  0.00     0.035 A 
ATOM     21  N   LIG d   1       3.771  -0.978  -5.347  0.00  0.00    -0.348 N 
ATOM     22  C   LIG d   1       3.659  -0.455  -6.587  0.00  0.00     0.093 A 
ATOM     23  H   LIG d   1       4.251  -1.784  -5.103  0.00  0.00     0.167 HD
ATOM     24  N   LIG d   1       2.945   0.636  -6.519  0.00  0.00    -0.244 NA
ATOM     25  H   LIG d   1       4.092  -0.869  -7.486  0.00  0.00     0.103 H 
ATOM     26  C   LIG d   1       2.575   0.843  -5.246  0.00  0.00     0.048 A 
ATOM     27  H   LIG d   1       1.977   1.666  -4.885  0.00  0.00     0.085 H 
ENDBRANCH  17  20
ENDBRANCH   1  17
TORSDOF 6
ENDMDL
MODEL 2
REMARK VINA RESULT:      -4.6      1.771      2.024
REMARK  6 active torsions:
REMARK  status: ('A' for Active; 'I' for Inactive)
REMARK    1  A    between atoms: C_1  and  N_2 
REMARK    2  A    between atoms: N_2  and  C_3 
REMARK    3  A    between atoms: N_5  and  C_6 
REMARK    4  A    between atoms: C_6  and  C_7 
REMARK    5  A    between atoms: C_7  and  C_8 
REMARK    6  A    between atoms: C_8  and  C_9 
ROOT
ATOM      1  C   LIG d   1       4.884  -1.486  -2.048  0.00  0.00    -0.032 C 
ATOM      2  H   LIG d   1       5.028  -2.155  -1.199  0.00  0.00     0.028 H 
ATOM      3  H   LIG d   1       5.077  -0.459  -1.737  0.00  0.00     0.028 H 
ENDROOT
BRANCH   1   4
ATOM      4  C   LIG d   1       5.851  -1.871  -3.169  0.00  0.00     0.011 C 
ATOM      5  H   LIG d   1       5.354  -1.753  -4.133  0.00  0.00     0.046 H 
ATOM      6  H   LIG d   1       6.158  -2.909  -3.044  0.00  0.00     0.046 H 
BRANCH   4   7
ATOM      7  N   LIG d   1       7.029  -1.002  -3.118  0.00  0.00    -0.327 N 
ATOM      8  C   LIG d   1       7.359  -0.251  -4.188  0.00  0.00     0.130 C 
ATOM      9  S   LIG d   1       6.401  -0.310  -5.605  0.00  0.00    -0.019 SA
ATOM     10  H   LIG d   1       7.573  -0.968  -2.315  0.00  0.00     0.148 HD
BRANCH   8  11
ATOM     11  N   LIG d   1       8.444   0.549  -4.141  0.00  0.00    -0.330 N 
ATOM     12  H   LIG d   1       9.324   0.183  -4.323  0.00  0.00     0.147 HD
BRANCH  11  13
ATOM     13  C   LIG d   1       8.293   1.969  -3.815  0.00  0.00    -0.001 C 
ATOM     14  H   LIG d   1       8.463   2.117  -2.748  0.00  0.00     0.043 H 
ATOM     15  H   LIG d   1       9.019   2.551  -4.382  0.00  0.00     0.043 H 
ATOM     16  H   LIG d   1       7.285   2.295  -4.071  0.00  0.00     0.043 H 
ENDBRANCH  11  13
ENDBRANCH   8  11
ENDBRANCH   4   7
ENDBRANCH   1   4
BRANCH   1  17
ATOM     17  C   LIG d   1       3.445  -1.604  -2.552  0.00  0.00    -0.010 C 
ATOM     18  H   LIG d   1       3.323  -2.549  -3.084  0.00  0.00     0.033 H 
ATOM     19  H   LIG d   1       2.759  -1.572  -1.706  0.00  0.00     0.033 H 
BRANCH  17  20
ATOM     20  C   LIG d   1       3.144  -0.460  -3.488  0.00  0.00     0.035 A 
ATOM     21  N   LIG d   1       2.552  -0.547  -4.718  0.00  0.00    -0.348 N 
ATOM     22  C   LIG d   1       2.470   0.708  -5.210  0.00  0.00     0.093 A 
ATOM     23  H   LIG d   1       2.246  -1.357  -5.154  0.00  0.00     0.167 HD
ATOM     24  N   LIG d   1       2.990   1.534  -4.342  0.00  0.00    -0.244 NA
ATOM     25  H   LIG d   1       2.048   0.984  -6.165  0.00  0.00     0.103 H 
ATOM     26  C   LIG d   1       3.413   0.842  -3.273  0.00  0.00     0.048 A 
ATOM     27  H   LIG d   1       3.885   1.257  -2.395  0.00  0.00     0.085 H 
ENDBRANCH  17  20
ENDBRANCH   1  17
TORSDOF 6
ENDMDL
MODEL 3
REMARK VINA RESULT:      -4.2      1.972      4.024
REMARK  6 active torsions:
REMARK  status: ('A' for Active; 'I' for Inactive)
REMARK    1  A    between atoms: C_1  and  N_2 
REMARK    2  A    between atoms: N_2  and  C_3 
REMARK    3  A    between atoms: N_5  and  C_6 
REMARK    4  A    between atoms: C_6  and  C_7 
REMARK    5  A    between atoms: C_7  and  C_8 
REMARK    6  A    between atoms: C_8  and  C_9 
ROOT
ATOM      1  C   LIG d   1       4.307  -1.494  -1.943  0.00  0.00    -0.032 C 
ATOM      2  H   LIG d   1       4.001  -1.910  -0.982  0.00  0.00     0.028 H 
ATOM      3  H   LIG d   1       5.139  -2.074  -2.341  0.00  0.00     0.028 H 
ENDROOT
BRANCH   1   4
ATOM      4  C   LIG d   1       3.132  -1.551  -2.921  0.00  0.00     0.011 C 
ATOM      5  H   LIG d   1       2.591  -0.604  -2.895  0.00  0.00     0.046 H 
ATOM      6  H   LIG d   1       2.460  -2.360  -2.635  0.00  0.00     0.046 H 
BRANCH   4   7
ATOM      7  N   LIG d   1       3.634  -1.788  -4.276  0.00  0.00    -0.327 N 
ATOM      8  C   LIG d   1       3.430  -0.869  -5.241  0.00  0.00     0.130 C 
ATOM      9  S   LIG d   1       2.586   0.576  -4.883  0.00  0.00    -0.019 SA
ATOM     10  H   LIG d   1       4.113  -2.607  -4.479  0.00  0.00     0.148 HD
BRANCH   8  11
ATOM     11  N   LIG d   1       3.893  -1.088  -6.488  0.00  0.00    -0.330 N 
ATOM     12  H   LIG d   1       3.271  -1.175  -7.228  0.00  0.00     0.147 HD
BRANCH  11  13
ATOM     13  C   LIG d   1       5.335  -1.195  -6.726  0.00  0.00    -0.001 C 
ATOM     14  H   LIG d   1       5.581  -0.723  -7.678  0.00  0.00     0.043 H 
ATOM     15  H   LIG d   1       5.874  -0.694  -5.922  0.00  0.00     0.043 H 
ATOM     16  H   LIG d   1       5.620  -2.246  -6.756  0.00  0.00     0.043 H 
ENDBRANCH  11  13
ENDBRANCH   8  11
ENDBRANCH   4   7
ENDBRANCH   1   4
BRANCH   1  17
ATOM     17  C   LIG d   1       4.742  -0.040  -1.753  0.00  0.00    -0.010 C 
ATOM     18  H   LIG d   1       3.889   0.619  -1.920  0.00  0.00     0.033 H 
ATOM     19  H   LIG d   1       5.116   0.099  -0.739  0.00  0.00     0.033 H 
BRANCH  17  20
ATOM     20  C   LIG d   1       5.832   0.292  -2.741  0.00  0.00     0.035 A 
ATOM     21  N   LIG d   1       6.839  -0.538  -3.153  0.00  0.00    -0.348 N 
ATOM     22  C   LIG d   1       7.587   0.153  -4.040  0.00  0.00     0.093 A 
ATOM     23  H   LIG d   1       6.986  -1.452  -2.865  0.00  0.00     0.167 HD
ATOM     24  N   LIG d   1       7.085   1.352  -4.168  0.00  0.00    -0.244 NA
ATOM     25  H   LIG d   1       8.460  -0.221  -4.554  0.00  0.00     0.103 H 
ATOM     26  C   LIG d   1       6.005   1.464  -3.380  0.00  0.00     0.048 A 
ATOM     27  H   LIG d   1       5.383   2.341  -3.278  0.00  0.00     0.085 H 
ENDBRANCH  17  20
ENDBRANCH   1  17
TORSDOF 6
ENDMDL
MODEL 4
REMARK VINA RESULT:      -4.0      3.230      3.530
REMARK  6 active torsions:
REMARK  status: ('A' for Active; 'I' for Inactive)
REMARK    1  A    between atoms: C_1  and  N_2 
REMARK    2  A    between atoms: N_2  and  C_3 
REMARK    3  A    between atoms: N_5  and  C_6 
REMARK    4  A    between atoms: C_6  and  C_7 
REMARK    5  A    between atoms: C_7  and  C_8 
REMARK    6  A    between atoms: C_8  and  C_9 
ROOT
ATOM      1  C   LIG d   1       5.363  -1.521  -2.577  0.00  0.00    -0.032 C 
ATOM      2  H   LIG d   1       5.608  -2.122  -1.699  0.00  0.00     0.028 H 
ATOM      3  H   LIG d   1       5.472  -0.464  -2.334  0.00  0.00     0.028 H 
ENDROOT
BRANCH   1   4
ATOM      4  C   LIG d   1       6.311  -1.883  -3.722  0.00  0.00     0.011 C 
ATOM      5  H   LIG d   1       6.445  -1.016  -4.370  0.00  0.00     0.046 H 
ATOM      6  H   LIG d   1       5.888  -2.705  -4.298  0.00  0.00     0.046 H 
BRANCH   4   7
ATOM      7  N   LIG d   1       7.608  -2.286  -3.173  0.00  0.00    -0.327 N 
ATOM      8  C   LIG d   1       8.454  -3.027  -3.918  0.00  0.00     0.130 C 
ATOM      9  S   LIG d   1       8.013  -3.494  -5.504  0.00  0.00    -0.019 SA
ATOM     10  H   LIG d   1       7.858  -2.022  -2.274  0.00  0.00     0.148 HD
BRANCH   8  11
ATOM     11  N   LIG d   1       9.647  -3.398  -3.413  0.00  0.00    -0.330 N 
ATOM     12  H   LIG d   1      10.467  -3.073  -3.817  0.00  0.00     0.147 HD
BRANCH  11  13
ATOM     13  C   LIG d   1       9.706  -4.293  -2.254  0.00  0.00    -0.001 C 
ATOM     14  H   LIG d   1      10.747  -4.474  -1.987  0.00  0.00     0.043 H 
ATOM     15  H   LIG d   1       9.190  -3.831  -1.412  0.00  0.00     0.043 H 
ATOM     16  H   LIG d   1       9.224  -5.239  -2.501  0.00  0.00     0.043 H 
ENDBRANCH  11  13
ENDBRANCH   8  11
ENDBRANCH   4   7
ENDBRANCH   1   4
BRANCH   1  17
ATOM     17  C   LIG d   1       3.921  -1.802  -3.001  0.00  0.00    -0.010 C 
ATOM     18  H   LIG d   1       3.873  -2.765  -3.511  0.00  0.00     0.033 H 
ATOM     19  H   LIG d   1       3.280  -1.826  -2.120  0.00  0.00     0.033 H 
BRANCH  17  20
ATOM     20  C   LIG d   1       3.451  -0.716  -3.935  0.00  0.00     0.035 A 
ATOM     21  N   LIG d   1       3.219  -0.839  -5.278  0.00  0.00    -0.348 N 
ATOM     22  C   LIG d   1       2.809   0.369  -5.724  0.00  0.00     0.093 A 
ATOM     23  H   LIG d   1       3.327  -1.642  -5.809  0.00  0.00     0.167 HD
ATOM     24  N   LIG d   1       2.794   1.203  -4.720  0.00  0.00    -0.244 NA
ATOM     25  H   LIG d   1       2.542   0.606  -6.743  0.00  0.00     0.103 H 
ATOM     26  C   LIG d   1       3.185   0.563  -3.607  0.00  0.00     0.048 A 
ATOM     27  H   LIG d   1       3.269   0.997  -2.622  0.00  0.00     0.085 H 
ENDBRANCH  17  20
ENDBRANCH   1  17
TORSDOF 6
ENDMDL
MODEL 5
REMARK VINA RESULT:      -4.0      3.626      5.744
REMARK  6 active torsions:
REMARK  status: ('A' for Active; 'I' for Inactive)
REMARK    1  A    between atoms: C_1  and  N_2 
REMARK    2  A    between atoms: N_2  and  C_3 
REMARK    3  A    between atoms: N_5  and  C_6 
REMARK    4  A    between atoms: C_6  and  C_7 
REMARK    5  A    between atoms: C_7  and  C_8 
REMARK    6  A    between atoms: C_8  and  C_9 
ROOT
ATOM      1  C   LIG d   1       5.017  -2.490  -4.131  0.00  0.00    -0.032 C 
ATOM      2  H   LIG d   1       6.036  -2.377  -3.760  0.00  0.00     0.028 H 
ATOM      3  H   LIG d   1       4.830  -1.749  -4.909  0.00  0.00     0.028 H 
ENDROOT
BRANCH   1   4
ATOM      4  C   LIG d   1       4.837  -3.894  -4.710  0.00  0.00     0.011 C 
ATOM      5  H   LIG d   1       4.300  -4.516  -3.993  0.00  0.00     0.046 H 
ATOM      6  H   LIG d   1       5.815  -4.333  -4.910  0.00  0.00     0.046 H 
BRANCH   4   7
ATOM      7  N   LIG d   1       4.072  -3.815  -5.956  0.00  0.00    -0.327 N 
ATOM      8  C   LIG d   1       3.960  -4.900  -6.748  0.00  0.00     0.130 C 
ATOM      9  S   LIG d   1       4.710  -6.371  -6.297  0.00  0.00    -0.019 SA
ATOM     10  H   LIG d   1       3.647  -2.981  -6.212  0.00  0.00     0.148 HD
BRANCH   8  11
ATOM     11  N   LIG d   1       3.255  -4.827  -7.895  0.00  0.00    -0.330 N 
ATOM     12  H   LIG d   1       2.610  -4.115  -8.023  0.00  0.00     0.147 HD
BRANCH  11  13
ATOM     13  C   LIG d   1       3.466  -5.823  -8.948  0.00  0.00    -0.001 C 
ATOM     14  H   LIG d   1       4.298  -6.471  -8.674  0.00  0.00     0.043 H 
ATOM     15  H   LIG d   1       2.563  -6.423  -9.067  0.00  0.00     0.043 H 
ATOM     16  H   LIG d   1       3.692  -5.317  -9.887  0.00  0.00     0.043 H 
ENDBRANCH  11  13
ENDBRANCH   8  11
ENDBRANCH   4   7
ENDBRANCH   1   4
BRANCH   1  17
ATOM     17  C   LIG d   1       4.030  -2.282  -2.981  0.00  0.00    -0.010 C 
ATOM     18  H   LIG d   1       3.048  -2.656  -3.273  0.00  0.00     0.033 H 
ATOM     19  H   LIG d   1       4.378  -2.822  -2.101  0.00  0.00     0.033 H 
BRANCH  17  20
ATOM     20  C   LIG d   1       3.932  -0.811  -2.662  0.00  0.00     0.035 A 
ATOM     21  N   LIG d   1       3.222   0.129  -3.358  0.00  0.00    -0.348 N 
ATOM     22  C   LIG d   1       3.405   1.311  -2.731  0.00  0.00     0.093 A 
ATOM     23  H   LIG d   1       2.686  -0.026  -4.150  0.00  0.00     0.167 HD
ATOM     24  N   LIG d   1       4.192   1.125  -1.706  0.00  0.00    -0.244 NA
ATOM     25  H   LIG d   1       2.974   2.255  -3.030  0.00  0.00     0.103 H 
ATOM     26  C   LIG d   1       4.533  -0.171  -1.641  0.00  0.00     0.048 A 
ATOM     27  H   LIG d   1       5.174  -0.622  -0.898  0.00  0.00     0.085 H 
ENDBRANCH  17  20
ENDBRANCH   1  17
TORSDOF 6
ENDMDL
MODEL 6
REMARK VINA RESULT:      -3.9      2.524      4.102
REMARK  6 active torsions:
REMARK  status: ('A' for Active; 'I' for Inactive)
REMARK    1  A    between atoms: C_1  and  N_2 
REMARK    2  A    between atoms: N_2  and  C_3 
REMARK    3  A    between atoms: N_5  and  C_6 
REMARK    4  A    between atoms: C_6  and  C_7 
REMARK    5  A    between atoms: C_7  and  C_8 
REMARK    6  A    between atoms: C_8  and  C_9 
ROOT
ATOM      1  C   LIG d   1       5.068  -2.580  -3.702  0.00  0.00    -0.032 C 
ATOM      2  H   LIG d   1       5.455  -3.461  -3.188  0.00  0.00     0.028 H 
ATOM      3  H   LIG d   1       5.788  -1.766  -3.618  0.00  0.00     0.028 H 
ENDROOT
BRANCH   1   4
ATOM      4  C   LIG d   1       4.840  -2.910  -5.178  0.00  0.00     0.011 C 
ATOM      5  H   LIG d   1       4.201  -3.790  -5.259  0.00  0.00     0.046 H 
ATOM      6  H   LIG d   1       5.797  -3.111  -5.658  0.00  0.00     0.046 H 
BRANCH   4   7
ATOM      7  N   LIG d   1       4.190  -1.775  -5.838  0.00  0.00    -0.327 N 
ATOM      8  C   LIG d   1       4.931  -0.873  -6.513  0.00  0.00     0.130 C 
ATOM      9  S   LIG d   1       6.631  -1.056  -6.601  0.00  0.00    -0.019 SA
ATOM     10  H   LIG d   1       3.227  -1.671  -5.788  0.00  0.00     0.148 HD
BRANCH   8  11
ATOM     11  N   LIG d   1       4.334   0.171  -7.120  0.00  0.00    -0.330 N 
ATOM     12  H   LIG d   1       4.865   0.812  -7.618  0.00  0.00     0.147 HD
BRANCH  11  13
ATOM     13  C   LIG d   1       2.881   0.338  -7.028  0.00  0.00    -0.001 C 
ATOM     14  H   LIG d   1       2.388  -0.444  -7.606  0.00  0.00     0.043 H 
ATOM     15  H   LIG d   1       2.572   0.268  -5.985  0.00  0.00     0.043 H 
ATOM     16  H   LIG d   1       2.602   1.314  -7.425  0.00  0.00     0.043 H 
ENDBRANCH  11  13
ENDBRANCH   8  11
ENDBRANCH   4   7
ENDBRANCH   1   4
BRANCH   1  17
ATOM     17  C   LIG d   1       3.744  -2.158  -3.063  0.00  0.00    -0.010 C 
ATOM     18  H   LIG d   1       2.936  -2.285  -3.785  0.00  0.00     0.033 H 
ATOM     19  H   LIG d   1       3.549  -2.776  -2.187  0.00  0.00     0.033 H 
BRANCH  17  20
ATOM     20  C   LIG d   1       3.824  -0.710  -2.650  0.00  0.00     0.035 A 
ATOM     21  N   LIG d   1       3.181   0.344  -3.240  0.00  0.00    -0.348 N 
ATOM     22  C   LIG d   1       3.526   1.455  -2.556  0.00  0.00     0.093 A 
ATOM     23  H   LIG d   1       2.587   0.300  -4.005  0.00  0.00     0.167 HD
ATOM     24  N   LIG d   1       4.347   1.120  -1.597  0.00  0.00    -0.244 NA
ATOM     25  H   LIG d   1       3.184   2.457  -2.768  0.00  0.00     0.103 H 
ATOM     26  C   LIG d   1       4.548  -0.206  -1.632  0.00  0.00     0.048 A 
ATOM     27  H   LIG d   1       5.178  -0.770  -0.961  0.00  0.00     0.085 H 
ENDBRANCH  17  20
ENDBRANCH   1  17
TORSDOF 6
ENDMDL
MODEL 7
REMARK VINA RESULT:      -3.9      3.180      5.764
REMARK  6 active torsions:
REMARK  status: ('A' for Active; 'I' for Inactive)
REMARK    1  A    between atoms: C_1  and  N_2 
REMARK    2  A    between atoms: N_2  and  C_3 
REMARK    3  A    between atoms: N_5  and  C_6 
REMARK    4  A    between atoms: C_6  and  C_7 
REMARK    5  A    between atoms: C_7  and  C_8 
REMARK    6  A    between atoms: C_8  and  C_9 
ROOT
ATOM      1  C   LIG d   1       3.147  -0.032  -6.089  0.00  0.00    -0.032 C 
ATOM      2  H   LIG d   1       2.746  -1.023  -6.305  0.00  0.00     0.028 H 
ATOM      3  H   LIG d   1       4.204  -0.116  -5.836  0.00  0.00     0.028 H 
ENDROOT
BRANCH   1   4
ATOM      4  C   LIG d   1       2.985   0.862  -7.319  0.00  0.00     0.011 C 
ATOM      5  H   LIG d   1       3.924   1.382  -7.516  0.00  0.00     0.046 H 
ATOM      6  H   LIG d   1       2.197   1.593  -7.137  0.00  0.00     0.046 H 
BRANCH   4   7
ATOM      7  N   LIG d   1       2.631   0.040  -8.478  0.00  0.00    -0.327 N 
ATOM      8  C   LIG d   1       2.957   0.450  -9.721  0.00  0.00     0.130 C 
ATOM      9  S   LIG d   1       3.787   1.930  -9.943  0.00  0.00    -0.019 SA
ATOM     10  H   LIG d   1       2.160  -0.799  -8.352  0.00  0.00     0.148 HD
BRANCH   8  11
ATOM     11  N   LIG d   1       2.631  -0.307 -10.787  0.00  0.00    -0.330 N 
ATOM     12  H   LIG d   1       3.225  -0.349 -11.552  0.00  0.00     0.147 HD
BRANCH  11  13
ATOM     13  C   LIG d   1       1.378  -1.067 -10.790  0.00  0.00    -0.001 C 
ATOM     14  H   LIG d   1       0.536  -0.378 -10.851  0.00  0.00     0.043 H 
ATOM     15  H   LIG d   1       1.362  -1.737 -11.649  0.00  0.00     0.043 H 
ATOM     16  H   LIG d   1       1.306  -1.650  -9.872  0.00  0.00     0.043 H 
ENDBRANCH  11  13
ENDBRANCH   8  11
ENDBRANCH   4   7
ENDBRANCH   1   4
BRANCH   1  17
ATOM     17  C   LIG d   1       2.387   0.579  -4.910  0.00  0.00    -0.010 C 
ATOM     18  H   LIG d   1       2.152   1.621  -5.131  0.00  0.00     0.033 H 
ATOM     19  H   LIG d   1       1.464   0.025  -4.745  0.00  0.00     0.033 H 
BRANCH  17  20
ATOM     20  C   LIG d   1       3.243   0.510  -3.671  0.00  0.00     0.035 A 
ATOM     21  N   LIG d   1       4.056   1.497  -3.184  0.00  0.00    -0.348 N 
ATOM     22  C   LIG d   1       4.633   1.021  -2.060  0.00  0.00     0.093 A 
ATOM     23  H   LIG d   1       4.191   2.375  -3.573  0.00  0.00     0.167 HD
ATOM     24  N   LIG d   1       4.213  -0.199  -1.857  0.00  0.00    -0.244 NA
ATOM     25  H   LIG d   1       5.330   1.558  -1.434  0.00  0.00     0.103 H 
ATOM     26  C   LIG d   1       3.358  -0.539  -2.833  0.00  0.00     0.048 A 
ATOM     27  H   LIG d   1       2.849  -1.486  -2.929  0.00  0.00     0.085 H 
ENDBRANCH  17  20
ENDBRANCH   1  17
TORSDOF 6
ENDMDL
MODEL 8
REMARK VINA RESULT:      -3.9      9.403     11.291
REMARK  6 active torsions:
REMARK  status: ('A' for Active; 'I' for Inactive)
REMARK    1  A    between atoms: C_1  and  N_2 
REMARK    2  A    between atoms: N_2  and  C_3 
REMARK    3  A    between atoms: N_5  and  C_6 
REMARK    4  A    between atoms: C_6  and  C_7 
REMARK    5  A    between atoms: C_7  and  C_8 
REMARK    6  A    between atoms: C_8  and  C_9 
ROOT
ATOM      1  C   LIG d   1       9.074   8.922  -0.880  0.00  0.00    -0.032 C 
ATOM      2  H   LIG d   1       9.537   9.023   0.103  0.00  0.00     0.028 H 
ATOM      3  H   LIG d   1       8.003   9.107  -0.796  0.00  0.00     0.028 H 
ENDROOT
BRANCH   1   4
ATOM      4  C   LIG d   1       9.694   9.936  -1.842  0.00  0.00     0.011 C 
ATOM      5  H   LIG d   1       9.746   9.503  -2.842  0.00  0.00     0.046 H 
ATOM      6  H   LIG d   1      10.698  10.192  -1.504  0.00  0.00     0.046 H 
BRANCH   4   7
ATOM      7  N   LIG d   1       8.867  11.145  -1.878  0.00  0.00    -0.327 N 
ATOM      8  C   LIG d   1       8.618  11.757  -3.053  0.00  0.00     0.130 C 
ATOM      9  S   LIG d   1       9.265  11.120  -4.504  0.00  0.00    -0.019 SA
ATOM     10  H   LIG d   1       8.500  11.506  -1.055  0.00  0.00     0.148 HD
BRANCH   8  11
ATOM     11  N   LIG d   1       7.857  12.869  -3.086  0.00  0.00    -0.330 N 
ATOM     12  H   LIG d   1       6.895  12.796  -3.182  0.00  0.00     0.147 HD
BRANCH  11  13
ATOM     13  C   LIG d   1       8.484  14.189  -2.975  0.00  0.00    -0.001 C 
ATOM     14  H   LIG d   1       9.464  14.087  -2.509  0.00  0.00     0.043 H 
ATOM     15  H   LIG d   1       8.598  14.621  -3.969  0.00  0.00     0.043 H 
ATOM     16  H   LIG d   1       7.857  14.839  -2.366  0.00  0.00     0.043 H 
ENDBRANCH  11  13
ENDBRANCH   8  11
ENDBRANCH   4   7
ENDBRANCH   1   4
BRANCH   1  17
ATOM     17  C   LIG d   1       9.307   7.507  -1.410  0.00  0.00    -0.010 C 
ATOM     18  H   LIG d   1       8.375   6.943  -1.364  0.00  0.00     0.033 H 
ATOM     19  H   LIG d   1       9.651   7.557  -2.442  0.00  0.00     0.033 H 
BRANCH  17  20
ATOM     20  C   LIG d   1      10.350   6.819  -0.565  0.00  0.00     0.035 A 
ATOM     21  N   LIG d   1      10.666   5.488  -0.582  0.00  0.00    -0.348 N 
ATOM     22  C   LIG d   1      11.651   5.300   0.323  0.00  0.00     0.093 A 
ATOM     23  H   LIG d   1      10.260   4.807  -1.140  0.00  0.00     0.167 HD
ATOM     24  N   LIG d   1      11.931   6.447   0.882  0.00  0.00    -0.244 NA
ATOM     25  H   LIG d   1      12.126   4.358   0.550  0.00  0.00     0.103 H 
ATOM     26  C   LIG d   1      11.145   7.398   0.355  0.00  0.00     0.048 A 
ATOM     27  H   LIG d   1      11.151   8.445   0.621  0.00  0.00     0.085 H 
ENDBRANCH  17  20
ENDBRANCH   1  17
TORSDOF 6
ENDMDL
MODEL 9
REMARK VINA RESULT:      -3.9      3.066      4.647
REMARK  6 active torsions:
REMARK  status: ('A' for Active; 'I' for Inactive)
REMARK    1  A    between atoms: C_1  and  N_2 
REMARK    2  A    between atoms: N_2  and  C_3 
REMARK    3  A    between atoms: N_5  and  C_6 
REMARK    4  A    between atoms: C_6  and  C_7 
REMARK    5  A    between atoms: C_7  and  C_8 
REMARK    6  A    between atoms: C_8  and  C_9 
ROOT
ATOM      1  C   LIG d   1       7.668   1.860  -4.058  0.00  0.00    -0.032 C 
ATOM      2  H   LIG d   1       7.478   2.488  -3.187  0.00  0.00     0.028 H 
ATOM      3  H   LIG d   1       7.121   2.254  -4.914  0.00  0.00     0.028 H 
ENDROOT
BRANCH   1   4
ATOM      4  C   LIG d   1       9.166   1.857  -4.367  0.00  0.00     0.011 C 
ATOM      5  H   LIG d   1       9.383   2.613  -5.122  0.00  0.00     0.046 H 
ATOM      6  H   LIG d   1       9.458   0.876  -4.742  0.00  0.00     0.046 H 
BRANCH   4   7
ATOM      7  N   LIG d   1       9.918   2.157  -3.146  0.00  0.00    -0.327 N 
ATOM      8  C   LIG d   1      10.370   3.407  -2.923  0.00  0.00     0.130 C 
ATOM      9  S   LIG d   1      10.064   4.645  -4.066  0.00  0.00    -0.019 SA
ATOM     10  H   LIG d   1      10.092   1.455  -2.499  0.00  0.00     0.148 HD
BRANCH   8  11
ATOM     11  N   LIG d   1      11.062   3.683  -1.800  0.00  0.00    -0.330 N 
ATOM     12  H   LIG d   1      11.443   2.961  -1.276  0.00  0.00     0.147 HD
BRANCH  11  13
ATOM     13  C   LIG d   1      11.239   5.073  -1.371  0.00  0.00    -0.001 C 
ATOM     14  H   LIG d   1      12.038   5.533  -1.952  0.00  0.00     0.043 H 
ATOM     15  H   LIG d   1      10.311   5.622  -1.530  0.00  0.00     0.043 H 
ATOM     16  H   LIG d   1      11.499   5.095  -0.313  0.00  0.00     0.043 H 
ENDBRANCH  11  13
ENDBRANCH   8  11
ENDBRANCH   4   7
ENDBRANCH   1   4
BRANCH   1  17
ATOM     17  C   LIG d   1       7.203   0.432  -3.769  0.00  0.00    -0.010 C 
ATOM     18  H   LIG d   1       7.125  -0.121  -4.705  0.00  0.00     0.033 H 
ATOM     19  H   LIG d   1       7.923  -0.060  -3.115  0.00  0.00     0.033 H 
BRANCH  17  20
ATOM     20  C   LIG d   1       5.855   0.469  -3.094  0.00  0.00     0.035 A 
ATOM     21  N   LIG d   1       5.050   1.564  -2.940  0.00  0.00    -0.348 N 
ATOM     22  C   LIG d   1       3.941   1.155  -2.288  0.00  0.00     0.093 A 
ATOM     23  H   LIG d   1       5.239   2.465  -3.244  0.00  0.00     0.167 HD
ATOM     24  N   LIG d   1       4.048  -0.122  -2.038  0.00  0.00    -0.244 NA
ATOM     25  H   LIG d   1       3.104   1.781  -2.014  0.00  0.00     0.103 H 
ATOM     26  C   LIG d   1       5.217  -0.570  -2.523  0.00  0.00     0.048 A 
ATOM     27  H   LIG d   1       5.579  -1.585  -2.466  0.00  0.00     0.085 H 
ENDBRANCH  17  20
ENDBRANCH   1  17
TORSDOF 6
ENDMDL
MODEL 10
REMARK VINA RESULT:      -3.8      7.321      9.334
REMARK  6 active torsions:
REMARK  status: ('A' for Active; 'I' for Inactive)
REMARK    1  A    between atoms: C_1  and  N_2 
REMARK    2  A    between atoms: N_2  and  C_3 
REMARK    3  A    between atoms: N_5  and  C_6 
REMARK    4  A    between atoms: C_6  and  C_7 
REMARK    5  A    between atoms: C_7  and  C_8 
REMARK    6  A    between atoms: C_8  and  C_9 
ROOT
ATOM      1  C   LIG d   1       9.967   6.943  -1.893  0.00  0.00    -0.032 C 
ATOM      2  H   LIG d   1       9.021   6.670  -2.363  0.00  0.00     0.028 H 
ATOM      3  H   LIG d   1      10.648   7.334  -2.649  0.00  0.00     0.028 H 
ENDROOT
BRANCH   1   4
ATOM      4  C   LIG d   1       9.717   8.012  -0.829  0.00  0.00     0.011 C 
ATOM      5  H   LIG d   1      10.654   8.521  -0.598  0.00  0.00     0.046 H 
ATOM      6  H   LIG d   1       9.327   7.543   0.074  0.00  0.00     0.046 H 
BRANCH   4   7
ATOM      7  N   LIG d   1       8.745   8.986  -1.333  0.00  0.00    -0.327 N 
ATOM      8  C   LIG d   1       9.152  10.220  -1.693  0.00  0.00     0.130 C 
ATOM      9  S   LIG d   1      10.804  10.648  -1.565  0.00  0.00    -0.019 SA
ATOM     10  H   LIG d   1       7.809   8.744  -1.405  0.00  0.00     0.148 HD
BRANCH   8  11
ATOM     11  N   LIG d   1       8.258  11.115  -2.157  0.00  0.00    -0.330 N 
ATOM     12  H   LIG d   1       7.455  11.308  -1.647  0.00  0.00     0.147 HD
BRANCH  11  13
ATOM     13  C   LIG d   1       8.498  11.798  -3.431  0.00  0.00    -0.001 C 
ATOM     14  H   LIG d   1       9.218  11.228  -4.018  0.00  0.00     0.043 H 
ATOM     15  H   LIG d   1       7.561  11.878  -3.983  0.00  0.00     0.043 H 
ATOM     16  H   LIG d   1       8.893  12.796  -3.239  0.00  0.00     0.043 H 
ENDBRANCH  11  13
ENDBRANCH   8  11
ENDBRANCH   4   7
ENDBRANCH   1   4
BRANCH   1  17
ATOM     17  C   LIG d   1      10.587   5.707  -1.239  0.00  0.00    -0.010 C 
ATOM     18  H   LIG d   1      11.640   5.896  -1.031  0.00  0.00     0.033 H 
ATOM     19  H   LIG d   1      10.066   5.488  -0.307  0.00  0.00     0.033 H 
BRANCH  17  20
ATOM     20  C   LIG d   1      10.464   4.529  -2.173  0.00  0.00     0.035 A 
ATOM     21  N   LIG d   1      11.021   3.291  -2.001  0.00  0.00    -0.348 N 
ATOM     22  C   LIG d   1      10.659   2.541  -3.065  0.00  0.00     0.093 A 
ATOM     23  H   LIG d   1      11.570   3.005  -1.256  0.00  0.00     0.167 HD
ATOM     24  N   LIG d   1       9.926   3.270  -3.862  0.00  0.00    -0.244 NA
ATOM     25  H   LIG d   1      10.934   1.510  -3.231  0.00  0.00     0.103 H 
ATOM     26  C   LIG d   1       9.790   4.498  -3.338  0.00  0.00     0.048 A 
ATOM     27  H   LIG d   1       9.236   5.316  -3.774  0.00  0.00     0.085 H 
ENDBRANCH  17  20
ENDBRANCH   1  17
TORSDOF 6
ENDMDL
