MODEL 1
REMARK VINA RESULT:      -8.1      0.000      0.000
REMARK  4 active torsions:
REMARK  status: ('A' for Active; 'I' for Inactive)
REMARK    1  A    between atoms: C_1  and  C_2 
REMARK    2  A    between atoms: C_2  and  C_3 
REMARK    3  A    between atoms: C_2  and  C_4 
REMARK    4  A    between atoms: C_7  and  N_10 
REMARK       I    between atoms: N_10  and  C_11 
REMARK       I    between atoms: C_11  and  N_13 
ROOT
ATOM      1  N   LIG d   1       3.588  -1.295  -6.388  0.00  0.00    -0.269 N 
ATOM      2  C   LIG d   1       3.456  -0.274  -5.519  0.00  0.00     0.306 C 
ATOM      3  O   LIG d   1       3.312   0.860  -5.932  0.00  0.00    -0.252 OA
ATOM      4  N   LIG d   1       3.483  -0.510  -4.192  0.00  0.00    -0.284 N 
ATOM      5  C   LIG d   1       3.161   0.554  -3.233  0.00  0.00     0.021 C 
ATOM      6  C   LIG d   1       4.244   0.649  -2.168  0.00  0.00    -0.006 C 
ATOM      7  H   LIG d   1       3.878   1.297  -1.371  0.00  0.00     0.033 H 
ATOM      8  C   LIG d   1       4.544  -0.723  -1.565  0.00  0.00    -0.037 C 
ATOM      9  C   LIG d   1       5.005  -1.654  -2.689  0.00  0.00     0.016 C 
ATOM     10  H   LIG d   1       5.306  -2.618  -2.278  0.00  0.00     0.038 H 
ATOM     11  C   LIG d   1       3.830  -1.843  -3.672  0.00  0.00     0.024 C 
ATOM     12  C   LIG d   1       6.158  -1.023  -3.434  0.00  0.00     0.027 C 
ATOM     13  C   LIG d   1       7.040  -1.858  -4.045  0.00  0.00    -0.042 C 
ATOM     14  C   LIG d   1       8.094  -1.343  -4.809  0.00  0.00    -0.055 C 
ATOM     15  C   LIG d   1       8.207   0.009  -4.950  0.00  0.00     0.003 C 
ATOM     16  C   LIG d   1       7.277   0.841  -4.311  0.00  0.00     0.252 C 
ATOM     17  O   LIG d   1       7.329   2.048  -4.482  0.00  0.00    -0.268 OA
ATOM     18  N   LIG d   1       6.323   0.318  -3.503  0.00  0.00    -0.312 N 
ATOM     19  C   LIG d   1       5.527   1.250  -2.712  0.00  0.00     0.031 C 
ATOM     20  H   LIG d   1       3.573  -2.211  -6.067  0.00  0.00     0.156 HD
ATOM     21  H   LIG d   1       3.088   1.505  -3.762  0.00  0.00     0.047 H 
ATOM     22  H   LIG d   1       2.205   0.335  -2.758  0.00  0.00     0.047 H 
ATOM     23  H   LIG d   1       5.332  -0.632  -0.818  0.00  0.00     0.028 H 
ATOM     24  H   LIG d   1       3.643  -1.125  -1.101  0.00  0.00     0.028 H 
ATOM     25  H   LIG d   1       2.974  -2.272  -3.152  0.00  0.00     0.047 H 
ATOM     26  H   LIG d   1       4.131  -2.493  -4.492  0.00  0.00     0.047 H 
ATOM     27  H   LIG d   1       6.927  -2.927  -3.941  0.00  0.00     0.064 H 
ATOM     28  H   LIG d   1       8.807  -2.005  -5.278  0.00  0.00     0.062 H 
ATOM     29  H   LIG d   1       9.000   0.433  -5.548  0.00  0.00     0.067 H 
ATOM     30  H   LIG d   1       5.278   2.114  -3.330  0.00  0.00     0.050 H 
ATOM     31  H   LIG d   1       6.144   1.582  -1.877  0.00  0.00     0.050 H 
ENDROOT
BRANCH   1  32
ATOM     32  C   LIG d   1       3.748  -1.036  -7.753  0.00  0.00     0.035 A 
ATOM     33  C   LIG d   1       5.020  -0.973  -8.306  0.00  0.00    -0.040 A 
ATOM     34  C   LIG d   1       5.175  -0.717  -9.655  0.00  0.00    -0.057 A 
ATOM     35  H   LIG d   1       5.889  -1.124  -7.681  0.00  0.00     0.064 H 
ATOM     36  C   LIG d   1       4.064  -0.524 -10.454  0.00  0.00    -0.045 A 
ATOM     37  H   LIG d   1       6.164  -0.668 -10.084  0.00  0.00     0.062 H 
ATOM     38  C   LIG d   1       2.795  -0.581  -9.906  0.00  0.00    -0.057 A 
ATOM     39  C   LIG d   1       2.634  -0.842  -8.560  0.00  0.00    -0.040 A 
ATOM     40  H   LIG d   1       1.929  -0.425 -10.532  0.00  0.00     0.062 H 
ATOM     41  H   LIG d   1       1.643  -0.890  -8.133  0.00  0.00     0.064 H 
BRANCH  36  42
ATOM     42  C   LIG d   1       4.235  -0.245 -11.925  0.00  0.00    -0.021 C 
ATOM     43  H   LIG d   1       4.108   0.822 -12.110  0.00  0.00     0.034 H 
BRANCH  42  44
ATOM     44  C   LIG d   1       5.635  -0.675 -12.366  0.00  0.00    -0.059 C 
ATOM     45  H   LIG d   1       5.698  -0.647 -13.454  0.00  0.00     0.024 H 
ATOM     46  H   LIG d   1       6.375   0.004 -11.941  0.00  0.00     0.024 H 
ATOM     47  H   LIG d   1       5.831  -1.689 -12.017  0.00  0.00     0.024 H 
ENDBRANCH  42  44
BRANCH  42  48
ATOM     48  C   LIG d   1       3.188  -1.028 -12.719  0.00  0.00    -0.059 C 
ATOM     49  H   LIG d   1       2.524  -1.549 -12.029  0.00  0.00     0.024 H 
ATOM     50  H   LIG d   1       2.607  -0.340 -13.333  0.00  0.00     0.024 H 
ATOM     51  H   LIG d   1       3.687  -1.755 -13.361  0.00  0.00     0.024 H 
ENDBRANCH  42  48
ENDBRANCH  36  42
ENDBRANCH   1  32
TORSDOF 4
ENDMDL
MODEL 2
REMARK VINA RESULT:      -7.0      1.824      2.496
REMARK  4 active torsions:
REMARK  status: ('A' for Active; 'I' for Inactive)
REMARK    1  A    between atoms: C_1  and  C_2 
REMARK    2  A    between atoms: C_2  and  C_3 
REMARK    3  A    between atoms: C_2  and  C_4 
REMARK    4  A    between atoms: C_7  and  N_10 
REMARK       I    between atoms: N_10  and  C_11 
REMARK       I    between atoms: C_11  and  N_13 
ROOT
ATOM      1  N   LIG d   1       3.008  -0.650  -6.483  0.00  0.00    -0.269 N 
ATOM      2  C   LIG d   1       4.029  -0.129  -5.775  0.00  0.00     0.306 C 
ATOM      3  O   LIG d   1       4.911   0.486  -6.344  0.00  0.00    -0.252 OA
ATOM      4  N   LIG d   1       4.073  -0.288  -4.437  0.00  0.00    -0.284 N 
ATOM      5  C   LIG d   1       5.073   0.421  -3.629  0.00  0.00     0.021 C 
ATOM      6  C   LIG d   1       5.792  -0.553  -2.708  0.00  0.00    -0.006 C 
ATOM      7  H   LIG d   1       6.371   0.026  -1.989  0.00  0.00     0.033 H 
ATOM      8  C   LIG d   1       4.796  -1.414  -1.931  0.00  0.00    -0.037 C 
ATOM      9  C   LIG d   1       3.941  -2.189  -2.937  0.00  0.00     0.016 C 
ATOM     10  H   LIG d   1       3.276  -2.876  -2.413  0.00  0.00     0.038 H 
ATOM     11  C   LIG d   1       3.116  -1.173  -3.754  0.00  0.00     0.024 C 
ATOM     12  C   LIG d   1       4.836  -2.953  -3.885  0.00  0.00     0.027 C 
ATOM     13  C   LIG d   1       4.333  -4.086  -4.444  0.00  0.00    -0.042 C 
ATOM     14  C   LIG d   1       5.080  -4.808  -5.382  0.00  0.00    -0.055 C 
ATOM     15  C   LIG d   1       6.310  -4.344  -5.744  0.00  0.00     0.003 C 
ATOM     16  C   LIG d   1       6.797  -3.170  -5.151  0.00  0.00     0.252 C 
ATOM     17  O   LIG d   1       7.868  -2.710  -5.513  0.00  0.00    -0.268 OA
ATOM     18  N   LIG d   1       6.091  -2.543  -4.178  0.00  0.00    -0.312 N 
ATOM     19  C   LIG d   1       6.750  -1.454  -3.467  0.00  0.00     0.031 C 
ATOM     20  H   LIG d   1       2.241  -1.026  -6.023  0.00  0.00     0.156 HD
ATOM     21  H   LIG d   1       5.797   0.898  -4.290  0.00  0.00     0.047 H 
ATOM     22  H   LIG d   1       4.577   1.186  -3.031  0.00  0.00     0.047 H 
ATOM     23  H   LIG d   1       5.334  -2.113  -1.292  0.00  0.00     0.028 H 
ATOM     24  H   LIG d   1       4.157  -0.775  -1.322  0.00  0.00     0.028 H 
ATOM     25  H   LIG d   1       2.481  -0.588  -3.089  0.00  0.00     0.047 H 
ATOM     26  H   LIG d   1       2.504  -1.695  -4.489  0.00  0.00     0.047 H 
ATOM     27  H   LIG d   1       3.349  -4.431  -4.164  0.00  0.00     0.064 H 
ATOM     28  H   LIG d   1       4.689  -5.719  -5.812  0.00  0.00     0.062 H 
ATOM     29  H   LIG d   1       6.901  -4.872  -6.478  0.00  0.00     0.067 H 
ATOM     30  H   LIG d   1       7.309  -0.851  -4.183  0.00  0.00     0.050 H 
ATOM     31  H   LIG d   1       7.450  -1.900  -2.761  0.00  0.00     0.050 H 
ENDROOT
BRANCH   1  32
ATOM     32  C   LIG d   1       3.053  -0.649  -7.881  0.00  0.00     0.035 A 
ATOM     33  C   LIG d   1       2.605   0.456  -8.592  0.00  0.00    -0.040 A 
ATOM     34  C   LIG d   1       2.651   0.453  -9.973  0.00  0.00    -0.057 A 
ATOM     35  H   LIG d   1       2.221   1.318  -8.066  0.00  0.00     0.064 H 
ATOM     36  C   LIG d   1       3.143  -0.650 -10.647  0.00  0.00    -0.045 A 
ATOM     37  H   LIG d   1       2.303   1.312 -10.526  0.00  0.00     0.062 H 
ATOM     38  C   LIG d   1       3.584  -1.755  -9.942  0.00  0.00    -0.057 A 
ATOM     39  C   LIG d   1       3.546  -1.756  -8.562  0.00  0.00    -0.040 A 
ATOM     40  H   LIG d   1       3.963  -2.616 -10.472  0.00  0.00     0.062 H 
ATOM     41  H   LIG d   1       3.895  -2.617  -8.012  0.00  0.00     0.064 H 
BRANCH  36  42
ATOM     42  C   LIG d   1       3.191  -0.650 -12.153  0.00  0.00    -0.021 C 
ATOM     43  H   LIG d   1       2.642   0.212 -12.535  0.00  0.00     0.034 H 
BRANCH  42  44
ATOM     44  C   LIG d   1       4.647  -0.574 -12.617  0.00  0.00    -0.059 C 
ATOM     45  H   LIG d   1       5.308  -0.722 -11.764  0.00  0.00     0.024 H 
ATOM     46  H   LIG d   1       4.833  -1.350 -13.360  0.00  0.00     0.024 H 
ATOM     47  H   LIG d   1       4.837   0.404 -13.059  0.00  0.00     0.024 H 
ENDBRANCH  42  44
BRANCH  42  48
ATOM     48  C   LIG d   1       2.553  -1.935 -12.684  0.00  0.00    -0.059 C 
ATOM     49  H   LIG d   1       2.389  -1.842 -13.757  0.00  0.00     0.024 H 
ATOM     50  H   LIG d   1       3.216  -2.778 -12.489  0.00  0.00     0.024 H 
ATOM     51  H   LIG d   1       1.598  -2.100 -12.183  0.00  0.00     0.024 H 
ENDBRANCH  42  48
ENDBRANCH  36  42
ENDBRANCH   1  32
TORSDOF 4
ENDMDL
MODEL 3
REMARK VINA RESULT:      -7.0      2.889      6.446
REMARK  4 active torsions:
REMARK  status: ('A' for Active; 'I' for Inactive)
REMARK    1  A    between atoms: C_1  and  C_2 
REMARK    2  A    between atoms: C_2  and  C_3 
REMARK    3  A    between atoms: C_2  and  C_4 
REMARK    4  A    between atoms: C_7  and  N_10 
REMARK       I    between atoms: N_10  and  C_11 
REMARK       I    between atoms: C_11  and  N_13 
ROOT
ATOM      1  N   LIG d   1       8.217   0.516  -4.792  0.00  0.00    -0.269 N 
ATOM      2  C   LIG d   1       7.252   0.178  -5.670  0.00  0.00     0.306 C 
ATOM      3  O   LIG d   1       6.914   0.965  -6.533  0.00  0.00    -0.252 OA
ATOM      4  N   LIG d   1       6.663  -1.032  -5.592  0.00  0.00    -0.284 N 
ATOM      5  C   LIG d   1       5.745  -1.489  -6.642  0.00  0.00     0.021 C 
ATOM      6  C   LIG d   1       4.447  -1.990  -6.025  0.00  0.00    -0.006 C 
ATOM      7  H   LIG d   1       3.880  -2.504  -6.801  0.00  0.00     0.033 H 
ATOM      8  C   LIG d   1       4.723  -2.988  -4.900  0.00  0.00    -0.037 C 
ATOM      9  C   LIG d   1       5.567  -2.289  -3.831  0.00  0.00     0.016 C 
ATOM     10  H   LIG d   1       5.711  -2.949  -2.976  0.00  0.00     0.038 H 
ATOM     11  C   LIG d   1       6.931  -1.926  -4.454  0.00  0.00     0.024 C 
ATOM     12  C   LIG d   1       4.885  -1.013  -3.395  0.00  0.00     0.027 C 
ATOM     13  C   LIG d   1       5.137  -0.567  -2.136  0.00  0.00    -0.042 C 
ATOM     14  C   LIG d   1       4.592   0.642  -1.687  0.00  0.00    -0.055 C 
ATOM     15  C   LIG d   1       3.824   1.377  -2.542  0.00  0.00     0.003 C 
ATOM     16  C   LIG d   1       3.588   0.890  -3.835  0.00  0.00     0.252 C 
ATOM     17  O   LIG d   1       2.957   1.568  -4.630  0.00  0.00    -0.268 OA
ATOM     18  N   LIG d   1       4.051  -0.327  -4.211  0.00  0.00    -0.312 N 
ATOM     19  C   LIG d   1       3.593  -0.854  -5.492  0.00  0.00     0.031 C 
ATOM     20  H   LIG d   1       8.579  -0.151  -4.187  0.00  0.00     0.156 HD
ATOM     21  H   LIG d   1       5.528  -0.660  -7.317  0.00  0.00     0.047 H 
ATOM     22  H   LIG d   1       6.213  -2.296  -7.205  0.00  0.00     0.047 H 
ATOM     23  H   LIG d   1       3.781  -3.319  -4.464  0.00  0.00     0.028 H 
ATOM     24  H   LIG d   1       5.267  -3.845  -5.295  0.00  0.00     0.028 H 
ATOM     25  H   LIG d   1       7.433  -2.828  -4.804  0.00  0.00     0.047 H 
ATOM     26  H   LIG d   1       7.552  -1.415  -3.720  0.00  0.00     0.047 H 
ATOM     27  H   LIG d   1       5.763  -1.149  -1.477  0.00  0.00     0.064 H 
ATOM     28  H   LIG d   1       4.776   0.986  -0.680  0.00  0.00     0.062 H 
ATOM     29  H   LIG d   1       3.406   2.321  -2.228  0.00  0.00     0.067 H 
ATOM     30  H   LIG d   1       3.584  -0.046  -6.224  0.00  0.00     0.050 H 
ATOM     31  H   LIG d   1       2.574  -1.214  -5.352  0.00  0.00     0.050 H 
ENDROOT
BRANCH   1  32
ATOM     32  C   LIG d   1       8.697   1.830  -4.751  0.00  0.00     0.035 A 
ATOM     33  C   LIG d   1       8.785   2.501  -3.539  0.00  0.00    -0.040 A 
ATOM     34  C   LIG d   1       9.259   3.798  -3.501  0.00  0.00    -0.057 A 
ATOM     35  H   LIG d   1       8.482   2.010  -2.625  0.00  0.00     0.064 H 
ATOM     36  C   LIG d   1       9.647   4.427  -4.670  0.00  0.00    -0.045 A 
ATOM     37  H   LIG d   1       9.328   4.320  -2.559  0.00  0.00     0.062 H 
ATOM     38  C   LIG d   1       9.555   3.764  -5.880  0.00  0.00    -0.057 A 
ATOM     39  C   LIG d   1       9.087   2.465  -5.923  0.00  0.00    -0.040 A 
ATOM     40  H   LIG d   1       9.855   4.259  -6.791  0.00  0.00     0.062 H 
ATOM     41  H   LIG d   1       9.020   1.946  -6.868  0.00  0.00     0.064 H 
BRANCH  36  42
ATOM     42  C   LIG d   1      10.164   5.842  -4.626  0.00  0.00    -0.021 C 
ATOM     43  H   LIG d   1      11.251   5.835  -4.713  0.00  0.00     0.034 H 
BRANCH  42  44
ATOM     44  C   LIG d   1       9.565   6.641  -5.785  0.00  0.00    -0.059 C 
ATOM     45  H   LIG d   1      10.339   6.839  -6.527  0.00  0.00     0.024 H 
ATOM     46  H   LIG d   1       8.760   6.067  -6.244  0.00  0.00     0.024 H 
ATOM     47  H   LIG d   1       9.170   7.585  -5.410  0.00  0.00     0.024 H 
ENDBRANCH  42  44
BRANCH  42  48
ATOM     48  C   LIG d   1       9.764   6.491  -3.299  0.00  0.00    -0.059 C 
ATOM     49  H   LIG d   1       8.860   7.081  -3.442  0.00  0.00     0.024 H 
ATOM     50  H   LIG d   1       9.579   5.715  -2.556  0.00  0.00     0.024 H 
ATOM     51  H   LIG d   1      10.571   7.139  -2.954  0.00  0.00     0.024 H 
ENDBRANCH  42  48
ENDBRANCH  36  42
ENDBRANCH   1  32
TORSDOF 4
ENDMDL
MODEL 4
REMARK VINA RESULT:      -6.8      2.812      7.454
REMARK  4 active torsions:
REMARK  status: ('A' for Active; 'I' for Inactive)
REMARK    1  A    between atoms: C_1  and  C_2 
REMARK    2  A    between atoms: C_2  and  C_3 
REMARK    3  A    between atoms: C_2  and  C_4 
REMARK    4  A    between atoms: C_7  and  N_10 
REMARK       I    between atoms: N_10  and  C_11 
REMARK       I    between atoms: C_11  and  N_13 
ROOT
ATOM      1  N   LIG d   1       3.498   0.467  -8.254  0.00  0.00    -0.269 N 
ATOM      2  C   LIG d   1       2.803  -0.293  -9.122  0.00  0.00     0.306 C 
ATOM      3  O   LIG d   1       2.022  -1.128  -8.708  0.00  0.00    -0.252 OA
ATOM      4  N   LIG d   1       2.973  -0.128 -10.450  0.00  0.00    -0.284 N 
ATOM      5  C   LIG d   1       2.098  -0.814 -11.409  0.00  0.00     0.021 C 
ATOM      6  C   LIG d   1       2.932  -1.531 -12.462  0.00  0.00    -0.006 C 
ATOM      7  H   LIG d   1       2.265  -1.851 -13.262  0.00  0.00     0.033 H 
ATOM      8  C   LIG d   1       3.980  -0.594 -13.065  0.00  0.00    -0.037 C 
ATOM      9  C   LIG d   1       4.888  -0.096 -11.937  0.00  0.00     0.016 C 
ATOM     10  H   LIG d   1       5.697   0.508 -12.347  0.00  0.00     0.038 H 
ATOM     11  C   LIG d   1       4.034   0.749 -10.968  0.00  0.00     0.024 C 
ATOM     12  C   LIG d   1       5.452  -1.274 -11.178  0.00  0.00     0.027 C 
ATOM     13  C   LIG d   1       6.650  -1.104 -10.559  0.00  0.00    -0.042 C 
ATOM     14  C   LIG d   1       7.202  -2.130  -9.782  0.00  0.00    -0.055 C 
ATOM     15  C   LIG d   1       6.505  -3.293  -9.637  0.00  0.00     0.003 C 
ATOM     16  C   LIG d   1       5.270  -3.434 -10.285  0.00  0.00     0.252 C 
ATOM     17  O   LIG d   1       4.608  -4.444 -10.110  0.00  0.00    -0.268 OA
ATOM     18  N   LIG d   1       4.805  -2.460 -11.105  0.00  0.00    -0.312 N 
ATOM     19  C   LIG d   1       3.621  -2.762 -11.902  0.00  0.00     0.031 C 
ATOM     20  H   LIG d   1       4.021   1.218  -8.577  0.00  0.00     0.156 HD
ATOM     21  H   LIG d   1       1.482  -1.540 -10.880  0.00  0.00     0.047 H 
ATOM     22  H   LIG d   1       1.452  -0.083 -11.896  0.00  0.00     0.047 H 
ATOM     23  H   LIG d   1       4.573  -1.134 -13.802  0.00  0.00     0.028 H 
ATOM     24  H   LIG d   1       3.485   0.253 -13.539  0.00  0.00     0.028 H 
ATOM     25  H   LIG d   1       3.592   1.592 -11.499  0.00  0.00     0.047 H 
ATOM     26  H   LIG d   1       4.651   1.109 -10.147  0.00  0.00     0.047 H 
ATOM     27  H   LIG d   1       7.181  -0.169 -10.666  0.00  0.00     0.064 H 
ATOM     28  H   LIG d   1       8.163  -2.002  -9.307  0.00  0.00     0.062 H 
ATOM     29  H   LIG d   1       6.899  -4.095  -9.029  0.00  0.00     0.067 H 
ATOM     30  H   LIG d   1       2.911  -3.314 -11.285  0.00  0.00     0.050 H 
ATOM     31  H   LIG d   1       3.937  -3.397 -12.729  0.00  0.00     0.050 H 
ENDROOT
BRANCH   1  32
ATOM     32  C   LIG d   1       3.466   0.175  -6.887  0.00  0.00     0.035 A 
ATOM     33  C   LIG d   1       2.490   0.739  -6.076  0.00  0.00    -0.040 A 
ATOM     34  C   LIG d   1       2.461   0.448  -4.726  0.00  0.00    -0.057 A 
ATOM     35  H   LIG d   1       1.752   1.404  -6.501  0.00  0.00     0.064 H 
ATOM     36  C   LIG d   1       3.405  -0.404  -4.181  0.00  0.00    -0.045 A 
ATOM     37  H   LIG d   1       1.702   0.886  -4.096  0.00  0.00     0.062 H 
ATOM     38  C   LIG d   1       4.382  -0.962  -4.984  0.00  0.00    -0.057 A 
ATOM     39  C   LIG d   1       4.412  -0.680  -6.336  0.00  0.00    -0.040 A 
ATOM     40  H   LIG d   1       5.120  -1.623  -4.555  0.00  0.00     0.062 H 
ATOM     41  H   LIG d   1       5.174  -1.120  -6.964  0.00  0.00     0.064 H 
BRANCH  36  42
ATOM     42  C   LIG d   1       3.371  -0.718  -2.708  0.00  0.00    -0.021 C 
ATOM     43  H   LIG d   1       2.352  -0.606  -2.335  0.00  0.00     0.034 H 
BRANCH  42  44
ATOM     44  C   LIG d   1       3.841  -2.156  -2.483  0.00  0.00    -0.059 C 
ATOM     45  H   LIG d   1       3.688  -2.736  -3.393  0.00  0.00     0.024 H 
ATOM     46  H   LIG d   1       4.901  -2.157  -2.225  0.00  0.00     0.024 H 
ATOM     47  H   LIG d   1       3.270  -2.602  -1.668  0.00  0.00     0.024 H 
ENDBRANCH  42  44
BRANCH  42  48
ATOM     48  C   LIG d   1       4.296   0.244  -1.959  0.00  0.00    -0.059 C 
ATOM     49  H   LIG d   1       4.220   1.237  -2.401  0.00  0.00     0.024 H 
ATOM     50  H   LIG d   1       4.003   0.288  -0.911  0.00  0.00     0.024 H 
ATOM     51  H   LIG d   1       5.325  -0.110  -2.035  0.00  0.00     0.024 H 
ENDBRANCH  42  48
ENDBRANCH  36  42
ENDBRANCH   1  32
TORSDOF 4
ENDMDL
MODEL 5
REMARK VINA RESULT:      -6.7      2.556      5.916
REMARK  4 active torsions:
REMARK  status: ('A' for Active; 'I' for Inactive)
REMARK    1  A    between atoms: C_1  and  C_2 
REMARK    2  A    between atoms: C_2  and  C_3 
REMARK    3  A    between atoms: C_2  and  C_4 
REMARK    4  A    between atoms: C_7  and  N_10 
REMARK       I    between atoms: N_10  and  C_11 
REMARK       I    between atoms: C_11  and  N_13 
ROOT
ATOM      1  N   LIG d   1       6.630   1.644  -3.835  0.00  0.00    -0.269 N 
ATOM      2  C   LIG d   1       6.405   0.454  -3.246  0.00  0.00     0.306 C 
ATOM      3  O   LIG d   1       7.316  -0.340  -3.112  0.00  0.00    -0.252 OA
ATOM      4  N   LIG d   1       5.169   0.142  -2.806  0.00  0.00    -0.284 N 
ATOM      5  C   LIG d   1       4.941  -1.067  -2.004  0.00  0.00     0.021 C 
ATOM      6  C   LIG d   1       3.789  -1.874  -2.584  0.00  0.00    -0.006 C 
ATOM      7  H   LIG d   1       3.516  -2.642  -1.861  0.00  0.00     0.033 H 
ATOM      8  C   LIG d   1       2.564  -0.990  -2.823  0.00  0.00    -0.037 C 
ATOM      9  C   LIG d   1       2.955   0.125  -3.796  0.00  0.00     0.016 C 
ATOM     10  H   LIG d   1       2.081   0.723  -4.051  0.00  0.00     0.038 H 
ATOM     11  C   LIG d   1       4.021   1.009  -3.114  0.00  0.00     0.024 C 
ATOM     12  C   LIG d   1       3.558  -0.475  -5.045  0.00  0.00     0.027 C 
ATOM     13  C   LIG d   1       3.445   0.236  -6.198  0.00  0.00    -0.042 C 
ATOM     14  C   LIG d   1       4.036  -0.227  -7.380  0.00  0.00    -0.055 C 
ATOM     15  C   LIG d   1       4.748  -1.390  -7.349  0.00  0.00     0.003 C 
ATOM     16  C   LIG d   1       4.849  -2.096  -6.142  0.00  0.00     0.252 C 
ATOM     17  O   LIG d   1       5.536  -3.103  -6.086  0.00  0.00    -0.268 OA
ATOM     18  N   LIG d   1       4.189  -1.672  -5.036  0.00  0.00    -0.312 N 
ATOM     19  C   LIG d   1       4.172  -2.563  -3.881  0.00  0.00     0.031 C 
ATOM     20  H   LIG d   1       5.941   2.328  -3.827  0.00  0.00     0.156 HD
ATOM     21  H   LIG d   1       5.845  -1.675  -2.004  0.00  0.00     0.047 H 
ATOM     22  H   LIG d   1       4.702  -0.780  -0.980  0.00  0.00     0.047 H 
ATOM     23  H   LIG d   1       1.759  -1.586  -3.253  0.00  0.00     0.028 H 
ATOM     24  H   LIG d   1       2.235  -0.556  -1.879  0.00  0.00     0.028 H 
ATOM     25  H   LIG d   1       3.620   1.432  -2.193  0.00  0.00     0.047 H 
ATOM     26  H   LIG d   1       4.329   1.807  -3.787  0.00  0.00     0.047 H 
ATOM     27  H   LIG d   1       2.895   1.165  -6.203  0.00  0.00     0.064 H 
ATOM     28  H   LIG d   1       3.930   0.327  -8.300  0.00  0.00     0.062 H 
ATOM     29  H   LIG d   1       5.230  -1.761  -8.241  0.00  0.00     0.067 H 
ATOM     30  H   LIG d   1       5.160  -3.010  -3.765  0.00  0.00     0.050 H 
ATOM     31  H   LIG d   1       3.451  -3.353  -4.088  0.00  0.00     0.050 H 
ENDROOT
BRANCH   1  32
ATOM     32  C   LIG d   1       7.857   1.897  -4.457  0.00  0.00     0.035 A 
ATOM     33  C   LIG d   1       8.873   2.538  -3.761  0.00  0.00    -0.040 A 
ATOM     34  C   LIG d   1      10.084   2.786  -4.379  0.00  0.00    -0.057 A 
ATOM     35  H   LIG d   1       8.717   2.842  -2.736  0.00  0.00     0.064 H 
ATOM     36  C   LIG d   1      10.284   2.396  -5.690  0.00  0.00    -0.045 A 
ATOM     37  H   LIG d   1      10.873   3.283  -3.837  0.00  0.00     0.062 H 
ATOM     38  C   LIG d   1       9.272   1.762  -6.389  0.00  0.00    -0.057 A 
ATOM     39  C   LIG d   1       8.062   1.507  -5.775  0.00  0.00    -0.040 A 
ATOM     40  H   LIG d   1       9.430   1.463  -7.414  0.00  0.00     0.062 H 
ATOM     41  H   LIG d   1       7.273   1.008  -6.320  0.00  0.00     0.064 H 
BRANCH  36  42
ATOM     42  C   LIG d   1      11.605   2.668  -6.361  0.00  0.00    -0.021 C 
ATOM     43  H   LIG d   1      12.048   1.726  -6.687  0.00  0.00     0.034 H 
BRANCH  42  44
ATOM     44  C   LIG d   1      11.385   3.574  -7.573  0.00  0.00    -0.059 C 
ATOM     45  H   LIG d   1      12.055   3.273  -8.379  0.00  0.00     0.024 H 
ATOM     46  H   LIG d   1      10.352   3.488  -7.909  0.00  0.00     0.024 H 
ATOM     47  H   LIG d   1      11.591   4.608  -7.297  0.00  0.00     0.024 H 
ENDBRANCH  42  44
BRANCH  42  48
ATOM     48  C   LIG d   1      12.547   3.358  -5.373  0.00  0.00    -0.059 C 
ATOM     49  H   LIG d   1      12.760   2.684  -4.543  0.00  0.00     0.024 H 
ATOM     50  H   LIG d   1      13.478   3.618  -5.877  0.00  0.00     0.024 H 
ATOM     51  H   LIG d   1      12.074   4.264  -4.993  0.00  0.00     0.024 H 
ENDBRANCH  42  48
ENDBRANCH  36  42
ENDBRANCH   1  32
TORSDOF 4
ENDMDL
MODEL 6
REMARK VINA RESULT:      -6.0      2.730      7.461
REMARK  4 active torsions:
REMARK  status: ('A' for Active; 'I' for Inactive)
REMARK    1  A    between atoms: C_1  and  C_2 
REMARK    2  A    between atoms: C_2  and  C_3 
REMARK    3  A    between atoms: C_2  and  C_4 
REMARK    4  A    between atoms: C_7  and  N_10 
REMARK       I    between atoms: N_10  and  C_11 
REMARK       I    between atoms: C_11  and  N_13 
ROOT
ATOM      1  N   LIG d   1       4.123  -3.267  -6.786  0.00  0.00    -0.269 N 
ATOM      2  C   LIG d   1       4.961  -3.388  -7.834  0.00  0.00     0.306 C 
ATOM      3  O   LIG d   1       6.060  -2.870  -7.796  0.00  0.00    -0.252 OA
ATOM      4  N   LIG d   1       4.581  -4.084  -8.924  0.00  0.00    -0.284 N 
ATOM      5  C   LIG d   1       5.538  -4.382  -9.997  0.00  0.00     0.021 C 
ATOM      6  C   LIG d   1       4.955  -3.989 -11.346  0.00  0.00    -0.006 C 
ATOM      7  H   LIG d   1       5.594  -4.405 -12.125  0.00  0.00     0.033 H 
ATOM      8  C   LIG d   1       3.550  -4.566 -11.527  0.00  0.00    -0.037 C 
ATOM      9  C   LIG d   1       2.660  -4.029 -10.404  0.00  0.00     0.016 C 
ATOM     10  H   LIG d   1       1.631  -4.356 -10.553  0.00  0.00     0.038 H 
ATOM     11  C   LIG d   1       3.198  -4.569  -9.062  0.00  0.00     0.024 C 
ATOM     12  C   LIG d   1       2.727  -2.520 -10.376  0.00  0.00     0.027 C 
ATOM     13  C   LIG d   1       1.649  -1.855  -9.884  0.00  0.00    -0.042 C 
ATOM     14  C   LIG d   1       1.667  -0.460  -9.766  0.00  0.00    -0.055 C 
ATOM     15  C   LIG d   1       2.793   0.218 -10.130  0.00  0.00     0.003 C 
ATOM     16  C   LIG d   1       3.889  -0.500 -10.629  0.00  0.00     0.252 C 
ATOM     17  O   LIG d   1       4.925   0.088 -10.897  0.00  0.00    -0.268 OA
ATOM     18  N   LIG d   1       3.810  -1.839 -10.818  0.00  0.00    -0.312 N 
ATOM     19  C   LIG d   1       4.908  -2.483 -11.531  0.00  0.00     0.031 C 
ATOM     20  H   LIG d   1       3.302  -3.784  -6.758  0.00  0.00     0.156 HD
ATOM     21  H   LIG d   1       6.458  -3.823  -9.823  0.00  0.00     0.047 H 
ATOM     22  H   LIG d   1       5.762  -5.448  -9.996  0.00  0.00     0.047 H 
ATOM     23  H   LIG d   1       3.149  -4.258 -12.493  0.00  0.00     0.028 H 
ATOM     24  H   LIG d   1       3.591  -5.654 -11.476  0.00  0.00     0.028 H 
ATOM     25  H   LIG d   1       3.186  -5.659  -9.067  0.00  0.00     0.047 H 
ATOM     26  H   LIG d   1       2.590  -4.194  -8.240  0.00  0.00     0.047 H 
ATOM     27  H   LIG d   1       0.771  -2.406  -9.580  0.00  0.00     0.064 H 
ATOM     28  H   LIG d   1       0.803   0.071  -9.394  0.00  0.00     0.062 H 
ATOM     29  H   LIG d   1       2.841   1.293 -10.033  0.00  0.00     0.067 H 
ATOM     30  H   LIG d   1       5.850  -2.056 -11.188  0.00  0.00     0.050 H 
ATOM     31  H   LIG d   1       4.786  -2.261 -12.591  0.00  0.00     0.050 H 
ENDROOT
BRANCH   1  32
ATOM     32  C   LIG d   1       4.436  -2.396  -5.737  0.00  0.00     0.035 A 
ATOM     33  C   LIG d   1       4.935  -2.896  -4.541  0.00  0.00    -0.040 A 
ATOM     34  C   LIG d   1       5.243  -2.032  -3.507  0.00  0.00    -0.057 A 
ATOM     35  H   LIG d   1       5.083  -3.959  -4.420  0.00  0.00     0.064 H 
ATOM     36  C   LIG d   1       5.054  -0.672  -3.663  0.00  0.00    -0.045 A 
ATOM     37  H   LIG d   1       5.631  -2.421  -2.578  0.00  0.00     0.062 H 
ATOM     38  C   LIG d   1       4.551  -0.171  -4.850  0.00  0.00    -0.057 A 
ATOM     39  C   LIG d   1       4.247  -1.028  -5.889  0.00  0.00    -0.040 A 
ATOM     40  H   LIG d   1       4.401   0.892  -4.966  0.00  0.00     0.062 H 
ATOM     41  H   LIG d   1       3.859  -0.636  -6.817  0.00  0.00     0.064 H 
BRANCH  36  42
ATOM     42  C   LIG d   1       5.390   0.267  -2.533  0.00  0.00    -0.021 C 
ATOM     43  H   LIG d   1       5.939  -0.274  -1.761  0.00  0.00     0.034 H 
BRANCH  42  44
ATOM     44  C   LIG d   1       6.252   1.414  -3.062  0.00  0.00    -0.059 C 
ATOM     45  H   LIG d   1       6.841   1.065  -3.910  0.00  0.00     0.024 H 
ATOM     46  H   LIG d   1       5.609   2.236  -3.379  0.00  0.00     0.024 H 
ATOM     47  H   LIG d   1       6.920   1.760  -2.274  0.00  0.00     0.024 H 
ENDBRANCH  42  44
BRANCH  42  48
ATOM     48  C   LIG d   1       4.099   0.832  -1.937  0.00  0.00    -0.059 C 
ATOM     49  H   LIG d   1       3.368   0.031  -1.829  0.00  0.00     0.024 H 
ATOM     50  H   LIG d   1       4.308   1.267  -0.960  0.00  0.00     0.024 H 
ATOM     51  H   LIG d   1       3.700   1.601  -2.600  0.00  0.00     0.024 H 
ENDBRANCH  42  48
ENDBRANCH  36  42
ENDBRANCH   1  32
TORSDOF 4
ENDMDL
MODEL 7
REMARK VINA RESULT:      -6.0      4.560      7.175
REMARK  4 active torsions:
REMARK  status: ('A' for Active; 'I' for Inactive)
REMARK    1  A    between atoms: C_1  and  C_2 
REMARK    2  A    between atoms: C_2  and  C_3 
REMARK    3  A    between atoms: C_2  and  C_4 
REMARK    4  A    between atoms: C_7  and  N_10 
REMARK       I    between atoms: N_10  and  C_11 
REMARK       I    between atoms: C_11  and  N_13 
ROOT
ATOM      1  N   LIG d   1       8.309   1.785  -4.032  0.00  0.00    -0.269 N 
ATOM      2  C   LIG d   1       8.487   2.055  -5.340  0.00  0.00     0.306 C 
ATOM      3  O   LIG d   1       7.620   1.767  -6.142  0.00  0.00    -0.252 OA
ATOM      4  N   LIG d   1       9.625   2.643  -5.759  0.00  0.00    -0.284 N 
ATOM      5  C   LIG d   1       9.763   3.109  -7.144  0.00  0.00     0.021 C 
ATOM      6  C   LIG d   1      11.058   2.586  -7.749  0.00  0.00    -0.006 C 
ATOM      7  H   LIG d   1      11.228   3.109  -8.690  0.00  0.00     0.033 H 
ATOM      8  C   LIG d   1      12.247   2.868  -6.829  0.00  0.00    -0.037 C 
ATOM      9  C   LIG d   1      11.990   2.181  -5.485  0.00  0.00     0.016 C 
ATOM     10  H   LIG d   1      12.857   2.293  -4.835  0.00  0.00     0.038 H 
ATOM     11  C   LIG d   1      10.754   2.839  -4.836  0.00  0.00     0.024 C 
ATOM     12  C   LIG d   1      11.693   0.717  -5.707  0.00  0.00     0.027 C 
ATOM     13  C   LIG d   1      11.991  -0.143  -4.698  0.00  0.00    -0.042 C 
ATOM     14  C   LIG d   1      11.682  -1.504  -4.808  0.00  0.00    -0.055 C 
ATOM     15  C   LIG d   1      11.054  -1.949  -5.934  0.00  0.00     0.003 C 
ATOM     16  C   LIG d   1      10.757  -1.034  -6.955  0.00  0.00     0.252 C 
ATOM     17  O   LIG d   1      10.139  -1.407  -7.939  0.00  0.00    -0.268 OA
ATOM     18  N   LIG d   1      11.151   0.259  -6.860  0.00  0.00    -0.312 N 
ATOM     19  C   LIG d   1      10.991   1.098  -8.042  0.00  0.00     0.031 C 
ATOM     20  H   LIG d   1       8.937   2.128  -3.376  0.00  0.00     0.156 HD
ATOM     21  H   LIG d   1       8.918   2.748  -7.731  0.00  0.00     0.047 H 
ATOM     22  H   LIG d   1       9.770   4.199  -7.160  0.00  0.00     0.047 H 
ATOM     23  H   LIG d   1      13.158   2.470  -7.275  0.00  0.00     0.028 H 
ATOM     24  H   LIG d   1      12.349   3.942  -6.679  0.00  0.00     0.028 H 
ATOM     25  H   LIG d   1      10.932   3.904  -4.689  0.00  0.00     0.047 H 
ATOM     26  H   LIG d   1      10.538   2.363  -3.880  0.00  0.00     0.047 H 
ATOM     27  H   LIG d   1      12.469   0.226  -3.803  0.00  0.00     0.064 H 
ATOM     28  H   LIG d   1      11.937  -2.191  -4.014  0.00  0.00     0.062 H 
ATOM     29  H   LIG d   1      10.789  -2.990  -6.038  0.00  0.00     0.067 H 
ATOM     30  H   LIG d   1      10.031   0.874  -8.508  0.00  0.00     0.050 H 
ATOM     31  H   LIG d   1      11.788   0.839  -8.738  0.00  0.00     0.050 H 
ENDROOT
BRANCH   1  32
ATOM     32  C   LIG d   1       7.220   1.011  -3.618  0.00  0.00     0.035 A 
ATOM     33  C   LIG d   1       6.079   1.624  -3.119  0.00  0.00    -0.040 A 
ATOM     34  C   LIG d   1       5.005   0.857  -2.711  0.00  0.00    -0.057 A 
ATOM     35  H   LIG d   1       6.030   2.702  -3.050  0.00  0.00     0.064 H 
ATOM     36  C   LIG d   1       5.067  -0.522  -2.799  0.00  0.00    -0.045 A 
ATOM     37  H   LIG d   1       4.118   1.334  -2.324  0.00  0.00     0.062 H 
ATOM     38  C   LIG d   1       6.204  -1.136  -3.290  0.00  0.00    -0.057 A 
ATOM     39  C   LIG d   1       7.278  -0.374  -3.704  0.00  0.00    -0.040 A 
ATOM     40  H   LIG d   1       6.250  -2.213  -3.353  0.00  0.00     0.062 H 
ATOM     41  H   LIG d   1       8.165  -0.855  -4.092  0.00  0.00     0.064 H 
BRANCH  36  42
ATOM     42  C   LIG d   1       3.894  -1.356  -2.353  0.00  0.00    -0.021 C 
ATOM     43  H   LIG d   1       3.853  -1.373  -1.263  0.00  0.00     0.034 H 
BRANCH  42  44
ATOM     44  C   LIG d   1       2.600  -0.753  -2.902  0.00  0.00    -0.059 C 
ATOM     45  H   LIG d   1       2.530  -0.956  -3.971  0.00  0.00     0.024 H 
ATOM     46  H   LIG d   1       1.746  -1.198  -2.391  0.00  0.00     0.024 H 
ATOM     47  H   LIG d   1       2.601   0.324  -2.736  0.00  0.00     0.024 H 
ENDBRANCH  42  44
BRANCH  42  48
ATOM     48  C   LIG d   1       4.054  -2.784  -2.878  0.00  0.00    -0.059 C 
ATOM     49  H   LIG d   1       5.069  -3.130  -2.685  0.00  0.00     0.024 H 
ATOM     50  H   LIG d   1       3.344  -3.440  -2.374  0.00  0.00     0.024 H 
ATOM     51  H   LIG d   1       3.863  -2.799  -3.952  0.00  0.00     0.024 H 
ENDBRANCH  42  48
ENDBRANCH  36  42
ENDBRANCH   1  32
TORSDOF 4
ENDMDL
MODEL 8
REMARK VINA RESULT:      -5.8      5.669      8.228
REMARK  4 active torsions:
REMARK  status: ('A' for Active; 'I' for Inactive)
REMARK    1  A    between atoms: C_1  and  C_2 
REMARK    2  A    between atoms: C_2  and  C_3 
REMARK    3  A    between atoms: C_2  and  C_4 
REMARK    4  A    between atoms: C_7  and  N_10 
REMARK       I    between atoms: N_10  and  C_11 
REMARK       I    between atoms: C_11  and  N_13 
ROOT
ATOM      1  N   LIG d   1       5.364  -4.395  -7.446  0.00  0.00    -0.269 N 
ATOM      2  C   LIG d   1       4.499  -5.358  -7.820  0.00  0.00     0.306 C 
ATOM      3  O   LIG d   1       3.372  -5.372  -7.365  0.00  0.00    -0.252 OA
ATOM      4  N   LIG d   1       4.883  -6.305  -8.700  0.00  0.00    -0.284 N 
ATOM      5  C   LIG d   1       3.909  -7.250  -9.258  0.00  0.00     0.021 C 
ATOM      6  C   LIG d   1       4.418  -8.677  -9.114  0.00  0.00    -0.006 C 
ATOM      7  H   LIG d   1       3.779  -9.326  -9.712  0.00  0.00     0.033 H 
ATOM      8  C   LIG d   1       5.849  -8.806  -9.638  0.00  0.00    -0.037 C 
ATOM      9  C   LIG d   1       6.743  -7.855  -8.839  0.00  0.00     0.016 C 
ATOM     10  H   LIG d   1       7.785  -7.985  -9.133  0.00  0.00     0.038 H 
ATOM     11  C   LIG d   1       6.288  -6.409  -9.126  0.00  0.00     0.024 C 
ATOM     12  C   LIG d   1       6.582  -8.124  -7.361  0.00  0.00     0.027 C 
ATOM     13  C   LIG d   1       7.634  -7.826  -6.553  0.00  0.00    -0.042 C 
ATOM     14  C   LIG d   1       7.533  -7.986  -5.165  0.00  0.00    -0.055 C 
ATOM     15  C   LIG d   1       6.354  -8.423  -4.637  0.00  0.00     0.003 C 
ATOM     16  C   LIG d   1       5.288  -8.718  -5.499  0.00  0.00     0.252 C 
ATOM     17  O   LIG d   1       4.209  -9.048  -5.034  0.00  0.00    -0.268 OA
ATOM     18  N   LIG d   1       5.445  -8.641  -6.843  0.00  0.00    -0.312 N 
ATOM     19  C   LIG d   1       4.365  -9.159  -7.675  0.00  0.00     0.031 C 
ATOM     20  H   LIG d   1       6.217  -4.304  -7.901  0.00  0.00     0.156 HD
ATOM     21  H   LIG d   1       2.963  -7.148  -8.726  0.00  0.00     0.047 H 
ATOM     22  H   LIG d   1       3.753  -7.027 -10.313  0.00  0.00     0.047 H 
ATOM     23  H   LIG d   1       6.196  -9.831  -9.509  0.00  0.00     0.028 H 
ATOM     24  H   LIG d   1       5.878  -8.538 -10.694  0.00  0.00     0.028 H 
ATOM     25  H   LIG d   1       6.368  -6.198 -10.192  0.00  0.00     0.047 H 
ATOM     26  H   LIG d   1       6.900  -5.707  -8.561  0.00  0.00     0.047 H 
ATOM     27  H   LIG d   1       8.554  -7.461  -6.983  0.00  0.00     0.064 H 
ATOM     28  H   LIG d   1       8.374  -7.768  -4.525  0.00  0.00     0.062 H 
ATOM     29  H   LIG d   1       6.242  -8.540  -3.569  0.00  0.00     0.067 H 
ATOM     30  H   LIG d   1       3.410  -8.863  -7.240  0.00  0.00     0.050 H 
ATOM     31  H   LIG d   1       4.434 -10.246  -7.664  0.00  0.00     0.050 H 
ENDROOT
BRANCH   1  32
ATOM     32  C   LIG d   1       5.035  -3.527  -6.400  0.00  0.00     0.035 A 
ATOM     33  C   LIG d   1       4.661  -2.218  -6.673  0.00  0.00    -0.040 A 
ATOM     34  C   LIG d   1       4.337  -1.362  -5.637  0.00  0.00    -0.057 A 
ATOM     35  H   LIG d   1       4.623  -1.868  -7.694  0.00  0.00     0.064 H 
ATOM     36  C   LIG d   1       4.385  -1.809  -4.330  0.00  0.00    -0.045 A 
ATOM     37  H   LIG d   1       4.046  -0.345  -5.850  0.00  0.00     0.062 H 
ATOM     38  C   LIG d   1       4.762  -3.111  -4.054  0.00  0.00    -0.057 A 
ATOM     39  C   LIG d   1       5.082  -3.971  -5.085  0.00  0.00    -0.040 A 
ATOM     40  H   LIG d   1       4.803  -3.455  -3.031  0.00  0.00     0.062 H 
ATOM     41  H   LIG d   1       5.373  -4.989  -4.869  0.00  0.00     0.064 H 
BRANCH  36  42
ATOM     42  C   LIG d   1       4.030  -0.874  -3.203  0.00  0.00    -0.021 C 
ATOM     43  H   LIG d   1       4.574   0.064  -3.324  0.00  0.00     0.034 H 
BRANCH  42  44
ATOM     44  C   LIG d   1       2.526  -0.597  -3.223  0.00  0.00    -0.059 C 
ATOM     45  H   LIG d   1       2.316   0.217  -3.917  0.00  0.00     0.024 H 
ATOM     46  H   LIG d   1       1.996  -1.493  -3.543  0.00  0.00     0.024 H 
ATOM     47  H   LIG d   1       2.195  -0.317  -2.223  0.00  0.00     0.024 H 
ENDBRANCH  42  44
BRANCH  42  48
ATOM     48  C   LIG d   1       4.413  -1.515  -1.868  0.00  0.00    -0.059 C 
ATOM     49  H   LIG d   1       3.510  -1.757  -1.309  0.00  0.00     0.024 H 
ATOM     50  H   LIG d   1       4.983  -2.426  -2.051  0.00  0.00     0.024 H 
ATOM     51  H   LIG d   1       5.021  -0.817  -1.290  0.00  0.00     0.024 H 
ENDBRANCH  42  48
ENDBRANCH  36  42
ENDBRANCH   1  32
TORSDOF 4
ENDMDL
MODEL 9
REMARK VINA RESULT:      -5.8      9.161     11.127
REMARK  4 active torsions:
REMARK  status: ('A' for Active; 'I' for Inactive)
REMARK    1  A    between atoms: C_1  and  C_2 
REMARK    2  A    between atoms: C_2  and  C_3 
REMARK    3  A    between atoms: C_2  and  C_4 
REMARK    4  A    between atoms: C_7  and  N_10 
REMARK       I    between atoms: N_10  and  C_11 
REMARK       I    between atoms: C_11  and  N_13 
ROOT
ATOM      1  N   LIG d   1       9.306   9.470  -4.901  0.00  0.00    -0.269 N 
ATOM      2  C   LIG d   1      10.411  10.119  -4.488  0.00  0.00     0.306 C 
ATOM      3  O   LIG d   1      11.449  10.011  -5.112  0.00  0.00    -0.252 OA
ATOM      4  N   LIG d   1      10.367  10.890  -3.382  0.00  0.00    -0.284 N 
ATOM      5  C   LIG d   1      11.503  11.746  -3.018  0.00  0.00     0.021 C 
ATOM      6  C   LIG d   1      11.885  11.522  -1.562  0.00  0.00    -0.006 C 
ATOM      7  H   LIG d   1      12.584  12.306  -1.271  0.00  0.00     0.033 H 
ATOM      8  C   LIG d   1      10.660  11.615  -0.651  0.00  0.00    -0.037 C 
ATOM      9  C   LIG d   1       9.651  10.551  -1.090  0.00  0.00     0.016 C 
ATOM     10  H   LIG d   1       8.801  10.537  -0.407  0.00  0.00     0.038 H 
ATOM     11  C   LIG d   1       9.176  10.896  -2.518  0.00  0.00     0.024 C 
ATOM     12  C   LIG d   1      10.317   9.196  -1.120  0.00  0.00     0.027 C 
ATOM     13  C   LIG d   1       9.528   8.106  -0.926  0.00  0.00    -0.042 C 
ATOM     14  C   LIG d   1      10.065   6.816  -1.006  0.00  0.00    -0.055 C 
ATOM     15  C   LIG d   1      11.387   6.669  -1.307  0.00  0.00     0.003 C 
ATOM     16  C   LIG d   1      12.171   7.814  -1.506  0.00  0.00     0.252 C 
ATOM     17  O   LIG d   1      13.339   7.696  -1.838  0.00  0.00    -0.268 OA
ATOM     18  N   LIG d   1      11.645   9.051  -1.330  0.00  0.00    -0.312 N 
ATOM     19  C   LIG d   1      12.567  10.182  -1.351  0.00  0.00     0.031 C 
ATOM     20  H   LIG d   1       8.449   9.656  -4.484  0.00  0.00     0.156 HD
ATOM     21  H   LIG d   1      12.354  11.506  -3.656  0.00  0.00     0.047 H 
ATOM     22  H   LIG d   1      11.229  12.791  -3.163  0.00  0.00     0.047 H 
ATOM     23  H   LIG d   1      10.957  11.435   0.382  0.00  0.00     0.028 H 
ATOM     24  H   LIG d   1      10.213  12.605  -0.739  0.00  0.00     0.028 H 
ATOM     25  H   LIG d   1       8.716  11.884  -2.530  0.00  0.00     0.047 H 
ATOM     26  H   LIG d   1       8.463  10.149  -2.864  0.00  0.00     0.047 H 
ATOM     27  H   LIG d   1       8.478   8.237  -0.708  0.00  0.00     0.064 H 
ATOM     28  H   LIG d   1       9.442   5.951  -0.832  0.00  0.00     0.062 H 
ATOM     29  H   LIG d   1      11.823   5.685  -1.392  0.00  0.00     0.067 H 
ATOM     30  H   LIG d   1      13.297  10.028  -2.147  0.00  0.00     0.050 H 
ATOM     31  H   LIG d   1      13.089  10.197  -0.394  0.00  0.00     0.050 H 
ENDROOT
BRANCH   1  32
ATOM     32  C   LIG d   1       9.392   8.528  -5.932  0.00  0.00     0.035 A 
ATOM     33  C   LIG d   1       9.202   8.919  -7.250  0.00  0.00    -0.040 A 
ATOM     34  C   LIG d   1       9.287   7.985  -8.266  0.00  0.00    -0.057 A 
ATOM     35  H   LIG d   1       8.987   9.952  -7.483  0.00  0.00     0.064 H 
ATOM     36  C   LIG d   1       9.561   6.663  -7.969  0.00  0.00    -0.045 A 
ATOM     37  H   LIG d   1       9.139   8.289  -9.291  0.00  0.00     0.062 H 
ATOM     38  C   LIG d   1       9.745   6.269  -6.656  0.00  0.00    -0.057 A 
ATOM     39  C   LIG d   1       9.667   7.198  -5.638  0.00  0.00    -0.040 A 
ATOM     40  H   LIG d   1       9.955   5.235  -6.428  0.00  0.00     0.062 H 
ATOM     41  H   LIG d   1       9.815   6.891  -4.613  0.00  0.00     0.064 H 
BRANCH  36  42
ATOM     42  C   LIG d   1       9.653   5.648  -9.079  0.00  0.00    -0.021 C 
ATOM     43  H   LIG d   1      10.576   5.805  -9.640  0.00  0.00     0.034 H 
BRANCH  42  44
ATOM     44  C   LIG d   1       9.653   4.239  -8.483  0.00  0.00    -0.059 C 
ATOM     45  H   LIG d   1       8.951   4.197  -7.650  0.00  0.00     0.024 H 
ATOM     46  H   LIG d   1       9.353   3.521  -9.247  0.00  0.00     0.024 H 
ATOM     47  H   LIG d   1      10.653   3.994  -8.128  0.00  0.00     0.024 H 
ENDBRANCH  42  44
BRANCH  42  48
ATOM     48  C   LIG d   1       8.455   5.806 -10.016  0.00  0.00    -0.059 C 
ATOM     49  H   LIG d   1       8.652   5.281 -10.950  0.00  0.00     0.024 H 
ATOM     50  H   LIG d   1       7.566   5.387  -9.545  0.00  0.00     0.024 H 
ATOM     51  H   LIG d   1       8.292   6.865 -10.222  0.00  0.00     0.024 H 
ENDBRANCH  42  48
ENDBRANCH  36  42
ENDBRANCH   1  32
TORSDOF 4
ENDMDL
MODEL 10
REMARK VINA RESULT:      -5.7      8.188      9.650
REMARK  4 active torsions:
REMARK  status: ('A' for Active; 'I' for Inactive)
REMARK    1  A    between atoms: C_1  and  C_2 
REMARK    2  A    between atoms: C_2  and  C_3 
REMARK    3  A    between atoms: C_2  and  C_4 
REMARK    4  A    between atoms: C_7  and  N_10 
REMARK       I    between atoms: N_10  and  C_11 
REMARK       I    between atoms: C_11  and  N_13 
ROOT
ATOM      1  N   LIG d   1       9.472   7.481  -4.289  0.00  0.00    -0.269 N 
ATOM      2  C   LIG d   1      10.530   7.982  -3.623  0.00  0.00     0.306 C 
ATOM      3  O   LIG d   1      11.422   8.541  -4.232  0.00  0.00    -0.252 OA
ATOM      4  N   LIG d   1      10.600   7.864  -2.282  0.00  0.00    -0.284 N 
ATOM      5  C   LIG d   1      11.648   8.558  -1.521  0.00  0.00     0.021 C 
ATOM      6  C   LIG d   1      12.350   7.585  -0.585  0.00  0.00    -0.006 C 
ATOM      7  H   LIG d   1      12.969   8.162   0.101  0.00  0.00     0.033 H 
ATOM      8  C   LIG d   1      11.338   6.792   0.244  0.00  0.00    -0.037 C 
ATOM      9  C   LIG d   1      10.428   6.020  -0.716  0.00  0.00     0.016 C 
ATOM     10  H   LIG d   1       9.749   5.379  -0.154  0.00  0.00     0.038 H 
ATOM     11  C   LIG d   1       9.625   7.043  -1.547  0.00  0.00     0.024 C 
ATOM     12  C   LIG d   1      11.267   5.189  -1.658  0.00  0.00     0.027 C 
ATOM     13  C   LIG d   1      10.705   4.061  -2.167  0.00  0.00    -0.042 C 
ATOM     14  C   LIG d   1      11.399   3.278  -3.098  0.00  0.00    -0.055 C 
ATOM     15  C   LIG d   1      12.638   3.679  -3.503  0.00  0.00     0.003 C 
ATOM     16  C   LIG d   1      13.186   4.850  -2.961  0.00  0.00     0.252 C 
ATOM     17  O   LIG d   1      14.266   5.253  -3.363  0.00  0.00    -0.268 OA
ATOM     18  N   LIG d   1      12.531   5.537  -1.994  0.00  0.00    -0.312 N 
ATOM     19  C   LIG d   1      13.251   6.621  -1.335  0.00  0.00     0.031 C 
ATOM     20  H   LIG d   1       8.701   7.152  -3.799  0.00  0.00     0.156 HD
ATOM     21  H   LIG d   1      12.375   8.981  -2.214  0.00  0.00     0.047 H 
ATOM     22  H   LIG d   1      11.198   9.361  -0.937  0.00  0.00     0.047 H 
ATOM     23  H   LIG d   1      11.864   6.092   0.893  0.00  0.00     0.028 H 
ATOM     24  H   LIG d   1      10.741   7.476   0.846  0.00  0.00     0.028 H 
ATOM     25  H   LIG d   1       9.031   7.675  -0.887  0.00  0.00     0.047 H 
ATOM     26  H   LIG d   1       8.975   6.523  -2.249  0.00  0.00     0.047 H 
ATOM     27  H   LIG d   1       9.715   3.767  -1.853  0.00  0.00     0.064 H 
ATOM     28  H   LIG d   1      10.960   2.371  -3.487  0.00  0.00     0.062 H 
ATOM     29  H   LIG d   1      13.188   3.103  -4.233  0.00  0.00     0.067 H 
ATOM     30  H   LIG d   1      13.816   7.176  -2.084  0.00  0.00     0.050 H 
ATOM     31  H   LIG d   1      13.950   6.169  -0.631  0.00  0.00     0.050 H 
ENDROOT
BRANCH   1  32
ATOM     32  C   LIG d   1       9.482   7.434  -5.687  0.00  0.00     0.035 A 
ATOM     33  C   LIG d   1       9.104   8.548  -6.424  0.00  0.00    -0.040 A 
ATOM     34  C   LIG d   1       9.116   8.499  -7.805  0.00  0.00    -0.057 A 
ATOM     35  H   LIG d   1       8.802   9.454  -5.918  0.00  0.00     0.064 H 
ATOM     36  C   LIG d   1       9.503   7.340  -8.452  0.00  0.00    -0.045 A 
ATOM     37  H   LIG d   1       8.822   9.365  -8.378  0.00  0.00     0.062 H 
ATOM     38  C   LIG d   1       9.875   6.227  -7.721  0.00  0.00    -0.057 A 
ATOM     39  C   LIG d   1       9.870   6.272  -6.341  0.00  0.00    -0.040 A 
ATOM     40  H   LIG d   1      10.172   5.322  -8.230  0.00  0.00     0.062 H 
ATOM     41  H   LIG d   1      10.165   5.403  -5.770  0.00  0.00     0.064 H 
BRANCH  36  42
ATOM     42  C   LIG d   1       9.515   7.289  -9.958  0.00  0.00    -0.021 C 
ATOM     43  H   LIG d   1       8.958   8.139 -10.355  0.00  0.00     0.034 H 
BRANCH  42  44
ATOM     44  C   LIG d   1      10.958   7.346 -10.460  0.00  0.00    -0.059 C 
ATOM     45  H   LIG d   1      11.568   7.904  -9.750  0.00  0.00     0.024 H 
ATOM     46  H   LIG d   1      11.350   6.333 -10.557  0.00  0.00     0.024 H 
ATOM     47  H   LIG d   1      10.987   7.840 -11.431  0.00  0.00     0.024 H 
ENDBRANCH  42  44
BRANCH  42  48
ATOM     48  C   LIG d   1       8.861   5.989 -10.430  0.00  0.00    -0.059 C 
ATOM     49  H   LIG d   1       8.917   5.245  -9.635  0.00  0.00     0.024 H 
ATOM     50  H   LIG d   1       7.817   6.176 -10.681  0.00  0.00     0.024 H 
ATOM     51  H   LIG d   1       9.386   5.618 -11.311  0.00  0.00     0.024 H 
ENDBRANCH  42  48
ENDBRANCH  36  42
ENDBRANCH   1  32
TORSDOF 4
ENDMDL
