MODEL 1
REMARK VINA RESULT:      -6.0      0.000      0.000
REMARK  6 active torsions:
REMARK  status: ('A' for Active; 'I' for Inactive)
REMARK    1  A    between atoms: C_1  and  C_2 
REMARK    2  A    between atoms: C_2  and  C_4 
REMARK    3  A    between atoms: C_4  and  N_5 
REMARK    4  A    between atoms: N_14  and  C_17 
REMARK    5  A    between atoms: C_17  and  C_18 
REMARK    6  A    between atoms: C_18  and  O_19 
ROOT
ATOM      1  N   LIG d   1       5.339  -1.478  -3.401  0.00  0.00    -0.289 N 
ATOM      2  C   LIG d   1       6.349  -0.662  -3.886  0.00  0.00     0.059 A 
ATOM      3  C   LIG d   1       6.629   0.569  -3.312  0.00  0.00    -0.037 A 
ATOM      4  C   LIG d   1       7.643   1.351  -3.827  0.00  0.00    -0.060 A 
ATOM      5  C   LIG d   1       8.387   0.919  -4.915  0.00  0.00    -0.061 A 
ATOM      6  C   LIG d   1       8.124  -0.302  -5.498  0.00  0.00    -0.047 A 
ATOM      7  C   LIG d   1       7.103  -1.100  -4.989  0.00  0.00     0.063 A 
ATOM      8  C   LIG d   1       6.780  -2.414  -5.575  0.00  0.00     0.264 A 
ATOM      9  O   LIG d   1       7.402  -2.841  -6.529  0.00  0.00    -0.267 OA
ATOM     10  N   LIG d   1       5.776  -3.130  -5.026  0.00  0.00    -0.258 N 
ATOM     11  C   LIG d   1       5.087  -2.670  -3.970  0.00  0.00     0.333 A 
ATOM     12  O   LIG d   1       4.197  -3.358  -3.510  0.00  0.00    -0.246 OA
ATOM     13  H   LIG d   1       6.054   0.915  -2.466  0.00  0.00     0.064 H 
ATOM     14  H   LIG d   1       7.859   2.310  -3.379  0.00  0.00     0.062 H 
ATOM     15  H   LIG d   1       9.177   1.543  -5.306  0.00  0.00     0.062 H 
ATOM     16  H   LIG d   1       8.704  -0.636  -6.345  0.00  0.00     0.063 H 
ENDROOT
BRANCH   1  17
ATOM     17  C   LIG d   1       4.541  -1.040  -2.253  0.00  0.00     0.049 C 
ATOM     18  H   LIG d   1       5.194  -0.587  -1.508  0.00  0.00     0.054 H 
ATOM     19  H   LIG d   1       4.031  -1.899  -1.816  0.00  0.00     0.054 H 
BRANCH  17  20
ATOM     20  C   LIG d   1       3.520  -0.029  -2.707  0.00  0.00    -0.060 C 
ATOM     21  C   LIG d   1       3.575   1.203  -2.264  0.00  0.00    -0.098 C 
ATOM     22  H   LIG d   1       4.352   1.494  -1.574  0.00  0.00     0.053 H 
ATOM     23  H   LIG d   1       2.843   1.927  -2.590  0.00  0.00     0.053 H 
BRANCH  20  24
ATOM     24  C   LIG d   1       2.435  -0.435  -3.671  0.00  0.00    -0.042 C 
ATOM     25  H   LIG d   1       1.753  -1.128  -3.180  0.00  0.00     0.028 H 
ATOM     26  H   LIG d   1       1.885   0.450  -3.993  0.00  0.00     0.028 H 
ATOM     27  H   LIG d   1       2.883  -0.919  -4.539  0.00  0.00     0.028 H 
ENDBRANCH  20  24
ENDBRANCH  17  20
ENDBRANCH   1  17
BRANCH  10  28
ATOM     28  C   LIG d   1       5.434  -4.439  -5.591  0.00  0.00     0.054 C 
ATOM     29  H   LIG d   1       6.307  -4.857  -6.092  0.00  0.00     0.052 H 
ATOM     30  H   LIG d   1       5.120  -5.108  -4.790  0.00  0.00     0.052 H 
BRANCH  28  31
ATOM     31  C   LIG d   1       4.295  -4.278  -6.599  0.00  0.00     0.062 C 
ATOM     32  H   LIG d   1       4.019  -3.226  -6.669  0.00  0.00     0.058 H 
ATOM     33  H   LIG d   1       4.621  -4.634  -7.576  0.00  0.00     0.058 H 
BRANCH  31  34
ATOM     34  O   LIG d   1       3.166  -5.038  -6.167  0.00  0.00    -0.393 OA
ATOM     35  H   LIG d   1       2.326  -4.562  -6.222  0.00  0.00     0.209 HD
ENDBRANCH  31  34
ENDBRANCH  28  31
ENDBRANCH  10  28
TORSDOF 6
ENDMDL
MODEL 2
REMARK VINA RESULT:      -5.8      1.164      3.772
REMARK  6 active torsions:
REMARK  status: ('A' for Active; 'I' for Inactive)
REMARK    1  A    between atoms: C_1  and  C_2 
REMARK    2  A    between atoms: C_2  and  C_4 
REMARK    3  A    between atoms: C_4  and  N_5 
REMARK    4  A    between atoms: N_14  and  C_17 
REMARK    5  A    between atoms: C_17  and  C_18 
REMARK    6  A    between atoms: C_18  and  O_19 
ROOT
ATOM      1  N   LIG d   1       6.308  -0.714  -5.313  0.00  0.00    -0.289 N 
ATOM      2  C   LIG d   1       5.684  -0.471  -4.098  0.00  0.00     0.059 A 
ATOM      3  C   LIG d   1       5.779   0.758  -3.464  0.00  0.00    -0.037 A 
ATOM      4  C   LIG d   1       5.143   0.957  -2.255  0.00  0.00    -0.060 A 
ATOM      5  C   LIG d   1       4.409  -0.061  -1.666  0.00  0.00    -0.061 A 
ATOM      6  C   LIG d   1       4.303  -1.290  -2.282  0.00  0.00    -0.047 A 
ATOM      7  C   LIG d   1       4.939  -1.504  -3.502  0.00  0.00     0.063 A 
ATOM      8  C   LIG d   1       4.858  -2.799  -4.203  0.00  0.00     0.264 A 
ATOM      9  O   LIG d   1       4.227  -3.725  -3.731  0.00  0.00    -0.267 OA
ATOM     10  N   LIG d   1       5.504  -2.930  -5.381  0.00  0.00    -0.258 N 
ATOM     11  C   LIG d   1       6.199  -1.912  -5.913  0.00  0.00     0.333 A 
ATOM     12  O   LIG d   1       6.756  -2.081  -6.980  0.00  0.00    -0.246 OA
ATOM     13  H   LIG d   1       6.350   1.557  -3.914  0.00  0.00     0.064 H 
ATOM     14  H   LIG d   1       5.219   1.915  -1.763  0.00  0.00     0.062 H 
ATOM     15  H   LIG d   1       3.917   0.110  -0.720  0.00  0.00     0.062 H 
ATOM     16  H   LIG d   1       3.730  -2.082  -1.822  0.00  0.00     0.063 H 
ENDROOT
BRANCH   1  17
ATOM     17  C   LIG d   1       7.089   0.349  -5.952  0.00  0.00     0.049 C 
ATOM     18  H   LIG d   1       6.553   1.293  -5.869  0.00  0.00     0.054 H 
ATOM     19  H   LIG d   1       7.238   0.107  -7.005  0.00  0.00     0.054 H 
BRANCH  17  20
ATOM     20  C   LIG d   1       8.427   0.468  -5.270  0.00  0.00    -0.060 C 
ATOM     21  C   LIG d   1       9.231  -0.565  -5.221  0.00  0.00    -0.098 C 
ATOM     22  H   LIG d   1       8.936  -1.501  -5.669  0.00  0.00     0.053 H 
ATOM     23  H   LIG d   1      10.191  -0.479  -4.732  0.00  0.00     0.053 H 
BRANCH  20  24
ATOM     24  C   LIG d   1       8.840   1.775  -4.644  0.00  0.00    -0.042 C 
ATOM     25  H   LIG d   1       9.764   2.123  -5.105  0.00  0.00     0.028 H 
ATOM     26  H   LIG d   1       8.056   2.516  -4.798  0.00  0.00     0.028 H 
ATOM     27  H   LIG d   1       8.999   1.631  -3.575  0.00  0.00     0.028 H 
ENDBRANCH  20  24
ENDBRANCH  17  20
ENDBRANCH   1  17
BRANCH  10  28
ATOM     28  C   LIG d   1       5.439  -4.207  -6.098  0.00  0.00     0.054 C 
ATOM     29  H   LIG d   1       6.304  -4.297  -6.756  0.00  0.00     0.052 H 
ATOM     30  H   LIG d   1       5.442  -5.026  -5.379  0.00  0.00     0.052 H 
BRANCH  28  31
ATOM     31  C   LIG d   1       4.157  -4.261  -6.930  0.00  0.00     0.062 C 
ATOM     32  H   LIG d   1       3.753  -3.254  -7.040  0.00  0.00     0.058 H 
ATOM     33  H   LIG d   1       4.379  -4.674  -7.914  0.00  0.00     0.058 H 
BRANCH  31  34
ATOM     34  O   LIG d   1       3.197  -5.089  -6.271  0.00  0.00    -0.393 OA
ATOM     35  H   LIG d   1       2.670  -5.634  -6.872  0.00  0.00     0.209 HD
ENDBRANCH  31  34
ENDBRANCH  28  31
ENDBRANCH  10  28
TORSDOF 6
ENDMDL
MODEL 3
REMARK VINA RESULT:      -5.7      2.709      3.576
REMARK  6 active torsions:
REMARK  status: ('A' for Active; 'I' for Inactive)
REMARK    1  A    between atoms: C_1  and  C_2 
REMARK    2  A    between atoms: C_2  and  C_4 
REMARK    3  A    between atoms: C_4  and  N_5 
REMARK    4  A    between atoms: N_14  and  C_17 
REMARK    5  A    between atoms: C_17  and  C_18 
REMARK    6  A    between atoms: C_18  and  O_19 
ROOT
ATOM      1  N   LIG d   1       5.660  -0.884  -4.478  0.00  0.00    -0.289 N 
ATOM      2  C   LIG d   1       6.361  -2.061  -4.690  0.00  0.00     0.059 A 
ATOM      3  C   LIG d   1       7.360  -2.479  -3.824  0.00  0.00    -0.037 A 
ATOM      4  C   LIG d   1       8.035  -3.658  -4.073  0.00  0.00    -0.060 A 
ATOM      5  C   LIG d   1       7.724  -4.430  -5.183  0.00  0.00    -0.061 A 
ATOM      6  C   LIG d   1       6.733  -4.030  -6.055  0.00  0.00    -0.047 A 
ATOM      7  C   LIG d   1       6.046  -2.844  -5.815  0.00  0.00     0.063 A 
ATOM      8  C   LIG d   1       4.978  -2.371  -6.715  0.00  0.00     0.264 A 
ATOM      9  O   LIG d   1       4.666  -3.009  -7.702  0.00  0.00    -0.267 OA
ATOM     10  N   LIG d   1       4.358  -1.209  -6.417  0.00  0.00    -0.258 N 
ATOM     11  C   LIG d   1       4.692  -0.500  -5.328  0.00  0.00     0.333 A 
ATOM     12  O   LIG d   1       4.097   0.536  -5.102  0.00  0.00    -0.246 OA
ATOM     13  H   LIG d   1       7.610  -1.884  -2.958  0.00  0.00     0.064 H 
ATOM     14  H   LIG d   1       8.813  -3.981  -3.397  0.00  0.00     0.062 H 
ATOM     15  H   LIG d   1       8.261  -5.350  -5.364  0.00  0.00     0.062 H 
ATOM     16  H   LIG d   1       6.493  -4.633  -6.918  0.00  0.00     0.063 H 
ENDROOT
BRANCH   1  17
ATOM     17  C   LIG d   1       5.973  -0.054  -3.312  0.00  0.00     0.049 C 
ATOM     18  H   LIG d   1       6.048   0.989  -3.618  0.00  0.00     0.054 H 
ATOM     19  H   LIG d   1       6.920  -0.376  -2.880  0.00  0.00     0.054 H 
BRANCH  17  20
ATOM     20  C   LIG d   1       4.879  -0.198  -2.285  0.00  0.00    -0.060 C 
ATOM     21  C   LIG d   1       4.412   0.862  -1.673  0.00  0.00    -0.098 C 
ATOM     22  H   LIG d   1       4.809   1.838  -1.903  0.00  0.00     0.053 H 
ATOM     23  H   LIG d   1       3.628   0.758  -0.937  0.00  0.00     0.053 H 
BRANCH  20  24
ATOM     24  C   LIG d   1       4.323  -1.561  -1.962  0.00  0.00    -0.042 C 
ATOM     25  H   LIG d   1       4.334  -1.712  -0.883  0.00  0.00     0.028 H 
ATOM     26  H   LIG d   1       3.300  -1.633  -2.329  0.00  0.00     0.028 H 
ATOM     27  H   LIG d   1       4.936  -2.325  -2.442  0.00  0.00     0.028 H 
ENDBRANCH  20  24
ENDBRANCH  17  20
ENDBRANCH   1  17
BRANCH  10  28
ATOM     28  C   LIG d   1       3.293  -0.716  -7.296  0.00  0.00     0.054 C 
ATOM     29  H   LIG d   1       2.854  -1.554  -7.839  0.00  0.00     0.052 H 
ATOM     30  H   LIG d   1       2.526  -0.228  -6.697  0.00  0.00     0.052 H 
BRANCH  28  31
ATOM     31  C   LIG d   1       3.879   0.286  -8.293  0.00  0.00     0.062 C 
ATOM     32  H   LIG d   1       4.965   0.193  -8.305  0.00  0.00     0.058 H 
ATOM     33  H   LIG d   1       3.485   0.081  -9.288  0.00  0.00     0.058 H 
BRANCH  31  34
ATOM     34  O   LIG d   1       3.518   1.612  -7.902  0.00  0.00    -0.393 OA
ATOM     35  H   LIG d   1       2.756   1.969  -8.378  0.00  0.00     0.209 HD
ENDBRANCH  31  34
ENDBRANCH  28  31
ENDBRANCH  10  28
TORSDOF 6
ENDMDL
MODEL 4
REMARK VINA RESULT:      -5.6      2.602      4.543
REMARK  6 active torsions:
REMARK  status: ('A' for Active; 'I' for Inactive)
REMARK    1  A    between atoms: C_1  and  C_2 
REMARK    2  A    between atoms: C_2  and  C_4 
REMARK    3  A    between atoms: C_4  and  N_5 
REMARK    4  A    between atoms: N_14  and  C_17 
REMARK    5  A    between atoms: C_17  and  C_18 
REMARK    6  A    between atoms: C_18  and  O_19 
ROOT
ATOM      1  N   LIG d   1       4.657  -2.529  -5.264  0.00  0.00    -0.289 N 
ATOM      2  C   LIG d   1       4.294  -1.642  -4.262  0.00  0.00     0.059 A 
ATOM      3  C   LIG d   1       4.442  -1.960  -2.921  0.00  0.00    -0.037 A 
ATOM      4  C   LIG d   1       4.067  -1.048  -1.955  0.00  0.00    -0.060 A 
ATOM      5  C   LIG d   1       3.543   0.186  -2.312  0.00  0.00    -0.061 A 
ATOM      6  C   LIG d   1       3.390   0.519  -3.641  0.00  0.00    -0.047 A 
ATOM      7  C   LIG d   1       3.764  -0.392  -4.625  0.00  0.00     0.063 A 
ATOM      8  C   LIG d   1       3.621  -0.085  -6.060  0.00  0.00     0.264 A 
ATOM      9  O   LIG d   1       3.168   0.981  -6.428  0.00  0.00    -0.267 OA
ATOM     10  N   LIG d   1       4.005  -1.020  -6.955  0.00  0.00    -0.258 N 
ATOM     11  C   LIG d   1       4.510  -2.199  -6.559  0.00  0.00     0.333 A 
ATOM     12  O   LIG d   1       4.846  -3.003  -7.407  0.00  0.00    -0.246 OA
ATOM     13  H   LIG d   1       4.847  -2.919  -2.633  0.00  0.00     0.064 H 
ATOM     14  H   LIG d   1       4.182  -1.298  -0.910  0.00  0.00     0.062 H 
ATOM     15  H   LIG d   1       3.254   0.889  -1.544  0.00  0.00     0.062 H 
ATOM     16  H   LIG d   1       2.982   1.481  -3.917  0.00  0.00     0.063 H 
ENDROOT
BRANCH   1  17
ATOM     17  C   LIG d   1       5.212  -3.838  -4.908  0.00  0.00     0.049 C 
ATOM     18  H   LIG d   1       4.827  -4.594  -5.591  0.00  0.00     0.054 H 
ATOM     19  H   LIG d   1       4.925  -4.089  -3.887  0.00  0.00     0.054 H 
BRANCH  17  20
ATOM     20  C   LIG d   1       6.715  -3.790  -5.009  0.00  0.00    -0.060 C 
ATOM     21  C   LIG d   1       7.354  -4.692  -5.711  0.00  0.00    -0.098 C 
ATOM     22  H   LIG d   1       6.805  -5.470  -6.219  0.00  0.00     0.053 H 
ATOM     23  H   LIG d   1       8.431  -4.657  -5.783  0.00  0.00     0.053 H 
BRANCH  20  24
ATOM     24  C   LIG d   1       7.484  -2.704  -4.300  0.00  0.00    -0.042 C 
ATOM     25  H   LIG d   1       8.537  -2.977  -4.251  0.00  0.00     0.028 H 
ATOM     26  H   LIG d   1       7.376  -1.767  -4.846  0.00  0.00     0.028 H 
ATOM     27  H   LIG d   1       7.092  -2.583  -3.290  0.00  0.00     0.028 H 
ENDBRANCH  20  24
ENDBRANCH  17  20
ENDBRANCH   1  17
BRANCH  10  28
ATOM     28  C   LIG d   1       3.872  -0.741  -8.388  0.00  0.00     0.054 C 
ATOM     29  H   LIG d   1       4.015   0.325  -8.565  0.00  0.00     0.052 H 
ATOM     30  H   LIG d   1       4.625  -1.305  -8.938  0.00  0.00     0.052 H 
BRANCH  28  31
ATOM     31  C   LIG d   1       2.477  -1.154  -8.861  0.00  0.00     0.062 C 
ATOM     32  H   LIG d   1       1.793  -1.161  -8.013  0.00  0.00     0.058 H 
ATOM     33  H   LIG d   1       2.122  -0.445  -9.609  0.00  0.00     0.058 H 
BRANCH  31  34
ATOM     34  O   LIG d   1       2.537  -2.461  -9.435  0.00  0.00    -0.393 OA
ATOM     35  H   LIG d   1       1.953  -2.584 -10.196  0.00  0.00     0.209 HD
ENDBRANCH  31  34
ENDBRANCH  28  31
ENDBRANCH  10  28
TORSDOF 6
ENDMDL
MODEL 5
REMARK VINA RESULT:      -5.2      2.761      4.663
REMARK  6 active torsions:
REMARK  status: ('A' for Active; 'I' for Inactive)
REMARK    1  A    between atoms: C_1  and  C_2 
REMARK    2  A    between atoms: C_2  and  C_4 
REMARK    3  A    between atoms: C_4  and  N_5 
REMARK    4  A    between atoms: N_14  and  C_17 
REMARK    5  A    between atoms: C_17  and  C_18 
REMARK    6  A    between atoms: C_18  and  O_19 
ROOT
ATOM      1  N   LIG d   1       5.266  -1.930  -5.103  0.00  0.00    -0.289 N 
ATOM      2  C   LIG d   1       4.902  -3.177  -5.590  0.00  0.00     0.059 A 
ATOM      3  C   LIG d   1       5.057  -4.328  -4.831  0.00  0.00    -0.037 A 
ATOM      4  C   LIG d   1       4.683  -5.549  -5.355  0.00  0.00    -0.060 A 
ATOM      5  C   LIG d   1       4.154  -5.639  -6.634  0.00  0.00    -0.061 A 
ATOM      6  C   LIG d   1       3.993  -4.505  -7.402  0.00  0.00    -0.047 A 
ATOM      7  C   LIG d   1       4.366  -3.267  -6.886  0.00  0.00     0.063 A 
ATOM      8  C   LIG d   1       4.215  -2.025  -7.666  0.00  0.00     0.264 A 
ATOM      9  O   LIG d   1       3.756  -2.047  -8.792  0.00  0.00    -0.267 OA
ATOM     10  N   LIG d   1       4.600  -0.862  -7.098  0.00  0.00    -0.258 N 
ATOM     11  C   LIG d   1       5.103  -0.827  -5.854  0.00  0.00     0.333 A 
ATOM     12  O   LIG d   1       5.428   0.247  -5.387  0.00  0.00    -0.246 OA
ATOM     13  H   LIG d   1       5.469  -4.268  -3.835  0.00  0.00     0.064 H 
ATOM     14  H   LIG d   1       4.805  -6.444  -4.763  0.00  0.00     0.062 H 
ATOM     15  H   LIG d   1       3.867  -6.602  -7.029  0.00  0.00     0.062 H 
ATOM     16  H   LIG d   1       3.581  -4.578  -8.398  0.00  0.00     0.063 H 
ENDROOT
BRANCH   1  17
ATOM     17  C   LIG d   1       5.827  -1.814  -3.754  0.00  0.00     0.049 C 
ATOM     18  H   LIG d   1       6.634  -1.083  -3.759  0.00  0.00     0.054 H 
ATOM     19  H   LIG d   1       6.214  -2.782  -3.437  0.00  0.00     0.054 H 
BRANCH  17  20
ATOM     20  C   LIG d   1       4.750  -1.368  -2.799  0.00  0.00    -0.060 C 
ATOM     21  C   LIG d   1       3.756  -2.172  -2.511  0.00  0.00    -0.098 C 
ATOM     22  H   LIG d   1       3.708  -3.153  -2.957  0.00  0.00     0.053 H 
ATOM     23  H   LIG d   1       2.984  -1.852  -1.826  0.00  0.00     0.053 H 
BRANCH  20  24
ATOM     24  C   LIG d   1       4.816   0.002  -2.175  0.00  0.00    -0.042 C 
ATOM     25  H   LIG d   1       4.359  -0.026  -1.187  0.00  0.00     0.028 H 
ATOM     26  H   LIG d   1       5.857   0.311  -2.087  0.00  0.00     0.028 H 
ATOM     27  H   LIG d   1       4.278   0.713  -2.804  0.00  0.00     0.028 H 
ENDBRANCH  20  24
ENDBRANCH  17  20
ENDBRANCH   1  17
BRANCH  10  28
ATOM     28  C   LIG d   1       4.461   0.387  -7.851  0.00  0.00     0.054 C 
ATOM     29  H   LIG d   1       5.125   1.142  -7.428  0.00  0.00     0.052 H 
ATOM     30  H   LIG d   1       4.726   0.213  -8.894  0.00  0.00     0.052 H 
BRANCH  28  31
ATOM     31  C   LIG d   1       3.014   0.875  -7.767  0.00  0.00     0.062 C 
ATOM     32  H   LIG d   1       2.494   0.333  -6.977  0.00  0.00     0.058 H 
ATOM     33  H   LIG d   1       3.002   1.942  -7.544  0.00  0.00     0.058 H 
BRANCH  31  34
ATOM     34  O   LIG d   1       2.359   0.642  -9.015  0.00  0.00    -0.393 OA
ATOM     35  H   LIG d   1       2.598   1.273  -9.708  0.00  0.00     0.209 HD
ENDBRANCH  31  34
ENDBRANCH  28  31
ENDBRANCH  10  28
TORSDOF 6
ENDMDL
MODEL 6
REMARK VINA RESULT:      -5.1      2.323      3.686
REMARK  6 active torsions:
REMARK  status: ('A' for Active; 'I' for Inactive)
REMARK    1  A    between atoms: C_1  and  C_2 
REMARK    2  A    between atoms: C_2  and  C_4 
REMARK    3  A    between atoms: C_4  and  N_5 
REMARK    4  A    between atoms: N_14  and  C_17 
REMARK    5  A    between atoms: C_17  and  C_18 
REMARK    6  A    between atoms: C_18  and  O_19 
ROOT
ATOM      1  N   LIG d   1       5.103  -0.772  -4.878  0.00  0.00    -0.289 N 
ATOM      2  C   LIG d   1       4.408  -0.924  -6.069  0.00  0.00     0.059 A 
ATOM      3  C   LIG d   1       3.466   0.004  -6.485  0.00  0.00    -0.037 A 
ATOM      4  C   LIG d   1       2.796  -0.187  -7.677  0.00  0.00    -0.060 A 
ATOM      5  C   LIG d   1       3.056  -1.298  -8.465  0.00  0.00    -0.061 A 
ATOM      6  C   LIG d   1       3.990  -2.231  -8.068  0.00  0.00    -0.047 A 
ATOM      7  C   LIG d   1       4.673  -2.051  -6.867  0.00  0.00     0.063 A 
ATOM      8  C   LIG d   1       5.681  -3.018  -6.396  0.00  0.00     0.264 A 
ATOM      9  O   LIG d   1       5.948  -4.009  -7.049  0.00  0.00    -0.267 OA
ATOM     10  N   LIG d   1       6.300  -2.775  -5.221  0.00  0.00    -0.258 N 
ATOM     11  C   LIG d   1       6.016  -1.682  -4.496  0.00  0.00     0.333 A 
ATOM     12  O   LIG d   1       6.608  -1.508  -3.449  0.00  0.00    -0.246 OA
ATOM     13  H   LIG d   1       3.255   0.871  -5.877  0.00  0.00     0.064 H 
ATOM     14  H   LIG d   1       2.061   0.537  -7.999  0.00  0.00     0.062 H 
ATOM     15  H   LIG d   1       2.523  -1.432  -9.395  0.00  0.00     0.062 H 
ATOM     16  H   LIG d   1       4.191  -3.095  -8.683  0.00  0.00     0.063 H 
ENDROOT
BRANCH   1  17
ATOM     17  C   LIG d   1       4.843   0.395  -4.031  0.00  0.00     0.049 C 
ATOM     18  H   LIG d   1       4.275   1.134  -4.595  0.00  0.00     0.054 H 
ATOM     19  H   LIG d   1       5.790   0.830  -3.711  0.00  0.00     0.054 H 
BRANCH  17  20
ATOM     20  C   LIG d   1       4.052  -0.030  -2.820  0.00  0.00    -0.060 C 
ATOM     21  C   LIG d   1       4.410   0.379  -1.628  0.00  0.00    -0.098 C 
ATOM     22  H   LIG d   1       5.271   1.020  -1.512  0.00  0.00     0.053 H 
ATOM     23  H   LIG d   1       3.843   0.075  -0.761  0.00  0.00     0.053 H 
BRANCH  20  24
ATOM     24  C   LIG d   1       2.850  -0.924  -2.981  0.00  0.00    -0.042 C 
ATOM     25  H   LIG d   1       1.954  -0.314  -3.087  0.00  0.00     0.028 H 
ATOM     26  H   LIG d   1       2.975  -1.545  -3.868  0.00  0.00     0.028 H 
ATOM     27  H   LIG d   1       2.753  -1.562  -2.102  0.00  0.00     0.028 H 
ENDBRANCH  20  24
ENDBRANCH  17  20
ENDBRANCH   1  17
BRANCH  10  28
ATOM     28  C   LIG d   1       7.306  -3.721  -4.730  0.00  0.00     0.054 C 
ATOM     29  H   LIG d   1       7.256  -3.771  -3.642  0.00  0.00     0.052 H 
ATOM     30  H   LIG d   1       7.111  -4.708  -5.149  0.00  0.00     0.052 H 
BRANCH  28  31
ATOM     31  C   LIG d   1       8.698  -3.251  -5.155  0.00  0.00     0.062 C 
ATOM     32  H   LIG d   1       9.266  -4.099  -5.538  0.00  0.00     0.058 H 
ATOM     33  H   LIG d   1       8.604  -2.495  -5.935  0.00  0.00     0.058 H 
BRANCH  31  34
ATOM     34  O   LIG d   1       9.377  -2.693  -4.029  0.00  0.00    -0.393 OA
ATOM     35  H   LIG d   1      10.312  -2.936  -3.973  0.00  0.00     0.209 HD
ENDBRANCH  31  34
ENDBRANCH  28  31
ENDBRANCH  10  28
TORSDOF 6
ENDMDL
MODEL 7
REMARK VINA RESULT:      -5.1      2.298      4.331
REMARK  6 active torsions:
REMARK  status: ('A' for Active; 'I' for Inactive)
REMARK    1  A    between atoms: C_1  and  C_2 
REMARK    2  A    between atoms: C_2  and  C_4 
REMARK    3  A    between atoms: C_4  and  N_5 
REMARK    4  A    between atoms: N_14  and  C_17 
REMARK    5  A    between atoms: C_17  and  C_18 
REMARK    6  A    between atoms: C_18  and  O_19 
ROOT
ATOM      1  N   LIG d   1       6.364  -0.528  -4.941  0.00  0.00    -0.289 N 
ATOM      2  C   LIG d   1       5.373  -0.106  -4.067  0.00  0.00     0.059 A 
ATOM      3  C   LIG d   1       5.637   0.128  -2.726  0.00  0.00    -0.037 A 
ATOM      4  C   LIG d   1       4.621   0.545  -1.890  0.00  0.00    -0.060 A 
ATOM      5  C   LIG d   1       3.336   0.733  -2.378  0.00  0.00    -0.061 A 
ATOM      6  C   LIG d   1       3.055   0.506  -3.708  0.00  0.00    -0.047 A 
ATOM      7  C   LIG d   1       4.071   0.085  -4.562  0.00  0.00     0.063 A 
ATOM      8  C   LIG d   1       3.825  -0.173  -5.992  0.00  0.00     0.264 A 
ATOM      9  O   LIG d   1       2.717  -0.023  -6.471  0.00  0.00    -0.267 OA
ATOM     10  N   LIG d   1       4.860  -0.580  -6.757  0.00  0.00    -0.258 N 
ATOM     11  C   LIG d   1       6.087  -0.744  -6.238  0.00  0.00     0.333 A 
ATOM     12  O   LIG d   1       6.986  -1.107  -6.972  0.00  0.00    -0.246 OA
ATOM     13  H   LIG d   1       6.634  -0.018  -2.337  0.00  0.00     0.064 H 
ATOM     14  H   LIG d   1       4.828   0.726  -0.846  0.00  0.00     0.062 H 
ATOM     15  H   LIG d   1       2.552   1.061  -1.710  0.00  0.00     0.062 H 
ATOM     16  H   LIG d   1       2.054   0.654  -4.085  0.00  0.00     0.063 H 
ENDROOT
BRANCH   1  17
ATOM     17  C   LIG d   1       7.728  -0.733  -4.446  0.00  0.00     0.049 C 
ATOM     18  H   LIG d   1       8.139  -1.643  -4.881  0.00  0.00     0.054 H 
ATOM     19  H   LIG d   1       7.710  -0.825  -3.360  0.00  0.00     0.054 H 
BRANCH  17  20
ATOM     20  C   LIG d   1       8.586   0.443  -4.836  0.00  0.00    -0.060 C 
ATOM     21  C   LIG d   1       9.754   0.245  -5.396  0.00  0.00    -0.098 C 
ATOM     22  H   LIG d   1      10.102  -0.760  -5.578  0.00  0.00     0.053 H 
ATOM     23  H   LIG d   1      10.368   1.088  -5.675  0.00  0.00     0.053 H 
BRANCH  20  24
ATOM     24  C   LIG d   1       8.100   1.847  -4.582  0.00  0.00    -0.042 C 
ATOM     25  H   LIG d   1       7.175   2.017  -5.131  0.00  0.00     0.028 H 
ATOM     26  H   LIG d   1       7.920   1.982  -3.516  0.00  0.00     0.028 H 
ATOM     27  H   LIG d   1       8.857   2.558  -4.916  0.00  0.00     0.028 H 
ENDBRANCH  20  24
ENDBRANCH  17  20
ENDBRANCH   1  17
BRANCH  10  28
ATOM     28  C   LIG d   1       4.642  -0.844  -8.182  0.00  0.00     0.054 C 
ATOM     29  H   LIG d   1       3.932  -0.119  -8.580  0.00  0.00     0.052 H 
ATOM     30  H   LIG d   1       5.588  -0.757  -8.715  0.00  0.00     0.052 H 
BRANCH  28  31
ATOM     31  C   LIG d   1       4.083  -2.257  -8.360  0.00  0.00     0.062 C 
ATOM     32  H   LIG d   1       4.608  -2.755  -9.175  0.00  0.00     0.058 H 
ATOM     33  H   LIG d   1       4.223  -2.822  -7.438  0.00  0.00     0.058 H 
BRANCH  31  34
ATOM     34  O   LIG d   1       2.689  -2.182  -8.665  0.00  0.00    -0.393 OA
ATOM     35  H   LIG d   1       2.371  -2.903  -9.227  0.00  0.00     0.209 HD
ENDBRANCH  31  34
ENDBRANCH  28  31
ENDBRANCH  10  28
TORSDOF 6
ENDMDL
MODEL 8
REMARK VINA RESULT:      -5.0      2.908      5.267
REMARK  6 active torsions:
REMARK  status: ('A' for Active; 'I' for Inactive)
REMARK    1  A    between atoms: C_1  and  C_2 
REMARK    2  A    between atoms: C_2  and  C_4 
REMARK    3  A    between atoms: C_4  and  N_5 
REMARK    4  A    between atoms: N_14  and  C_17 
REMARK    5  A    between atoms: C_17  and  C_18 
REMARK    6  A    between atoms: C_18  and  O_19 
ROOT
ATOM      1  N   LIG d   1       4.893  -2.026  -5.915  0.00  0.00    -0.289 N 
ATOM      2  C   LIG d   1       4.401  -1.178  -6.896  0.00  0.00     0.059 A 
ATOM      3  C   LIG d   1       4.787  -1.299  -8.223  0.00  0.00    -0.037 A 
ATOM      4  C   LIG d   1       4.274  -0.433  -9.168  0.00  0.00    -0.060 A 
ATOM      5  C   LIG d   1       3.375   0.558  -8.805  0.00  0.00    -0.061 A 
ATOM      6  C   LIG d   1       2.979   0.693  -7.491  0.00  0.00    -0.047 A 
ATOM      7  C   LIG d   1       3.489  -0.174  -6.528  0.00  0.00     0.063 A 
ATOM      8  C   LIG d   1       3.098  -0.073  -5.110  0.00  0.00     0.264 A 
ATOM      9  O   LIG d   1       2.313   0.778  -4.738  0.00  0.00    -0.267 OA
ATOM     10  N   LIG d   1       3.637  -0.948  -4.235  0.00  0.00    -0.258 N 
ATOM     11  C   LIG d   1       4.501  -1.894  -4.636  0.00  0.00     0.333 A 
ATOM     12  O   LIG d   1       4.951  -2.661  -3.807  0.00  0.00    -0.246 OA
ATOM     13  H   LIG d   1       5.489  -2.066  -8.514  0.00  0.00     0.064 H 
ATOM     14  H   LIG d   1       4.578  -0.529 -10.200  0.00  0.00     0.062 H 
ATOM     15  H   LIG d   1       2.983   1.227  -9.557  0.00  0.00     0.062 H 
ATOM     16  H   LIG d   1       2.278   1.465  -7.212  0.00  0.00     0.063 H 
ENDROOT
BRANCH   1  17
ATOM     17  C   LIG d   1       5.844  -3.079  -6.277  0.00  0.00     0.049 C 
ATOM     18  H   LIG d   1       6.645  -3.115  -5.539  0.00  0.00     0.054 H 
ATOM     19  H   LIG d   1       6.265  -2.867  -7.260  0.00  0.00     0.054 H 
BRANCH  17  20
ATOM     20  C   LIG d   1       5.133  -4.408  -6.312  0.00  0.00    -0.060 C 
ATOM     21  C   LIG d   1       5.609  -5.423  -5.635  0.00  0.00    -0.098 C 
ATOM     22  H   LIG d   1       6.510  -5.309  -5.052  0.00  0.00     0.053 H 
ATOM     23  H   LIG d   1       5.099  -6.375  -5.660  0.00  0.00     0.053 H 
BRANCH  20  24
ATOM     24  C   LIG d   1       3.875  -4.568  -7.125  0.00  0.00    -0.042 C 
ATOM     25  H   LIG d   1       3.008  -4.362  -6.498  0.00  0.00     0.028 H 
ATOM     26  H   LIG d   1       3.892  -3.870  -7.962  0.00  0.00     0.028 H 
ATOM     27  H   LIG d   1       3.815  -5.589  -7.504  0.00  0.00     0.028 H 
ENDBRANCH  20  24
ENDBRANCH  17  20
ENDBRANCH   1  17
BRANCH  10  28
ATOM     28  C   LIG d   1       3.266  -0.869  -2.819  0.00  0.00     0.054 C 
ATOM     29  H   LIG d   1       2.229  -0.544  -2.733  0.00  0.00     0.052 H 
ATOM     30  H   LIG d   1       3.379  -1.851  -2.359  0.00  0.00     0.052 H 
BRANCH  28  31
ATOM     31  C   LIG d   1       4.175   0.135  -2.109  0.00  0.00     0.062 C 
ATOM     32  H   LIG d   1       4.433  -0.245  -1.120  0.00  0.00     0.058 H 
ATOM     33  H   LIG d   1       5.085   0.277  -2.692  0.00  0.00     0.058 H 
BRANCH  31  34
ATOM     34  O   LIG d   1       3.494   1.384  -1.977  0.00  0.00    -0.393 OA
ATOM     35  H   LIG d   1       3.671   2.006  -2.696  0.00  0.00     0.209 HD
ENDBRANCH  31  34
ENDBRANCH  28  31
ENDBRANCH  10  28
TORSDOF 6
ENDMDL
MODEL 9
REMARK VINA RESULT:      -4.8      2.250      4.237
REMARK  6 active torsions:
REMARK  status: ('A' for Active; 'I' for Inactive)
REMARK    1  A    between atoms: C_1  and  C_2 
REMARK    2  A    between atoms: C_2  and  C_4 
REMARK    3  A    between atoms: C_4  and  N_5 
REMARK    4  A    between atoms: N_14  and  C_17 
REMARK    5  A    between atoms: C_17  and  C_18 
REMARK    6  A    between atoms: C_18  and  O_19 
ROOT
ATOM      1  N   LIG d   1       5.791  -0.832  -3.366  0.00  0.00    -0.289 N 
ATOM      2  C   LIG d   1       5.813  -1.969  -4.161  0.00  0.00     0.059 A 
ATOM      3  C   LIG d   1       4.851  -2.960  -4.038  0.00  0.00    -0.037 A 
ATOM      4  C   LIG d   1       4.910  -4.076  -4.848  0.00  0.00    -0.060 A 
ATOM      5  C   LIG d   1       5.922  -4.218  -5.785  0.00  0.00    -0.061 A 
ATOM      6  C   LIG d   1       6.887  -3.242  -5.921  0.00  0.00    -0.047 A 
ATOM      7  C   LIG d   1       6.839  -2.111  -5.110  0.00  0.00     0.063 A 
ATOM      8  C   LIG d   1       7.845  -1.039  -5.215  0.00  0.00     0.264 A 
ATOM      9  O   LIG d   1       8.754  -1.112  -6.020  0.00  0.00    -0.267 OA
ATOM     10  N   LIG d   1       7.733   0.026  -4.393  0.00  0.00    -0.258 N 
ATOM     11  C   LIG d   1       6.731   0.119  -3.505  0.00  0.00     0.333 A 
ATOM     12  O   LIG d   1       6.673   1.103  -2.794  0.00  0.00    -0.246 OA
ATOM     13  H   LIG d   1       4.059  -2.860  -3.310  0.00  0.00     0.064 H 
ATOM     14  H   LIG d   1       4.160  -4.848  -4.750  0.00  0.00     0.062 H 
ATOM     15  H   LIG d   1       5.955  -5.098  -6.411  0.00  0.00     0.062 H 
ATOM     16  H   LIG d   1       7.675  -3.355  -6.652  0.00  0.00     0.063 H 
ENDROOT
BRANCH   1  17
ATOM     17  C   LIG d   1       4.730  -0.663  -2.370  0.00  0.00     0.049 C 
ATOM     18  H   LIG d   1       5.153  -0.250  -1.455  0.00  0.00     0.054 H 
ATOM     19  H   LIG d   1       4.275  -1.631  -2.156  0.00  0.00     0.054 H 
BRANCH  17  20
ATOM     20  C   LIG d   1       3.681   0.275  -2.908  0.00  0.00    -0.060 C 
ATOM     21  C   LIG d   1       3.565   1.482  -2.412  0.00  0.00    -0.098 C 
ATOM     22  H   LIG d   1       4.221   1.805  -1.618  0.00  0.00     0.053 H 
ATOM     23  H   LIG d   1       2.813   2.155  -2.798  0.00  0.00     0.053 H 
BRANCH  20  24
ATOM     24  C   LIG d   1       2.765  -0.174  -4.017  0.00  0.00    -0.042 C 
ATOM     25  H   LIG d   1       3.330  -0.760  -4.741  0.00  0.00     0.028 H 
ATOM     26  H   LIG d   1       1.963  -0.785  -3.601  0.00  0.00     0.028 H 
ATOM     27  H   LIG d   1       2.337   0.699  -4.511  0.00  0.00     0.028 H 
ENDBRANCH  20  24
ENDBRANCH  17  20
ENDBRANCH   1  17
BRANCH  10  28
ATOM     28  C   LIG d   1       8.721   1.106  -4.477  0.00  0.00     0.054 C 
ATOM     29  H   LIG d   1       8.825   1.579  -3.500  0.00  0.00     0.052 H 
ATOM     30  H   LIG d   1       9.681   0.695  -4.786  0.00  0.00     0.052 H 
BRANCH  28  31
ATOM     31  C   LIG d   1       8.255   2.145  -5.499  0.00  0.00     0.062 C 
ATOM     32  H   LIG d   1       7.166   2.170  -5.521  0.00  0.00     0.058 H 
ATOM     33  H   LIG d   1       8.636   3.127  -5.218  0.00  0.00     0.058 H 
BRANCH  31  34
ATOM     34  O   LIG d   1       8.750   1.794  -6.793  0.00  0.00    -0.393 OA
ATOM     35  H   LIG d   1       8.175   2.067  -7.521  0.00  0.00     0.209 HD
ENDBRANCH  31  34
ENDBRANCH  28  31
ENDBRANCH  10  28
TORSDOF 6
ENDMDL
MODEL 10
REMARK VINA RESULT:      -4.8      1.941      4.341
REMARK  6 active torsions:
REMARK  status: ('A' for Active; 'I' for Inactive)
REMARK    1  A    between atoms: C_1  and  C_2 
REMARK    2  A    between atoms: C_2  and  C_4 
REMARK    3  A    between atoms: C_4  and  N_5 
REMARK    4  A    between atoms: N_14  and  C_17 
REMARK    5  A    between atoms: C_17  and  C_18 
REMARK    6  A    between atoms: C_18  and  O_19 
ROOT
ATOM      1  N   LIG d   1       6.803  -1.687  -4.671  0.00  0.00    -0.289 N 
ATOM      2  C   LIG d   1       7.529  -0.505  -4.655  0.00  0.00     0.059 A 
ATOM      3  C   LIG d   1       8.653  -0.330  -5.448  0.00  0.00    -0.037 A 
ATOM      4  C   LIG d   1       9.347   0.863  -5.400  0.00  0.00    -0.060 A 
ATOM      5  C   LIG d   1       8.932   1.889  -4.566  0.00  0.00    -0.061 A 
ATOM      6  C   LIG d   1       7.816   1.734  -3.770  0.00  0.00    -0.047 A 
ATOM      7  C   LIG d   1       7.108   0.536  -3.809  0.00  0.00     0.063 A 
ATOM      8  C   LIG d   1       5.909   0.318  -2.979  0.00  0.00     0.264 A 
ATOM      9  O   LIG d   1       5.502   1.185  -2.230  0.00  0.00    -0.267 OA
ATOM     10  N   LIG d   1       5.275  -0.871  -3.070  0.00  0.00    -0.258 N 
ATOM     11  C   LIG d   1       5.714  -1.833  -3.897  0.00  0.00     0.333 A 
ATOM     12  O   LIG d   1       5.103  -2.883  -3.946  0.00  0.00    -0.246 OA
ATOM     13  H   LIG d   1       8.984  -1.124  -6.100  0.00  0.00     0.064 H 
ATOM     14  H   LIG d   1      10.222   0.996  -6.018  0.00  0.00     0.062 H 
ATOM     15  H   LIG d   1       9.486   2.817  -4.540  0.00  0.00     0.062 H 
ATOM     16  H   LIG d   1       7.495   2.535  -3.121  0.00  0.00     0.063 H 
ENDROOT
BRANCH   1  17
ATOM     17  C   LIG d   1       7.225  -2.784  -5.546  0.00  0.00     0.049 C 
ATOM     18  H   LIG d   1       7.935  -2.410  -6.282  0.00  0.00     0.054 H 
ATOM     19  H   LIG d   1       6.355  -3.197  -6.057  0.00  0.00     0.054 H 
BRANCH  17  20
ATOM     20  C   LIG d   1       7.879  -3.862  -4.719  0.00  0.00    -0.060 C 
ATOM     21  C   LIG d   1       7.678  -5.123  -5.011  0.00  0.00    -0.098 C 
ATOM     22  H   LIG d   1       7.045  -5.391  -5.843  0.00  0.00     0.053 H 
ATOM     23  H   LIG d   1       8.147  -5.896  -4.419  0.00  0.00     0.053 H 
BRANCH  20  24
ATOM     24  C   LIG d   1       8.763  -3.489  -3.558  0.00  0.00    -0.042 C 
ATOM     25  H   LIG d   1       9.767  -3.879  -3.725  0.00  0.00     0.028 H 
ATOM     26  H   LIG d   1       8.805  -2.404  -3.467  0.00  0.00     0.028 H 
ATOM     27  H   LIG d   1       8.356  -3.915  -2.640  0.00  0.00     0.028 H 
ENDBRANCH  20  24
ENDBRANCH  17  20
ENDBRANCH   1  17
BRANCH  10  28
ATOM     28  C   LIG d   1       4.081  -1.115  -2.256  0.00  0.00     0.054 C 
ATOM     29  H   LIG d   1       4.084  -2.148  -1.907  0.00  0.00     0.052 H 
ATOM     30  H   LIG d   1       4.085  -0.442  -1.399  0.00  0.00     0.052 H 
BRANCH  28  31
ATOM     31  C   LIG d   1       2.829  -0.864  -3.098  0.00  0.00     0.062 C 
ATOM     32  H   LIG d   1       2.809  -1.563  -3.934  0.00  0.00     0.058 H 
ATOM     33  H   LIG d   1       1.942  -1.008  -2.482  0.00  0.00     0.058 H 
BRANCH  31  34
ATOM     34  O   LIG d   1       2.851   0.474  -3.597  0.00  0.00    -0.393 OA
ATOM     35  H   LIG d   1       2.405   0.584  -4.448  0.00  0.00     0.209 HD
ENDBRANCH  31  34
ENDBRANCH  28  31
ENDBRANCH  10  28
TORSDOF 6
ENDMDL
