MODEL 1
REMARK VINA RESULT:      -5.9      0.000      0.000
REMARK  4 active torsions:
REMARK  status: ('A' for Active; 'I' for Inactive)
REMARK    1  A    between atoms: C_3  and  C_12 
REMARK    2  A    between atoms: C_6  and  C_7 
REMARK    3  A    between atoms: C_7  and  C_9 
REMARK    4  A    between atoms: C_7  and  O_11 
ROOT
ATOM      1  C   LIG d   1       5.905  -1.681  -4.506  0.00  0.00    -0.055 A 
ATOM      2  C   LIG d   1       5.663  -0.489  -3.850  0.00  0.00    -0.050 A 
ATOM      3  C   LIG d   1       4.670  -0.417  -2.891  0.00  0.00     0.055 A 
ATOM      4  C   LIG d   1       3.915  -1.536  -2.592  0.00  0.00    -0.050 A 
ATOM      5  C   LIG d   1       4.153  -2.726  -3.253  0.00  0.00    -0.055 A 
ATOM      6  C   LIG d   1       5.146  -2.799  -4.212  0.00  0.00    -0.014 A 
ATOM      7  H   LIG d   1       6.684  -1.739  -5.253  0.00  0.00     0.062 H 
ATOM      8  H   LIG d   1       6.254   0.385  -4.083  0.00  0.00     0.062 H 
ATOM      9  H   LIG d   1       3.140  -1.479  -1.843  0.00  0.00     0.062 H 
ATOM     10  H   LIG d   1       3.563  -3.600  -3.020  0.00  0.00     0.062 H 
ENDROOT
BRANCH   6  11
ATOM     11  C   LIG d   1       5.405  -4.097  -4.932  0.00  0.00     0.119 C 
ATOM     12  H   LIG d   1       5.341  -4.923  -4.224  0.00  0.00     0.071 H 
BRANCH  11  13
ATOM     13  C   LIG d   1       4.377  -4.283  -6.018  0.00  0.00     0.075 C 
ATOM     14  O   LIG d   1       4.350  -3.528  -6.960  0.00  0.00    -0.547 OA
ATOM     15  O   LIG d   1       3.492  -5.289  -5.938  0.00  0.00    -0.547 OA
ENDBRANCH  11  13
BRANCH  11  16
ATOM     16  O   LIG d   1       6.711  -4.067  -5.512  0.00  0.00    -0.381 OA
ATOM     17  H   LIG d   1       6.802  -4.615  -6.304  0.00  0.00     0.211 HD
ENDBRANCH  11  16
ENDBRANCH   6  11
BRANCH   3  18
ATOM     18  C   LIG d   1       4.411   0.881  -2.171  0.00  0.00     0.417 C 
ATOM     19  F   LIG d   1       4.844   0.774  -0.845  0.00  0.00    -0.166 F 
ATOM     20  F   LIG d   1       5.107   1.915  -2.807  0.00  0.00    -0.166 F 
ATOM     21  F   LIG d   1       3.040   1.160  -2.192  0.00  0.00    -0.166 F 
ENDBRANCH   3  18
TORSDOF 4
ENDMDL
MODEL 2
REMARK VINA RESULT:      -5.9      3.577      4.333
REMARK  4 active torsions:
REMARK  status: ('A' for Active; 'I' for Inactive)
REMARK    1  A    between atoms: C_3  and  C_12 
REMARK    2  A    between atoms: C_6  and  C_7 
REMARK    3  A    between atoms: C_7  and  C_9 
REMARK    4  A    between atoms: C_7  and  O_11 
ROOT
ATOM      1  C   LIG d   1       4.218  -1.138  -6.146  0.00  0.00    -0.055 A 
ATOM      2  C   LIG d   1       4.593  -1.518  -4.872  0.00  0.00    -0.050 A 
ATOM      3  C   LIG d   1       3.924  -1.012  -3.774  0.00  0.00     0.055 A 
ATOM      4  C   LIG d   1       2.882  -0.120  -3.949  0.00  0.00    -0.050 A 
ATOM      5  C   LIG d   1       2.510   0.264  -5.224  0.00  0.00    -0.055 A 
ATOM      6  C   LIG d   1       3.180  -0.241  -6.322  0.00  0.00    -0.014 A 
ATOM      7  H   LIG d   1       4.738  -1.536  -7.005  0.00  0.00     0.062 H 
ATOM      8  H   LIG d   1       5.407  -2.215  -4.734  0.00  0.00     0.062 H 
ATOM      9  H   LIG d   1       2.359   0.275  -3.091  0.00  0.00     0.062 H 
ATOM     10  H   LIG d   1       1.697   0.961  -5.361  0.00  0.00     0.062 H 
ENDROOT
BRANCH   6  11
ATOM     11  C   LIG d   1       2.774   0.178  -7.712  0.00  0.00     0.119 C 
ATOM     12  H   LIG d   1       1.691   0.298  -7.753  0.00  0.00     0.071 H 
BRANCH  11  13
ATOM     13  C   LIG d   1       3.438   1.487  -8.055  0.00  0.00     0.075 C 
ATOM     14  O   LIG d   1       2.804   2.514  -8.020  0.00  0.00    -0.547 OA
ATOM     15  O   LIG d   1       4.736   1.510  -8.399  0.00  0.00    -0.547 OA
ENDBRANCH  11  13
BRANCH  11  16
ATOM     16  O   LIG d   1       3.179  -0.822  -8.649  0.00  0.00    -0.381 OA
ATOM     17  H   LIG d   1       3.726  -1.521  -8.265  0.00  0.00     0.211 HD
ENDBRANCH  11  16
ENDBRANCH   6  11
BRANCH   3  18
ATOM     18  C   LIG d   1       4.329  -1.432  -2.384  0.00  0.00     0.417 C 
ATOM     19  F   LIG d   1       3.542  -2.513  -1.975  0.00  0.00    -0.166 F 
ATOM     20  F   LIG d   1       5.676  -1.810  -2.386  0.00  0.00    -0.166 F 
ATOM     21  F   LIG d   1       4.147  -0.362  -1.502  0.00  0.00    -0.166 F 
ENDBRANCH   3  18
TORSDOF 4
ENDMDL
MODEL 3
REMARK VINA RESULT:      -5.9      3.583      4.413
REMARK  4 active torsions:
REMARK  status: ('A' for Active; 'I' for Inactive)
REMARK    1  A    between atoms: C_3  and  C_12 
REMARK    2  A    between atoms: C_6  and  C_7 
REMARK    3  A    between atoms: C_7  and  C_9 
REMARK    4  A    between atoms: C_7  and  O_11 
ROOT
ATOM      1  C   LIG d   1       2.493   0.242  -5.242  0.00  0.00    -0.055 A 
ATOM      2  C   LIG d   1       2.856  -0.147  -3.967  0.00  0.00    -0.050 A 
ATOM      3  C   LIG d   1       3.910  -1.021  -3.784  0.00  0.00     0.055 A 
ATOM      4  C   LIG d   1       4.600  -1.512  -4.877  0.00  0.00    -0.050 A 
ATOM      5  C   LIG d   1       4.233  -1.127  -6.153  0.00  0.00    -0.055 A 
ATOM      6  C   LIG d   1       3.178  -0.254  -6.337  0.00  0.00    -0.014 A 
ATOM      7  H   LIG d   1       1.671   0.928  -5.385  0.00  0.00     0.062 H 
ATOM      8  H   LIG d   1       2.317   0.236  -3.111  0.00  0.00     0.062 H 
ATOM      9  H   LIG d   1       5.424  -2.194  -4.734  0.00  0.00     0.062 H 
ATOM     10  H   LIG d   1       4.771  -1.511  -7.008  0.00  0.00     0.062 H 
ENDROOT
BRANCH   6  11
ATOM     11  C   LIG d   1       2.779   0.166  -7.728  0.00  0.00     0.119 C 
ATOM     12  H   LIG d   1       1.695   0.267  -7.779  0.00  0.00     0.071 H 
BRANCH  11  13
ATOM     13  C   LIG d   1       3.424   1.487  -8.059  0.00  0.00     0.075 C 
ATOM     14  O   LIG d   1       2.780   2.507  -7.995  0.00  0.00    -0.547 OA
ATOM     15  O   LIG d   1       4.715   1.529  -8.424  0.00  0.00    -0.547 OA
ENDBRANCH  11  13
BRANCH  11  16
ATOM     16  O   LIG d   1       3.210  -0.823  -8.666  0.00  0.00    -0.381 OA
ATOM     17  H   LIG d   1       2.888  -1.715  -8.472  0.00  0.00     0.211 HD
ENDBRANCH  11  16
ENDBRANCH   6  11
BRANCH   3  18
ATOM     18  C   LIG d   1       4.309  -1.441  -2.392  0.00  0.00     0.417 C 
ATOM     19  F   LIG d   1       5.655  -1.823  -2.389  0.00  0.00    -0.166 F 
ATOM     20  F   LIG d   1       4.127  -0.369  -1.512  0.00  0.00    -0.166 F 
ATOM     21  F   LIG d   1       3.517  -2.519  -1.985  0.00  0.00    -0.166 F 
ENDBRANCH   3  18
TORSDOF 4
ENDMDL
MODEL 4
REMARK VINA RESULT:      -5.5      3.287      3.905
REMARK  4 active torsions:
REMARK  status: ('A' for Active; 'I' for Inactive)
REMARK    1  A    between atoms: C_3  and  C_12 
REMARK    2  A    between atoms: C_6  and  C_7 
REMARK    3  A    between atoms: C_7  and  C_9 
REMARK    4  A    between atoms: C_7  and  O_11 
ROOT
ATOM      1  C   LIG d   1       4.852  -0.799  -6.061  0.00  0.00    -0.055 A 
ATOM      2  C   LIG d   1       5.026  -1.231  -4.760  0.00  0.00    -0.050 A 
ATOM      3  C   LIG d   1       4.076  -0.938  -3.800  0.00  0.00     0.055 A 
ATOM      4  C   LIG d   1       2.953  -0.206  -4.140  0.00  0.00    -0.050 A 
ATOM      5  C   LIG d   1       2.781   0.231  -5.440  0.00  0.00    -0.055 A 
ATOM      6  C   LIG d   1       3.732  -0.062  -6.400  0.00  0.00    -0.014 A 
ATOM      7  H   LIG d   1       5.592  -1.032  -6.812  0.00  0.00     0.062 H 
ATOM      8  H   LIG d   1       5.903  -1.803  -4.494  0.00  0.00     0.062 H 
ATOM      9  H   LIG d   1       2.211   0.022  -3.391  0.00  0.00     0.062 H 
ATOM     10  H   LIG d   1       1.904   0.802  -5.706  0.00  0.00     0.062 H 
ENDROOT
BRANCH   6  11
ATOM     11  C   LIG d   1       3.545   0.415  -7.817  0.00  0.00     0.119 C 
ATOM     12  H   LIG d   1       4.515   0.483  -8.308  0.00  0.00     0.071 H 
BRANCH  11  13
ATOM     13  C   LIG d   1       2.670  -0.559  -8.563  0.00  0.00     0.075 C 
ATOM     14  O   LIG d   1       1.666  -0.172  -9.113  0.00  0.00    -0.547 OA
ATOM     15  O   LIG d   1       3.007  -1.858  -8.617  0.00  0.00    -0.547 OA
ENDBRANCH  11  13
BRANCH  11  16
ATOM     16  O   LIG d   1       2.924   1.703  -7.809  0.00  0.00    -0.381 OA
ATOM     17  H   LIG d   1       2.370   1.866  -7.033  0.00  0.00     0.211 HD
ENDBRANCH  11  16
ENDBRANCH   6  11
BRANCH   3  18
ATOM     18  C   LIG d   1       4.263  -1.415  -2.383  0.00  0.00     0.417 C 
ATOM     19  F   LIG d   1       5.563  -1.908  -2.225  0.00  0.00    -0.166 F 
ATOM     20  F   LIG d   1       4.059  -0.348  -1.501  0.00  0.00    -0.166 F 
ATOM     21  F   LIG d   1       3.342  -2.431  -2.107  0.00  0.00    -0.166 F 
ENDBRANCH   3  18
TORSDOF 4
ENDMDL
MODEL 5
REMARK VINA RESULT:      -5.4      4.672      5.704
REMARK  4 active torsions:
REMARK  status: ('A' for Active; 'I' for Inactive)
REMARK    1  A    between atoms: C_3  and  C_12 
REMARK    2  A    between atoms: C_6  and  C_7 
REMARK    3  A    between atoms: C_7  and  C_9 
REMARK    4  A    between atoms: C_7  and  O_11 
ROOT
ATOM      1  C   LIG d   1       3.023   0.274  -4.605  0.00  0.00    -0.055 A 
ATOM      2  C   LIG d   1       2.550   0.482  -5.887  0.00  0.00    -0.050 A 
ATOM      3  C   LIG d   1       3.316   0.112  -6.976  0.00  0.00     0.055 A 
ATOM      4  C   LIG d   1       4.559  -0.462  -6.784  0.00  0.00    -0.050 A 
ATOM      5  C   LIG d   1       5.035  -0.665  -5.503  0.00  0.00    -0.055 A 
ATOM      6  C   LIG d   1       4.270  -0.294  -4.413  0.00  0.00    -0.014 A 
ATOM      7  H   LIG d   1       2.423   0.559  -3.754  0.00  0.00     0.062 H 
ATOM      8  H   LIG d   1       1.578   0.930  -6.037  0.00  0.00     0.062 H 
ATOM      9  H   LIG d   1       5.157  -0.751  -7.635  0.00  0.00     0.062 H 
ATOM     10  H   LIG d   1       6.006  -1.113  -5.353  0.00  0.00     0.062 H 
ENDROOT
BRANCH   6  11
ATOM     11  C   LIG d   1       4.789  -0.516  -3.016  0.00  0.00     0.119 C 
ATOM     12  H   LIG d   1       5.660  -1.170  -3.052  0.00  0.00     0.071 H 
BRANCH  11  13
ATOM     13  C   LIG d   1       5.177   0.807  -2.408  0.00  0.00     0.075 C 
ATOM     14  O   LIG d   1       4.740   1.128  -1.328  0.00  0.00    -0.547 OA
ATOM     15  O   LIG d   1       6.008   1.629  -3.068  0.00  0.00    -0.547 OA
ENDBRANCH  11  13
BRANCH  11  16
ATOM     16  O   LIG d   1       3.770  -1.126  -2.220  0.00  0.00    -0.381 OA
ATOM     17  H   LIG d   1       4.093  -1.499  -1.388  0.00  0.00     0.211 HD
ENDBRANCH  11  16
ENDBRANCH   6  11
BRANCH   3  18
ATOM     18  C   LIG d   1       2.797   0.334  -8.373  0.00  0.00     0.417 C 
ATOM     19  F   LIG d   1       1.720  -0.527  -8.613  0.00  0.00    -0.166 F 
ATOM     20  F   LIG d   1       2.372   1.660  -8.508  0.00  0.00    -0.166 F 
ATOM     21  F   LIG d   1       3.815   0.074  -9.296  0.00  0.00    -0.166 F 
ENDBRANCH   3  18
TORSDOF 4
ENDMDL
MODEL 6
REMARK VINA RESULT:      -5.2      2.281      3.203
REMARK  4 active torsions:
REMARK  status: ('A' for Active; 'I' for Inactive)
REMARK    1  A    between atoms: C_3  and  C_12 
REMARK    2  A    between atoms: C_6  and  C_7 
REMARK    3  A    between atoms: C_7  and  C_9 
REMARK    4  A    between atoms: C_7  and  O_11 
ROOT
ATOM      1  C   LIG d   1       5.388  -2.711  -3.987  0.00  0.00    -0.055 A 
ATOM      2  C   LIG d   1       4.268  -1.943  -3.731  0.00  0.00    -0.050 A 
ATOM      3  C   LIG d   1       4.408  -0.649  -3.266  0.00  0.00     0.055 A 
ATOM      4  C   LIG d   1       5.670  -0.124  -3.052  0.00  0.00    -0.050 A 
ATOM      5  C   LIG d   1       6.790  -0.894  -3.302  0.00  0.00    -0.055 A 
ATOM      6  C   LIG d   1       6.650  -2.189  -3.766  0.00  0.00    -0.014 A 
ATOM      7  H   LIG d   1       5.279  -3.721  -4.354  0.00  0.00     0.062 H 
ATOM      8  H   LIG d   1       3.283  -2.353  -3.899  0.00  0.00     0.062 H 
ATOM      9  H   LIG d   1       5.779   0.887  -2.689  0.00  0.00     0.062 H 
ATOM     10  H   LIG d   1       7.774  -0.485  -3.134  0.00  0.00     0.062 H 
ENDROOT
BRANCH   6  11
ATOM     11  C   LIG d   1       7.871  -3.028  -4.039  0.00  0.00     0.119 C 
ATOM     12  H   LIG d   1       7.564  -4.040  -4.302  0.00  0.00     0.071 H 
BRANCH  11  13
ATOM     13  C   LIG d   1       8.650  -2.425  -5.180  0.00  0.00     0.075 C 
ATOM     14  O   LIG d   1       8.152  -2.348  -6.278  0.00  0.00    -0.547 OA
ATOM     15  O   LIG d   1       9.897  -1.973  -4.975  0.00  0.00    -0.547 OA
ENDBRANCH  11  13
BRANCH  11  16
ATOM     16  O   LIG d   1       8.693  -3.069  -2.870  0.00  0.00    -0.381 OA
ATOM     17  H   LIG d   1       9.565  -3.460  -3.017  0.00  0.00     0.211 HD
ENDBRANCH  11  16
ENDBRANCH   6  11
BRANCH   3  18
ATOM     18  C   LIG d   1       3.187   0.190  -2.993  0.00  0.00     0.417 C 
ATOM     19  F   LIG d   1       3.449   1.064  -1.932  0.00  0.00    -0.166 F 
ATOM     20  F   LIG d   1       2.864   0.930  -4.137  0.00  0.00    -0.166 F 
ATOM     21  F   LIG d   1       2.114  -0.642  -2.657  0.00  0.00    -0.166 F 
ENDBRANCH   3  18
TORSDOF 4
ENDMDL
MODEL 7
REMARK VINA RESULT:      -5.1      3.338      4.349
REMARK  4 active torsions:
REMARK  status: ('A' for Active; 'I' for Inactive)
REMARK    1  A    between atoms: C_3  and  C_12 
REMARK    2  A    between atoms: C_6  and  C_7 
REMARK    3  A    between atoms: C_7  and  C_9 
REMARK    4  A    between atoms: C_7  and  O_11 
ROOT
ATOM      1  C   LIG d   1       6.230  -0.812  -5.031  0.00  0.00    -0.055 A 
ATOM      2  C   LIG d   1       5.322  -0.845  -3.989  0.00  0.00    -0.050 A 
ATOM      3  C   LIG d   1       5.341   0.143  -3.024  0.00  0.00     0.055 A 
ATOM      4  C   LIG d   1       6.271   1.164  -3.097  0.00  0.00    -0.050 A 
ATOM      5  C   LIG d   1       7.182   1.194  -4.136  0.00  0.00    -0.055 A 
ATOM      6  C   LIG d   1       7.164   0.205  -5.101  0.00  0.00    -0.014 A 
ATOM      7  H   LIG d   1       6.213  -1.583  -5.788  0.00  0.00     0.062 H 
ATOM      8  H   LIG d   1       4.595  -1.643  -3.931  0.00  0.00     0.062 H 
ATOM      9  H   LIG d   1       6.285   1.936  -2.343  0.00  0.00     0.062 H 
ATOM     10  H   LIG d   1       7.909   1.991  -4.193  0.00  0.00     0.062 H 
ENDROOT
BRANCH   6  11
ATOM     11  C   LIG d   1       8.157   0.238  -6.234  0.00  0.00     0.119 C 
ATOM     12  H   LIG d   1       8.079  -0.683  -6.812  0.00  0.00     0.071 H 
BRANCH  11  13
ATOM     13  C   LIG d   1       7.864   1.419  -7.124  0.00  0.00     0.075 C 
ATOM     14  O   LIG d   1       8.709   2.263  -7.305  0.00  0.00    -0.547 OA
ATOM     15  O   LIG d   1       6.665   1.530  -7.716  0.00  0.00    -0.547 OA
ENDBRANCH  11  13
BRANCH  11  16
ATOM     16  O   LIG d   1       9.480   0.357  -5.705  0.00  0.00    -0.381 OA
ATOM     17  H   LIG d   1      10.030  -0.427  -5.844  0.00  0.00     0.211 HD
ENDBRANCH  11  16
ENDBRANCH   6  11
BRANCH   3  18
ATOM     18  C   LIG d   1       4.348   0.110  -1.891  0.00  0.00     0.417 C 
ATOM     19  F   LIG d   1       4.667   1.106  -0.961  0.00  0.00    -0.166 F 
ATOM     20  F   LIG d   1       3.061   0.336  -2.392  0.00  0.00    -0.166 F 
ATOM     21  F   LIG d   1       4.393  -1.141  -1.267  0.00  0.00    -0.166 F 
ENDBRANCH   3  18
TORSDOF 4
ENDMDL
MODEL 8
REMARK VINA RESULT:      -4.9      2.925      3.956
REMARK  4 active torsions:
REMARK  status: ('A' for Active; 'I' for Inactive)
REMARK    1  A    between atoms: C_3  and  C_12 
REMARK    2  A    between atoms: C_6  and  C_7 
REMARK    3  A    between atoms: C_7  and  C_9 
REMARK    4  A    between atoms: C_7  and  O_11 
ROOT
ATOM      1  C   LIG d   1       7.093  -1.411  -4.154  0.00  0.00    -0.055 A 
ATOM      2  C   LIG d   1       6.017  -1.300  -3.294  0.00  0.00    -0.050 A 
ATOM      3  C   LIG d   1       5.622  -0.058  -2.836  0.00  0.00     0.055 A 
ATOM      4  C   LIG d   1       6.307   1.075  -3.234  0.00  0.00    -0.050 A 
ATOM      5  C   LIG d   1       7.386   0.965  -4.090  0.00  0.00    -0.055 A 
ATOM      6  C   LIG d   1       7.782  -0.278  -4.548  0.00  0.00    -0.014 A 
ATOM      7  H   LIG d   1       7.399  -2.381  -4.516  0.00  0.00     0.062 H 
ATOM      8  H   LIG d   1       5.482  -2.186  -2.983  0.00  0.00     0.062 H 
ATOM      9  H   LIG d   1       5.998   2.046  -2.876  0.00  0.00     0.062 H 
ATOM     10  H   LIG d   1       7.921   1.850  -4.401  0.00  0.00     0.062 H 
ENDROOT
BRANCH   6  11
ATOM     11  C   LIG d   1       8.958  -0.398  -5.481  0.00  0.00     0.119 C 
ATOM     12  H   LIG d   1       9.687  -1.090  -5.059  0.00  0.00     0.071 H 
BRANCH  11  13
ATOM     13  C   LIG d   1       8.489  -0.915  -6.817  0.00  0.00     0.075 C 
ATOM     14  O   LIG d   1       8.914  -1.962  -7.243  0.00  0.00    -0.547 OA
ATOM     15  O   LIG d   1       7.598  -0.210  -7.533  0.00  0.00    -0.547 OA
ENDBRANCH  11  13
BRANCH  11  16
ATOM     16  O   LIG d   1       9.564   0.885  -5.653  0.00  0.00    -0.381 OA
ATOM     17  H   LIG d   1       9.190   1.575  -5.087  0.00  0.00     0.211 HD
ENDBRANCH  11  16
ENDBRANCH   6  11
BRANCH   3  18
ATOM     18  C   LIG d   1       4.445   0.062  -1.902  0.00  0.00     0.417 C 
ATOM     19  F   LIG d   1       3.284   0.302  -2.644  0.00  0.00    -0.166 F 
ATOM     20  F   LIG d   1       4.300  -1.127  -1.180  0.00  0.00    -0.166 F 
ATOM     21  F   LIG d   1       4.659   1.123  -1.016  0.00  0.00    -0.166 F 
ENDBRANCH   3  18
TORSDOF 4
ENDMDL
MODEL 9
REMARK VINA RESULT:      -4.8      2.941      3.955
REMARK  4 active torsions:
REMARK  status: ('A' for Active; 'I' for Inactive)
REMARK    1  A    between atoms: C_3  and  C_12 
REMARK    2  A    between atoms: C_6  and  C_7 
REMARK    3  A    between atoms: C_7  and  C_9 
REMARK    4  A    between atoms: C_7  and  O_11 
ROOT
ATOM      1  C   LIG d   1       4.850  -0.607  -5.870  0.00  0.00    -0.055 A 
ATOM      2  C   LIG d   1       4.054  -0.799  -4.757  0.00  0.00    -0.050 A 
ATOM      3  C   LIG d   1       4.593  -1.347  -3.608  0.00  0.00     0.055 A 
ATOM      4  C   LIG d   1       5.927  -1.708  -3.574  0.00  0.00    -0.050 A 
ATOM      5  C   LIG d   1       6.722  -1.520  -4.689  0.00  0.00    -0.055 A 
ATOM      6  C   LIG d   1       6.183  -0.973  -5.839  0.00  0.00    -0.014 A 
ATOM      7  H   LIG d   1       4.430  -0.175  -6.767  0.00  0.00     0.062 H 
ATOM      8  H   LIG d   1       3.011  -0.517  -4.783  0.00  0.00     0.062 H 
ATOM      9  H   LIG d   1       6.348  -2.135  -2.677  0.00  0.00     0.062 H 
ATOM     10  H   LIG d   1       7.764  -1.802  -4.663  0.00  0.00     0.062 H 
ENDROOT
BRANCH   6  11
ATOM     11  C   LIG d   1       7.049  -0.768  -7.055  0.00  0.00     0.119 C 
ATOM     12  H   LIG d   1       6.419  -0.541  -7.915  0.00  0.00     0.071 H 
BRANCH  11  13
ATOM     13  C   LIG d   1       7.998   0.376  -6.808  0.00  0.00     0.075 C 
ATOM     14  O   LIG d   1       9.191   0.185  -6.816  0.00  0.00    -0.547 OA
ATOM     15  O   LIG d   1       7.517   1.609  -6.581  0.00  0.00    -0.547 OA
ENDBRANCH  11  13
BRANCH  11  16
ATOM     16  O   LIG d   1       7.796  -1.959  -7.314  0.00  0.00    -0.381 OA
ATOM     17  H   LIG d   1       7.411  -2.523  -8.000  0.00  0.00     0.211 HD
ENDBRANCH  11  16
ENDBRANCH   6  11
BRANCH   3  18
ATOM     18  C   LIG d   1       3.726  -1.552  -2.392  0.00  0.00     0.417 C 
ATOM     19  F   LIG d   1       3.617  -2.920  -2.123  0.00  0.00    -0.166 F 
ATOM     20  F   LIG d   1       4.304  -0.905  -1.294  0.00  0.00    -0.166 F 
ATOM     21  F   LIG d   1       2.455  -1.021  -2.631  0.00  0.00    -0.166 F 
ENDBRANCH   3  18
TORSDOF 4
ENDMDL
MODEL 10
REMARK VINA RESULT:      -4.8      4.357      4.951
REMARK  4 active torsions:
REMARK  status: ('A' for Active; 'I' for Inactive)
REMARK    1  A    between atoms: C_3  and  C_12 
REMARK    2  A    between atoms: C_6  and  C_7 
REMARK    3  A    between atoms: C_7  and  C_9 
REMARK    4  A    between atoms: C_7  and  O_11 
ROOT
ATOM      1  C   LIG d   1       5.136  -0.944  -6.553  0.00  0.00    -0.055 A 
ATOM      2  C   LIG d   1       4.559  -0.451  -7.708  0.00  0.00    -0.050 A 
ATOM      3  C   LIG d   1       3.361   0.235  -7.644  0.00  0.00     0.055 A 
ATOM      4  C   LIG d   1       2.737   0.424  -6.425  0.00  0.00    -0.050 A 
ATOM      5  C   LIG d   1       3.311  -0.073  -5.270  0.00  0.00    -0.055 A 
ATOM      6  C   LIG d   1       4.509  -0.760  -5.334  0.00  0.00    -0.014 A 
ATOM      7  H   LIG d   1       6.075  -1.477  -6.602  0.00  0.00     0.062 H 
ATOM      8  H   LIG d   1       5.046  -0.599  -8.661  0.00  0.00     0.062 H 
ATOM      9  H   LIG d   1       1.801   0.961  -6.375  0.00  0.00     0.062 H 
ATOM     10  H   LIG d   1       2.824   0.074  -4.318  0.00  0.00     0.062 H 
ENDROOT
BRANCH   6  11
ATOM     11  C   LIG d   1       5.136  -1.302  -4.075  0.00  0.00     0.119 C 
ATOM     12  H   LIG d   1       5.089  -0.546  -3.292  0.00  0.00     0.071 H 
BRANCH  11  13
ATOM     13  C   LIG d   1       4.388  -2.533  -3.632  0.00  0.00     0.075 C 
ATOM     14  O   LIG d   1       3.746  -2.515  -2.609  0.00  0.00    -0.547 OA
ATOM     15  O   LIG d   1       4.434  -3.650  -4.376  0.00  0.00    -0.547 OA
ENDBRANCH  11  13
BRANCH  11  16
ATOM     16  O   LIG d   1       6.501  -1.640  -4.330  0.00  0.00    -0.381 OA
ATOM     17  H   LIG d   1       7.123  -1.270  -3.688  0.00  0.00     0.211 HD
ENDBRANCH  11  16
ENDBRANCH   6  11
BRANCH   3  18
ATOM     18  C   LIG d   1       2.735   0.777  -8.903  0.00  0.00     0.417 C 
ATOM     19  F   LIG d   1       3.688   0.797  -9.927  0.00  0.00    -0.166 F 
ATOM     20  F   LIG d   1       1.663  -0.040  -9.280  0.00  0.00    -0.166 F 
ATOM     21  F   LIG d   1       2.272   2.076  -8.672  0.00  0.00    -0.166 F 
ENDBRANCH   3  18
TORSDOF 4
ENDMDL
