MODEL 1
REMARK VINA RESULT:      -6.0      0.000      0.000
REMARK  9 active torsions:
REMARK  status: ('A' for Active; 'I' for Inactive)
REMARK    1  A    between atoms: C_1  and  N_2 
REMARK    2  A    between atoms: N_5  and  C_8 
REMARK    3  A    between atoms: C_10  and  C_20 
REMARK    4  A    between atoms: C_13  and  C_18 
REMARK    5  A    between atoms: C_15  and  O_17 
REMARK    6  A    between atoms: C_18  and  O_19 
REMARK    7  A    between atoms: C_20  and  N_21 
REMARK    8  A    between atoms: N_21  and  C_22 
REMARK    9  A    between atoms: C_22  and  C_23 
ROOT
ATOM      1  C   LIG d   1       3.365   0.951  -9.763  0.00  0.00     0.070 C 
ATOM      2  H   LIG d   1       2.587   1.544 -10.265  0.00  0.00     0.052 H 
ATOM      3  C   LIG d   1       3.346   1.064  -8.223  0.00  0.00     0.117 C 
ATOM      4  H   LIG d   1       2.969   2.027  -7.848  0.00  0.00     0.067 H 
ATOM      5  O   LIG d   1       4.726   0.910  -7.825  0.00  0.00    -0.362 OA
ATOM      6  C   LIG d   1       5.489   1.654  -8.800  0.00  0.00     0.110 C 
ATOM      7  H   LIG d   1       5.482   2.718  -8.526  0.00  0.00     0.065 H 
ATOM      8  C   LIG d   1       4.807   1.347 -10.152  0.00  0.00     0.102 C 
ATOM      9  H   LIG d   1       4.878   2.156 -10.895  0.00  0.00     0.064 H 
ENDROOT
BRANCH   1  10
ATOM     10  N   LIG d   1       3.080  -0.429 -10.181  0.00  0.00    -0.284 N 
ATOM     11  C   LIG d   1       1.688  -0.793  -9.885  0.00  0.00     0.040 C 
ATOM     12  C   LIG d   1       1.456  -2.258 -10.262  0.00  0.00    -0.019 C 
ATOM     13  H   LIG d   1       1.009  -0.153 -10.465  0.00  0.00     0.048 H 
ATOM     14  H   LIG d   1       1.493  -0.656  -8.811  0.00  0.00     0.048 H 
ATOM     15  N   LIG d   1       1.753  -2.447 -11.688  0.00  0.00     0.235 N 
ATOM     16  H   LIG d   1       0.407  -2.526 -10.067  0.00  0.00     0.083 H 
ATOM     17  H   LIG d   1       2.115  -2.901  -9.661  0.00  0.00     0.083 H 
ATOM     18  C   LIG d   1       3.146  -2.083 -11.985  0.00  0.00    -0.019 C 
ATOM     19  H   LIG d   1       1.097  -1.779 -12.264  0.00  0.00     0.203 HD
ATOM     20  C   LIG d   1       3.379  -0.618 -11.608  0.00  0.00     0.040 C 
ATOM     21  H   LIG d   1       3.824  -2.725 -11.403  0.00  0.00     0.083 H 
ATOM     22  H   LIG d   1       3.340  -2.222 -13.059  0.00  0.00     0.083 H 
ATOM     23  H   LIG d   1       2.719   0.026 -12.209  0.00  0.00     0.048 H 
ATOM     24  H   LIG d   1       4.428  -0.351 -11.802  0.00  0.00     0.048 H 
BRANCH  15  25
ATOM     25  C   LIG d   1       1.470  -3.826 -12.106  0.00  0.00    -0.043 C 
ATOM     26  H   LIG d   1       1.791  -4.522 -11.317  0.00  0.00     0.078 H 
ATOM     27  H   LIG d   1       2.017  -4.048 -13.035  0.00  0.00     0.078 H 
ATOM     28  H   LIG d   1       0.390  -3.943 -12.280  0.00  0.00     0.078 H 
ENDBRANCH  15  25
ENDBRANCH   1  10
BRANCH   8  29
ATOM     29  O   LIG d   1       5.463   0.264 -10.813  0.00  0.00    -0.388 OA
ATOM     30  H   LIG d   1       5.287  -0.770 -10.482  0.00  0.00     0.210 HD
ENDBRANCH   8  29
BRANCH   3  31
ATOM     31  C   LIG d   1       2.489  -0.049  -7.617  0.00  0.00    -0.005 C 
ATOM     32  H   LIG d   1       1.450   0.298  -7.524  0.00  0.00     0.084 H 
ATOM     33  H   LIG d   1       2.523  -0.934  -8.270  0.00  0.00     0.084 H 
BRANCH  31  34
ATOM     34  N   LIG d   1       3.010  -0.400  -6.289  0.00  0.00     0.233 N 
ATOM     35  H   LIG d   1       2.872  -1.477  -6.114  0.00  0.00     0.202 HD
ATOM     36  H   LIG d   1       4.081  -0.155  -6.239  0.00  0.00     0.202 HD
BRANCH  34  37
ATOM     37  C   LIG d   1       2.307   0.342  -5.234  0.00  0.00     0.010 C 
ATOM     38  H   LIG d   1       2.162   1.384  -5.554  0.00  0.00     0.088 H 
ATOM     39  H   LIG d   1       1.328  -0.125  -5.048  0.00  0.00     0.088 H 
BRANCH  37  40
ATOM     40  C   LIG d   1       3.126   0.314  -3.970  0.00  0.00     0.086 A 
ATOM     41  N   LIG d   1       3.710   1.417  -3.546  0.00  0.00    -0.255 NA
ATOM     42  C   LIG d   1       4.436   1.439  -2.446  0.00  0.00     0.028 A 
ATOM     43  C   LIG d   1       4.612   0.295  -1.692  0.00  0.00    -0.044 A 
ATOM     44  H   LIG d   1       4.899   2.363  -2.130  0.00  0.00     0.083 H 
ATOM     45  C   LIG d   1       4.013  -0.885  -2.105  0.00  0.00    -0.058 A 
ATOM     46  H   LIG d   1       5.207   0.319  -0.790  0.00  0.00     0.063 H 
ATOM     47  C   LIG d   1       3.253  -0.869  -3.264  0.00  0.00    -0.035 A 
ATOM     48  H   LIG d   1       4.132  -1.795  -1.536  0.00  0.00     0.062 H 
ATOM     49  H   LIG d   1       2.768  -1.768  -3.614  0.00  0.00     0.064 H 
ENDBRANCH  37  40
ENDBRANCH  34  37
ENDBRANCH  31  34
ENDBRANCH   3  31
BRANCH   6  50
ATOM     50  C   LIG d   1       6.943   1.178  -8.817  0.00  0.00     0.073 C 
ATOM     51  H   LIG d   1       7.383   1.305  -7.817  0.00  0.00     0.058 H 
ATOM     52  H   LIG d   1       6.978   0.115  -9.101  0.00  0.00     0.058 H 
BRANCH  50  53
ATOM     53  O   LIG d   1       7.685   1.948  -9.765  0.00  0.00    -0.392 OA
ATOM     54  H   LIG d   1       8.113   1.462 -10.655  0.00  0.00     0.209 HD
ENDBRANCH  50  53
ENDBRANCH   6  50
TORSDOF 9
ENDMDL
MODEL 2
REMARK VINA RESULT:      -6.0      2.393      3.191
REMARK  9 active torsions:
REMARK  status: ('A' for Active; 'I' for Inactive)
REMARK    1  A    between atoms: C_1  and  N_2 
REMARK    2  A    between atoms: N_5  and  C_8 
REMARK    3  A    between atoms: C_10  and  C_20 
REMARK    4  A    between atoms: C_13  and  C_18 
REMARK    5  A    between atoms: C_15  and  O_17 
REMARK    6  A    between atoms: C_18  and  O_19 
REMARK    7  A    between atoms: C_20  and  N_21 
REMARK    8  A    between atoms: N_21  and  C_22 
REMARK    9  A    between atoms: C_22  and  C_23 
ROOT
ATOM      1  C   LIG d   1       4.393  -0.944  -8.990  0.00  0.00     0.070 C 
ATOM      2  H   LIG d   1       3.930  -1.340  -9.906  0.00  0.00     0.052 H 
ATOM      3  C   LIG d   1       3.782   0.388  -8.503  0.00  0.00     0.117 C 
ATOM      4  H   LIG d   1       3.377   1.017  -9.309  0.00  0.00     0.067 H 
ATOM      5  O   LIG d   1       4.877   1.084  -7.866  0.00  0.00    -0.362 OA
ATOM      6  C   LIG d   1       6.024   0.843  -8.710  0.00  0.00     0.110 C 
ATOM      7  H   LIG d   1       6.005   1.551  -9.552  0.00  0.00     0.065 H 
ATOM      8  C   LIG d   1       5.902  -0.639  -9.130  0.00  0.00     0.102 C 
ATOM      9  H   LIG d   1       6.329  -0.873 -10.116  0.00  0.00     0.064 H 
ENDROOT
BRANCH   1  10
ATOM     10  N   LIG d   1       4.173  -2.005  -7.998  0.00  0.00    -0.284 N 
ATOM     11  C   LIG d   1       4.229  -3.333  -8.625  0.00  0.00     0.040 C 
ATOM     12  C   LIG d   1       3.917  -4.403  -7.576  0.00  0.00    -0.019 C 
ATOM     13  H   LIG d   1       5.235  -3.504  -9.035  0.00  0.00     0.048 H 
ATOM     14  H   LIG d   1       3.488  -3.389  -9.436  0.00  0.00     0.048 H 
ATOM     15  N   LIG d   1       4.885  -4.302  -6.475  0.00  0.00     0.235 N 
ATOM     16  H   LIG d   1       3.986  -5.400  -8.036  0.00  0.00     0.083 H 
ATOM     17  H   LIG d   1       2.900  -4.250  -7.186  0.00  0.00     0.083 H 
ATOM     18  C   LIG d   1       4.829  -2.975  -5.847  0.00  0.00    -0.019 C 
ATOM     19  H   LIG d   1       5.892  -4.438  -6.895  0.00  0.00     0.203 HD
ATOM     20  C   LIG d   1       5.141  -1.905  -6.896  0.00  0.00     0.040 C 
ATOM     21  H   LIG d   1       3.822  -2.805  -5.438  0.00  0.00     0.083 H 
ATOM     22  H   LIG d   1       5.570  -2.921  -5.036  0.00  0.00     0.083 H 
ATOM     23  H   LIG d   1       6.158  -2.058  -7.287  0.00  0.00     0.048 H 
ATOM     24  H   LIG d   1       5.071  -0.908  -6.437  0.00  0.00     0.048 H 
BRANCH  15  25
ATOM     25  C   LIG d   1       4.665  -5.363  -5.482  0.00  0.00    -0.043 C 
ATOM     26  H   LIG d   1       3.813  -5.092  -4.840  0.00  0.00     0.078 H 
ATOM     27  H   LIG d   1       5.568  -5.479  -4.864  0.00  0.00     0.078 H 
ATOM     28  H   LIG d   1       4.449  -6.310  -5.998  0.00  0.00     0.078 H 
ENDBRANCH  15  25
ENDBRANCH   1  10
BRANCH   8  29
ATOM     29  O   LIG d   1       6.665  -1.474  -8.258  0.00  0.00    -0.388 OA
ATOM     30  H   LIG d   1       7.756  -1.351  -8.194  0.00  0.00     0.210 HD
ENDBRANCH   8  29
BRANCH   3  31
ATOM     31  C   LIG d   1       2.661   0.123  -7.497  0.00  0.00    -0.005 C 
ATOM     32  H   LIG d   1       1.705   0.471  -7.914  0.00  0.00     0.084 H 
ATOM     33  H   LIG d   1       2.601  -0.956  -7.290  0.00  0.00     0.084 H 
BRANCH  31  34
ATOM     34  N   LIG d   1       2.943   0.846  -6.249  0.00  0.00     0.233 N 
ATOM     35  H   LIG d   1       4.020   0.794  -6.031  0.00  0.00     0.202 HD
ATOM     36  H   LIG d   1       2.640   1.897  -6.357  0.00  0.00     0.202 HD
BRANCH  34  37
ATOM     37  C   LIG d   1       2.206   0.258  -5.122  0.00  0.00     0.010 C 
ATOM     38  H   LIG d   1       1.295   0.844  -4.934  0.00  0.00     0.088 H 
ATOM     39  H   LIG d   1       1.932  -0.779  -5.365  0.00  0.00     0.088 H 
BRANCH  37  40
ATOM     40  C   LIG d   1       3.076   0.271  -3.892  0.00  0.00     0.086 A 
ATOM     41  N   LIG d   1       3.649   1.396  -3.511  0.00  0.00    -0.255 NA
ATOM     42  C   LIG d   1       4.418   1.455  -2.442  0.00  0.00     0.028 A 
ATOM     43  C   LIG d   1       4.653   0.328  -1.676  0.00  0.00    -0.044 A 
ATOM     44  H   LIG d   1       4.871   2.395  -2.161  0.00  0.00     0.083 H 
ATOM     45  C   LIG d   1       4.067  -0.872  -2.045  0.00  0.00    -0.058 A 
ATOM     46  H   LIG d   1       5.283   0.383  -0.800  0.00  0.00     0.063 H 
ATOM     47  C   LIG d   1       3.261  -0.896  -3.172  0.00  0.00    -0.035 A 
ATOM     48  H   LIG d   1       4.232  -1.769  -1.466  0.00  0.00     0.062 H 
ATOM     49  H   LIG d   1       2.785  -1.812  -3.487  0.00  0.00     0.064 H 
ENDBRANCH  37  40
ENDBRANCH  34  37
ENDBRANCH  31  34
ENDBRANCH   3  31
BRANCH   6  50
ATOM     50  C   LIG d   1       7.320   1.070  -7.929  0.00  0.00     0.073 C 
ATOM     51  H   LIG d   1       8.027   0.255  -8.145  0.00  0.00     0.058 H 
ATOM     52  H   LIG d   1       7.765   2.031  -8.229  0.00  0.00     0.058 H 
BRANCH  50  53
ATOM     53  O   LIG d   1       7.034   1.094  -6.530  0.00  0.00    -0.392 OA
ATOM     54  H   LIG d   1       7.807   0.798  -5.805  0.00  0.00     0.209 HD
ENDBRANCH  50  53
ENDBRANCH   6  50
TORSDOF 9
ENDMDL
MODEL 3
REMARK VINA RESULT:      -6.0      1.926      2.319
REMARK  9 active torsions:
REMARK  status: ('A' for Active; 'I' for Inactive)
REMARK    1  A    between atoms: C_1  and  N_2 
REMARK    2  A    between atoms: N_5  and  C_8 
REMARK    3  A    between atoms: C_10  and  C_20 
REMARK    4  A    between atoms: C_13  and  C_18 
REMARK    5  A    between atoms: C_15  and  O_17 
REMARK    6  A    between atoms: C_18  and  O_19 
REMARK    7  A    between atoms: C_20  and  N_21 
REMARK    8  A    between atoms: N_21  and  C_22 
REMARK    9  A    between atoms: C_22  and  C_23 
ROOT
ATOM      1  C   LIG d   1       2.542  -0.571  -8.328  0.00  0.00     0.070 C 
ATOM      2  H   LIG d   1       1.571  -1.020  -8.077  0.00  0.00     0.052 H 
ATOM      3  C   LIG d   1       3.330  -0.054  -7.104  0.00  0.00     0.117 C 
ATOM      4  H   LIG d   1       2.696   0.279  -6.270  0.00  0.00     0.067 H 
ATOM      5  O   LIG d   1       4.086   1.073  -7.601  0.00  0.00    -0.362 OA
ATOM      6  C   LIG d   1       3.186   1.773  -8.488  0.00  0.00     0.110 C 
ATOM      7  H   LIG d   1       2.527   2.421  -7.892  0.00  0.00     0.065 H 
ATOM      8  C   LIG d   1       2.445   0.659  -9.260  0.00  0.00     0.102 C 
ATOM      9  H   LIG d   1       1.424   0.920  -9.573  0.00  0.00     0.064 H 
ENDROOT
BRANCH   1  10
ATOM     10  N   LIG d   1       3.274  -1.660  -8.989  0.00  0.00    -0.284 N 
ATOM     11  C   LIG d   1       2.367  -2.493  -9.790  0.00  0.00     0.040 C 
ATOM     12  C   LIG d   1       3.151  -3.660 -10.396  0.00  0.00    -0.019 C 
ATOM     13  H   LIG d   1       1.928  -1.888 -10.597  0.00  0.00     0.048 H 
ATOM     14  H   LIG d   1       1.564  -2.886  -9.149  0.00  0.00     0.048 H 
ATOM     15  N   LIG d   1       4.246  -3.133 -11.223  0.00  0.00     0.235 N 
ATOM     16  H   LIG d   1       2.481  -4.269 -11.020  0.00  0.00     0.083 H 
ATOM     17  H   LIG d   1       3.567  -4.281  -9.590  0.00  0.00     0.083 H 
ATOM     18  C   LIG d   1       5.154  -2.299 -10.421  0.00  0.00    -0.019 C 
ATOM     19  H   LIG d   1       3.806  -2.499 -12.006  0.00  0.00     0.203 HD
ATOM     20  C   LIG d   1       4.369  -1.133  -9.815  0.00  0.00     0.040 C 
ATOM     21  H   LIG d   1       5.591  -2.906  -9.615  0.00  0.00     0.083 H 
ATOM     22  H   LIG d   1       5.956  -1.908 -11.064  0.00  0.00     0.083 H 
ATOM     23  H   LIG d   1       3.953  -0.511 -10.622  0.00  0.00     0.048 H 
ATOM     24  H   LIG d   1       5.039  -0.524  -9.191  0.00  0.00     0.048 H 
BRANCH  15  25
ATOM     25  C   LIG d   1       4.978  -4.222 -11.883  0.00  0.00    -0.043 C 
ATOM     26  H   LIG d   1       5.839  -3.807 -12.428  0.00  0.00     0.078 H 
ATOM     27  H   LIG d   1       4.310  -4.737 -12.590  0.00  0.00     0.078 H 
ATOM     28  H   LIG d   1       5.333  -4.937 -11.127  0.00  0.00     0.078 H 
ENDBRANCH  15  25
ENDBRANCH   1  10
BRANCH   8  29
ATOM     29  O   LIG d   1       3.091   0.395 -10.506  0.00  0.00    -0.388 OA
ATOM     30  H   LIG d   1       4.001  -0.224 -10.534  0.00  0.00     0.210 HD
ENDBRANCH   8  29
BRANCH   3  31
ATOM     31  C   LIG d   1       4.273  -1.139  -6.581  0.00  0.00    -0.005 C 
ATOM     32  H   LIG d   1       3.869  -1.557  -5.647  0.00  0.00     0.084 H 
ATOM     33  H   LIG d   1       4.364  -1.939  -7.331  0.00  0.00     0.084 H 
BRANCH  31  34
ATOM     34  N   LIG d   1       5.597  -0.555  -6.324  0.00  0.00     0.233 N 
ATOM     35  H   LIG d   1       6.257  -0.754  -7.182  0.00  0.00     0.202 HD
ATOM     36  H   LIG d   1       5.497   0.530  -6.181  0.00  0.00     0.202 HD
BRANCH  34  37
ATOM     37  C   LIG d   1       6.203  -1.136  -5.119  0.00  0.00     0.010 C 
ATOM     38  H   LIG d   1       6.037  -2.223  -5.112  0.00  0.00     0.088 H 
ATOM     39  H   LIG d   1       7.284  -0.930  -5.117  0.00  0.00     0.088 H 
BRANCH  37  40
ATOM     40  C   LIG d   1       5.573  -0.523  -3.895  0.00  0.00     0.086 A 
ATOM     41  N   LIG d   1       5.563   0.787  -3.753  0.00  0.00    -0.255 NA
ATOM     42  C   LIG d   1       5.023   1.367  -2.699  0.00  0.00     0.028 A 
ATOM     43  C   LIG d   1       4.444   0.612  -1.697  0.00  0.00    -0.044 A 
ATOM     44  H   LIG d   1       5.034   2.444  -2.618  0.00  0.00     0.083 H 
ATOM     45  C   LIG d   1       4.435  -0.769  -1.810  0.00  0.00    -0.058 A 
ATOM     46  H   LIG d   1       4.002   1.093  -0.836  0.00  0.00     0.063 H 
ATOM     47  C   LIG d   1       5.008  -1.343  -2.935  0.00  0.00    -0.035 A 
ATOM     48  H   LIG d   1       3.990  -1.385  -1.043  0.00  0.00     0.062 H 
ATOM     49  H   LIG d   1       5.016  -2.416  -3.059  0.00  0.00     0.064 H 
ENDBRANCH  37  40
ENDBRANCH  34  37
ENDBRANCH  31  34
ENDBRANCH   3  31
BRANCH   6  50
ATOM     50  C   LIG d   1       3.973   2.659  -9.456  0.00  0.00     0.073 C 
ATOM     51  H   LIG d   1       3.550   2.565 -10.467  0.00  0.00     0.058 H 
ATOM     52  H   LIG d   1       3.908   3.708  -9.128  0.00  0.00     0.058 H 
BRANCH  50  53
ATOM     53  O   LIG d   1       5.341   2.249  -9.472  0.00  0.00    -0.392 OA
ATOM     54  H   LIG d   1       5.620   1.246  -9.118  0.00  0.00     0.209 HD
ENDBRANCH  50  53
ENDBRANCH   6  50
TORSDOF 9
ENDMDL
MODEL 4
REMARK VINA RESULT:      -6.0      3.314      6.070
REMARK  9 active torsions:
REMARK  status: ('A' for Active; 'I' for Inactive)
REMARK    1  A    between atoms: C_1  and  N_2 
REMARK    2  A    between atoms: N_5  and  C_8 
REMARK    3  A    between atoms: C_10  and  C_20 
REMARK    4  A    between atoms: C_13  and  C_18 
REMARK    5  A    between atoms: C_15  and  O_17 
REMARK    6  A    between atoms: C_18  and  O_19 
REMARK    7  A    between atoms: C_20  and  N_21 
REMARK    8  A    between atoms: N_21  and  C_22 
REMARK    9  A    between atoms: C_22  and  C_23 
ROOT
ATOM      1  C   LIG d   1       5.953  -1.852  -3.972  0.00  0.00     0.070 C 
ATOM      2  H   LIG d   1       6.646  -2.508  -3.425  0.00  0.00     0.052 H 
ATOM      3  C   LIG d   1       6.549  -0.475  -4.339  0.00  0.00     0.117 C 
ATOM      4  H   LIG d   1       7.310  -0.113  -3.632  0.00  0.00     0.067 H 
ATOM      5  O   LIG d   1       5.423   0.430  -4.325  0.00  0.00    -0.362 OA
ATOM      6  C   LIG d   1       4.632   0.036  -3.182  0.00  0.00     0.110 C 
ATOM      7  H   LIG d   1       5.063   0.486  -2.275  0.00  0.00     0.065 H 
ATOM      8  C   LIG d   1       4.663  -1.509  -3.193  0.00  0.00     0.102 C 
ATOM      9  H   LIG d   1       4.586  -1.976  -2.201  0.00  0.00     0.064 H 
ENDROOT
BRANCH   1  10
ATOM     10  N   LIG d   1       5.633  -2.615  -5.187  0.00  0.00    -0.284 N 
ATOM     11  C   LIG d   1       5.407  -4.033  -4.875  0.00  0.00     0.040 C 
ATOM     12  C   LIG d   1       5.156  -4.804  -6.172  0.00  0.00    -0.019 C 
ATOM     13  H   LIG d   1       4.532  -4.129  -4.215  0.00  0.00     0.048 H 
ATOM     14  H   LIG d   1       6.293  -4.444  -4.369  0.00  0.00     0.048 H 
ATOM     15  N   LIG d   1       3.994  -4.229  -6.863  0.00  0.00     0.235 N 
ATOM     16  H   LIG d   1       4.958  -5.861  -5.939  0.00  0.00     0.083 H 
ATOM     17  H   LIG d   1       6.042  -4.732  -6.820  0.00  0.00     0.083 H 
ATOM     18  C   LIG d   1       4.220  -2.810  -7.177  0.00  0.00    -0.019 C 
ATOM     19  H   LIG d   1       3.130  -4.294  -6.188  0.00  0.00     0.203 HD
ATOM     20  C   LIG d   1       4.471  -2.039  -5.879  0.00  0.00     0.040 C 
ATOM     21  H   LIG d   1       5.096  -2.716  -7.836  0.00  0.00     0.083 H 
ATOM     22  H   LIG d   1       3.333  -2.401  -7.682  0.00  0.00     0.083 H 
ATOM     23  H   LIG d   1       3.585  -2.112  -5.231  0.00  0.00     0.048 H 
ATOM     24  H   LIG d   1       4.670  -0.983  -6.112  0.00  0.00     0.048 H 
BRANCH  15  25
ATOM     25  C   LIG d   1       3.675  -4.991  -8.078  0.00  0.00    -0.043 C 
ATOM     26  H   LIG d   1       2.657  -5.402  -7.996  0.00  0.00     0.078 H 
ATOM     27  H   LIG d   1       4.395  -5.814  -8.195  0.00  0.00     0.078 H 
ATOM     28  H   LIG d   1       3.731  -4.327  -8.953  0.00  0.00     0.078 H 
ENDBRANCH  15  25
ENDBRANCH   1  10
BRANCH   8  29
ATOM     29  O   LIG d   1       3.517  -2.030  -3.869  0.00  0.00    -0.388 OA
ATOM     30  H   LIG d   1       3.549  -2.200  -4.955  0.00  0.00     0.210 HD
ENDBRANCH   8  29
BRANCH   3  31
ATOM     31  C   LIG d   1       7.179  -0.521  -5.732  0.00  0.00    -0.005 C 
ATOM     32  H   LIG d   1       8.270  -0.618  -5.639  0.00  0.00     0.084 H 
ATOM     33  H   LIG d   1       6.780  -1.385  -6.286  0.00  0.00     0.084 H 
BRANCH  31  34
ATOM     34  N   LIG d   1       6.856   0.716  -6.456  0.00  0.00     0.233 N 
ATOM     35  H   LIG d   1       5.966   1.182  -6.007  0.00  0.00     0.202 HD
ATOM     36  H   LIG d   1       7.706   1.410  -6.393  0.00  0.00     0.202 HD
BRANCH  34  37
ATOM     37  C   LIG d   1       6.577   0.440  -7.872  0.00  0.00     0.010 C 
ATOM     38  H   LIG d   1       7.377   0.869  -8.493  0.00  0.00     0.088 H 
ATOM     39  H   LIG d   1       6.533  -0.648  -8.031  0.00  0.00     0.088 H 
BRANCH  37  40
ATOM     40  C   LIG d   1       5.257   1.058  -8.254  0.00  0.00     0.086 A 
ATOM     41  N   LIG d   1       4.147   0.628  -7.688  0.00  0.00    -0.255 NA
ATOM     42  C   LIG d   1       2.970   1.139  -7.991  0.00  0.00     0.028 A 
ATOM     43  C   LIG d   1       2.859   2.153  -8.923  0.00  0.00    -0.044 A 
ATOM     44  H   LIG d   1       2.083   0.760  -7.505  0.00  0.00     0.083 H 
ATOM     45  C   LIG d   1       4.004   2.632  -9.540  0.00  0.00    -0.058 A 
ATOM     46  H   LIG d   1       1.892   2.569  -9.166  0.00  0.00     0.063 H 
ATOM     47  C   LIG d   1       5.225   2.074  -9.192  0.00  0.00    -0.035 A 
ATOM     48  H   LIG d   1       3.949   3.425 -10.271  0.00  0.00     0.062 H 
ATOM     49  H   LIG d   1       6.138   2.425  -9.649  0.00  0.00     0.064 H 
ENDBRANCH  37  40
ENDBRANCH  34  37
ENDBRANCH  31  34
ENDBRANCH   3  31
BRANCH   6  50
ATOM     50  C   LIG d   1       3.195   0.541  -3.326  0.00  0.00     0.073 C 
ATOM     51  H   LIG d   1       2.495  -0.266  -3.065  0.00  0.00     0.058 H 
ATOM     52  H   LIG d   1       3.038   1.396  -2.650  0.00  0.00     0.058 H 
BRANCH  50  53
ATOM     53  O   LIG d   1       2.968   0.952  -4.675  0.00  0.00    -0.392 OA
ATOM     54  H   LIG d   1       2.109   1.595  -4.917  0.00  0.00     0.209 HD
ENDBRANCH  50  53
ENDBRANCH   6  50
TORSDOF 9
ENDMDL
MODEL 5
REMARK VINA RESULT:      -5.7      5.034      7.177
REMARK  9 active torsions:
REMARK  status: ('A' for Active; 'I' for Inactive)
REMARK    1  A    between atoms: C_1  and  N_2 
REMARK    2  A    between atoms: N_5  and  C_8 
REMARK    3  A    between atoms: C_10  and  C_20 
REMARK    4  A    between atoms: C_13  and  C_18 
REMARK    5  A    between atoms: C_15  and  O_17 
REMARK    6  A    between atoms: C_18  and  O_19 
REMARK    7  A    between atoms: C_20  and  N_21 
REMARK    8  A    between atoms: N_21  and  C_22 
REMARK    9  A    between atoms: C_22  and  C_23 
ROOT
ATOM      1  C   LIG d   1       5.183  -1.190  -2.967  0.00  0.00     0.070 C 
ATOM      2  H   LIG d   1       5.392  -1.696  -2.013  0.00  0.00     0.052 H 
ATOM      3  C   LIG d   1       5.613   0.293  -2.998  0.00  0.00     0.117 C 
ATOM      4  H   LIG d   1       5.581   0.790  -2.018  0.00  0.00     0.067 H 
ATOM      5  O   LIG d   1       4.666   0.933  -3.883  0.00  0.00    -0.362 OA
ATOM      6  C   LIG d   1       3.386   0.345  -3.560  0.00  0.00     0.110 C 
ATOM      7  H   LIG d   1       2.971   0.851  -2.677  0.00  0.00     0.065 H 
ATOM      8  C   LIG d   1       3.684  -1.156  -3.345  0.00  0.00     0.102 C 
ATOM      9  H   LIG d   1       3.018  -1.657  -2.629  0.00  0.00     0.064 H 
ENDROOT
BRANCH   1  10
ATOM     10  N   LIG d   1       5.944  -1.968  -3.953  0.00  0.00    -0.284 N 
ATOM     11  C   LIG d   1       7.294  -2.272  -3.457  0.00  0.00     0.040 C 
ATOM     12  C   LIG d   1       8.079  -3.013  -4.542  0.00  0.00    -0.019 C 
ATOM     13  H   LIG d   1       7.222  -2.904  -2.560  0.00  0.00     0.048 H 
ATOM     14  H   LIG d   1       7.812  -1.335  -3.204  0.00  0.00     0.048 H 
ATOM     15  N   LIG d   1       7.365  -4.244  -4.905  0.00  0.00     0.235 N 
ATOM     16  H   LIG d   1       9.080  -3.266  -4.163  0.00  0.00     0.083 H 
ATOM     17  H   LIG d   1       8.176  -2.370  -5.429  0.00  0.00     0.083 H 
ATOM     18  C   LIG d   1       6.015  -3.941  -5.402  0.00  0.00    -0.019 C 
ATOM     19  H   LIG d   1       7.263  -4.858  -3.998  0.00  0.00     0.203 HD
ATOM     20  C   LIG d   1       5.230  -3.200  -4.317  0.00  0.00     0.040 C 
ATOM     21  H   LIG d   1       6.089  -3.308  -6.299  0.00  0.00     0.083 H 
ATOM     22  H   LIG d   1       5.498  -4.878  -5.655  0.00  0.00     0.083 H 
ATOM     23  H   LIG d   1       5.134  -3.843  -3.429  0.00  0.00     0.048 H 
ATOM     24  H   LIG d   1       4.230  -2.945  -4.696  0.00  0.00     0.048 H 
BRANCH  15  25
ATOM     25  C   LIG d   1       8.126  -5.022  -5.892  0.00  0.00    -0.043 C 
ATOM     26  H   LIG d   1       8.940  -4.403  -6.297  0.00  0.00     0.078 H 
ATOM     27  H   LIG d   1       7.457  -5.331  -6.710  0.00  0.00     0.078 H 
ATOM     28  H   LIG d   1       8.550  -5.914  -5.408  0.00  0.00     0.078 H 
ENDBRANCH  15  25
ENDBRANCH   1  10
BRANCH   8  29
ATOM     29  O   LIG d   1       3.455  -1.893  -4.547  0.00  0.00    -0.388 OA
ATOM     30  H   LIG d   1       4.112  -1.743  -5.417  0.00  0.00     0.210 HD
ENDBRANCH   8  29
BRANCH   3  31
ATOM     31  C   LIG d   1       7.032   0.424  -3.553  0.00  0.00    -0.005 C 
ATOM     32  H   LIG d   1       7.759   0.259  -2.744  0.00  0.00     0.084 H 
ATOM     33  H   LIG d   1       7.188  -0.324  -4.344  0.00  0.00     0.084 H 
BRANCH  31  34
ATOM     34  N   LIG d   1       7.218   1.771  -4.110  0.00  0.00     0.233 N 
ATOM     35  H   LIG d   1       6.500   1.931  -4.928  0.00  0.00     0.202 HD
ATOM     36  H   LIG d   1       7.050   2.520  -3.323  0.00  0.00     0.202 HD
BRANCH  34  37
ATOM     37  C   LIG d   1       8.578   1.940  -4.638  0.00  0.00     0.010 C 
ATOM     38  H   LIG d   1       9.219   1.128  -4.265  0.00  0.00     0.088 H 
ATOM     39  H   LIG d   1       8.550   1.910  -5.737  0.00  0.00     0.088 H 
BRANCH  37  40
ATOM     40  C   LIG d   1       9.132   3.266  -4.185  0.00  0.00     0.086 A 
ATOM     41  N   LIG d   1       9.587   3.396  -2.954  0.00  0.00    -0.255 NA
ATOM     42  C   LIG d   1      10.079   4.537  -2.514  0.00  0.00     0.028 A 
ATOM     43  C   LIG d   1      10.136   5.647  -3.336  0.00  0.00    -0.044 A 
ATOM     44  H   LIG d   1      10.443   4.605  -1.499  0.00  0.00     0.083 H 
ATOM     45  C   LIG d   1       9.667   5.548  -4.636  0.00  0.00    -0.058 A 
ATOM     46  H   LIG d   1      10.542   6.579  -2.970  0.00  0.00     0.063 H 
ATOM     47  C   LIG d   1       9.160   4.331  -5.066  0.00  0.00    -0.035 A 
ATOM     48  H   LIG d   1       9.698   6.398  -5.302  0.00  0.00     0.062 H 
ATOM     49  H   LIG d   1       8.790   4.217  -6.074  0.00  0.00     0.064 H 
ENDBRANCH  37  40
ENDBRANCH  34  37
ENDBRANCH  31  34
ENDBRANCH   3  31
BRANCH   6  50
ATOM     50  C   LIG d   1       2.405   0.532  -4.719  0.00  0.00     0.073 C 
ATOM     51  H   LIG d   1       1.735  -0.339  -4.777  0.00  0.00     0.058 H 
ATOM     52  H   LIG d   1       1.809   1.442  -4.551  0.00  0.00     0.058 H 
BRANCH  50  53
ATOM     53  O   LIG d   1       3.131   0.657  -5.943  0.00  0.00    -0.392 OA
ATOM     54  H   LIG d   1       3.215  -0.203  -6.623  0.00  0.00     0.209 HD
ENDBRANCH  50  53
ENDBRANCH   6  50
TORSDOF 9
ENDMDL
MODEL 6
REMARK VINA RESULT:      -5.7      4.357      6.698
REMARK  9 active torsions:
REMARK  status: ('A' for Active; 'I' for Inactive)
REMARK    1  A    between atoms: C_1  and  N_2 
REMARK    2  A    between atoms: N_5  and  C_8 
REMARK    3  A    between atoms: C_10  and  C_20 
REMARK    4  A    between atoms: C_13  and  C_18 
REMARK    5  A    between atoms: C_15  and  O_17 
REMARK    6  A    between atoms: C_18  and  O_19 
REMARK    7  A    between atoms: C_20  and  N_21 
REMARK    8  A    between atoms: N_21  and  C_22 
REMARK    9  A    between atoms: C_22  and  C_23 
ROOT
ATOM      1  C   LIG d   1       6.155  -0.979  -3.467  0.00  0.00     0.070 C 
ATOM      2  H   LIG d   1       6.756  -1.814  -3.079  0.00  0.00     0.052 H 
ATOM      3  C   LIG d   1       6.895   0.377  -3.472  0.00  0.00     0.117 C 
ATOM      4  H   LIG d   1       7.651   0.478  -2.680  0.00  0.00     0.067 H 
ATOM      5  O   LIG d   1       5.859   1.363  -3.264  0.00  0.00    -0.362 OA
ATOM      6  C   LIG d   1       4.981   0.789  -2.271  0.00  0.00     0.110 C 
ATOM      7  H   LIG d   1       5.408   0.962  -1.272  0.00  0.00     0.065 H 
ATOM      8  C   LIG d   1       4.867  -0.702  -2.659  0.00  0.00     0.102 C 
ATOM      9  H   LIG d   1       4.699  -1.384  -1.813  0.00  0.00     0.064 H 
ENDROOT
BRANCH   1  10
ATOM     10  N   LIG d   1       5.824  -1.390  -4.838  0.00  0.00    -0.284 N 
ATOM     11  C   LIG d   1       5.560  -2.834  -4.906  0.00  0.00     0.040 C 
ATOM     12  C   LIG d   1       5.297  -3.233  -6.360  0.00  0.00    -0.019 C 
ATOM     13  H   LIG d   1       4.679  -3.076  -4.295  0.00  0.00     0.048 H 
ATOM     14  H   LIG d   1       6.432  -3.385  -4.526  0.00  0.00     0.048 H 
ATOM     15  N   LIG d   1       4.155  -2.468  -6.877  0.00  0.00     0.235 N 
ATOM     16  H   LIG d   1       5.072  -4.309  -6.411  0.00  0.00     0.083 H 
ATOM     17  H   LIG d   1       6.189  -3.018  -6.967  0.00  0.00     0.083 H 
ATOM     18  C   LIG d   1       4.419  -1.023  -6.809  0.00  0.00    -0.019 C 
ATOM     19  H   LIG d   1       3.285  -2.684  -6.241  0.00  0.00     0.203 HD
ATOM     20  C   LIG d   1       4.681  -0.623  -5.356  0.00  0.00     0.040 C 
ATOM     21  H   LIG d   1       5.301  -0.783  -7.422  0.00  0.00     0.083 H 
ATOM     22  H   LIG d   1       3.546  -0.473  -7.190  0.00  0.00     0.083 H 
ATOM     23  H   LIG d   1       3.790  -0.839  -4.748  0.00  0.00     0.048 H 
ATOM     24  H   LIG d   1       4.908   0.452  -5.305  0.00  0.00     0.048 H 
BRANCH  15  25
ATOM     25  C   LIG d   1       3.824  -2.878  -8.248  0.00  0.00    -0.043 C 
ATOM     26  H   LIG d   1       3.153  -2.132  -8.702  0.00  0.00     0.078 H 
ATOM     27  H   LIG d   1       3.323  -3.857  -8.227  0.00  0.00     0.078 H 
ATOM     28  H   LIG d   1       4.746  -2.950  -8.843  0.00  0.00     0.078 H 
ENDBRANCH  15  25
ENDBRANCH   1  10
BRANCH   8  29
ATOM     29  O   LIG d   1       3.711  -0.925  -3.468  0.00  0.00    -0.388 OA
ATOM     30  H   LIG d   1       3.816  -1.383  -4.462  0.00  0.00     0.210 HD
ENDBRANCH   8  29
BRANCH   3  31
ATOM     31  C   LIG d   1       7.584   0.603  -4.819  0.00  0.00    -0.005 C 
ATOM     32  H   LIG d   1       8.589   0.157  -4.797  0.00  0.00     0.084 H 
ATOM     33  H   LIG d   1       6.991   0.132  -5.618  0.00  0.00     0.084 H 
BRANCH  31  34
ATOM     34  N   LIG d   1       7.693   2.045  -5.077  0.00  0.00     0.233 N 
ATOM     35  H   LIG d   1       7.122   2.300  -5.982  0.00  0.00     0.202 HD
ATOM     36  H   LIG d   1       7.290   2.603  -4.219  0.00  0.00     0.202 HD
BRANCH  34  37
ATOM     37  C   LIG d   1       9.094   2.439  -5.278  0.00  0.00     0.010 C 
ATOM     38  H   LIG d   1       9.753   1.608  -4.989  0.00  0.00     0.088 H 
ATOM     39  H   LIG d   1       9.256   2.685  -6.338  0.00  0.00     0.088 H 
BRANCH  37  40
ATOM     40  C   LIG d   1       9.403   3.646  -4.430  0.00  0.00     0.086 A 
ATOM     41  N   LIG d   1       9.878   3.482  -3.212  0.00  0.00    -0.255 NA
ATOM     42  C   LIG d   1      10.162   4.508  -2.434  0.00  0.00     0.028 A 
ATOM     43  C   LIG d   1       9.969   5.803  -2.874  0.00  0.00    -0.044 A 
ATOM     44  H   LIG d   1      10.551   4.334  -1.441  0.00  0.00     0.083 H 
ATOM     45  C   LIG d   1       9.471   6.016  -4.150  0.00  0.00    -0.058 A 
ATOM     46  H   LIG d   1      10.205   6.640  -2.233  0.00  0.00     0.063 H 
ATOM     47  C   LIG d   1       9.188   4.913  -4.941  0.00  0.00    -0.035 A 
ATOM     48  H   LIG d   1       9.310   7.017  -4.522  0.00  0.00     0.062 H 
ATOM     49  H   LIG d   1       8.803   5.040  -5.942  0.00  0.00     0.064 H 
ENDBRANCH  37  40
ENDBRANCH  34  37
ENDBRANCH  31  34
ENDBRANCH   3  31
BRANCH   6  50
ATOM     50  C   LIG d   1       3.607   1.460  -2.322  0.00  0.00     0.073 C 
ATOM     51  H   LIG d   1       2.821   0.692  -2.261  0.00  0.00     0.058 H 
ATOM     52  H   LIG d   1       3.507   2.155  -1.474  0.00  0.00     0.058 H 
BRANCH  50  53
ATOM     53  O   LIG d   1       3.474   2.181  -3.548  0.00  0.00    -0.392 OA
ATOM     54  H   LIG d   1       2.733   2.990  -3.632  0.00  0.00     0.209 HD
ENDBRANCH  50  53
ENDBRANCH   6  50
TORSDOF 9
ENDMDL
MODEL 7
REMARK VINA RESULT:      -5.6      4.812      6.770
REMARK  9 active torsions:
REMARK  status: ('A' for Active; 'I' for Inactive)
REMARK    1  A    between atoms: C_1  and  N_2 
REMARK    2  A    between atoms: N_5  and  C_8 
REMARK    3  A    between atoms: C_10  and  C_20 
REMARK    4  A    between atoms: C_13  and  C_18 
REMARK    5  A    between atoms: C_15  and  O_17 
REMARK    6  A    between atoms: C_18  and  O_19 
REMARK    7  A    between atoms: C_20  and  N_21 
REMARK    8  A    between atoms: N_21  and  C_22 
REMARK    9  A    between atoms: C_22  and  C_23 
ROOT
ATOM      1  C   LIG d   1       5.247  -2.201  -3.657  0.00  0.00     0.070 C 
ATOM      2  H   LIG d   1       5.369  -3.267  -3.416  0.00  0.00     0.052 H 
ATOM      3  C   LIG d   1       6.426  -1.314  -3.199  0.00  0.00     0.117 C 
ATOM      4  H   LIG d   1       6.947  -1.688  -2.306  0.00  0.00     0.067 H 
ATOM      5  O   LIG d   1       5.829  -0.034  -2.898  0.00  0.00    -0.362 OA
ATOM      6  C   LIG d   1       4.586  -0.341  -2.229  0.00  0.00     0.110 C 
ATOM      7  H   LIG d   1       4.790  -0.547  -1.168  0.00  0.00     0.065 H 
ATOM      8  C   LIG d   1       4.008  -1.546  -3.004  0.00  0.00     0.102 C 
ATOM      9  H   LIG d   1       3.392  -2.228  -2.399  0.00  0.00     0.064 H 
ENDROOT
BRANCH   1  10
ATOM     10  N   LIG d   1       5.127  -2.183  -5.121  0.00  0.00    -0.284 N 
ATOM     11  C   LIG d   1       4.594  -3.457  -5.622  0.00  0.00     0.040 C 
ATOM     12  C   LIG d   1       4.559  -3.426  -7.152  0.00  0.00    -0.019 C 
ATOM     13  H   LIG d   1       3.576  -3.608  -5.235  0.00  0.00     0.048 H 
ATOM     14  H   LIG d   1       5.239  -4.283  -5.287  0.00  0.00     0.048 H 
ATOM     15  N   LIG d   1       3.727  -2.300  -7.597  0.00  0.00     0.235 N 
ATOM     16  H   LIG d   1       4.135  -4.368  -7.529  0.00  0.00     0.083 H 
ATOM     17  H   LIG d   1       5.581  -3.304  -7.541  0.00  0.00     0.083 H 
ATOM     18  C   LIG d   1       4.259  -1.025  -7.097  0.00  0.00    -0.019 C 
ATOM     19  H   LIG d   1       2.720  -2.435  -7.179  0.00  0.00     0.203 HD
ATOM     20  C   LIG d   1       4.295  -1.056  -5.567  0.00  0.00     0.040 C 
ATOM     21  H   LIG d   1       5.278  -0.876  -7.485  0.00  0.00     0.083 H 
ATOM     22  H   LIG d   1       3.614  -0.200  -7.433  0.00  0.00     0.083 H 
ATOM     23  H   LIG d   1       3.272  -1.179  -5.178  0.00  0.00     0.048 H 
ATOM     24  H   LIG d   1       4.720  -0.115  -5.190  0.00  0.00     0.048 H 
BRANCH  15  25
ATOM     25  C   LIG d   1       3.608  -2.281  -9.061  0.00  0.00    -0.043 C 
ATOM     26  H   LIG d   1       3.584  -1.239  -9.414  0.00  0.00     0.078 H 
ATOM     27  H   LIG d   1       2.679  -2.790  -9.360  0.00  0.00     0.078 H 
ATOM     28  H   LIG d   1       4.469  -2.799  -9.507  0.00  0.00     0.078 H 
ENDBRANCH  15  25
ENDBRANCH   1  10
BRANCH   8  29
ATOM     29  O   LIG d   1       3.088  -1.107  -4.005  0.00  0.00    -0.388 OA
ATOM     30  H   LIG d   1       2.138  -1.642  -4.151  0.00  0.00     0.210 HD
ENDBRANCH   8  29
BRANCH   3  31
ATOM     31  C   LIG d   1       7.453  -1.172  -4.324  0.00  0.00    -0.005 C 
ATOM     32  H   LIG d   1       7.006  -1.504  -5.273  0.00  0.00     0.084 H 
ATOM     33  H   LIG d   1       7.758  -0.119  -4.411  0.00  0.00     0.084 H 
BRANCH  31  34
ATOM     34  N   LIG d   1       8.629  -1.999  -4.020  0.00  0.00     0.233 N 
ATOM     35  H   LIG d   1       9.543  -1.447  -4.284  0.00  0.00     0.202 HD
ATOM     36  H   LIG d   1       8.641  -2.238  -2.947  0.00  0.00     0.202 HD
BRANCH  34  37
ATOM     37  C   LIG d   1       8.601  -3.255  -4.782  0.00  0.00     0.010 C 
ATOM     38  H   LIG d   1       7.589  -3.419  -5.180  0.00  0.00     0.088 H 
ATOM     39  H   LIG d   1       9.317  -3.194  -5.615  0.00  0.00     0.088 H 
BRANCH  37  40
ATOM     40  C   LIG d   1       8.978  -4.399  -3.878  0.00  0.00     0.086 A 
ATOM     41  N   LIG d   1       8.907  -5.636  -4.327  0.00  0.00    -0.255 NA
ATOM     42  C   LIG d   1       9.226  -6.669  -3.572  0.00  0.00     0.028 A 
ATOM     43  C   LIG d   1       9.650  -6.486  -2.269  0.00  0.00    -0.044 A 
ATOM     44  H   LIG d   1       9.155  -7.668  -3.975  0.00  0.00     0.083 H 
ATOM     45  C   LIG d   1       9.738  -5.200  -1.761  0.00  0.00    -0.058 A 
ATOM     46  H   LIG d   1       9.912  -7.336  -1.655  0.00  0.00     0.063 H 
ATOM     47  C   LIG d   1       9.399  -4.139  -2.586  0.00  0.00    -0.035 A 
ATOM     48  H   LIG d   1      10.067  -5.027  -0.747  0.00  0.00     0.062 H 
ATOM     49  H   LIG d   1       9.459  -3.123  -2.226  0.00  0.00     0.064 H 
ENDBRANCH  37  40
ENDBRANCH  34  37
ENDBRANCH  31  34
ENDBRANCH   3  31
BRANCH   6  50
ATOM     50  C   LIG d   1       3.628   0.850  -2.306  0.00  0.00     0.073 C 
ATOM     51  H   LIG d   1       2.609   0.490  -2.508  0.00  0.00     0.058 H 
ATOM     52  H   LIG d   1       3.642   1.393  -1.349  0.00  0.00     0.058 H 
BRANCH  50  53
ATOM     53  O   LIG d   1       4.041   1.725  -3.357  0.00  0.00    -0.392 OA
ATOM     54  H   LIG d   1       5.109   1.825  -3.603  0.00  0.00     0.209 HD
ENDBRANCH  50  53
ENDBRANCH   6  50
TORSDOF 9
ENDMDL
MODEL 8
REMARK VINA RESULT:      -5.6      2.670      4.914
REMARK  9 active torsions:
REMARK  status: ('A' for Active; 'I' for Inactive)
REMARK    1  A    between atoms: C_1  and  N_2 
REMARK    2  A    between atoms: N_5  and  C_8 
REMARK    3  A    between atoms: C_10  and  C_20 
REMARK    4  A    between atoms: C_13  and  C_18 
REMARK    5  A    between atoms: C_15  and  O_17 
REMARK    6  A    between atoms: C_18  and  O_19 
REMARK    7  A    between atoms: C_20  and  N_21 
REMARK    8  A    between atoms: N_21  and  C_22 
REMARK    9  A    between atoms: C_22  and  C_23 
ROOT
ATOM      1  C   LIG d   1       5.801  -0.249  -8.745  0.00  0.00     0.070 C 
ATOM      2  H   LIG d   1       6.534  -0.742  -9.398  0.00  0.00     0.052 H 
ATOM      3  C   LIG d   1       4.640  -1.165  -8.299  0.00  0.00     0.117 C 
ATOM      4  H   LIG d   1       4.386  -1.953  -9.023  0.00  0.00     0.067 H 
ATOM      5  O   LIG d   1       3.508  -0.279  -8.149  0.00  0.00    -0.362 OA
ATOM      6  C   LIG d   1       3.591   0.637  -9.263  0.00  0.00     0.110 C 
ATOM      7  H   LIG d   1       3.157   0.160 -10.153  0.00  0.00     0.065 H 
ATOM      8  C   LIG d   1       5.095   0.964  -9.393  0.00  0.00     0.102 C 
ATOM      9  H   LIG d   1       5.427   1.196 -10.416  0.00  0.00     0.064 H 
ENDROOT
BRANCH   1  10
ATOM     10  N   LIG d   1       6.595   0.178  -7.585  0.00  0.00    -0.284 N 
ATOM     11  C   LIG d   1       7.390  -0.936  -7.050  0.00  0.00     0.040 C 
ATOM     12  C   LIG d   1       8.139  -0.472  -5.799  0.00  0.00    -0.019 C 
ATOM     13  H   LIG d   1       8.113  -1.268  -7.809  0.00  0.00     0.048 H 
ATOM     14  H   LIG d   1       6.723  -1.772  -6.790  0.00  0.00     0.048 H 
ATOM     15  N   LIG d   1       8.999   0.668  -6.142  0.00  0.00     0.235 N 
ATOM     16  H   LIG d   1       8.757  -1.296  -5.414  0.00  0.00     0.083 H 
ATOM     17  H   LIG d   1       7.415  -0.167  -5.030  0.00  0.00     0.083 H 
ATOM     18  C   LIG d   1       8.205   1.784  -6.676  0.00  0.00    -0.019 C 
ATOM     19  H   LIG d   1       9.698   0.343  -6.927  0.00  0.00     0.203 HD
ATOM     20  C   LIG d   1       7.456   1.319  -7.927  0.00  0.00     0.040 C 
ATOM     21  H   LIG d   1       7.481   2.114  -5.916  0.00  0.00     0.083 H 
ATOM     22  H   LIG d   1       8.872   2.619  -6.935  0.00  0.00     0.083 H 
ATOM     23  H   LIG d   1       8.180   1.013  -8.697  0.00  0.00     0.048 H 
ATOM     24  H   LIG d   1       6.837   2.143  -8.312  0.00  0.00     0.048 H 
BRANCH  15  25
ATOM     25  C   LIG d   1       9.793   1.096  -4.982  0.00  0.00    -0.043 C 
ATOM     26  H   LIG d   1      10.417   1.958  -5.263  0.00  0.00     0.078 H 
ATOM     27  H   LIG d   1      10.438   0.268  -4.653  0.00  0.00     0.078 H 
ATOM     28  H   LIG d   1       9.119   1.384  -4.162  0.00  0.00     0.078 H 
ENDBRANCH  15  25
ENDBRANCH   1  10
BRANCH   8  29
ATOM     29  O   LIG d   1       5.413   2.165  -8.687  0.00  0.00    -0.388 OA
ATOM     30  H   LIG d   1       6.307   2.206  -8.048  0.00  0.00     0.210 HD
ENDBRANCH   8  29
BRANCH   3  31
ATOM     31  C   LIG d   1       4.973  -1.835  -6.965  0.00  0.00    -0.005 C 
ATOM     32  H   LIG d   1       5.038  -2.924  -7.107  0.00  0.00     0.084 H 
ATOM     33  H   LIG d   1       5.936  -1.455  -6.593  0.00  0.00     0.084 H 
BRANCH  31  34
ATOM     34  N   LIG d   1       3.918  -1.531  -5.988  0.00  0.00     0.233 N 
ATOM     35  H   LIG d   1       3.712  -0.451  -5.995  0.00  0.00     0.202 HD
ATOM     36  H   LIG d   1       3.004  -2.081  -6.253  0.00  0.00     0.202 HD
BRANCH  34  37
ATOM     37  C   LIG d   1       4.327  -1.924  -4.632  0.00  0.00     0.010 C 
ATOM     38  H   LIG d   1       3.679  -2.737  -4.275  0.00  0.00     0.088 H 
ATOM     39  H   LIG d   1       5.372  -2.267  -4.650  0.00  0.00     0.088 H 
BRANCH  37  40
ATOM     40  C   LIG d   1       4.203  -0.740  -3.709  0.00  0.00     0.086 A 
ATOM     41  N   LIG d   1       3.671   0.382  -4.153  0.00  0.00    -0.255 NA
ATOM     42  C   LIG d   1       3.543   1.443  -3.381  0.00  0.00     0.028 A 
ATOM     43  C   LIG d   1       3.966   1.415  -2.066  0.00  0.00    -0.044 A 
ATOM     44  H   LIG d   1       3.102   2.344  -3.781  0.00  0.00     0.083 H 
ATOM     45  C   LIG d   1       4.530   0.253  -1.562  0.00  0.00    -0.058 A 
ATOM     46  H   LIG d   1       3.856   2.287  -1.437  0.00  0.00     0.063 H 
ATOM     47  C   LIG d   1       4.644  -0.844  -2.402  0.00  0.00    -0.035 A 
ATOM     48  H   LIG d   1       4.869   0.202  -0.538  0.00  0.00     0.062 H 
ATOM     49  H   LIG d   1       5.074  -1.767  -2.042  0.00  0.00     0.064 H 
ENDBRANCH  37  40
ENDBRANCH  34  37
ENDBRANCH  31  34
ENDBRANCH   3  31
BRANCH   6  50
ATOM     50  C   LIG d   1       2.793   1.909  -8.970  0.00  0.00     0.073 C 
ATOM     51  H   LIG d   1       3.253   2.760  -9.492  0.00  0.00     0.058 H 
ATOM     52  H   LIG d   1       1.757   1.780  -9.319  0.00  0.00     0.058 H 
BRANCH  50  53
ATOM     53  O   LIG d   1       2.793   2.157  -7.563  0.00  0.00    -0.392 OA
ATOM     54  H   LIG d   1       3.459   2.924  -7.139  0.00  0.00     0.209 HD
ENDBRANCH  50  53
ENDBRANCH   6  50
TORSDOF 9
ENDMDL
MODEL 9
REMARK VINA RESULT:      -5.6      2.622      3.724
REMARK  9 active torsions:
REMARK  status: ('A' for Active; 'I' for Inactive)
REMARK    1  A    between atoms: C_1  and  N_2 
REMARK    2  A    between atoms: N_5  and  C_8 
REMARK    3  A    between atoms: C_10  and  C_20 
REMARK    4  A    between atoms: C_13  and  C_18 
REMARK    5  A    between atoms: C_15  and  O_17 
REMARK    6  A    between atoms: C_18  and  O_19 
REMARK    7  A    between atoms: C_20  and  N_21 
REMARK    8  A    between atoms: N_21  and  C_22 
REMARK    9  A    between atoms: C_22  and  C_23 
ROOT
ATOM      1  C   LIG d   1       3.467  -1.846  -8.564  0.00  0.00     0.070 C 
ATOM      2  H   LIG d   1       2.861  -2.684  -8.190  0.00  0.00     0.052 H 
ATOM      3  C   LIG d   1       2.964  -0.457  -8.114  0.00  0.00     0.117 C 
ATOM      4  H   LIG d   1       1.878  -0.405  -7.948  0.00  0.00     0.067 H 
ATOM      5  O   LIG d   1       3.320   0.433  -9.196  0.00  0.00    -0.362 OA
ATOM      6  C   LIG d   1       3.041  -0.308 -10.404  0.00  0.00     0.110 C 
ATOM      7  H   LIG d   1       1.969  -0.230 -10.633  0.00  0.00     0.065 H 
ATOM      8  C   LIG d   1       3.519  -1.746 -10.106  0.00  0.00     0.102 C 
ATOM      9  H   LIG d   1       2.964  -2.533 -10.637  0.00  0.00     0.064 H 
ENDROOT
BRANCH   1  10
ATOM     10  N   LIG d   1       4.806  -2.110  -8.020  0.00  0.00    -0.284 N 
ATOM     11  C   LIG d   1       4.756  -2.297  -6.564  0.00  0.00     0.040 C 
ATOM     12  C   LIG d   1       6.177  -2.491  -6.028  0.00  0.00    -0.019 C 
ATOM     13  H   LIG d   1       4.151  -3.185  -6.327  0.00  0.00     0.048 H 
ATOM     14  H   LIG d   1       4.305  -1.411  -6.094  0.00  0.00     0.048 H 
ATOM     15  N   LIG d   1       6.791  -3.653  -6.684  0.00  0.00     0.235 N 
ATOM     16  H   LIG d   1       6.140  -2.659  -4.942  0.00  0.00     0.083 H 
ATOM     17  H   LIG d   1       6.775  -1.592  -6.239  0.00  0.00     0.083 H 
ATOM     18  C   LIG d   1       6.841  -3.466  -8.141  0.00  0.00    -0.019 C 
ATOM     19  H   LIG d   1       6.164  -4.532  -6.476  0.00  0.00     0.203 HD
ATOM     20  C   LIG d   1       5.421  -3.273  -8.677  0.00  0.00     0.040 C 
ATOM     21  H   LIG d   1       7.447  -2.578  -8.376  0.00  0.00     0.083 H 
ATOM     22  H   LIG d   1       7.293  -4.353  -8.609  0.00  0.00     0.083 H 
ATOM     23  H   LIG d   1       4.822  -4.172  -8.466  0.00  0.00     0.048 H 
ATOM     24  H   LIG d   1       5.457  -3.103  -9.763  0.00  0.00     0.048 H 
BRANCH  15  25
ATOM     25  C   LIG d   1       8.130  -3.917  -6.142  0.00  0.00    -0.043 C 
ATOM     26  H   LIG d   1       8.088  -4.788  -5.470  0.00  0.00     0.078 H 
ATOM     27  H   LIG d   1       8.478  -3.037  -5.580  0.00  0.00     0.078 H 
ATOM     28  H   LIG d   1       8.826  -4.124  -6.967  0.00  0.00     0.078 H 
ENDBRANCH  15  25
ENDBRANCH   1  10
BRANCH   8  29
ATOM     29  O   LIG d   1       4.854  -1.941 -10.575  0.00  0.00    -0.388 OA
ATOM     30  H   LIG d   1       5.640  -2.266  -9.877  0.00  0.00     0.210 HD
ENDBRANCH   8  29
BRANCH   3  31
ATOM     31  C   LIG d   1       3.663  -0.031  -6.822  0.00  0.00    -0.005 C 
ATOM     32  H   LIG d   1       3.767  -0.901  -6.157  0.00  0.00     0.084 H 
ATOM     33  H   LIG d   1       4.660   0.371  -7.059  0.00  0.00     0.084 H 
BRANCH  31  34
ATOM     34  N   LIG d   1       2.865   1.005  -6.152  0.00  0.00     0.233 N 
ATOM     35  H   LIG d   1       3.532   1.792  -5.771  0.00  0.00     0.202 HD
ATOM     36  H   LIG d   1       2.154   1.441  -6.869  0.00  0.00     0.202 HD
BRANCH  34  37
ATOM     37  C   LIG d   1       2.109   0.441  -5.025  0.00  0.00     0.010 C 
ATOM     38  H   LIG d   1       1.264   1.102  -4.783  0.00  0.00     0.088 H 
ATOM     39  H   LIG d   1       1.730  -0.554  -5.300  0.00  0.00     0.088 H 
BRANCH  37  40
ATOM     40  C   LIG d   1       3.013   0.321  -3.826  0.00  0.00     0.086 A 
ATOM     41  N   LIG d   1       3.658   1.384  -3.385  0.00  0.00    -0.255 NA
ATOM     42  C   LIG d   1       4.459   1.325  -2.340  0.00  0.00     0.028 A 
ATOM     43  C   LIG d   1       4.653   0.136  -1.664  0.00  0.00    -0.044 A 
ATOM     44  H   LIG d   1       4.970   2.218  -2.009  0.00  0.00     0.083 H 
ATOM     45  C   LIG d   1       3.992  -1.003  -2.097  0.00  0.00    -0.058 A 
ATOM     46  H   LIG d   1       5.310   0.095  -0.806  0.00  0.00     0.063 H 
ATOM     47  C   LIG d   1       3.154  -0.902  -3.196  0.00  0.00    -0.035 A 
ATOM     48  H   LIG d   1       4.124  -1.946  -1.588  0.00  0.00     0.062 H 
ATOM     49  H   LIG d   1       2.620  -1.768  -3.559  0.00  0.00     0.064 H 
ENDBRANCH  37  40
ENDBRANCH  34  37
ENDBRANCH  31  34
ENDBRANCH   3  31
BRANCH   6  50
ATOM     50  C   LIG d   1       3.822   0.278 -11.582  0.00  0.00     0.073 C 
ATOM     51  H   LIG d   1       4.196  -0.538 -12.218  0.00  0.00     0.058 H 
ATOM     52  H   LIG d   1       3.159   0.929 -12.173  0.00  0.00     0.058 H 
BRANCH  50  53
ATOM     53  O   LIG d   1       4.924   1.043 -11.090  0.00  0.00    -0.392 OA
ATOM     54  H   LIG d   1       5.872   0.544 -10.842  0.00  0.00     0.209 HD
ENDBRANCH  50  53
ENDBRANCH   6  50
TORSDOF 9
ENDMDL
