MODEL 1
REMARK VINA RESULT:      -7.1      0.000      0.000
REMARK  6 active torsions:
REMARK  status: ('A' for Active; 'I' for Inactive)
REMARK    1  A    between atoms: C_4  and  C_7 
REMARK    2  A    between atoms: C_14  and  N_25 
REMARK    3  A    between atoms: C_15  and  N_16 
REMARK    4  A    between atoms: N_16  and  N_17 
REMARK    5  A    between atoms: N_17  and  C_18 
REMARK    6  A    between atoms: C_21  and  O_24 
ROOT
ATOM      1  C   LIG d   1       6.636  -2.396  -3.761  0.00  0.00     0.076 A 
ATOM      2  C   LIG d   1       7.964  -2.576  -3.485  0.00  0.00    -0.025 A 
ATOM      3  C   LIG d   1       8.639  -3.666  -4.054  0.00  0.00    -0.008 A 
ATOM      4  N   LIG d   1       7.995  -4.505  -4.847  0.00  0.00    -0.242 NA
ATOM      5  C   LIG d   1       6.701  -4.336  -5.121  0.00  0.00     0.185 A 
ATOM      6  N   LIG d   1       5.999  -3.291  -4.585  0.00  0.00    -0.210 N 
ATOM      7  N   LIG d   1       4.678  -3.372  -5.038  0.00  0.00    -0.147 NA
ATOM      8  C   LIG d   1       4.545  -4.418  -5.819  0.00  0.00     0.168 A 
ATOM      9  C   LIG d   1       5.797  -5.067  -5.918  0.00  0.00     0.171 A 
ATOM     10  O   LIG d   1       9.954  -3.859  -3.791  0.00  0.00    -0.860 OA
ATOM     11  H   LIG d   1       8.486  -1.888  -2.836  0.00  0.00     0.065 H 
ENDROOT
BRANCH   9  12
ATOM     12  N   LIG d   1       6.071  -6.182  -6.627  0.00  0.00    -0.142 NA
BRANCH  12  13
ATOM     13  N   LIG d   1       5.371  -7.250  -6.446  0.00  0.00    -0.149 NA
BRANCH  13  14
ATOM     14  C   LIG d   1       5.688  -8.112  -5.432  0.00  0.00     0.086 A 
ATOM     15  C   LIG d   1       6.997  -8.171  -4.946  0.00  0.00    -0.031 A 
ATOM     16  C   LIG d   1       7.311  -9.035  -3.921  0.00  0.00    -0.018 A 
ATOM     17  H   LIG d   1       7.760  -7.535  -5.371  0.00  0.00     0.064 H 
ATOM     18  C   LIG d   1       6.331  -9.857  -3.378  0.00  0.00     0.117 A 
ATOM     19  H   LIG d   1       8.321  -9.078  -3.541  0.00  0.00     0.066 H 
ATOM     20  C   LIG d   1       5.030  -9.807  -3.862  0.00  0.00    -0.018 A 
ATOM     21  C   LIG d   1       4.705  -8.941  -4.883  0.00  0.00    -0.031 A 
ATOM     22  H   LIG d   1       4.271 -10.447  -3.437  0.00  0.00     0.066 H 
ATOM     23  H   LIG d   1       3.694  -8.902  -5.259  0.00  0.00     0.064 H 
BRANCH  18  24
ATOM     24  O   LIG d   1       6.646 -10.713  -2.371  0.00  0.00    -0.507 OA
ATOM     25  H   LIG d   1       6.858 -10.275  -1.535  0.00  0.00     0.292 HD
ENDBRANCH  18  24
ENDBRANCH  13  14
ENDBRANCH  12  13
ENDBRANCH   9  12
BRANCH   8  26
ATOM     26  N   LIG d   1       3.370  -4.816  -6.453  0.00  0.00    -0.340 N 
ATOM     27  H   LIG d   1       2.769  -4.150  -6.822  0.00  0.00     0.144 HD
ATOM     28  H   LIG d   1       3.153  -5.759  -6.525  0.00  0.00     0.144 HD
ENDBRANCH   8  26
BRANCH   1  29
ATOM     29  C   LIG d   1       5.897  -1.258  -3.177  0.00  0.00     0.001 A 
ATOM     30  C   LIG d   1       4.803  -1.486  -2.342  0.00  0.00    -0.053 A 
ATOM     31  C   LIG d   1       4.118  -0.419  -1.799  0.00  0.00    -0.061 A 
ATOM     32  H   LIG d   1       4.493  -2.497  -2.119  0.00  0.00     0.062 H 
ATOM     33  C   LIG d   1       4.513   0.876  -2.082  0.00  0.00    -0.062 A 
ATOM     34  H   LIG d   1       3.271  -0.595  -1.153  0.00  0.00     0.062 H 
ATOM     35  C   LIG d   1       5.597   1.111  -2.909  0.00  0.00    -0.061 A 
ATOM     36  H   LIG d   1       3.970   1.709  -1.658  0.00  0.00     0.062 H 
ATOM     37  C   LIG d   1       6.291   0.053  -3.457  0.00  0.00    -0.053 A 
ATOM     38  H   LIG d   1       5.900   2.125  -3.125  0.00  0.00     0.062 H 
ATOM     39  H   LIG d   1       7.138   0.237  -4.103  0.00  0.00     0.062 H 
ENDBRANCH   1  29
TORSDOF 6
ENDMDL
MODEL 2
REMARK VINA RESULT:      -7.0      6.420     10.737
REMARK  6 active torsions:
REMARK  status: ('A' for Active; 'I' for Inactive)
REMARK    1  A    between atoms: C_4  and  C_7 
REMARK    2  A    between atoms: C_14  and  N_25 
REMARK    3  A    between atoms: C_15  and  N_16 
REMARK    4  A    between atoms: N_16  and  N_17 
REMARK    5  A    between atoms: N_17  and  C_18 
REMARK    6  A    between atoms: C_21  and  O_24 
ROOT
ATOM      1  C   LIG d   1       6.880   0.682  -4.861  0.00  0.00     0.076 A 
ATOM      2  C   LIG d   1       6.716   0.183  -6.125  0.00  0.00    -0.025 A 
ATOM      3  C   LIG d   1       7.522   0.671  -7.163  0.00  0.00    -0.008 A 
ATOM      4  N   LIG d   1       8.428   1.602  -6.918  0.00  0.00    -0.242 NA
ATOM      5  C   LIG d   1       8.594   2.093  -5.690  0.00  0.00     0.185 A 
ATOM      6  N   LIG d   1       7.828   1.652  -4.646  0.00  0.00    -0.210 N 
ATOM      7  N   LIG d   1       8.217   2.343  -3.494  0.00  0.00    -0.147 NA
ATOM      8  C   LIG d   1       9.179   3.184  -3.790  0.00  0.00     0.168 A 
ATOM      9  C   LIG d   1       9.469   3.068  -5.169  0.00  0.00     0.171 A 
ATOM     10  O   LIG d   1       7.372   0.188  -8.420  0.00  0.00    -0.860 OA
ATOM     11  H   LIG d   1       5.974  -0.577  -6.320  0.00  0.00     0.065 H 
ENDROOT
BRANCH   9  12
ATOM     12  N   LIG d   1      10.397   3.766  -5.857  0.00  0.00    -0.142 NA
BRANCH  12  13
ATOM     13  N   LIG d   1      10.638   4.995  -5.551  0.00  0.00    -0.149 NA
BRANCH  13  14
ATOM     14  C   LIG d   1      10.105   6.005  -6.305  0.00  0.00     0.086 A 
ATOM     15  C   LIG d   1       9.945   5.839  -7.684  0.00  0.00    -0.031 A 
ATOM     16  C   LIG d   1       9.403   6.856  -8.439  0.00  0.00    -0.018 A 
ATOM     17  H   LIG d   1      10.240   4.914  -8.154  0.00  0.00     0.064 H 
ATOM     18  C   LIG d   1       9.028   8.049  -7.834  0.00  0.00     0.117 A 
ATOM     19  H   LIG d   1       9.273   6.727  -9.503  0.00  0.00     0.066 H 
ATOM     20  C   LIG d   1       9.192   8.221  -6.466  0.00  0.00    -0.018 A 
ATOM     21  C   LIG d   1       9.728   7.207  -5.701  0.00  0.00    -0.031 A 
ATOM     22  H   LIG d   1       8.899   9.150  -5.999  0.00  0.00     0.066 H 
ATOM     23  H   LIG d   1       9.855   7.341  -4.637  0.00  0.00     0.064 H 
BRANCH  18  24
ATOM     24  O   LIG d   1       8.500   9.052  -8.583  0.00  0.00    -0.507 OA
ATOM     25  H   LIG d   1       8.696   9.938  -8.250  0.00  0.00     0.292 HD
ENDBRANCH  18  24
ENDBRANCH  13  14
ENDBRANCH  12  13
ENDBRANCH   9  12
BRANCH   8  26
ATOM     26  N   LIG d   1       9.816   4.042  -2.894  0.00  0.00    -0.340 N 
ATOM     27  H   LIG d   1      10.088   3.716  -2.022  0.00  0.00     0.144 HD
ATOM     28  H   LIG d   1       9.985   4.964  -3.143  0.00  0.00     0.144 HD
ENDBRANCH   8  26
BRANCH   1  29
ATOM     29  C   LIG d   1       6.046   0.189  -3.746  0.00  0.00     0.001 A 
ATOM     30  C   LIG d   1       5.895  -1.182  -3.537  0.00  0.00    -0.053 A 
ATOM     31  C   LIG d   1       5.115  -1.636  -2.492  0.00  0.00    -0.061 A 
ATOM     32  H   LIG d   1       6.387  -1.888  -4.189  0.00  0.00     0.062 H 
ATOM     33  C   LIG d   1       4.483  -0.735  -1.654  0.00  0.00    -0.062 A 
ATOM     34  H   LIG d   1       4.998  -2.697  -2.329  0.00  0.00     0.062 H 
ATOM     35  C   LIG d   1       4.629   0.627  -1.856  0.00  0.00    -0.061 A 
ATOM     36  H   LIG d   1       3.871  -1.096  -0.841  0.00  0.00     0.062 H 
ATOM     37  C   LIG d   1       5.406   1.093  -2.895  0.00  0.00    -0.053 A 
ATOM     38  H   LIG d   1       4.133   1.324  -1.197  0.00  0.00     0.062 H 
ATOM     39  H   LIG d   1       5.519   2.156  -3.051  0.00  0.00     0.062 H 
ENDBRANCH   1  29
TORSDOF 6
ENDMDL
MODEL 3
REMARK VINA RESULT:      -6.9      2.652      3.957
REMARK  6 active torsions:
REMARK  status: ('A' for Active; 'I' for Inactive)
REMARK    1  A    between atoms: C_4  and  C_7 
REMARK    2  A    between atoms: C_14  and  N_25 
REMARK    3  A    between atoms: C_15  and  N_16 
REMARK    4  A    between atoms: N_16  and  N_17 
REMARK    5  A    between atoms: N_17  and  C_18 
REMARK    6  A    between atoms: C_21  and  O_24 
ROOT
ATOM      1  C   LIG d   1       5.192  -2.089  -4.126  0.00  0.00     0.076 A 
ATOM      2  C   LIG d   1       4.390  -3.175  -4.349  0.00  0.00    -0.025 A 
ATOM      3  C   LIG d   1       4.944  -4.329  -4.921  0.00  0.00    -0.008 A 
ATOM      4  N   LIG d   1       6.226  -4.361  -5.240  0.00  0.00    -0.242 NA
ATOM      5  C   LIG d   1       7.015  -3.308  -5.026  0.00  0.00     0.185 A 
ATOM      6  N   LIG d   1       6.518  -2.158  -4.475  0.00  0.00    -0.210 N 
ATOM      7  N   LIG d   1       7.563  -1.233  -4.377  0.00  0.00    -0.147 NA
ATOM      8  C   LIG d   1       8.666  -1.765  -4.847  0.00  0.00     0.168 A 
ATOM      9  C   LIG d   1       8.386  -3.085  -5.267  0.00  0.00     0.171 A 
ATOM     10  O   LIG d   1       4.163  -5.413  -5.149  0.00  0.00    -0.860 OA
ATOM     11  H   LIG d   1       3.342  -3.144  -4.087  0.00  0.00     0.065 H 
ENDROOT
BRANCH   9  12
ATOM     12  N   LIG d   1       9.259  -3.960  -5.809  0.00  0.00    -0.142 NA
BRANCH  12  13
ATOM     13  N   LIG d   1      10.219  -4.439  -5.093  0.00  0.00    -0.149 NA
BRANCH  13  14
ATOM     14  C   LIG d   1       9.951  -5.359  -4.117  0.00  0.00     0.086 A 
ATOM     15  C   LIG d   1      10.105  -5.015  -2.771  0.00  0.00    -0.031 A 
ATOM     16  C   LIG d   1       9.828  -5.943  -1.790  0.00  0.00    -0.018 A 
ATOM     17  H   LIG d   1      10.435  -4.024  -2.501  0.00  0.00     0.064 H 
ATOM     18  C   LIG d   1       9.410  -7.221  -2.137  0.00  0.00     0.117 A 
ATOM     19  H   LIG d   1       9.942  -5.677  -0.749  0.00  0.00     0.066 H 
ATOM     20  C   LIG d   1       9.262  -7.568  -3.474  0.00  0.00    -0.018 A 
ATOM     21  C   LIG d   1       9.530  -6.646  -4.462  0.00  0.00    -0.031 A 
ATOM     22  H   LIG d   1       8.936  -8.563  -3.740  0.00  0.00     0.066 H 
ATOM     23  H   LIG d   1       9.415  -6.917  -5.501  0.00  0.00     0.064 H 
BRANCH  18  24
ATOM     24  O   LIG d   1       9.144  -8.134  -1.167  0.00  0.00    -0.507 OA
ATOM     25  H   LIG d   1       8.213  -8.173  -0.909  0.00  0.00     0.292 HD
ENDBRANCH  18  24
ENDBRANCH  13  14
ENDBRANCH  12  13
ENDBRANCH   9  12
BRANCH   8  26
ATOM     26  N   LIG d   1       9.910  -1.138  -4.910  0.00  0.00    -0.340 N 
ATOM     27  H   LIG d   1       9.969  -0.172  -4.852  0.00  0.00     0.144 HD
ATOM     28  H   LIG d   1      10.715  -1.669  -5.014  0.00  0.00     0.144 HD
ENDBRANCH   8  26
BRANCH   1  29
ATOM     29  C   LIG d   1       4.639  -0.858  -3.525  0.00  0.00     0.001 A 
ATOM     30  C   LIG d   1       5.004  -0.484  -2.231  0.00  0.00    -0.053 A 
ATOM     31  C   LIG d   1       4.485   0.667  -1.676  0.00  0.00    -0.061 A 
ATOM     32  H   LIG d   1       5.694  -1.093  -1.665  0.00  0.00     0.062 H 
ATOM     33  C   LIG d   1       3.601   1.449  -2.398  0.00  0.00    -0.062 A 
ATOM     34  H   LIG d   1       4.767   0.957  -0.675  0.00  0.00     0.062 H 
ATOM     35  C   LIG d   1       3.235   1.084  -3.682  0.00  0.00    -0.061 A 
ATOM     36  H   LIG d   1       3.194   2.347  -1.957  0.00  0.00     0.062 H 
ATOM     37  C   LIG d   1       3.747  -0.063  -4.249  0.00  0.00    -0.053 A 
ATOM     38  H   LIG d   1       2.545   1.700  -4.240  0.00  0.00     0.062 H 
ATOM     39  H   LIG d   1       3.460  -0.347  -5.251  0.00  0.00     0.062 H 
ENDBRANCH   1  29
TORSDOF 6
ENDMDL
MODEL 4
REMARK VINA RESULT:      -6.8      4.579      7.388
REMARK  6 active torsions:
REMARK  status: ('A' for Active; 'I' for Inactive)
REMARK    1  A    between atoms: C_4  and  C_7 
REMARK    2  A    between atoms: C_14  and  N_25 
REMARK    3  A    between atoms: C_15  and  N_16 
REMARK    4  A    between atoms: N_16  and  N_17 
REMARK    5  A    between atoms: N_17  and  C_18 
REMARK    6  A    between atoms: C_21  and  O_24 
ROOT
ATOM      1  C   LIG d   1       4.267  -0.680  -9.008  0.00  0.00     0.076 A 
ATOM      2  C   LIG d   1       5.056   0.438  -8.978  0.00  0.00    -0.025 A 
ATOM      3  C   LIG d   1       6.033   0.558  -7.979  0.00  0.00    -0.008 A 
ATOM      4  N   LIG d   1       6.185  -0.399  -7.081  0.00  0.00    -0.242 NA
ATOM      5  C   LIG d   1       5.420  -1.491  -7.103  0.00  0.00     0.185 A 
ATOM      6  N   LIG d   1       4.451  -1.651  -8.055  0.00  0.00    -0.210 N 
ATOM      7  N   LIG d   1       3.812  -2.875  -7.828  0.00  0.00    -0.147 NA
ATOM      8  C   LIG d   1       4.345  -3.461  -6.782  0.00  0.00     0.168 A 
ATOM      9  C   LIG d   1       5.377  -2.636  -6.282  0.00  0.00     0.171 A 
ATOM     10  O   LIG d   1       6.822   1.658  -7.935  0.00  0.00    -0.860 OA
ATOM     11  H   LIG d   1       4.928   1.217  -9.715  0.00  0.00     0.065 H 
ENDROOT
BRANCH   9  12
ATOM     12  N   LIG d   1       6.163  -2.888  -5.213  0.00  0.00    -0.142 NA
BRANCH  12  13
ATOM     13  N   LIG d   1       5.648  -2.933  -4.031  0.00  0.00    -0.149 NA
BRANCH  13  14
ATOM     14  C   LIG d   1       5.081  -1.813  -3.490  0.00  0.00     0.086 A 
ATOM     15  C   LIG d   1       5.874  -0.702  -3.188  0.00  0.00    -0.031 A 
ATOM     16  C   LIG d   1       5.297   0.427  -2.648  0.00  0.00    -0.018 A 
ATOM     17  H   LIG d   1       6.935  -0.727  -3.383  0.00  0.00     0.064 H 
ATOM     18  C   LIG d   1       3.932   0.457  -2.391  0.00  0.00     0.117 A 
ATOM     19  H   LIG d   1       5.907   1.288  -2.420  0.00  0.00     0.066 H 
ATOM     20  C   LIG d   1       3.141  -0.647  -2.683  0.00  0.00    -0.018 A 
ATOM     21  C   LIG d   1       3.708  -1.778  -3.229  0.00  0.00    -0.031 A 
ATOM     22  H   LIG d   1       2.081  -0.619  -2.482  0.00  0.00     0.066 H 
ATOM     23  H   LIG d   1       3.093  -2.635  -3.456  0.00  0.00     0.064 H 
BRANCH  18  24
ATOM     24  O   LIG d   1       3.369   1.570  -1.853  0.00  0.00    -0.507 OA
ATOM     25  H   LIG d   1       4.004   2.264  -1.629  0.00  0.00     0.292 HD
ENDBRANCH  18  24
ENDBRANCH  13  14
ENDBRANCH  12  13
ENDBRANCH   9  12
BRANCH   8  26
ATOM     26  N   LIG d   1       3.964  -4.696  -6.259  0.00  0.00    -0.340 N 
ATOM     27  H   LIG d   1       4.265  -4.962  -5.376  0.00  0.00     0.144 HD
ATOM     28  H   LIG d   1       3.399  -5.289  -6.779  0.00  0.00     0.144 HD
ENDBRANCH   8  26
BRANCH   1  29
ATOM     29  C   LIG d   1       3.229  -0.837 -10.048  0.00  0.00     0.001 A 
ATOM     30  C   LIG d   1       3.586  -1.206 -11.345  0.00  0.00    -0.053 A 
ATOM     31  C   LIG d   1       2.611  -1.352 -12.311  0.00  0.00    -0.061 A 
ATOM     32  H   LIG d   1       4.622  -1.377 -11.594  0.00  0.00     0.062 H 
ATOM     33  C   LIG d   1       1.282  -1.132 -11.995  0.00  0.00    -0.062 A 
ATOM     34  H   LIG d   1       2.886  -1.636 -13.315  0.00  0.00     0.062 H 
ATOM     35  C   LIG d   1       0.921  -0.767 -10.710  0.00  0.00    -0.061 A 
ATOM     36  H   LIG d   1       0.523  -1.244 -12.756  0.00  0.00     0.062 H 
ATOM     37  C   LIG d   1       1.885  -0.619  -9.736  0.00  0.00    -0.053 A 
ATOM     38  H   LIG d   1      -0.119  -0.598 -10.471  0.00  0.00     0.062 H 
ATOM     39  H   LIG d   1       1.601  -0.334  -8.732  0.00  0.00     0.062 H 
ENDBRANCH   1  29
TORSDOF 6
ENDMDL
MODEL 5
REMARK VINA RESULT:      -6.8      5.526      7.260
REMARK  6 active torsions:
REMARK  status: ('A' for Active; 'I' for Inactive)
REMARK    1  A    between atoms: C_4  and  C_7 
REMARK    2  A    between atoms: C_14  and  N_25 
REMARK    3  A    between atoms: C_15  and  N_16 
REMARK    4  A    between atoms: N_16  and  N_17 
REMARK    5  A    between atoms: N_17  and  C_18 
REMARK    6  A    between atoms: C_21  and  O_24 
ROOT
ATOM      1  C   LIG d   1       4.348  -1.178  -5.557  0.00  0.00     0.076 A 
ATOM      2  C   LIG d   1       4.725  -2.493  -5.602  0.00  0.00    -0.025 A 
ATOM      3  C   LIG d   1       4.653  -3.184  -6.821  0.00  0.00    -0.008 A 
ATOM      4  N   LIG d   1       4.225  -2.567  -7.908  0.00  0.00    -0.242 NA
ATOM      5  C   LIG d   1       3.856  -1.286  -7.873  0.00  0.00     0.185 A 
ATOM      6  N   LIG d   1       3.904  -0.573  -6.706  0.00  0.00    -0.210 N 
ATOM      7  N   LIG d   1       3.456   0.727  -6.969  0.00  0.00    -0.147 NA
ATOM      8  C   LIG d   1       3.135   0.833  -8.236  0.00  0.00     0.168 A 
ATOM      9  C   LIG d   1       3.374  -0.410  -8.866  0.00  0.00     0.171 A 
ATOM     10  O   LIG d   1       5.022  -4.485  -6.883  0.00  0.00    -0.860 OA
ATOM     11  H   LIG d   1       5.075  -2.992  -4.710  0.00  0.00     0.065 H 
ENDROOT
BRANCH   9  12
ATOM     12  N   LIG d   1       3.167  -0.706 -10.167  0.00  0.00    -0.142 NA
BRANCH  12  13
ATOM     13  N   LIG d   1       1.988  -0.582 -10.676  0.00  0.00    -0.149 NA
BRANCH  13  14
ATOM     14  C   LIG d   1       1.309  -1.689 -11.105  0.00  0.00     0.086 A 
ATOM     15  C   LIG d   1       0.666  -1.679 -12.347  0.00  0.00    -0.031 A 
ATOM     16  C   LIG d   1      -0.011  -2.798 -12.778  0.00  0.00    -0.018 A 
ATOM     17  H   LIG d   1       0.707  -0.797 -12.968  0.00  0.00     0.064 H 
ATOM     18  C   LIG d   1      -0.068  -3.931 -11.976  0.00  0.00     0.117 A 
ATOM     19  H   LIG d   1      -0.503  -2.794 -13.740  0.00  0.00     0.066 H 
ATOM     20  C   LIG d   1       0.563  -3.943 -10.739  0.00  0.00    -0.018 A 
ATOM     21  C   LIG d   1       1.249  -2.831 -10.302  0.00  0.00    -0.031 A 
ATOM     22  H   LIG d   1       0.517  -4.826 -10.119  0.00  0.00     0.066 H 
ATOM     23  H   LIG d   1       1.740  -2.841  -9.340  0.00  0.00     0.064 H 
BRANCH  18  24
ATOM     24  O   LIG d   1      -0.742  -5.030 -12.403  0.00  0.00    -0.507 OA
ATOM     25  H   LIG d   1      -1.681  -4.874 -12.577  0.00  0.00     0.292 HD
ENDBRANCH  18  24
ENDBRANCH  13  14
ENDBRANCH  12  13
ENDBRANCH   9  12
BRANCH   8  26
ATOM     26  N   LIG d   1       2.650   1.981  -8.860  0.00  0.00    -0.340 N 
ATOM     27  H   LIG d   1       2.172   2.648  -8.343  0.00  0.00     0.144 HD
ATOM     28  H   LIG d   1       2.789   2.112  -9.811  0.00  0.00     0.144 HD
ENDBRANCH   8  26
BRANCH   1  29
ATOM     29  C   LIG d   1       4.413  -0.423  -4.289  0.00  0.00     0.001 A 
ATOM     30  C   LIG d   1       5.623   0.124  -3.859  0.00  0.00    -0.053 A 
ATOM     31  C   LIG d   1       5.676   0.829  -2.674  0.00  0.00    -0.061 A 
ATOM     32  H   LIG d   1       6.516  -0.003  -4.452  0.00  0.00     0.062 H 
ATOM     33  C   LIG d   1       4.534   0.994  -1.912  0.00  0.00    -0.062 A 
ATOM     34  H   LIG d   1       6.612   1.252  -2.341  0.00  0.00     0.062 H 
ATOM     35  C   LIG d   1       3.330   0.455  -2.332  0.00  0.00    -0.061 A 
ATOM     36  H   LIG d   1       4.581   1.543  -0.983  0.00  0.00     0.062 H 
ATOM     37  C   LIG d   1       3.263  -0.251  -3.515  0.00  0.00    -0.053 A 
ATOM     38  H   LIG d   1       2.442   0.588  -1.732  0.00  0.00     0.062 H 
ATOM     39  H   LIG d   1       2.323  -0.672  -3.842  0.00  0.00     0.062 H 
ENDBRANCH   1  29
TORSDOF 6
ENDMDL
MODEL 6
REMARK VINA RESULT:      -6.7      1.918      3.342
REMARK  6 active torsions:
REMARK  status: ('A' for Active; 'I' for Inactive)
REMARK    1  A    between atoms: C_4  and  C_7 
REMARK    2  A    between atoms: C_14  and  N_25 
REMARK    3  A    between atoms: C_15  and  N_16 
REMARK    4  A    between atoms: N_16  and  N_17 
REMARK    5  A    between atoms: N_17  and  C_18 
REMARK    6  A    between atoms: C_21  and  O_24 
ROOT
ATOM      1  C   LIG d   1       5.654  -2.533  -4.213  0.00  0.00     0.076 A 
ATOM      2  C   LIG d   1       4.686  -3.091  -5.003  0.00  0.00    -0.025 A 
ATOM      3  C   LIG d   1       4.983  -4.251  -5.733  0.00  0.00    -0.008 A 
ATOM      4  N   LIG d   1       6.186  -4.794  -5.654  0.00  0.00    -0.242 NA
ATOM      5  C   LIG d   1       7.134  -4.257  -4.887  0.00  0.00     0.185 A 
ATOM      6  N   LIG d   1       6.893  -3.123  -4.161  0.00  0.00    -0.210 N 
ATOM      7  N   LIG d   1       8.060  -2.791  -3.464  0.00  0.00    -0.147 NA
ATOM      8  C   LIG d   1       8.997  -3.668  -3.737  0.00  0.00     0.168 A 
ATOM      9  C   LIG d   1       8.469  -4.629  -4.629  0.00  0.00     0.171 A 
ATOM     10  O   LIG d   1       4.036  -4.815  -6.520  0.00  0.00    -0.860 OA
ATOM     11  H   LIG d   1       3.705  -2.643  -5.064  0.00  0.00     0.065 H 
ENDROOT
BRANCH   9  12
ATOM     12  N   LIG d   1       9.122  -5.691  -5.147  0.00  0.00    -0.142 NA
BRANCH  12  13
ATOM     13  N   LIG d   1       9.633  -6.578  -4.362  0.00  0.00    -0.149 NA
BRANCH  13  14
ATOM     14  C   LIG d   1       8.835  -7.537  -3.802  0.00  0.00     0.086 A 
ATOM     15  C   LIG d   1       9.035  -7.927  -2.475  0.00  0.00    -0.031 A 
ATOM     16  C   LIG d   1       8.225  -8.890  -1.913  0.00  0.00    -0.018 A 
ATOM     17  H   LIG d   1       9.819  -7.470  -1.890  0.00  0.00     0.064 H 
ATOM     18  C   LIG d   1       7.221  -9.482  -2.667  0.00  0.00     0.117 A 
ATOM     19  H   LIG d   1       8.375  -9.188  -0.886  0.00  0.00     0.066 H 
ATOM     20  C   LIG d   1       7.022  -9.103  -3.988  0.00  0.00    -0.018 A 
ATOM     21  C   LIG d   1       7.823  -8.136  -4.557  0.00  0.00    -0.031 A 
ATOM     22  H   LIG d   1       6.239  -9.565  -4.571  0.00  0.00     0.066 H 
ATOM     23  H   LIG d   1       7.668  -7.841  -5.584  0.00  0.00     0.064 H 
BRANCH  18  24
ATOM     24  O   LIG d   1       6.428 -10.435  -2.110  0.00  0.00    -0.507 OA
ATOM     25  H   LIG d   1       6.692 -11.340  -2.324  0.00  0.00     0.292 HD
ENDBRANCH  18  24
ENDBRANCH  13  14
ENDBRANCH  12  13
ENDBRANCH   9  12
BRANCH   8  26
ATOM     26  N   LIG d   1      10.294  -3.659  -3.225  0.00  0.00    -0.340 N 
ATOM     27  H   LIG d   1      10.572  -2.951  -2.623  0.00  0.00     0.144 HD
ATOM     28  H   LIG d   1      10.917  -4.360  -3.472  0.00  0.00     0.144 HD
ENDBRANCH   8  26
BRANCH   1  29
ATOM     29  C   LIG d   1       5.372  -1.311  -3.432  0.00  0.00     0.001 A 
ATOM     30  C   LIG d   1       5.935  -0.091  -3.810  0.00  0.00    -0.053 A 
ATOM     31  C   LIG d   1       5.667   1.046  -3.077  0.00  0.00    -0.061 A 
ATOM     32  H   LIG d   1       6.579  -0.037  -4.675  0.00  0.00     0.062 H 
ATOM     33  C   LIG d   1       4.842   0.980  -1.968  0.00  0.00    -0.062 A 
ATOM     34  H   LIG d   1       6.102   1.990  -3.368  0.00  0.00     0.062 H 
ATOM     35  C   LIG d   1       4.280  -0.227  -1.588  0.00  0.00    -0.061 A 
ATOM     36  H   LIG d   1       4.638   1.872  -1.394  0.00  0.00     0.062 H 
ATOM     37  C   LIG d   1       4.539  -1.370  -2.312  0.00  0.00    -0.053 A 
ATOM     38  H   LIG d   1       3.637  -0.271  -0.721  0.00  0.00     0.062 H 
ATOM     39  H   LIG d   1       4.100  -2.312  -2.014  0.00  0.00     0.062 H 
ENDBRANCH   1  29
TORSDOF 6
ENDMDL
MODEL 7
REMARK VINA RESULT:      -6.4      6.124      9.831
REMARK  6 active torsions:
REMARK  status: ('A' for Active; 'I' for Inactive)
REMARK    1  A    between atoms: C_4  and  C_7 
REMARK    2  A    between atoms: C_14  and  N_25 
REMARK    3  A    between atoms: C_15  and  N_16 
REMARK    4  A    between atoms: N_16  and  N_17 
REMARK    5  A    between atoms: N_17  and  C_18 
REMARK    6  A    between atoms: C_21  and  O_24 
ROOT
ATOM      1  C   LIG d   1       7.384   1.109  -4.225  0.00  0.00     0.076 A 
ATOM      2  C   LIG d   1       8.455   1.692  -3.604  0.00  0.00    -0.025 A 
ATOM      3  C   LIG d   1       9.445   2.309  -4.382  0.00  0.00    -0.008 A 
ATOM      4  N   LIG d   1       9.339   2.325  -5.699  0.00  0.00    -0.242 NA
ATOM      5  C   LIG d   1       8.300   1.759  -6.313  0.00  0.00     0.185 A 
ATOM      6  N   LIG d   1       7.312   1.141  -5.596  0.00  0.00    -0.210 N 
ATOM      7  N   LIG d   1       6.365   0.640  -6.497  0.00  0.00    -0.147 NA
ATOM      8  C   LIG d   1       6.735   0.921  -7.723  0.00  0.00     0.168 A 
ATOM      9  C   LIG d   1       7.952   1.639  -7.673  0.00  0.00     0.171 A 
ATOM     10  O   LIG d   1      10.511   2.891  -3.782  0.00  0.00    -0.860 OA
ATOM     11  H   LIG d   1       8.536   1.677  -2.526  0.00  0.00     0.065 H 
ENDROOT
BRANCH   9  12
ATOM     12  N   LIG d   1       8.654   2.106  -8.727  0.00  0.00    -0.142 NA
BRANCH  12  13
ATOM     13  N   LIG d   1       8.256   3.163  -9.350  0.00  0.00    -0.149 NA
BRANCH  13  14
ATOM     14  C   LIG d   1       8.917   4.348  -9.180  0.00  0.00     0.086 A 
ATOM     15  C   LIG d   1       8.365   5.535  -9.671  0.00  0.00    -0.031 A 
ATOM     16  C   LIG d   1       9.032   6.727  -9.492  0.00  0.00    -0.018 A 
ATOM     17  H   LIG d   1       7.415   5.517 -10.183  0.00  0.00     0.064 H 
ATOM     18  C   LIG d   1      10.257   6.749  -8.838  0.00  0.00     0.117 A 
ATOM     19  H   LIG d   1       8.604   7.645  -9.866  0.00  0.00     0.066 H 
ATOM     20  C   LIG d   1      10.813   5.571  -8.355  0.00  0.00    -0.018 A 
ATOM     21  C   LIG d   1      10.150   4.375  -8.523  0.00  0.00    -0.031 A 
ATOM     22  H   LIG d   1      11.765   5.593  -7.847  0.00  0.00     0.066 H 
ATOM     23  H   LIG d   1      10.583   3.460  -8.147  0.00  0.00     0.064 H 
BRANCH  18  24
ATOM     24  O   LIG d   1      10.914   7.926  -8.670  0.00  0.00    -0.507 OA
ATOM     25  H   LIG d   1      10.483   8.532  -8.051  0.00  0.00     0.292 HD
ENDBRANCH  18  24
ENDBRANCH  13  14
ENDBRANCH  12  13
ENDBRANCH   9  12
BRANCH   8  26
ATOM     26  N   LIG d   1       6.039   0.580  -8.882  0.00  0.00    -0.340 N 
ATOM     27  H   LIG d   1       6.195   1.071  -9.704  0.00  0.00     0.144 HD
ATOM     28  H   LIG d   1       5.397  -0.147  -8.865  0.00  0.00     0.144 HD
ENDBRANCH   8  26
BRANCH   1  29
ATOM     29  C   LIG d   1       6.324   0.451  -3.434  0.00  0.00     0.001 A 
ATOM     30  C   LIG d   1       6.246  -0.942  -3.387  0.00  0.00    -0.053 A 
ATOM     31  C   LIG d   1       5.255  -1.550  -2.645  0.00  0.00    -0.061 A 
ATOM     32  H   LIG d   1       6.960  -1.543  -3.930  0.00  0.00     0.062 H 
ATOM     33  C   LIG d   1       4.338  -0.782  -1.949  0.00  0.00    -0.062 A 
ATOM     34  H   LIG d   1       5.193  -2.627  -2.608  0.00  0.00     0.062 H 
ATOM     35  C   LIG d   1       4.410   0.599  -1.990  0.00  0.00    -0.061 A 
ATOM     36  H   LIG d   1       3.561  -1.263  -1.372  0.00  0.00     0.062 H 
ATOM     37  C   LIG d   1       5.397   1.220  -2.727  0.00  0.00    -0.053 A 
ATOM     38  H   LIG d   1       3.691   1.192  -1.444  0.00  0.00     0.062 H 
ATOM     39  H   LIG d   1       5.452   2.298  -2.759  0.00  0.00     0.062 H 
ENDBRANCH   1  29
TORSDOF 6
ENDMDL
MODEL 8
REMARK VINA RESULT:      -6.3      5.386      8.360
REMARK  6 active torsions:
REMARK  status: ('A' for Active; 'I' for Inactive)
REMARK    1  A    between atoms: C_4  and  C_7 
REMARK    2  A    between atoms: C_14  and  N_25 
REMARK    3  A    between atoms: C_15  and  N_16 
REMARK    4  A    between atoms: N_16  and  N_17 
REMARK    5  A    between atoms: N_17  and  C_18 
REMARK    6  A    between atoms: C_21  and  O_24 
ROOT
ATOM      1  C   LIG d   1       3.509  -0.550 -10.120  0.00  0.00     0.076 A 
ATOM      2  C   LIG d   1       3.150   0.672  -9.619  0.00  0.00    -0.025 A 
ATOM      3  C   LIG d   1       3.209   0.888  -8.235  0.00  0.00    -0.008 A 
ATOM      4  N   LIG d   1       3.606  -0.081  -7.429  0.00  0.00    -0.242 NA
ATOM      5  C   LIG d   1       3.956  -1.274  -7.908  0.00  0.00     0.185 A 
ATOM      6  N   LIG d   1       3.911  -1.534  -9.250  0.00  0.00    -0.210 N 
ATOM      7  N   LIG d   1       4.324  -2.855  -9.456  0.00  0.00    -0.147 NA
ATOM      8  C   LIG d   1       4.613  -3.409  -8.302  0.00  0.00     0.168 A 
ATOM      9  C   LIG d   1       4.407  -2.453  -7.281  0.00  0.00     0.171 A 
ATOM     10  O   LIG d   1       2.857   2.092  -7.723  0.00  0.00    -0.860 OA
ATOM     11  H   LIG d   1       2.827   1.461 -10.283  0.00  0.00     0.065 H 
ENDROOT
BRANCH   9  12
ATOM     12  N   LIG d   1       4.593  -2.639  -5.957  0.00  0.00    -0.142 NA
BRANCH  12  13
ATOM     13  N   LIG d   1       5.602  -2.094  -5.365  0.00  0.00    -0.149 NA
BRANCH  13  14
ATOM     14  C   LIG d   1       5.400  -1.248  -4.310  0.00  0.00     0.086 A 
ATOM     15  C   LIG d   1       4.505  -1.596  -3.294  0.00  0.00    -0.031 A 
ATOM     16  C   LIG d   1       4.309  -0.743  -2.230  0.00  0.00    -0.018 A 
ATOM     17  H   LIG d   1       3.973  -2.534  -3.341  0.00  0.00     0.064 H 
ATOM     18  C   LIG d   1       4.990   0.466  -2.172  0.00  0.00     0.117 A 
ATOM     19  H   LIG d   1       3.622  -1.014  -1.442  0.00  0.00     0.066 H 
ATOM     20  C   LIG d   1       5.875   0.819  -3.182  0.00  0.00    -0.018 A 
ATOM     21  C   LIG d   1       6.082  -0.030  -4.247  0.00  0.00    -0.031 A 
ATOM     22  H   LIG d   1       6.403   1.760  -3.132  0.00  0.00     0.066 H 
ATOM     23  H   LIG d   1       6.771   0.245  -5.032  0.00  0.00     0.064 H 
BRANCH  18  24
ATOM     24  O   LIG d   1       4.789   1.306  -1.123  0.00  0.00    -0.507 OA
ATOM     25  H   LIG d   1       5.602   1.690  -0.765  0.00  0.00     0.292 HD
ENDBRANCH  18  24
ENDBRANCH  13  14
ENDBRANCH  12  13
ENDBRANCH   9  12
BRANCH   8  26
ATOM     26  N   LIG d   1       5.059  -4.716  -8.116  0.00  0.00    -0.340 N 
ATOM     27  H   LIG d   1       4.439  -5.457  -8.205  0.00  0.00     0.144 HD
ATOM     28  H   LIG d   1       5.988  -4.884  -7.895  0.00  0.00     0.144 HD
ENDBRANCH   8  26
BRANCH   1  29
ATOM     29  C   LIG d   1       3.458  -0.809 -11.574  0.00  0.00     0.001 A 
ATOM     30  C   LIG d   1       4.460  -0.314 -12.409  0.00  0.00    -0.053 A 
ATOM     31  C   LIG d   1       4.408  -0.561 -13.766  0.00  0.00    -0.061 A 
ATOM     32  H   LIG d   1       5.276   0.260 -11.996  0.00  0.00     0.062 H 
ATOM     33  C   LIG d   1       3.364  -1.296 -14.298  0.00  0.00    -0.062 A 
ATOM     34  H   LIG d   1       5.182  -0.178 -14.413  0.00  0.00     0.062 H 
ATOM     35  C   LIG d   1       2.367  -1.790 -13.475  0.00  0.00    -0.061 A 
ATOM     36  H   LIG d   1       3.325  -1.483 -15.362  0.00  0.00     0.062 H 
ATOM     37  C   LIG d   1       2.408  -1.552 -12.118  0.00  0.00    -0.053 A 
ATOM     38  H   LIG d   1       1.555  -2.364 -13.898  0.00  0.00     0.062 H 
ATOM     39  H   LIG d   1       1.629  -1.938 -11.476  0.00  0.00     0.062 H 
ENDBRANCH   1  29
TORSDOF 6
ENDMDL
MODEL 9
REMARK VINA RESULT:      -6.3      6.565      9.167
REMARK  6 active torsions:
REMARK  status: ('A' for Active; 'I' for Inactive)
REMARK    1  A    between atoms: C_4  and  C_7 
REMARK    2  A    between atoms: C_14  and  N_25 
REMARK    3  A    between atoms: C_15  and  N_16 
REMARK    4  A    between atoms: N_16  and  N_17 
REMARK    5  A    between atoms: N_17  and  C_18 
REMARK    6  A    between atoms: C_21  and  O_24 
ROOT
ATOM      1  C   LIG d   1      10.490   5.197  -5.380  0.00  0.00     0.076 A 
ATOM      2  C   LIG d   1      10.890   5.774  -4.206  0.00  0.00    -0.025 A 
ATOM      3  C   LIG d   1      10.467   5.216  -2.991  0.00  0.00    -0.008 A 
ATOM      4  N   LIG d   1       9.692   4.145  -2.987  0.00  0.00    -0.242 NA
ATOM      5  C   LIG d   1       9.298   3.577  -4.126  0.00  0.00     0.185 A 
ATOM      6  N   LIG d   1       9.680   4.089  -5.336  0.00  0.00    -0.210 N 
ATOM      7  N   LIG d   1       9.117   3.299  -6.344  0.00  0.00    -0.147 NA
ATOM      8  C   LIG d   1       8.408   2.336  -5.803  0.00  0.00     0.168 A 
ATOM      9  C   LIG d   1       8.490   2.454  -4.396  0.00  0.00     0.171 A 
ATOM     10  O   LIG d   1      10.854   5.775  -1.819  0.00  0.00    -0.860 OA
ATOM     11  H   LIG d   1      11.524   6.649  -4.214  0.00  0.00     0.065 H 
ENDROOT
BRANCH   9  12
ATOM     12  N   LIG d   1       7.897   1.653  -3.486  0.00  0.00    -0.142 NA
BRANCH  12  13
ATOM     13  N   LIG d   1       6.627   1.744  -3.278  0.00  0.00    -0.149 NA
BRANCH  13  14
ATOM     14  C   LIG d   1       5.890   0.616  -3.041  0.00  0.00     0.086 A 
ATOM     15  C   LIG d   1       4.788   0.667  -2.182  0.00  0.00    -0.031 A 
ATOM     16  C   LIG d   1       4.045  -0.470  -1.951  0.00  0.00    -0.018 A 
ATOM     17  H   LIG d   1       4.516   1.598  -1.708  0.00  0.00     0.064 H 
ATOM     18  C   LIG d   1       4.398  -1.668  -2.557  0.00  0.00     0.117 A 
ATOM     19  H   LIG d   1       3.190  -0.430  -1.292  0.00  0.00     0.066 H 
ATOM     20  C   LIG d   1       5.497  -1.726  -3.405  0.00  0.00    -0.018 A 
ATOM     21  C   LIG d   1       6.242  -0.592  -3.648  0.00  0.00    -0.031 A 
ATOM     22  H   LIG d   1       5.768  -2.659  -3.875  0.00  0.00     0.066 H 
ATOM     23  H   LIG d   1       7.096  -0.637  -4.307  0.00  0.00     0.064 H 
BRANCH  18  24
ATOM     24  O   LIG d   1       3.667  -2.788  -2.321  0.00  0.00    -0.507 OA
ATOM     25  H   LIG d   1       3.925  -3.266  -1.520  0.00  0.00     0.292 HD
ENDBRANCH  18  24
ENDBRANCH  13  14
ENDBRANCH  12  13
ENDBRANCH   9  12
BRANCH   8  26
ATOM     26  N   LIG d   1       7.702   1.356  -6.497  0.00  0.00    -0.340 N 
ATOM     27  H   LIG d   1       7.538   1.458  -7.448  0.00  0.00     0.144 HD
ATOM     28  H   LIG d   1       7.374   0.572  -6.029  0.00  0.00     0.144 HD
ENDBRANCH   8  26
BRANCH   1  29
ATOM     29  C   LIG d   1      10.918   5.761  -6.677  0.00  0.00     0.001 A 
ATOM     30  C   LIG d   1      12.179   5.457  -7.192  0.00  0.00    -0.053 A 
ATOM     31  C   LIG d   1      12.572   5.986  -8.404  0.00  0.00    -0.061 A 
ATOM     32  H   LIG d   1      12.846   4.807  -6.645  0.00  0.00     0.062 H 
ATOM     33  C   LIG d   1      11.719   6.818  -9.108  0.00  0.00    -0.062 A 
ATOM     34  H   LIG d   1      13.547   5.751  -8.804  0.00  0.00     0.062 H 
ATOM     35  C   LIG d   1      10.467   7.124  -8.603  0.00  0.00    -0.061 A 
ATOM     36  H   LIG d   1      12.034   7.234 -10.055  0.00  0.00     0.062 H 
ATOM     37  C   LIG d   1      10.062   6.601  -7.394  0.00  0.00    -0.053 A 
ATOM     38  H   LIG d   1       9.807   7.774  -9.158  0.00  0.00     0.062 H 
ATOM     39  H   LIG d   1       9.085   6.840  -7.000  0.00  0.00     0.062 H 
ENDBRANCH   1  29
TORSDOF 6
ENDMDL
