MODEL 1
REMARK VINA RESULT:      -6.1      0.000      0.000
REMARK  8 active torsions:
REMARK  status: ('A' for Active; 'I' for Inactive)
REMARK    1  A    between atoms: C_1  and  C_2 
REMARK    2  A    between atoms: C_2  and  C_3 
REMARK    3  A    between atoms: C_3  and  O_4 
REMARK    4  A    between atoms: O_4  and  C_5 
REMARK    5  A    between atoms: C_5  and  C_6 
REMARK    6  A    between atoms: C_11  and  C_15 
REMARK    7  A    between atoms: C_11  and  C_16 
REMARK    8  A    between atoms: C_19  and  N_21 
ROOT
ATOM      1  C   LIG d   1       6.066  -0.217  -6.534  0.00  0.00     0.128 C 
ATOM      2  H   LIG d   1       6.582  -1.065  -6.986  0.00  0.00     0.076 H 
ATOM      3  C   LIG d   1       4.530  -0.332  -6.744  0.00  0.00     0.013 C 
ATOM      4  C   LIG d   1       4.396   0.287  -8.144  0.00  0.00     0.171 C 
ATOM      5  C   LIG d   1       4.224  -0.805  -9.214  0.00  0.00     0.019 C 
ATOM      6  C   LIG d   1       3.151  -0.141 -10.123  0.00  0.00     0.154 C 
ATOM      7  O   LIG d   1       2.344   0.599  -9.180  0.00  0.00    -0.451 OA
ATOM      8  C   LIG d   1       3.165   1.145  -8.255  0.00  0.00     0.325 C 
ATOM      9  O   LIG d   1       2.946   2.151  -7.624  0.00  0.00    -0.250 OA
ATOM     10  C   LIG d   1       5.660   1.073  -8.353  0.00  0.00     0.325 C 
ATOM     11  O   LIG d   1       5.967   1.661  -9.363  0.00  0.00    -0.250 OA
ATOM     12  O   LIG d   1       6.398   1.009  -7.221  0.00  0.00    -0.458 OA
ATOM     13  H   LIG d   1       4.208  -1.374  -6.740  0.00  0.00     0.032 H 
ATOM     14  H   LIG d   1       3.985   0.249  -6.000  0.00  0.00     0.032 H 
ATOM     15  H   LIG d   1       5.153  -0.973  -9.758  0.00  0.00     0.032 H 
ATOM     16  H   LIG d   1       3.853  -1.732  -8.777  0.00  0.00     0.032 H 
ENDROOT
BRANCH   1  17
ATOM     17  C   LIG d   1       6.403  -0.113  -5.045  0.00  0.00     0.085 C 
ATOM     18  H   LIG d   1       7.276   0.526  -4.914  0.00  0.00     0.060 H 
ATOM     19  H   LIG d   1       6.617  -1.107  -4.651  0.00  0.00     0.060 H 
BRANCH  17  20
ATOM     20  O   LIG d   1       5.292   0.448  -4.342  0.00  0.00    -0.376 OA
BRANCH  20  21
ATOM     21  C   LIG d   1       5.620   0.963  -3.051  0.00  0.00     0.048 C 
ATOM     22  H   LIG d   1       5.765   2.041  -3.115  0.00  0.00     0.056 H 
ATOM     23  H   LIG d   1       6.538   0.494  -2.695  0.00  0.00     0.056 H 
BRANCH  21  24
ATOM     24  C   LIG d   1       4.482   0.658  -2.075  0.00  0.00    -0.032 C 
ATOM     25  H   LIG d   1       3.554   1.088  -2.453  0.00  0.00     0.029 H 
ATOM     26  H   LIG d   1       4.712   1.089  -1.102  0.00  0.00     0.029 H 
BRANCH  24  27
ATOM     27  C   LIG d   1       4.322  -0.858  -1.937  0.00  0.00    -0.063 C 
ATOM     28  H   LIG d   1       4.235  -1.119  -0.882  0.00  0.00     0.023 H 
ATOM     29  H   LIG d   1       3.426  -1.179  -2.467  0.00  0.00     0.023 H 
ATOM     30  H   LIG d   1       5.194  -1.355  -2.363  0.00  0.00     0.023 H 
ENDBRANCH  24  27
ENDBRANCH  21  24
ENDBRANCH  20  21
ENDBRANCH  17  20
ENDBRANCH   1  17
BRANCH   6  31
ATOM     31  C   LIG d   1       3.805   0.802 -11.133  0.00  0.00    -0.019 C 
ATOM     32  H   LIG d   1       3.240   0.786 -12.065  0.00  0.00     0.027 H 
ATOM     33  H   LIG d   1       3.813   1.816 -10.731  0.00  0.00     0.027 H 
ATOM     34  H   LIG d   1       4.828   0.480 -11.324  0.00  0.00     0.027 H 
ENDBRANCH   6  31
BRANCH   6  35
ATOM     35  C   LIG d   1       2.325  -1.188 -10.825  0.00  0.00     0.094 A 
ATOM     36  N   LIG d   1       1.588  -2.053 -10.149  0.00  0.00    -0.226 NA
ATOM     37  C   LIG d   1       0.867  -2.961 -10.771  0.00  0.00     0.156 A 
ATOM     38  S   LIG d   1       1.192  -2.664 -12.395  0.00  0.00    -0.061 SA
ATOM     39  C   LIG d   1       2.309  -1.289 -12.176  0.00  0.00     0.004 A 
ATOM     40  H   LIG d   1       2.830  -0.700 -12.916  0.00  0.00     0.071 H 
BRANCH  37  41
ATOM     41  N   LIG d   1       0.043  -3.931 -10.220  0.00  0.00    -0.338 N 
ATOM     42  H   LIG d   1      -0.448  -4.535 -10.799  0.00  0.00     0.144 HD
ATOM     43  H   LIG d   1      -0.043  -4.005  -9.257  0.00  0.00     0.144 HD
ENDBRANCH  37  41
ENDBRANCH   6  35
TORSDOF 8
ENDMDL
MODEL 2
REMARK VINA RESULT:      -5.6      6.681      7.544
REMARK  8 active torsions:
REMARK  status: ('A' for Active; 'I' for Inactive)
REMARK    1  A    between atoms: C_1  and  C_2 
REMARK    2  A    between atoms: C_2  and  C_3 
REMARK    3  A    between atoms: C_3  and  O_4 
REMARK    4  A    between atoms: O_4  and  C_5 
REMARK    5  A    between atoms: C_5  and  C_6 
REMARK    6  A    between atoms: C_11  and  C_15 
REMARK    7  A    between atoms: C_11  and  C_16 
REMARK    8  A    between atoms: C_19  and  N_21 
ROOT
ATOM      1  C   LIG d   1       6.296  -3.100  -5.524  0.00  0.00     0.128 C 
ATOM      2  H   LIG d   1       7.178  -3.349  -4.932  0.00  0.00     0.076 H 
ATOM      3  C   LIG d   1       5.111  -4.041  -5.167  0.00  0.00     0.013 C 
ATOM      4  C   LIG d   1       5.426  -5.240  -6.075  0.00  0.00     0.171 C 
ATOM      5  C   LIG d   1       6.061  -6.387  -5.271  0.00  0.00     0.019 C 
ATOM      6  C   LIG d   1       5.349  -7.610  -5.917  0.00  0.00     0.154 C 
ATOM      7  O   LIG d   1       4.037  -7.090  -6.227  0.00  0.00    -0.451 OA
ATOM      8  C   LIG d   1       4.176  -5.824  -6.676  0.00  0.00     0.325 C 
ATOM      9  O   LIG d   1       3.424  -5.256  -7.432  0.00  0.00    -0.250 OA
ATOM     10  C   LIG d   1       6.367  -4.709  -7.120  0.00  0.00     0.325 C 
ATOM     11  O   LIG d   1       6.899  -5.360  -7.989  0.00  0.00    -0.250 OA
ATOM     12  O   LIG d   1       6.523  -3.379  -6.923  0.00  0.00    -0.458 OA
ATOM     13  H   LIG d   1       5.136  -4.325  -4.115  0.00  0.00     0.032 H 
ATOM     14  H   LIG d   1       4.155  -3.587  -5.428  0.00  0.00     0.032 H 
ATOM     15  H   LIG d   1       7.138  -6.429  -5.429  0.00  0.00     0.032 H 
ATOM     16  H   LIG d   1       5.822  -6.306  -4.211  0.00  0.00     0.032 H 
ENDROOT
BRANCH   1  17
ATOM     17  C   LIG d   1       5.906  -1.635  -5.319  0.00  0.00     0.085 C 
ATOM     18  H   LIG d   1       6.219  -1.051  -6.184  0.00  0.00     0.060 H 
ATOM     19  H   LIG d   1       6.396  -1.251  -4.424  0.00  0.00     0.060 H 
BRANCH  17  20
ATOM     20  O   LIG d   1       4.489  -1.536  -5.166  0.00  0.00    -0.376 OA
BRANCH  20  21
ATOM     21  C   LIG d   1       4.073  -0.534  -4.234  0.00  0.00     0.048 C 
ATOM     22  H   LIG d   1       3.591   0.283  -4.771  0.00  0.00     0.056 H 
ATOM     23  H   LIG d   1       4.943  -0.155  -3.698  0.00  0.00     0.056 H 
BRANCH  21  24
ATOM     24  C   LIG d   1       3.085  -1.144  -3.237  0.00  0.00    -0.032 C 
ATOM     25  H   LIG d   1       2.340  -1.730  -3.775  0.00  0.00     0.029 H 
ATOM     26  H   LIG d   1       2.590  -0.347  -2.683  0.00  0.00     0.029 H 
BRANCH  24  27
ATOM     27  C   LIG d   1       3.840  -2.050  -2.262  0.00  0.00    -0.063 C 
ATOM     28  H   LIG d   1       4.868  -2.173  -2.603  0.00  0.00     0.023 H 
ATOM     29  H   LIG d   1       3.837  -1.598  -1.270  0.00  0.00     0.023 H 
ATOM     30  H   LIG d   1       3.352  -3.024  -2.220  0.00  0.00     0.023 H 
ENDBRANCH  24  27
ENDBRANCH  21  24
ENDBRANCH  20  21
ENDBRANCH  17  20
ENDBRANCH   1  17
BRANCH   6  31
ATOM     31  C   LIG d   1       6.073  -8.048  -7.191  0.00  0.00    -0.019 C 
ATOM     32  H   LIG d   1       6.455  -9.060  -7.061  0.00  0.00     0.027 H 
ATOM     33  H   LIG d   1       5.376  -8.028  -8.030  0.00  0.00     0.027 H 
ATOM     34  H   LIG d   1       6.902  -7.369  -7.390  0.00  0.00     0.027 H 
ENDBRANCH   6  31
BRANCH   6  35
ATOM     35  C   LIG d   1       5.253  -8.750  -4.936  0.00  0.00     0.094 A 
ATOM     36  N   LIG d   1       4.087  -9.161  -4.468  0.00  0.00    -0.226 NA
ATOM     37  C   LIG d   1       4.012 -10.160  -3.615  0.00  0.00     0.156 A 
ATOM     38  S   LIG d   1       5.622 -10.597  -3.395  0.00  0.00    -0.061 SA
ATOM     39  C   LIG d   1       6.357  -9.396  -4.491  0.00  0.00     0.004 A 
ATOM     40  H   LIG d   1       7.397  -9.228  -4.733  0.00  0.00     0.071 H 
BRANCH  37  41
ATOM     41  N   LIG d   1       2.881 -10.714  -3.034  0.00  0.00    -0.338 N 
ATOM     42  H   LIG d   1       2.958 -11.218  -2.210  0.00  0.00     0.144 HD
ATOM     43  H   LIG d   1       2.014 -10.597  -3.454  0.00  0.00     0.144 HD
ENDBRANCH  37  41
ENDBRANCH   6  35
TORSDOF 8
ENDMDL
MODEL 3
REMARK VINA RESULT:      -5.5      1.204      1.457
REMARK  8 active torsions:
REMARK  status: ('A' for Active; 'I' for Inactive)
REMARK    1  A    between atoms: C_1  and  C_2 
REMARK    2  A    between atoms: C_2  and  C_3 
REMARK    3  A    between atoms: C_3  and  O_4 
REMARK    4  A    between atoms: O_4  and  C_5 
REMARK    5  A    between atoms: C_5  and  C_6 
REMARK    6  A    between atoms: C_11  and  C_15 
REMARK    7  A    between atoms: C_11  and  C_16 
REMARK    8  A    between atoms: C_19  and  N_21 
ROOT
ATOM      1  C   LIG d   1       5.716  -0.492  -6.414  0.00  0.00     0.128 C 
ATOM      2  H   LIG d   1       6.210  -1.373  -6.827  0.00  0.00     0.076 H 
ATOM      3  C   LIG d   1       4.202  -0.494  -6.765  0.00  0.00     0.013 C 
ATOM      4  C   LIG d   1       4.241   0.139  -8.165  0.00  0.00     0.171 C 
ATOM      5  C   LIG d   1       4.091  -0.933  -9.258  0.00  0.00     0.019 C 
ATOM      6  C   LIG d   1       3.156  -0.188 -10.254  0.00  0.00     0.154 C 
ATOM      7  O   LIG d   1       2.322   0.604  -9.380  0.00  0.00    -0.451 OA
ATOM      8  C   LIG d   1       3.091   1.085  -8.379  0.00  0.00     0.325 C 
ATOM      9  O   LIG d   1       2.888   2.102  -7.759  0.00  0.00    -0.250 OA
ATOM     10  C   LIG d   1       5.573   0.832  -8.249  0.00  0.00     0.325 C 
ATOM     11  O   LIG d   1       6.013   1.402  -9.220  0.00  0.00    -0.250 OA
ATOM     12  O   LIG d   1       6.197   0.710  -7.055  0.00  0.00    -0.458 OA
ATOM     13  H   LIG d   1       3.807  -1.509  -6.803  0.00  0.00     0.032 H 
ATOM     14  H   LIG d   1       3.634   0.122  -6.068  0.00  0.00     0.032 H 
ATOM     15  H   LIG d   1       5.052  -1.164  -9.717  0.00  0.00     0.032 H 
ATOM     16  H   LIG d   1       3.615  -1.832  -8.867  0.00  0.00     0.032 H 
ENDROOT
BRANCH   1  17
ATOM     17  C   LIG d   1       5.922  -0.419  -4.900  0.00  0.00     0.085 C 
ATOM     18  H   LIG d   1       6.938  -0.090  -4.686  0.00  0.00     0.060 H 
ATOM     19  H   LIG d   1       5.760  -1.405  -4.464  0.00  0.00     0.060 H 
BRANCH  17  20
ATOM     20  O   LIG d   1       4.992   0.508  -4.337  0.00  0.00    -0.376 OA
BRANCH  20  21
ATOM     21  C   LIG d   1       4.699   0.274  -2.958  0.00  0.00     0.048 C 
ATOM     22  H   LIG d   1       3.643   0.467  -2.773  0.00  0.00     0.056 H 
ATOM     23  H   LIG d   1       5.304   0.938  -2.340  0.00  0.00     0.056 H 
BRANCH  21  24
ATOM     24  C   LIG d   1       5.021  -1.180  -2.608  0.00  0.00    -0.032 C 
ATOM     25  H   LIG d   1       5.582  -1.214  -1.674  0.00  0.00     0.029 H 
ATOM     26  H   LIG d   1       5.617  -1.623  -3.405  0.00  0.00     0.029 H 
BRANCH  24  27
ATOM     27  C   LIG d   1       3.718  -1.967  -2.449  0.00  0.00    -0.063 C 
ATOM     28  H   LIG d   1       3.801  -2.917  -2.977  0.00  0.00     0.023 H 
ATOM     29  H   LIG d   1       3.532  -2.153  -1.392  0.00  0.00     0.023 H 
ATOM     30  H   LIG d   1       2.893  -1.390  -2.867  0.00  0.00     0.023 H 
ENDBRANCH  24  27
ENDBRANCH  21  24
ENDBRANCH  20  21
ENDBRANCH  17  20
ENDBRANCH   1  17
BRANCH   6  31
ATOM     31  C   LIG d   1       3.967   0.710 -11.190  0.00  0.00    -0.019 C 
ATOM     32  H   LIG d   1       3.526   1.707 -11.208  0.00  0.00     0.027 H 
ATOM     33  H   LIG d   1       4.995   0.775 -10.832  0.00  0.00     0.027 H 
ATOM     34  H   LIG d   1       3.958   0.291 -12.196  0.00  0.00     0.027 H 
ENDBRANCH   6  31
BRANCH   6  35
ATOM     35  C   LIG d   1       2.325  -1.169 -11.040  0.00  0.00     0.094 A 
ATOM     36  N   LIG d   1       2.387  -1.224 -12.360  0.00  0.00    -0.226 NA
ATOM     37  C   LIG d   1       1.660  -2.087 -13.037  0.00  0.00     0.156 A 
ATOM     38  S   LIG d   1       0.806  -2.897 -11.835  0.00  0.00    -0.061 SA
ATOM     39  C   LIG d   1       1.478  -2.030 -10.427  0.00  0.00     0.004 A 
ATOM     40  H   LIG d   1       1.268  -2.156  -9.375  0.00  0.00     0.071 H 
BRANCH  37  41
ATOM     41  N   LIG d   1       1.608  -2.278 -14.410  0.00  0.00    -0.338 N 
ATOM     42  H   LIG d   1       0.997  -2.931 -14.785  0.00  0.00     0.144 HD
ATOM     43  H   LIG d   1       2.182  -1.758 -14.994  0.00  0.00     0.144 HD
ENDBRANCH  37  41
ENDBRANCH   6  35
TORSDOF 8
ENDMDL
MODEL 4
REMARK VINA RESULT:      -5.3      7.555      9.589
REMARK  8 active torsions:
REMARK  status: ('A' for Active; 'I' for Inactive)
REMARK    1  A    between atoms: C_1  and  C_2 
REMARK    2  A    between atoms: C_2  and  C_3 
REMARK    3  A    between atoms: C_3  and  O_4 
REMARK    4  A    between atoms: O_4  and  C_5 
REMARK    5  A    between atoms: C_5  and  C_6 
REMARK    6  A    between atoms: C_11  and  C_15 
REMARK    7  A    between atoms: C_11  and  C_16 
REMARK    8  A    between atoms: C_19  and  N_21 
ROOT
ATOM      1  C   LIG d   1       8.646   1.816  -4.889  0.00  0.00     0.128 C 
ATOM      2  H   LIG d   1       8.418   1.893  -5.953  0.00  0.00     0.076 H 
ATOM      3  C   LIG d   1       8.436   3.184  -4.180  0.00  0.00     0.013 C 
ATOM      4  C   LIG d   1       9.792   3.851  -4.459  0.00  0.00     0.171 C 
ATOM      5  C   LIG d   1       9.677   4.874  -5.602  0.00  0.00     0.019 C 
ATOM      6  C   LIG d   1      10.578   6.015  -5.049  0.00  0.00     0.154 C 
ATOM      7  O   LIG d   1      10.351   5.941  -3.624  0.00  0.00    -0.451 OA
ATOM      8  C   LIG d   1      10.277   4.639  -3.272  0.00  0.00     0.325 C 
ATOM      9  O   LIG d   1      10.554   4.184  -2.188  0.00  0.00    -0.250 OA
ATOM     10  C   LIG d   1      10.722   2.725  -4.816  0.00  0.00     0.325 C 
ATOM     11  O   LIG d   1      11.874   2.842  -5.163  0.00  0.00    -0.250 OA
ATOM     12  O   LIG d   1      10.052   1.557  -4.684  0.00  0.00    -0.458 OA
ATOM     13  H   LIG d   1       7.620   3.744  -4.637  0.00  0.00     0.032 H 
ATOM     14  H   LIG d   1       8.272   3.054  -3.111  0.00  0.00     0.032 H 
ATOM     15  H   LIG d   1      10.078   4.471  -6.533  0.00  0.00     0.032 H 
ATOM     16  H   LIG d   1       8.648   5.210  -5.730  0.00  0.00     0.032 H 
ENDROOT
BRANCH   1  17
ATOM     17  C   LIG d   1       7.793   0.729  -4.232  0.00  0.00     0.085 C 
ATOM     18  H   LIG d   1       8.353   0.269  -3.419  0.00  0.00     0.060 H 
ATOM     19  H   LIG d   1       7.538  -0.029  -4.974  0.00  0.00     0.060 H 
BRANCH  17  20
ATOM     20  O   LIG d   1       6.594   1.311  -3.715  0.00  0.00    -0.376 OA
BRANCH  20  21
ATOM     21  C   LIG d   1       5.656   0.358  -3.211  0.00  0.00     0.048 C 
ATOM     22  H   LIG d   1       6.182  -0.548  -2.911  0.00  0.00     0.056 H 
ATOM     23  H   LIG d   1       4.930   0.117  -3.989  0.00  0.00     0.056 H 
BRANCH  21  24
ATOM     24  C   LIG d   1       4.929   0.950  -2.002  0.00  0.00    -0.032 C 
ATOM     25  H   LIG d   1       5.476   1.819  -1.638  0.00  0.00     0.029 H 
ATOM     26  H   LIG d   1       4.868   0.202  -1.212  0.00  0.00     0.029 H 
BRANCH  24  27
ATOM     27  C   LIG d   1       3.516   1.372  -2.413  0.00  0.00    -0.063 C 
ATOM     28  H   LIG d   1       3.571   2.270  -3.028  0.00  0.00     0.023 H 
ATOM     29  H   LIG d   1       3.048   0.569  -2.982  0.00  0.00     0.023 H 
ATOM     30  H   LIG d   1       2.925   1.578  -1.521  0.00  0.00     0.023 H 
ENDBRANCH  24  27
ENDBRANCH  21  24
ENDBRANCH  20  21
ENDBRANCH  17  20
ENDBRANCH   1  17
BRANCH   6  31
ATOM     31  C   LIG d   1      12.048   5.753  -5.377  0.00  0.00    -0.019 C 
ATOM     32  H   LIG d   1      12.679   6.221  -4.622  0.00  0.00     0.027 H 
ATOM     33  H   LIG d   1      12.232   4.678  -5.388  0.00  0.00     0.027 H 
ATOM     34  H   LIG d   1      12.284   6.171  -6.356  0.00  0.00     0.027 H 
ENDBRANCH   6  31
BRANCH   6  35
ATOM     35  C   LIG d   1      10.138   7.351  -5.591  0.00  0.00     0.094 A 
ATOM     36  N   LIG d   1       9.578   7.462  -6.782  0.00  0.00    -0.226 NA
ATOM     37  C   LIG d   1       9.193   8.632  -7.245  0.00  0.00     0.156 A 
ATOM     38  S   LIG d   1       9.616   9.692  -6.008  0.00  0.00    -0.061 SA
ATOM     39  C   LIG d   1      10.306   8.492  -4.880  0.00  0.00     0.004 A 
ATOM     40  H   LIG d   1      10.738   8.636  -3.901  0.00  0.00     0.071 H 
BRANCH  37  41
ATOM     41  N   LIG d   1       8.591   8.922  -8.460  0.00  0.00    -0.338 N 
ATOM     42  H   LIG d   1       8.242   9.811  -8.628  0.00  0.00     0.144 HD
ATOM     43  H   LIG d   1       8.518   8.235  -9.141  0.00  0.00     0.144 HD
ENDBRANCH  37  41
ENDBRANCH   6  35
TORSDOF 8
ENDMDL
MODEL 5
REMARK VINA RESULT:      -5.3      7.620     10.236
REMARK  8 active torsions:
REMARK  status: ('A' for Active; 'I' for Inactive)
REMARK    1  A    between atoms: C_1  and  C_2 
REMARK    2  A    between atoms: C_2  and  C_3 
REMARK    3  A    between atoms: C_3  and  O_4 
REMARK    4  A    between atoms: O_4  and  C_5 
REMARK    5  A    between atoms: C_5  and  C_6 
REMARK    6  A    between atoms: C_11  and  C_15 
REMARK    7  A    between atoms: C_11  and  C_16 
REMARK    8  A    between atoms: C_19  and  N_21 
ROOT
ATOM      1  C   LIG d   1       7.653   1.693  -4.757  0.00  0.00     0.128 C 
ATOM      2  H   LIG d   1       6.905   2.474  -4.905  0.00  0.00     0.076 H 
ATOM      3  C   LIG d   1       8.440   1.929  -3.437  0.00  0.00     0.013 C 
ATOM      4  C   LIG d   1       9.513   2.914  -3.928  0.00  0.00     0.171 C 
ATOM      5  C   LIG d   1       9.168   4.355  -3.514  0.00  0.00     0.019 C 
ATOM      6  C   LIG d   1      10.577   4.877  -3.112  0.00  0.00     0.154 C 
ATOM      7  O   LIG d   1      11.207   3.703  -2.554  0.00  0.00    -0.451 OA
ATOM      8  C   LIG d   1      10.852   2.634  -3.300  0.00  0.00     0.325 C 
ATOM      9  O   LIG d   1      11.500   1.624  -3.440  0.00  0.00    -0.250 OA
ATOM     10  C   LIG d   1       9.540   2.759  -5.423  0.00  0.00     0.325 C 
ATOM     11  O   LIG d   1      10.213   3.407  -6.189  0.00  0.00    -0.250 OA
ATOM     12  O   LIG d   1       8.682   1.772  -5.768  0.00  0.00    -0.458 OA
ATOM     13  H   LIG d   1       7.806   2.384  -2.675  0.00  0.00     0.032 H 
ATOM     14  H   LIG d   1       8.888   1.005  -3.074  0.00  0.00     0.032 H 
ATOM     15  H   LIG d   1       8.763   4.920  -4.355  0.00  0.00     0.032 H 
ATOM     16  H   LIG d   1       8.484   4.370  -2.666  0.00  0.00     0.032 H 
ENDROOT
BRANCH   1  17
ATOM     17  C   LIG d   1       6.997   0.312  -4.757  0.00  0.00     0.085 C 
ATOM     18  H   LIG d   1       7.594  -0.375  -4.158  0.00  0.00     0.060 H 
ATOM     19  H   LIG d   1       6.932  -0.060  -5.780  0.00  0.00     0.060 H 
BRANCH  17  20
ATOM     20  O   LIG d   1       5.683   0.407  -4.203  0.00  0.00    -0.376 OA
BRANCH  20  21
ATOM     21  C   LIG d   1       5.478  -0.406  -3.045  0.00  0.00     0.048 C 
ATOM     22  H   LIG d   1       6.443  -0.707  -2.638  0.00  0.00     0.056 H 
ATOM     23  H   LIG d   1       4.906  -1.292  -3.321  0.00  0.00     0.056 H 
BRANCH  21  24
ATOM     24  C   LIG d   1       4.706   0.391  -1.992  0.00  0.00    -0.032 C 
ATOM     25  H   LIG d   1       5.409   0.909  -1.340  0.00  0.00     0.029 H 
ATOM     26  H   LIG d   1       4.094  -0.287  -1.399  0.00  0.00     0.029 H 
BRANCH  24  27
ATOM     27  C   LIG d   1       3.805   1.415  -2.687  0.00  0.00    -0.063 C 
ATOM     28  H   LIG d   1       3.877   1.287  -3.767  0.00  0.00     0.023 H 
ATOM     29  H   LIG d   1       2.773   1.265  -2.370  0.00  0.00     0.023 H 
ATOM     30  H   LIG d   1       4.126   2.421  -2.418  0.00  0.00     0.023 H 
ENDBRANCH  24  27
ENDBRANCH  21  24
ENDBRANCH  20  21
ENDBRANCH  17  20
ENDBRANCH   1  17
BRANCH   6  31
ATOM     31  C   LIG d   1      11.343   5.370  -4.340  0.00  0.00    -0.019 C 
ATOM     32  H   LIG d   1      11.590   4.522  -4.979  0.00  0.00     0.027 H 
ATOM     33  H   LIG d   1      10.724   6.075  -4.896  0.00  0.00     0.027 H 
ATOM     34  H   LIG d   1      12.261   5.865  -4.023  0.00  0.00     0.027 H 
ENDBRANCH   6  31
BRANCH   6  35
ATOM     35  C   LIG d   1      10.466   5.966  -2.077  0.00  0.00     0.094 A 
ATOM     36  N   LIG d   1       9.477   6.843  -2.101  0.00  0.00    -0.226 NA
ATOM     37  C   LIG d   1       9.386   7.789  -1.190  0.00  0.00     0.156 A 
ATOM     38  S   LIG d   1      10.729   7.512  -0.215  0.00  0.00    -0.061 SA
ATOM     39  C   LIG d   1      11.379   6.095  -1.084  0.00  0.00     0.004 A 
ATOM     40  H   LIG d   1      12.258   5.502  -0.876  0.00  0.00     0.071 H 
BRANCH  37  41
ATOM     41  N   LIG d   1       8.420   8.776  -1.067  0.00  0.00    -0.338 N 
ATOM     42  H   LIG d   1       7.773   8.733  -0.346  0.00  0.00     0.144 HD
ATOM     43  H   LIG d   1       8.392   9.508  -1.702  0.00  0.00     0.144 HD
ENDBRANCH  37  41
ENDBRANCH   6  35
TORSDOF 8
ENDMDL
MODEL 6
REMARK VINA RESULT:      -5.1      4.590      7.428
REMARK  8 active torsions:
REMARK  status: ('A' for Active; 'I' for Inactive)
REMARK    1  A    between atoms: C_1  and  C_2 
REMARK    2  A    between atoms: C_2  and  C_3 
REMARK    3  A    between atoms: C_3  and  O_4 
REMARK    4  A    between atoms: O_4  and  C_5 
REMARK    5  A    between atoms: C_5  and  C_6 
REMARK    6  A    between atoms: C_11  and  C_15 
REMARK    7  A    between atoms: C_11  and  C_16 
REMARK    8  A    between atoms: C_19  and  N_21 
ROOT
ATOM      1  C   LIG d   1       3.519  -0.406  -6.811  0.00  0.00     0.128 C 
ATOM      2  H   LIG d   1       2.998  -1.356  -6.682  0.00  0.00     0.076 H 
ATOM      3  C   LIG d   1       5.048  -0.634  -6.976  0.00  0.00     0.013 C 
ATOM      4  C   LIG d   1       5.476  -0.710  -5.501  0.00  0.00     0.171 C 
ATOM      5  C   LIG d   1       5.706  -2.168  -5.070  0.00  0.00     0.019 C 
ATOM      6  C   LIG d   1       6.979  -2.003  -4.191  0.00  0.00     0.154 C 
ATOM      7  O   LIG d   1       7.692  -0.936  -4.855  0.00  0.00    -0.451 OA
ATOM      8  C   LIG d   1       6.792  -0.018  -5.270  0.00  0.00     0.325 C 
ATOM      9  O   LIG d   1       7.008   1.160  -5.429  0.00  0.00    -0.250 OA
ATOM     10  C   LIG d   1       4.354  -0.075  -4.730  0.00  0.00     0.325 C 
ATOM     11  O   LIG d   1       4.281   0.006  -3.526  0.00  0.00    -0.250 OA
ATOM     12  O   LIG d   1       3.436   0.390  -5.609  0.00  0.00    -0.458 OA
ATOM     13  H   LIG d   1       5.254  -1.570  -7.495  0.00  0.00     0.032 H 
ATOM     14  H   LIG d   1       5.520   0.207  -7.482  0.00  0.00     0.032 H 
ATOM     15  H   LIG d   1       4.867  -2.542  -4.483  0.00  0.00     0.032 H 
ATOM     16  H   LIG d   1       5.901  -2.809  -5.930  0.00  0.00     0.032 H 
ENDROOT
BRANCH   1  17
ATOM     17  C   LIG d   1       2.954   0.360  -8.009  0.00  0.00     0.085 C 
ATOM     18  H   LIG d   1       1.865   0.325  -7.982  0.00  0.00     0.060 H 
ATOM     19  H   LIG d   1       3.309  -0.097  -8.933  0.00  0.00     0.060 H 
BRANCH  17  20
ATOM     20  O   LIG d   1       3.388   1.720  -7.953  0.00  0.00    -0.376 OA
BRANCH  20  21
ATOM     21  C   LIG d   1       3.678   2.291  -9.231  0.00  0.00     0.048 C 
ATOM     22  H   LIG d   1       4.141   3.268  -9.096  0.00  0.00     0.056 H 
ATOM     23  H   LIG d   1       2.753   2.402  -9.797  0.00  0.00     0.056 H 
BRANCH  21  24
ATOM     24  C   LIG d   1       4.635   1.374  -9.995  0.00  0.00    -0.032 C 
ATOM     25  H   LIG d   1       4.878   0.508  -9.379  0.00  0.00     0.029 H 
ATOM     26  H   LIG d   1       5.549   1.918 -10.231  0.00  0.00     0.029 H 
BRANCH  24  27
ATOM     27  C   LIG d   1       3.969   0.908 -11.291  0.00  0.00    -0.063 C 
ATOM     28  H   LIG d   1       4.211  -0.141 -11.466  0.00  0.00     0.023 H 
ATOM     29  H   LIG d   1       2.889   1.023 -11.206  0.00  0.00     0.023 H 
ATOM     30  H   LIG d   1       4.335   1.509 -12.123  0.00  0.00     0.023 H 
ENDBRANCH  24  27
ENDBRANCH  21  24
ENDBRANCH  20  21
ENDBRANCH  17  20
ENDBRANCH   1  17
BRANCH   6  31
ATOM     31  C   LIG d   1       6.604  -1.597  -2.765  0.00  0.00    -0.019 C 
ATOM     32  H   LIG d   1       5.526  -1.443  -2.703  0.00  0.00     0.027 H 
ATOM     33  H   LIG d   1       6.898  -2.387  -2.073  0.00  0.00     0.027 H 
ATOM     34  H   LIG d   1       7.118  -0.673  -2.501  0.00  0.00     0.027 H 
ENDBRANCH   6  31
BRANCH   6  35
ATOM     35  C   LIG d   1       7.795  -3.270  -4.190  0.00  0.00     0.094 A 
ATOM     36  N   LIG d   1       8.789  -3.450  -3.338  0.00  0.00    -0.226 NA
ATOM     37  C   LIG d   1       9.494  -4.562  -3.343  0.00  0.00     0.156 A 
ATOM     38  S   LIG d   1       8.796  -5.453  -4.588  0.00  0.00    -0.061 SA
ATOM     39  C   LIG d   1       7.546  -4.273  -5.066  0.00  0.00     0.004 A 
ATOM     40  H   LIG d   1       6.796  -4.339  -5.842  0.00  0.00     0.071 H 
BRANCH  37  41
ATOM     41  N   LIG d   1      10.556  -4.911  -2.523  0.00  0.00    -0.338 N 
ATOM     42  H   LIG d   1      11.095  -5.689  -2.734  0.00  0.00     0.144 HD
ATOM     43  H   LIG d   1      10.760  -4.377  -1.739  0.00  0.00     0.144 HD
ENDBRANCH  37  41
ENDBRANCH   6  35
TORSDOF 8
ENDMDL
MODEL 7
REMARK VINA RESULT:      -5.1     10.228     12.644
REMARK  8 active torsions:
REMARK  status: ('A' for Active; 'I' for Inactive)
REMARK    1  A    between atoms: C_1  and  C_2 
REMARK    2  A    between atoms: C_2  and  C_3 
REMARK    3  A    between atoms: C_3  and  O_4 
REMARK    4  A    between atoms: O_4  and  C_5 
REMARK    5  A    between atoms: C_5  and  C_6 
REMARK    6  A    between atoms: C_11  and  C_15 
REMARK    7  A    between atoms: C_11  and  C_16 
REMARK    8  A    between atoms: C_19  and  N_21 
ROOT
ATOM      1  C   LIG d   1      12.200   8.961   0.946  0.00  0.00     0.128 C 
ATOM      2  H   LIG d   1      13.154   8.499   0.690  0.00  0.00     0.076 H 
ATOM      3  C   LIG d   1      11.039   7.934   0.818  0.00  0.00     0.013 C 
ATOM      4  C   LIG d   1      10.733   8.050  -0.685  0.00  0.00     0.171 C 
ATOM      5  C   LIG d   1      11.336   6.867  -1.461  0.00  0.00     0.019 C 
ATOM      6  C   LIG d   1      10.185   6.576  -2.467  0.00  0.00     0.154 C 
ATOM      7  O   LIG d   1       9.002   6.887  -1.699  0.00  0.00    -0.451 OA
ATOM      8  C   LIG d   1       9.254   7.987  -0.955  0.00  0.00     0.325 C 
ATOM      9  O   LIG d   1       8.431   8.784  -0.572  0.00  0.00    -0.250 OA
ATOM     10  C   LIG d   1      11.336   9.359  -1.112  0.00  0.00     0.325 C 
ATOM     11  O   LIG d   1      11.363   9.789  -2.241  0.00  0.00    -0.250 OA
ATOM     12  O   LIG d   1      11.846   9.974  -0.021  0.00  0.00    -0.458 OA
ATOM     13  H   LIG d   1      11.371   6.929   1.076  0.00  0.00     0.032 H 
ATOM     14  H   LIG d   1      10.181   8.231   1.420  0.00  0.00     0.032 H 
ATOM     15  H   LIG d   1      12.248   7.161  -1.980  0.00  0.00     0.032 H 
ATOM     16  H   LIG d   1      11.514   6.014  -0.807  0.00  0.00     0.032 H 
ENDROOT
BRANCH   1  17
ATOM     17  C   LIG d   1      12.248   9.550   2.357  0.00  0.00     0.085 C 
ATOM     18  H   LIG d   1      11.504  10.341   2.446  0.00  0.00     0.060 H 
ATOM     19  H   LIG d   1      13.240   9.961   2.544  0.00  0.00     0.060 H 
BRANCH  17  20
ATOM     20  O   LIG d   1      11.970   8.525   3.312  0.00  0.00    -0.376 OA
BRANCH  20  21
ATOM     21  C   LIG d   1      12.126   8.937   4.672  0.00  0.00     0.048 C 
ATOM     22  H   LIG d   1      11.491   9.802   4.864  0.00  0.00     0.056 H 
ATOM     23  H   LIG d   1      13.168   9.203   4.853  0.00  0.00     0.056 H 
BRANCH  21  24
ATOM     24  C   LIG d   1      11.724   7.792   5.602  0.00  0.00    -0.032 C 
ATOM     25  H   LIG d   1      11.005   8.155   6.336  0.00  0.00     0.029 H 
ATOM     26  H   LIG d   1      12.607   7.413   6.115  0.00  0.00     0.029 H 
BRANCH  24  27
ATOM     27  C   LIG d   1      11.090   6.667   4.780  0.00  0.00    -0.063 C 
ATOM     28  H   LIG d   1      11.194   6.891   3.718  0.00  0.00     0.023 H 
ATOM     29  H   LIG d   1      11.592   5.726   5.005  0.00  0.00     0.023 H 
ATOM     30  H   LIG d   1      10.033   6.585   5.033  0.00  0.00     0.023 H 
ENDBRANCH  24  27
ENDBRANCH  21  24
ENDBRANCH  20  21
ENDBRANCH  17  20
ENDBRANCH   1  17
BRANCH   6  31
ATOM     31  C   LIG d   1      10.292   7.487  -3.690  0.00  0.00    -0.019 C 
ATOM     32  H   LIG d   1      10.908   8.352  -3.447  0.00  0.00     0.027 H 
ATOM     33  H   LIG d   1      10.748   6.937  -4.515  0.00  0.00     0.027 H 
ATOM     34  H   LIG d   1       9.297   7.821  -3.984  0.00  0.00     0.027 H 
ENDBRANCH   6  31
BRANCH   6  35
ATOM     35  C   LIG d   1      10.190   5.126  -2.876  0.00  0.00     0.094 A 
ATOM     36  N   LIG d   1       9.497   4.701  -3.919  0.00  0.00    -0.226 NA
ATOM     37  C   LIG d   1       9.510   3.433  -4.271  0.00  0.00     0.156 A 
ATOM     38  S   LIG d   1      10.515   2.726  -3.122  0.00  0.00    -0.061 SA
ATOM     39  C   LIG d   1      10.898   4.198  -2.189  0.00  0.00     0.004 A 
ATOM     40  H   LIG d   1      11.523   4.318  -1.316  0.00  0.00     0.071 H 
BRANCH  37  41
ATOM     41  N   LIG d   1       8.850   2.827  -5.330  0.00  0.00    -0.338 N 
ATOM     42  H   LIG d   1       8.231   2.100  -5.163  0.00  0.00     0.144 HD
ATOM     43  H   LIG d   1       9.009   3.131  -6.238  0.00  0.00     0.144 HD
ENDBRANCH  37  41
ENDBRANCH   6  35
TORSDOF 8
ENDMDL
MODEL 8
REMARK VINA RESULT:      -5.0     11.193     13.813
REMARK  8 active torsions:
REMARK  status: ('A' for Active; 'I' for Inactive)
REMARK    1  A    between atoms: C_1  and  C_2 
REMARK    2  A    between atoms: C_2  and  C_3 
REMARK    3  A    between atoms: C_3  and  O_4 
REMARK    4  A    between atoms: O_4  and  C_5 
REMARK    5  A    between atoms: C_5  and  C_6 
REMARK    6  A    between atoms: C_11  and  C_15 
REMARK    7  A    between atoms: C_11  and  C_16 
REMARK    8  A    between atoms: C_19  and  N_21 
ROOT
ATOM      1  C   LIG d   1      11.492   8.790   2.015  0.00  0.00     0.128 C 
ATOM      2  H   LIG d   1      10.489   9.212   1.946  0.00  0.00     0.076 H 
ATOM      3  C   LIG d   1      12.195   8.809   0.628  0.00  0.00     0.013 C 
ATOM      4  C   LIG d   1      11.649   7.505   0.024  0.00  0.00     0.171 C 
ATOM      5  C   LIG d   1      10.524   7.796  -0.984  0.00  0.00     0.019 C 
ATOM      6  C   LIG d   1      10.870   6.763  -2.095  0.00  0.00     0.154 C 
ATOM      7  O   LIG d   1      12.313   6.718  -2.053  0.00  0.00    -0.451 OA
ATOM      8  C   LIG d   1      12.704   6.774  -0.761  0.00  0.00     0.325 C 
ATOM      9  O   LIG d   1      13.727   6.314  -0.312  0.00  0.00    -0.250 OA
ATOM     10  C   LIG d   1      11.150   6.705   1.194  0.00  0.00     0.325 C 
ATOM     11  O   LIG d   1      10.589   5.636   1.132  0.00  0.00    -0.250 OA
ATOM     12  O   LIG d   1      11.434   7.382   2.331  0.00  0.00    -0.458 OA
ATOM     13  H   LIG d   1      11.887   9.675   0.042  0.00  0.00     0.032 H 
ATOM     14  H   LIG d   1      13.279   8.772   0.734  0.00  0.00     0.032 H 
ATOM     15  H   LIG d   1       9.545   7.595  -0.550  0.00  0.00     0.032 H 
ATOM     16  H   LIG d   1      10.585   8.816  -1.362  0.00  0.00     0.032 H 
ENDROOT
BRANCH   1  17
ATOM     17  C   LIG d   1      12.324   9.544   3.054  0.00  0.00     0.085 C 
ATOM     18  H   LIG d   1      11.820  10.474   3.318  0.00  0.00     0.060 H 
ATOM     19  H   LIG d   1      13.307   9.769   2.639  0.00  0.00     0.060 H 
BRANCH  17  20
ATOM     20  O   LIG d   1      12.475   8.736   4.223  0.00  0.00    -0.376 OA
BRANCH  20  21
ATOM     21  C   LIG d   1      12.253   9.437   5.448  0.00  0.00     0.048 C 
ATOM     22  H   LIG d   1      11.621  10.305   5.261  0.00  0.00     0.056 H 
ATOM     23  H   LIG d   1      13.209   9.765   5.857  0.00  0.00     0.056 H 
BRANCH  21  24
ATOM     24  C   LIG d   1      11.563   8.509   6.449  0.00  0.00    -0.032 C 
ATOM     25  H   LIG d   1      10.683   9.004   6.858  0.00  0.00     0.029 H 
ATOM     26  H   LIG d   1      12.252   8.269   7.258  0.00  0.00     0.029 H 
BRANCH  24  27
ATOM     27  C   LIG d   1      11.140   7.220   5.741  0.00  0.00    -0.063 C 
ATOM     28  H   LIG d   1      11.472   6.360   6.323  0.00  0.00     0.023 H 
ATOM     29  H   LIG d   1      10.054   7.197   5.645  0.00  0.00     0.023 H 
ATOM     30  H   LIG d   1      11.593   7.185   4.750  0.00  0.00     0.023 H 
ENDBRANCH  24  27
ENDBRANCH  21  24
ENDBRANCH  20  21
ENDBRANCH  17  20
ENDBRANCH   1  17
BRANCH   6  31
ATOM     31  C   LIG d   1      10.276   5.393  -1.765  0.00  0.00    -0.019 C 
ATOM     32  H   LIG d   1       9.284   5.310  -2.209  0.00  0.00     0.027 H 
ATOM     33  H   LIG d   1      10.920   4.610  -2.167  0.00  0.00     0.027 H 
ATOM     34  H   LIG d   1      10.199   5.280  -0.683  0.00  0.00     0.027 H 
ENDBRANCH   6  31
BRANCH   6  35
ATOM     35  C   LIG d   1      10.389   7.245  -3.440  0.00  0.00     0.094 A 
ATOM     36  N   LIG d   1      10.255   8.533  -3.702  0.00  0.00    -0.226 NA
ATOM     37  C   LIG d   1       9.839   8.945  -4.881  0.00  0.00     0.156 A 
ATOM     38  S   LIG d   1       9.588   7.510  -5.722  0.00  0.00    -0.061 SA
ATOM     39  C   LIG d   1      10.070   6.378  -4.430  0.00  0.00     0.004 A 
ATOM     40  H   LIG d   1      10.099   5.298  -4.435  0.00  0.00     0.071 H 
BRANCH  37  41
ATOM     41  N   LIG d   1       9.649  10.247  -5.320  0.00  0.00    -0.338 N 
ATOM     42  H   LIG d   1      10.340  10.689  -5.837  0.00  0.00     0.144 HD
ATOM     43  H   LIG d   1       8.825  10.714  -5.111  0.00  0.00     0.144 HD
ENDBRANCH  37  41
ENDBRANCH   6  35
TORSDOF 8
ENDMDL
MODEL 9
REMARK VINA RESULT:      -4.9      6.334      7.791
REMARK  8 active torsions:
REMARK  status: ('A' for Active; 'I' for Inactive)
REMARK    1  A    between atoms: C_1  and  C_2 
REMARK    2  A    between atoms: C_2  and  C_3 
REMARK    3  A    between atoms: C_3  and  O_4 
REMARK    4  A    between atoms: O_4  and  C_5 
REMARK    5  A    between atoms: C_5  and  C_6 
REMARK    6  A    between atoms: C_11  and  C_15 
REMARK    7  A    between atoms: C_11  and  C_16 
REMARK    8  A    between atoms: C_19  and  N_21 
ROOT
ATOM      1  C   LIG d   1       4.944  -6.925  -7.034  0.00  0.00     0.128 C 
ATOM      2  H   LIG d   1       3.986  -6.660  -7.482  0.00  0.00     0.076 H 
ATOM      3  C   LIG d   1       5.107  -6.250  -5.643  0.00  0.00     0.013 C 
ATOM      4  C   LIG d   1       5.644  -4.872  -6.065  0.00  0.00     0.171 C 
ATOM      5  C   LIG d   1       4.534  -3.809  -6.010  0.00  0.00     0.019 C 
ATOM      6  C   LIG d   1       5.325  -2.608  -5.418  0.00  0.00     0.154 C 
ATOM      7  O   LIG d   1       6.266  -3.251  -4.529  0.00  0.00    -0.451 OA
ATOM      8  C   LIG d   1       6.709  -4.381  -5.123  0.00  0.00     0.325 C 
ATOM      9  O   LIG d   1       7.779  -4.906  -4.930  0.00  0.00    -0.250 OA
ATOM     10  C   LIG d   1       6.161  -5.061  -7.464  0.00  0.00     0.325 C 
ATOM     11  O   LIG d   1       6.612  -4.192  -8.173  0.00  0.00    -0.250 OA
ATOM     12  O   LIG d   1       6.037  -6.366  -7.797  0.00  0.00    -0.458 OA
ATOM     13  H   LIG d   1       4.148  -6.160  -5.133  0.00  0.00     0.032 H 
ATOM     14  H   LIG d   1       5.830  -6.784  -5.027  0.00  0.00     0.032 H 
ATOM     15  H   LIG d   1       4.158  -3.580  -7.007  0.00  0.00     0.032 H 
ATOM     16  H   LIG d   1       3.725  -4.115  -5.346  0.00  0.00     0.032 H 
ENDROOT
BRANCH   1  17
ATOM     17  C   LIG d   1       5.084  -8.443  -6.919  0.00  0.00     0.085 C 
ATOM     18  H   LIG d   1       6.094  -8.693  -6.596  0.00  0.00     0.060 H 
ATOM     19  H   LIG d   1       4.889  -8.900  -7.890  0.00  0.00     0.060 H 
BRANCH  17  20
ATOM     20  O   LIG d   1       4.143  -8.938  -5.964  0.00  0.00    -0.376 OA
BRANCH  20  21
ATOM     21  C   LIG d   1       4.638 -10.011  -5.160  0.00  0.00     0.048 C 
ATOM     22  H   LIG d   1       5.728 -10.002  -5.174  0.00  0.00     0.056 H 
ATOM     23  H   LIG d   1       4.277 -10.959  -5.558  0.00  0.00     0.056 H 
BRANCH  21  24
ATOM     24  C   LIG d   1       4.144  -9.841  -3.722  0.00  0.00    -0.032 C 
ATOM     25  H   LIG d   1       3.685  -8.859  -3.609  0.00  0.00     0.029 H 
ATOM     26  H   LIG d   1       4.985  -9.929  -3.036  0.00  0.00     0.029 H 
BRANCH  24  27
ATOM     27  C   LIG d   1       3.112 -10.926  -3.406  0.00  0.00    -0.063 C 
ATOM     28  H   LIG d   1       2.760 -10.805  -2.382  0.00  0.00     0.023 H 
ATOM     29  H   LIG d   1       2.271 -10.838  -4.093  0.00  0.00     0.023 H 
ATOM     30  H   LIG d   1       3.573 -11.908  -3.518  0.00  0.00     0.023 H 
ENDBRANCH  24  27
ENDBRANCH  21  24
ENDBRANCH  20  21
ENDBRANCH  17  20
ENDBRANCH   1  17
BRANCH   6  31
ATOM     31  C   LIG d   1       6.058  -1.845  -6.521  0.00  0.00    -0.019 C 
ATOM     32  H   LIG d   1       5.331  -1.371  -7.181  0.00  0.00     0.027 H 
ATOM     33  H   LIG d   1       6.694  -1.080  -6.074  0.00  0.00     0.027 H 
ATOM     34  H   LIG d   1       6.673  -2.537  -7.097  0.00  0.00     0.027 H 
ENDBRANCH   6  31
BRANCH   6  35
ATOM     35  C   LIG d   1       4.408  -1.691  -4.651  0.00  0.00     0.094 A 
ATOM     36  N   LIG d   1       3.962  -0.563  -5.177  0.00  0.00    -0.226 NA
ATOM     37  C   LIG d   1       3.158   0.229  -4.500  0.00  0.00     0.156 A 
ATOM     38  S   LIG d   1       2.975  -0.572  -3.032  0.00  0.00    -0.061 SA
ATOM     39  C   LIG d   1       4.007  -1.983  -3.390  0.00  0.00     0.004 A 
ATOM     40  H   LIG d   1       4.248  -2.836  -2.772  0.00  0.00     0.071 H 
BRANCH  37  41
ATOM     41  N   LIG d   1       2.600   1.434  -4.900  0.00  0.00    -0.338 N 
ATOM     42  H   LIG d   1       3.084   2.013  -5.510  0.00  0.00     0.144 HD
ATOM     43  H   LIG d   1       1.727   1.698  -4.570  0.00  0.00     0.144 HD
ENDBRANCH  37  41
ENDBRANCH   6  35
TORSDOF 8
ENDMDL
