MODEL 1
REMARK VINA RESULT:      -5.9      0.000      0.000
REMARK  2 active torsions:
REMARK  status: ('A' for Active; 'I' for Inactive)
REMARK    1  A    between atoms: C_11  and  C_12 
REMARK    2  A    between atoms: C_12  and  C_13 
REMARK       I    between atoms: C_13  and  N_15 
ROOT
ATOM      1  C   LIG d   1       7.841  -2.801  -3.903  0.00  0.00    -0.047 A 
ATOM      2  C   LIG d   1       7.067  -1.883  -3.251  0.00  0.00    -0.051 A 
ATOM      3  C   LIG d   1       5.682  -1.892  -3.429  0.00  0.00     0.003 A 
ATOM      4  C   LIG d   1       5.089  -2.847  -4.275  0.00  0.00     0.048 A 
ATOM      5  C   LIG d   1       5.895  -3.772  -4.928  0.00  0.00    -0.024 A 
ATOM      6  C   LIG d   1       7.260  -3.746  -4.741  0.00  0.00     0.020 A 
ATOM      7 BR   LIG d   1       8.354  -5.005  -5.631  0.00  0.00    -0.050 Br
ATOM      8  N   LIG d   1       3.731  -2.619  -4.255  0.00  0.00    -0.360 N 
ATOM      9  H   LIG d   1       3.073  -3.131  -4.752  0.00  0.00     0.165 HD
ATOM     10  C   LIG d   1       3.448  -1.563  -3.432  0.00  0.00     0.006 A 
ATOM     11  C   LIG d   1       4.583  -1.079  -2.902  0.00  0.00    -0.014 A 
ATOM     12  H   LIG d   1       8.912  -2.793  -3.766  0.00  0.00     0.063 H 
ATOM     13  H   LIG d   1       7.525  -1.151  -2.602  0.00  0.00     0.062 H 
ATOM     14  H   LIG d   1       5.453  -4.511  -5.581  0.00  0.00     0.065 H 
ATOM     15  H   LIG d   1       2.459  -1.175  -3.238  0.00  0.00     0.081 H 
ENDROOT
BRANCH  11  16
ATOM     16  C   LIG d   1       4.703   0.083  -1.950  0.00  0.00     0.051 C 
ATOM     17  H   LIG d   1       3.798   0.155  -1.347  0.00  0.00     0.041 H 
ATOM     18  H   LIG d   1       5.563  -0.069  -1.298  0.00  0.00     0.041 H 
BRANCH  16  19
ATOM     19  C   LIG d   1       4.886   1.357  -2.734  0.00  0.00     0.215 C 
ATOM     20  O   LIG d   1       6.002   1.774  -2.961  0.00  0.00    -0.276 OA
ATOM     21  N   LIG d   1       3.811   2.033  -3.183  0.00  0.00    -0.329 N 
ATOM     22  H   LIG d   1       2.918   1.699  -3.002  0.00  0.00     0.145 HD
ATOM     23  H   LIG d   1       3.929   2.853  -3.688  0.00  0.00     0.145 HD
ENDBRANCH  16  19
ENDBRANCH  11  16
TORSDOF 2
ENDMDL
MODEL 2
REMARK VINA RESULT:      -5.3      1.851      2.419
REMARK  2 active torsions:
REMARK  status: ('A' for Active; 'I' for Inactive)
REMARK    1  A    between atoms: C_11  and  C_12 
REMARK    2  A    between atoms: C_12  and  C_13 
REMARK       I    between atoms: C_13  and  N_15 
ROOT
ATOM      1  C   LIG d   1       5.328  -3.936  -4.789  0.00  0.00    -0.047 A 
ATOM      2  C   LIG d   1       4.656  -2.902  -4.200  0.00  0.00    -0.051 A 
ATOM      3  C   LIG d   1       5.364  -1.793  -3.732  0.00  0.00     0.003 A 
ATOM      4  C   LIG d   1       6.763  -1.744  -3.870  0.00  0.00     0.048 A 
ATOM      5  C   LIG d   1       7.427  -2.807  -4.472  0.00  0.00    -0.024 A 
ATOM      6  C   LIG d   1       6.710  -3.893  -4.927  0.00  0.00     0.020 A 
ATOM      7 BR   LIG d   1       7.614  -5.337  -5.745  0.00  0.00    -0.050 Br
ATOM      8  N   LIG d   1       7.183  -0.550  -3.327  0.00  0.00    -0.360 N 
ATOM      9  H   LIG d   1       8.104  -0.250  -3.284  0.00  0.00     0.165 HD
ATOM     10  C   LIG d   1       6.105   0.151  -2.855  0.00  0.00     0.006 A 
ATOM     11  C   LIG d   1       4.978  -0.545  -3.069  0.00  0.00    -0.014 A 
ATOM     12  H   LIG d   1       4.780  -4.794  -5.150  0.00  0.00     0.063 H 
ATOM     13  H   LIG d   1       3.582  -2.943  -4.096  0.00  0.00     0.062 H 
ATOM     14  H   LIG d   1       8.500  -2.782  -4.584  0.00  0.00     0.065 H 
ATOM     15  H   LIG d   1       6.155   1.120  -2.382  0.00  0.00     0.081 H 
ENDROOT
BRANCH  11  16
ATOM     16  C   LIG d   1       3.580  -0.124  -2.693  0.00  0.00     0.051 C 
ATOM     17  H   LIG d   1       3.029  -0.987  -2.321  0.00  0.00     0.041 H 
ATOM     18  H   LIG d   1       3.627   0.639  -1.917  0.00  0.00     0.041 H 
BRANCH  16  19
ATOM     19  C   LIG d   1       2.880   0.434  -3.905  0.00  0.00     0.215 C 
ATOM     20  O   LIG d   1       3.105   1.570  -4.265  0.00  0.00    -0.276 OA
ATOM     21  N   LIG d   1       2.005  -0.329  -4.589  0.00  0.00    -0.329 N 
ATOM     22  H   LIG d   1       1.826  -1.237  -4.301  0.00  0.00     0.145 HD
ATOM     23  H   LIG d   1       1.555   0.031  -5.370  0.00  0.00     0.145 HD
ENDBRANCH  16  19
ENDBRANCH  11  16
TORSDOF 2
ENDMDL
MODEL 3
REMARK VINA RESULT:      -5.2      3.730      5.367
REMARK  2 active torsions:
REMARK  status: ('A' for Active; 'I' for Inactive)
REMARK    1  A    between atoms: C_11  and  C_12 
REMARK    2  A    between atoms: C_12  and  C_13 
REMARK       I    between atoms: C_13  and  N_15 
ROOT
ATOM      1  C   LIG d   1       4.033  -1.649  -2.867  0.00  0.00    -0.047 A 
ATOM      2  C   LIG d   1       4.331  -2.766  -3.596  0.00  0.00    -0.051 A 
ATOM      3  C   LIG d   1       5.574  -2.873  -4.223  0.00  0.00     0.003 A 
ATOM      4  C   LIG d   1       6.513  -1.834  -4.101  0.00  0.00     0.048 A 
ATOM      5  C   LIG d   1       6.190  -0.706  -3.355  0.00  0.00    -0.024 A 
ATOM      6  C   LIG d   1       4.957  -0.619  -2.744  0.00  0.00     0.020 A 
ATOM      7 BR   LIG d   1       4.519   0.915  -1.730  0.00  0.00    -0.050 Br
ATOM      8  N   LIG d   1       7.630  -2.210  -4.814  0.00  0.00    -0.360 N 
ATOM      9  H   LIG d   1       8.438  -1.681  -4.904  0.00  0.00     0.165 HD
ATOM     10  C   LIG d   1       7.430  -3.443  -5.375  0.00  0.00     0.006 A 
ATOM     11  C   LIG d   1       6.208  -3.897  -5.057  0.00  0.00    -0.014 A 
ATOM     12  H   LIG d   1       3.071  -1.566  -2.383  0.00  0.00     0.063 H 
ATOM     13  H   LIG d   1       3.607  -3.562  -3.687  0.00  0.00     0.062 H 
ATOM     14  H   LIG d   1       6.902   0.099  -3.254  0.00  0.00     0.065 H 
ATOM     15  H   LIG d   1       8.149  -3.970  -5.985  0.00  0.00     0.081 H 
ENDROOT
BRANCH  11  16
ATOM     16  C   LIG d   1       5.601  -5.210  -5.482  0.00  0.00     0.051 C 
ATOM     17  H   LIG d   1       6.359  -5.818  -5.975  0.00  0.00     0.041 H 
ATOM     18  H   LIG d   1       5.227  -5.738  -4.605  0.00  0.00     0.041 H 
BRANCH  16  19
ATOM     19  C   LIG d   1       4.465  -4.952  -6.436  0.00  0.00     0.215 C 
ATOM     20  O   LIG d   1       3.342  -5.317  -6.155  0.00  0.00    -0.276 OA
ATOM     21  N   LIG d   1       4.694  -4.317  -7.602  0.00  0.00    -0.329 N 
ATOM     22  H   LIG d   1       5.591  -4.026  -7.827  0.00  0.00     0.145 HD
ATOM     23  H   LIG d   1       3.961  -4.151  -8.217  0.00  0.00     0.145 HD
ENDBRANCH  16  19
ENDBRANCH  11  16
TORSDOF 2
ENDMDL
MODEL 4
REMARK VINA RESULT:      -5.2      4.616      5.395
REMARK  2 active torsions:
REMARK  status: ('A' for Active; 'I' for Inactive)
REMARK    1  A    between atoms: C_11  and  C_12 
REMARK    2  A    between atoms: C_12  and  C_13 
REMARK       I    between atoms: C_13  and  N_15 
ROOT
ATOM      1  C   LIG d   1       2.979   0.137  -4.219  0.00  0.00    -0.047 A 
ATOM      2  C   LIG d   1       2.704   0.348  -5.540  0.00  0.00    -0.051 A 
ATOM      3  C   LIG d   1       3.405  -0.364  -6.516  0.00  0.00     0.003 A 
ATOM      4  C   LIG d   1       4.388  -1.294  -6.136  0.00  0.00     0.048 A 
ATOM      5  C   LIG d   1       4.653  -1.493  -4.786  0.00  0.00    -0.024 A 
ATOM      6  C   LIG d   1       3.951  -0.780  -3.838  0.00  0.00     0.020 A 
ATOM      7 BR   LIG d   1       4.312  -1.052  -2.002  0.00  0.00    -0.050 Br
ATOM      8  N   LIG d   1       4.904  -1.836  -7.292  0.00  0.00    -0.360 N 
ATOM      9  H   LIG d   1       5.603  -2.508  -7.330  0.00  0.00     0.165 HD
ATOM     10  C   LIG d   1       4.284  -1.285  -8.381  0.00  0.00     0.006 A 
ATOM     11  C   LIG d   1       3.368  -0.388  -7.981  0.00  0.00    -0.014 A 
ATOM     12  H   LIG d   1       2.438   0.688  -3.464  0.00  0.00     0.063 H 
ATOM     13  H   LIG d   1       1.948   1.063  -5.829  0.00  0.00     0.062 H 
ATOM     14  H   LIG d   1       5.406  -2.205  -4.480  0.00  0.00     0.065 H 
ATOM     15  H   LIG d   1       4.500  -1.533  -9.410  0.00  0.00     0.081 H 
ENDROOT
BRANCH  11  16
ATOM     16  C   LIG d   1       2.476   0.440  -8.870  0.00  0.00     0.051 C 
ATOM     17  H   LIG d   1       2.312  -0.085  -9.810  0.00  0.00     0.041 H 
ATOM     18  H   LIG d   1       1.520   0.604  -8.373  0.00  0.00     0.041 H 
BRANCH  16  19
ATOM     19  C   LIG d   1       3.134   1.768  -9.144  0.00  0.00     0.215 C 
ATOM     20  O   LIG d   1       3.142   2.628  -8.290  0.00  0.00    -0.276 OA
ATOM     21  N   LIG d   1       3.713   1.999 -10.338  0.00  0.00    -0.329 N 
ATOM     22  H   LIG d   1       3.706   1.311 -11.022  0.00  0.00     0.145 HD
ATOM     23  H   LIG d   1       4.136   2.854 -10.515  0.00  0.00     0.145 HD
ENDBRANCH  16  19
ENDBRANCH  11  16
TORSDOF 2
ENDMDL
MODEL 5
REMARK VINA RESULT:      -5.0      2.805      3.414
REMARK  2 active torsions:
REMARK  status: ('A' for Active; 'I' for Inactive)
REMARK    1  A    between atoms: C_11  and  C_12 
REMARK    2  A    between atoms: C_12  and  C_13 
REMARK       I    between atoms: C_13  and  N_15 
ROOT
ATOM      1  C   LIG d   1       3.381  -0.189  -7.265  0.00  0.00    -0.047 A 
ATOM      2  C   LIG d   1       3.210  -0.028  -5.918  0.00  0.00    -0.051 A 
ATOM      3  C   LIG d   1       3.810  -0.925  -5.032  0.00  0.00     0.003 A 
ATOM      4  C   LIG d   1       4.589  -1.987  -5.526  0.00  0.00     0.048 A 
ATOM      5  C   LIG d   1       4.750  -2.132  -6.900  0.00  0.00    -0.024 A 
ATOM      6  C   LIG d   1       4.148  -1.237  -7.758  0.00  0.00     0.020 A 
ATOM      7 BR   LIG d   1       4.368  -1.437  -9.626  0.00  0.00    -0.050 Br
ATOM      8  N   LIG d   1       5.047  -2.695  -4.438  0.00  0.00    -0.360 N 
ATOM      9  H   LIG d   1       5.611  -3.484  -4.484  0.00  0.00     0.165 HD
ATOM     10  C   LIG d   1       4.590  -2.122  -3.283  0.00  0.00     0.006 A 
ATOM     11  C   LIG d   1       3.837  -1.049  -3.572  0.00  0.00    -0.014 A 
ATOM     12  H   LIG d   1       2.916   0.503  -7.950  0.00  0.00     0.063 H 
ATOM     13  H   LIG d   1       2.612   0.788  -5.542  0.00  0.00     0.062 H 
ATOM     14  H   LIG d   1       5.345  -2.943  -7.293  0.00  0.00     0.065 H 
ATOM     15  H   LIG d   1       4.803  -2.479  -2.286  0.00  0.00     0.081 H 
ENDROOT
BRANCH  11  16
ATOM     16  C   LIG d   1       3.145  -0.146  -2.583  0.00  0.00     0.051 C 
ATOM     17  H   LIG d   1       2.168   0.139  -2.972  0.00  0.00     0.041 H 
ATOM     18  H   LIG d   1       3.019  -0.673  -1.637  0.00  0.00     0.041 H 
BRANCH  16  19
ATOM     19  C   LIG d   1       3.978   1.090  -2.362  0.00  0.00     0.215 C 
ATOM     20  O   LIG d   1       4.754   1.140  -1.431  0.00  0.00    -0.276 OA
ATOM     21  N   LIG d   1       3.861   2.139  -3.199  0.00  0.00    -0.329 N 
ATOM     22  H   LIG d   1       3.241   2.099  -3.943  0.00  0.00     0.145 HD
ATOM     23  H   LIG d   1       4.398   2.935  -3.057  0.00  0.00     0.145 HD
ENDBRANCH  16  19
ENDBRANCH  11  16
TORSDOF 2
ENDMDL
MODEL 6
REMARK VINA RESULT:      -4.9      7.842      9.290
REMARK  2 active torsions:
REMARK  status: ('A' for Active; 'I' for Inactive)
REMARK    1  A    between atoms: C_11  and  C_12 
REMARK    2  A    between atoms: C_12  and  C_13 
REMARK       I    between atoms: C_13  and  N_15 
ROOT
ATOM      1  C   LIG d   1       9.269   5.575  -4.588  0.00  0.00    -0.047 A 
ATOM      2  C   LIG d   1       9.519   6.568  -3.683  0.00  0.00    -0.051 A 
ATOM      3  C   LIG d   1      10.048   6.248  -2.431  0.00  0.00     0.003 A 
ATOM      4  C   LIG d   1      10.323   4.907  -2.108  0.00  0.00     0.048 A 
ATOM      5  C   LIG d   1      10.062   3.912  -3.043  0.00  0.00    -0.024 A 
ATOM      6  C   LIG d   1       9.538   4.249  -4.273  0.00  0.00     0.020 A 
ATOM      7 BR   LIG d   1       9.183   2.895  -5.543  0.00  0.00    -0.050 Br
ATOM      8  N   LIG d   1      10.831   4.894  -0.827  0.00  0.00    -0.360 N 
ATOM      9  H   LIG d   1      11.108   4.099  -0.345  0.00  0.00     0.165 HD
ATOM     10  C   LIG d   1      10.886   6.171  -0.336  0.00  0.00     0.006 A 
ATOM     11  C   LIG d   1      10.427   7.035  -1.255  0.00  0.00    -0.014 A 
ATOM     12  H   LIG d   1       8.858   5.823  -5.556  0.00  0.00     0.063 H 
ATOM     13  H   LIG d   1       9.306   7.596  -3.935  0.00  0.00     0.062 H 
ATOM     14  H   LIG d   1      10.269   2.879  -2.807  0.00  0.00     0.065 H 
ATOM     15  H   LIG d   1      11.245   6.442   0.646  0.00  0.00     0.081 H 
ENDROOT
BRANCH  11  16
ATOM     16  C   LIG d   1      10.318   8.530  -1.103  0.00  0.00     0.051 C 
ATOM     17  H   LIG d   1      10.837   8.843  -0.198  0.00  0.00     0.041 H 
ATOM     18  H   LIG d   1      10.770   9.017  -1.967  0.00  0.00     0.041 H 
BRANCH  16  19
ATOM     19  C   LIG d   1       8.866   8.921  -1.010  0.00  0.00     0.215 C 
ATOM     20  O   LIG d   1       8.033   8.091  -0.714  0.00  0.00    -0.276 OA
ATOM     21  N   LIG d   1       8.493  10.192  -1.255  0.00  0.00    -0.329 N 
ATOM     22  H   LIG d   1       9.159  10.855  -1.492  0.00  0.00     0.145 HD
ATOM     23  H   LIG d   1       7.557  10.443  -1.195  0.00  0.00     0.145 HD
ENDBRANCH  16  19
ENDBRANCH  11  16
TORSDOF 2
ENDMDL
MODEL 7
REMARK VINA RESULT:      -4.9      3.849      4.480
REMARK  2 active torsions:
REMARK  status: ('A' for Active; 'I' for Inactive)
REMARK    1  A    between atoms: C_11  and  C_12 
REMARK    2  A    between atoms: C_12  and  C_13 
REMARK       I    between atoms: C_13  and  N_15 
ROOT
ATOM      1  C   LIG d   1       5.007  -0.088  -7.806  0.00  0.00    -0.047 A 
ATOM      2  C   LIG d   1       5.132  -0.596  -6.544  0.00  0.00    -0.051 A 
ATOM      3  C   LIG d   1       4.080  -0.459  -5.635  0.00  0.00     0.003 A 
ATOM      4  C   LIG d   1       2.899   0.198  -6.022  0.00  0.00     0.048 A 
ATOM      5  C   LIG d   1       2.793   0.708  -7.311  0.00  0.00    -0.024 A 
ATOM      6  C   LIG d   1       3.843   0.564  -8.193  0.00  0.00     0.020 A 
ATOM      7 BR   LIG d   1       3.697   1.258  -9.945  0.00  0.00    -0.050 Br
ATOM      8  N   LIG d   1       2.051   0.181  -4.937  0.00  0.00    -0.360 N 
ATOM      9  H   LIG d   1       1.161   0.566  -4.919  0.00  0.00     0.165 HD
ATOM     10  C   LIG d   1       2.652  -0.460  -3.887  0.00  0.00     0.006 A 
ATOM     11  C   LIG d   1       3.879  -0.871  -4.243  0.00  0.00    -0.014 A 
ATOM     12  H   LIG d   1       5.821  -0.192  -8.509  0.00  0.00     0.063 H 
ATOM     13  H   LIG d   1       6.041  -1.100  -6.250  0.00  0.00     0.062 H 
ATOM     14  H   LIG d   1       1.891   1.215  -7.621  0.00  0.00     0.065 H 
ATOM     15  H   LIG d   1       2.204  -0.613  -2.916  0.00  0.00     0.081 H 
ENDROOT
BRANCH  11  16
ATOM     16  C   LIG d   1       4.864  -1.610  -3.374  0.00  0.00     0.051 C 
ATOM     17  H   LIG d   1       4.379  -1.904  -2.444  0.00  0.00     0.041 H 
ATOM     18  H   LIG d   1       5.215  -2.499  -3.898  0.00  0.00     0.041 H 
BRANCH  16  19
ATOM     19  C   LIG d   1       6.035  -0.713  -3.068  0.00  0.00     0.215 C 
ATOM     20  O   LIG d   1       5.845   0.423  -2.687  0.00  0.00    -0.276 OA
ATOM     21  N   LIG d   1       7.293  -1.171  -3.218  0.00  0.00    -0.329 N 
ATOM     22  H   LIG d   1       7.444  -2.079  -3.522  0.00  0.00     0.145 HD
ATOM     23  H   LIG d   1       8.047  -0.593  -3.020  0.00  0.00     0.145 HD
ENDBRANCH  16  19
ENDBRANCH  11  16
TORSDOF 2
ENDMDL
MODEL 8
REMARK VINA RESULT:      -4.9      4.136      4.989
REMARK  2 active torsions:
REMARK  status: ('A' for Active; 'I' for Inactive)
REMARK    1  A    between atoms: C_11  and  C_12 
REMARK    2  A    between atoms: C_12  and  C_13 
REMARK       I    between atoms: C_13  and  N_15 
ROOT
ATOM      1  C   LIG d   1       5.126   0.503  -2.642  0.00  0.00    -0.047 A 
ATOM      2  C   LIG d   1       6.122   1.371  -2.991  0.00  0.00    -0.051 A 
ATOM      3  C   LIG d   1       7.253   0.895  -3.660  0.00  0.00     0.003 A 
ATOM      4  C   LIG d   1       7.360  -0.472  -3.973  0.00  0.00     0.048 A 
ATOM      5  C   LIG d   1       6.335  -1.337  -3.609  0.00  0.00    -0.024 A 
ATOM      6  C   LIG d   1       5.228  -0.849  -2.948  0.00  0.00     0.020 A 
ATOM      7 BR   LIG d   1       3.835  -2.027  -2.453  0.00  0.00    -0.050 Br
ATOM      8  N   LIG d   1       8.561  -0.646  -4.622  0.00  0.00    -0.360 N 
ATOM      9  H   LIG d   1       8.898  -1.494  -4.954  0.00  0.00     0.165 HD
ATOM     10  C   LIG d   1       9.211   0.554  -4.730  0.00  0.00     0.006 A 
ATOM     11  C   LIG d   1       8.473   1.525  -4.169  0.00  0.00    -0.014 A 
ATOM     12  H   LIG d   1       4.253   0.870  -2.123  0.00  0.00     0.063 H 
ATOM     13  H   LIG d   1       6.037   2.420  -2.749  0.00  0.00     0.062 H 
ATOM     14  H   LIG d   1       6.404  -2.389  -3.843  0.00  0.00     0.065 H 
ATOM     15  H   LIG d   1      10.174   0.699  -5.198  0.00  0.00     0.081 H 
ENDROOT
BRANCH  11  16
ATOM     16  C   LIG d   1       8.836   2.985  -4.074  0.00  0.00     0.051 C 
ATOM     17  H   LIG d   1       8.678   3.462  -5.041  0.00  0.00     0.041 H 
ATOM     18  H   LIG d   1       8.209   3.467  -3.324  0.00  0.00     0.041 H 
BRANCH  16  19
ATOM     19  C   LIG d   1      10.284   3.118  -3.680  0.00  0.00     0.215 C 
ATOM     20  O   LIG d   1      11.115   3.410  -4.513  0.00  0.00    -0.276 OA
ATOM     21  N   LIG d   1      10.656   2.913  -2.401  0.00  0.00    -0.329 N 
ATOM     22  H   LIG d   1       9.991   2.680  -1.735  0.00  0.00     0.145 HD
ATOM     23  H   LIG d   1      11.589   3.000  -2.147  0.00  0.00     0.145 HD
ENDBRANCH  16  19
ENDBRANCH  11  16
TORSDOF 2
ENDMDL
MODEL 9
REMARK VINA RESULT:      -4.8      3.756      5.502
REMARK  2 active torsions:
REMARK  status: ('A' for Active; 'I' for Inactive)
REMARK    1  A    between atoms: C_11  and  C_12 
REMARK    2  A    between atoms: C_12  and  C_13 
REMARK       I    between atoms: C_13  and  N_15 
ROOT
ATOM      1  C   LIG d   1       5.359  -1.562  -2.925  0.00  0.00    -0.047 A 
ATOM      2  C   LIG d   1       5.503  -2.530  -3.878  0.00  0.00    -0.051 A 
ATOM      3  C   LIG d   1       4.964  -2.335  -5.151  0.00  0.00     0.003 A 
ATOM      4  C   LIG d   1       4.277  -1.145  -5.448  0.00  0.00     0.048 A 
ATOM      5  C   LIG d   1       4.141  -0.172  -4.464  0.00  0.00    -0.024 A 
ATOM      6  C   LIG d   1       4.680  -0.384  -3.212  0.00  0.00     0.020 A 
ATOM      7 BR   LIG d   1       4.494   0.940  -1.875  0.00  0.00    -0.050 Br
ATOM      8  N   LIG d   1       3.863  -1.230  -6.758  0.00  0.00    -0.360 N 
ATOM      9  H   LIG d   1       3.363  -0.547  -7.231  0.00  0.00     0.165 HD
ATOM     10  C   LIG d   1       4.263  -2.424  -7.295  0.00  0.00     0.006 A 
ATOM     11  C   LIG d   1       4.932  -3.138  -6.376  0.00  0.00    -0.014 A 
ATOM     12  H   LIG d   1       5.775  -1.713  -1.939  0.00  0.00     0.063 H 
ATOM     13  H   LIG d   1       6.031  -3.443  -3.646  0.00  0.00     0.062 H 
ATOM     14  H   LIG d   1       3.616   0.747  -4.678  0.00  0.00     0.065 H 
ATOM     15  H   LIG d   1       4.069  -2.745  -8.308  0.00  0.00     0.081 H 
ENDROOT
BRANCH  11  16
ATOM     16  C   LIG d   1       5.532  -4.508  -6.567  0.00  0.00     0.051 C 
ATOM     17  H   LIG d   1       5.951  -4.584  -7.570  0.00  0.00     0.041 H 
ATOM     18  H   LIG d   1       6.320  -4.664  -5.831  0.00  0.00     0.041 H 
BRANCH  16  19
ATOM     19  C   LIG d   1       4.462  -5.554  -6.389  0.00  0.00     0.215 C 
ATOM     20  O   LIG d   1       3.371  -5.239  -5.964  0.00  0.00    -0.276 OA
ATOM     21  N   LIG d   1       4.718  -6.839  -6.702  0.00  0.00    -0.329 N 
ATOM     22  H   LIG d   1       5.591  -7.091  -7.041  0.00  0.00     0.145 HD
ATOM     23  H   LIG d   1       4.029  -7.512  -6.587  0.00  0.00     0.145 HD
ENDBRANCH  16  19
ENDBRANCH  11  16
TORSDOF 2
ENDMDL
