MODEL 1
REMARK VINA RESULT:      -7.0      0.000      0.000
REMARK  7 active torsions:
REMARK  status: ('A' for Active; 'I' for Inactive)
REMARK    1  A    between atoms: C_1  and  C_2 
REMARK    2  A    between atoms: C_5  and  N_21 
REMARK    3  A    between atoms: C_10  and  C_11 
REMARK    4  A    between atoms: C_11  and  C_13 
REMARK    5  A    between atoms: C_16  and  O_19 
REMARK    6  A    between atoms: O_19  and  C_20 
REMARK       I    between atoms: N_21  and  C_22 
REMARK    7  A    between atoms: C_22  and  C_24 
ROOT
ATOM      1  C   LIG d   1       4.972  -8.768  -5.971  0.00  0.00     0.006 A 
ATOM      2  C   LIG d   1       4.708  -7.344  -6.167  0.00  0.00     0.025 A 
ATOM      3  C   LIG d   1       4.596  -6.249  -5.306  0.00  0.00    -0.029 A 
ATOM      4  C   LIG d   1       4.329  -4.997  -5.828  0.00  0.00     0.035 A 
ATOM      5  C   LIG d   1       4.184  -4.828  -7.205  0.00  0.00    -0.037 A 
ATOM      6  C   LIG d   1       4.297  -5.901  -8.060  0.00  0.00    -0.017 A 
ATOM      7  C   LIG d   1       4.561  -7.170  -7.556  0.00  0.00     0.136 A 
ATOM      8  O   LIG d   1       4.721  -8.375  -8.137  0.00  0.00    -0.451 OA
ATOM      9  C   LIG d   1       4.965  -9.327  -7.211  0.00  0.00     0.179 A 
ATOM     10  H   LIG d   1       4.713  -6.380  -4.241  0.00  0.00     0.064 H 
ATOM     11  H   LIG d   1       3.979  -3.845  -7.605  0.00  0.00     0.064 H 
ATOM     12  H   LIG d   1       4.183  -5.757  -9.124  0.00  0.00     0.066 H 
ENDROOT
BRANCH   9  13
ATOM     13  C   LIG d   1       5.188 -10.749  -7.499  0.00  0.00     0.228 C 
ATOM     14  O   LIG d   1       6.321 -11.166  -7.662  0.00  0.00    -0.283 OA
BRANCH  13  15
ATOM     15  C   LIG d   1       4.042 -11.673  -7.591  0.00  0.00     0.026 A 
ATOM     16  C   LIG d   1       3.450 -11.935  -8.830  0.00  0.00    -0.047 A 
ATOM     17  C   LIG d   1       2.379 -12.798  -8.911  0.00  0.00    -0.019 A 
ATOM     18  H   LIG d   1       3.830 -11.460  -9.723  0.00  0.00     0.063 H 
ATOM     19  C   LIG d   1       1.888 -13.409  -7.763  0.00  0.00     0.120 A 
ATOM     20  H   LIG d   1       1.921 -13.001  -9.868  0.00  0.00     0.065 H 
ATOM     21  C   LIG d   1       2.473 -13.150  -6.528  0.00  0.00    -0.019 A 
ATOM     22  C   LIG d   1       3.547 -12.293  -6.440  0.00  0.00    -0.047 A 
ATOM     23  H   LIG d   1       2.088 -13.627  -5.639  0.00  0.00     0.065 H 
ATOM     24  H   LIG d   1       4.005 -12.097  -5.481  0.00  0.00     0.063 H 
BRANCH  19  25
ATOM     25  O   LIG d   1       0.833 -14.257  -7.847  0.00  0.00    -0.495 OA
BRANCH  25  26
ATOM     26  C   LIG d   1      -0.134 -13.990  -8.865  0.00  0.00     0.079 C 
ATOM     27  H   LIG d   1       0.375 -13.678  -9.777  0.00  0.00     0.066 H 
ATOM     28  H   LIG d   1      -0.714 -14.891  -9.062  0.00  0.00     0.066 H 
ATOM     29  H   LIG d   1      -0.801 -13.193  -8.532  0.00  0.00     0.066 H 
ENDBRANCH  25  26
ENDBRANCH  19  25
ENDBRANCH  13  15
ENDBRANCH   9  13
BRANCH   1  30
ATOM     30  C   LIG d   1       5.205  -9.474  -4.660  0.00  0.00    -0.035 C 
ATOM     31  H   LIG d   1       5.093  -8.765  -3.841  0.00  0.00     0.028 H 
ATOM     32  H   LIG d   1       4.478 -10.279  -4.547  0.00  0.00     0.028 H 
ATOM     33  H   LIG d   1       6.212  -9.891  -4.646  0.00  0.00     0.028 H 
ENDBRANCH   1  30
BRANCH   4  34
ATOM     34  N   LIG d   1       4.212  -3.894  -4.973  0.00  0.00    -0.281 N 
ATOM     35  C   LIG d   1       5.319  -3.274  -4.518  0.00  0.00     0.248 C 
ATOM     36  O   LIG d   1       6.418  -3.728  -4.771  0.00  0.00    -0.270 OA
ATOM     37  H   LIG d   1       3.334  -3.578  -4.707  0.00  0.00     0.155 HD
BRANCH  35  38
ATOM     38  C   LIG d   1       5.196  -2.045  -3.708  0.00  0.00     0.037 A 
ATOM     39  C   LIG d   1       5.980  -0.928  -4.006  0.00  0.00    -0.047 A 
ATOM     40  C   LIG d   1       5.862   0.217  -3.247  0.00  0.00    -0.026 A 
ATOM     41  H   LIG d   1       6.677  -0.961  -4.831  0.00  0.00     0.063 H 
ATOM     42  C   LIG d   1       4.967   0.260  -2.189  0.00  0.00     0.123 A 
ATOM     43  H   LIG d   1       6.467   1.080  -3.477  0.00  0.00     0.065 H 
ATOM     44  C   LIG d   1       4.187  -0.847  -1.887  0.00  0.00    -0.026 A 
ATOM     45  F   LIG d   1       4.855   1.383  -1.447  0.00  0.00    -0.205 F 
ATOM     46  C   LIG d   1       4.292  -1.994  -2.644  0.00  0.00    -0.047 A 
ATOM     47  H   LIG d   1       3.492  -0.807  -1.062  0.00  0.00     0.065 H 
ATOM     48  H   LIG d   1       3.681  -2.853  -2.412  0.00  0.00     0.063 H 
ENDBRANCH  35  38
ENDBRANCH   4  34
TORSDOF 7
ENDMDL
MODEL 2
REMARK VINA RESULT:      -6.8      8.556     15.278
REMARK  7 active torsions:
REMARK  status: ('A' for Active; 'I' for Inactive)
REMARK    1  A    between atoms: C_1  and  C_2 
REMARK    2  A    between atoms: C_5  and  N_21 
REMARK    3  A    between atoms: C_10  and  C_11 
REMARK    4  A    between atoms: C_11  and  C_13 
REMARK    5  A    between atoms: C_16  and  O_19 
REMARK    6  A    between atoms: O_19  and  C_20 
REMARK       I    between atoms: N_21  and  C_22 
REMARK    7  A    between atoms: C_22  and  C_24 
ROOT
ATOM      1  C   LIG d   1       9.947   4.151  -7.274  0.00  0.00     0.006 A 
ATOM      2  C   LIG d   1       9.805   3.404  -6.026  0.00  0.00     0.025 A 
ATOM      3  C   LIG d   1       8.960   2.376  -5.600  0.00  0.00    -0.029 A 
ATOM      4  C   LIG d   1       9.085   1.877  -4.317  0.00  0.00     0.035 A 
ATOM      5  C   LIG d   1      10.057   2.391  -3.457  0.00  0.00    -0.037 A 
ATOM      6  C   LIG d   1      10.897   3.402  -3.871  0.00  0.00    -0.017 A 
ATOM      7  C   LIG d   1      10.783   3.920  -5.156  0.00  0.00     0.136 A 
ATOM      8  O   LIG d   1      11.451   4.885  -5.820  0.00  0.00    -0.451 OA
ATOM      9  C   LIG d   1      10.966   5.030  -7.072  0.00  0.00     0.179 A 
ATOM     10  H   LIG d   1       8.211   1.976  -6.267  0.00  0.00     0.064 H 
ATOM     11  H   LIG d   1      10.151   1.994  -2.458  0.00  0.00     0.064 H 
ATOM     12  H   LIG d   1      11.645   3.791  -3.197  0.00  0.00     0.066 H 
ENDROOT
BRANCH   9  13
ATOM     13  C   LIG d   1      11.462   5.991  -8.064  0.00  0.00     0.228 C 
ATOM     14  O   LIG d   1      12.223   5.623  -8.941  0.00  0.00    -0.283 OA
BRANCH  13  15
ATOM     15  C   LIG d   1      11.039   7.403  -8.001  0.00  0.00     0.026 A 
ATOM     16  C   LIG d   1       9.783   7.737  -7.486  0.00  0.00    -0.047 A 
ATOM     17  C   LIG d   1       9.393   9.056  -7.429  0.00  0.00    -0.019 A 
ATOM     18  H   LIG d   1       9.120   6.961  -7.133  0.00  0.00     0.063 H 
ATOM     19  C   LIG d   1      10.246  10.056  -7.884  0.00  0.00     0.120 A 
ATOM     20  H   LIG d   1       8.422   9.315  -7.032  0.00  0.00     0.065 H 
ATOM     21  C   LIG d   1      11.495   9.728  -8.398  0.00  0.00    -0.019 A 
ATOM     22  C   LIG d   1      11.895   8.412  -8.453  0.00  0.00    -0.047 A 
ATOM     23  H   LIG d   1      12.154  10.508  -8.750  0.00  0.00     0.065 H 
ATOM     24  H   LIG d   1      12.869   8.159  -8.848  0.00  0.00     0.063 H 
BRANCH  19  25
ATOM     25  O   LIG d   1       9.856  11.354  -7.827  0.00  0.00    -0.495 OA
BRANCH  25  26
ATOM     26  C   LIG d   1       9.912  11.993  -6.549  0.00  0.00     0.079 C 
ATOM     27  H   LIG d   1       9.186  11.530  -5.880  0.00  0.00     0.066 H 
ATOM     28  H   LIG d   1      10.913  11.883  -6.132  0.00  0.00     0.066 H 
ATOM     29  H   LIG d   1       9.678  13.051  -6.662  0.00  0.00     0.066 H 
ENDBRANCH  25  26
ENDBRANCH  19  25
ENDBRANCH  13  15
ENDBRANCH   9  13
BRANCH   1  30
ATOM     30  C   LIG d   1       9.133   3.981  -8.530  0.00  0.00    -0.035 C 
ATOM     31  H   LIG d   1       8.420   3.168  -8.393  0.00  0.00     0.028 H 
ATOM     32  H   LIG d   1       8.594   4.906  -8.741  0.00  0.00     0.028 H 
ATOM     33  H   LIG d   1       9.794   3.748  -9.364  0.00  0.00     0.028 H 
ENDBRANCH   1  30
BRANCH   4  34
ATOM     34  N   LIG d   1       8.241   0.850  -3.880  0.00  0.00    -0.281 N 
ATOM     35  C   LIG d   1       6.989   1.135  -3.470  0.00  0.00     0.248 C 
ATOM     36  O   LIG d   1       6.625   2.292  -3.387  0.00  0.00    -0.270 OA
ATOM     37  H   LIG d   1       8.557  -0.068  -3.872  0.00  0.00     0.155 HD
BRANCH  35  38
ATOM     38  C   LIG d   1       6.061   0.042  -3.116  0.00  0.00     0.037 A 
ATOM     39  C   LIG d   1       6.243  -1.234  -3.653  0.00  0.00    -0.047 A 
ATOM     40  C   LIG d   1       5.373  -2.251  -3.319  0.00  0.00    -0.026 A 
ATOM     41  H   LIG d   1       7.065  -1.425  -4.328  0.00  0.00     0.063 H 
ATOM     42  C   LIG d   1       4.319  -2.007  -2.453  0.00  0.00     0.123 A 
ATOM     43  H   LIG d   1       5.513  -3.237  -3.734  0.00  0.00     0.065 H 
ATOM     44  C   LIG d   1       4.132  -0.741  -1.918  0.00  0.00    -0.026 A 
ATOM     45  F   LIG d   1       3.469  -3.006  -2.129  0.00  0.00    -0.205 F 
ATOM     46  C   LIG d   1       5.000   0.280  -2.238  0.00  0.00    -0.047 A 
ATOM     47  H   LIG d   1       3.309  -0.557  -1.243  0.00  0.00     0.065 H 
ATOM     48  H   LIG d   1       4.857   1.264  -1.817  0.00  0.00     0.063 H 
ENDBRANCH  35  38
ENDBRANCH   4  34
TORSDOF 7
ENDMDL
MODEL 3
REMARK VINA RESULT:      -6.8      8.556     15.988
REMARK  7 active torsions:
REMARK  status: ('A' for Active; 'I' for Inactive)
REMARK    1  A    between atoms: C_1  and  C_2 
REMARK    2  A    between atoms: C_5  and  N_21 
REMARK    3  A    between atoms: C_10  and  C_11 
REMARK    4  A    between atoms: C_11  and  C_13 
REMARK    5  A    between atoms: C_16  and  O_19 
REMARK    6  A    between atoms: O_19  and  C_20 
REMARK       I    between atoms: N_21  and  C_22 
REMARK    7  A    between atoms: C_22  and  C_24 
ROOT
ATOM      1  C   LIG d   1      10.570   5.386  -3.350  0.00  0.00     0.006 A 
ATOM      2  C   LIG d   1      10.112   4.114  -3.906  0.00  0.00     0.025 A 
ATOM      3  C   LIG d   1       9.288   3.088  -3.435  0.00  0.00    -0.029 A 
ATOM      4  C   LIG d   1       9.050   1.984  -4.232  0.00  0.00     0.035 A 
ATOM      5  C   LIG d   1       9.622   1.900  -5.502  0.00  0.00    -0.037 A 
ATOM      6  C   LIG d   1      10.432   2.909  -5.975  0.00  0.00    -0.017 A 
ATOM      7  C   LIG d   1      10.687   4.026  -5.187  0.00  0.00     0.136 A 
ATOM      8  O   LIG d   1      11.420   5.140  -5.382  0.00  0.00    -0.451 OA
ATOM      9  C   LIG d   1      11.358   5.951  -4.304  0.00  0.00     0.179 A 
ATOM     10  H   LIG d   1       8.842   3.156  -2.454  0.00  0.00     0.064 H 
ATOM     11  H   LIG d   1       9.429   1.036  -6.120  0.00  0.00     0.064 H 
ATOM     12  H   LIG d   1      10.869   2.832  -6.959  0.00  0.00     0.066 H 
ENDROOT
BRANCH   9  13
ATOM     13  C   LIG d   1      12.038   7.246  -4.180  0.00  0.00     0.228 C 
ATOM     14  O   LIG d   1      13.241   7.286  -3.997  0.00  0.00    -0.283 OA
BRANCH  13  15
ATOM     15  C   LIG d   1      11.265   8.498  -4.279  0.00  0.00     0.026 A 
ATOM     16  C   LIG d   1      11.566   9.576  -3.440  0.00  0.00    -0.047 A 
ATOM     17  C   LIG d   1      10.841  10.744  -3.536  0.00  0.00    -0.019 A 
ATOM     18  H   LIG d   1      12.364   9.493  -2.718  0.00  0.00     0.063 H 
ATOM     19  C   LIG d   1       9.812  10.851  -4.465  0.00  0.00     0.120 A 
ATOM     20  H   LIG d   1      11.072  11.576  -2.888  0.00  0.00     0.065 H 
ATOM     21  C   LIG d   1       9.510   9.782  -5.300  0.00  0.00    -0.019 A 
ATOM     22  C   LIG d   1      10.233   8.614  -5.215  0.00  0.00    -0.047 A 
ATOM     23  H   LIG d   1       8.709   9.870  -6.020  0.00  0.00     0.065 H 
ATOM     24  H   LIG d   1      10.000   7.785  -5.867  0.00  0.00     0.063 H 
BRANCH  19  25
ATOM     25  O   LIG d   1       9.101  12.003  -4.555  0.00  0.00    -0.495 OA
BRANCH  25  26
ATOM     26  C   LIG d   1       8.762  12.653  -3.327  0.00  0.00     0.079 C 
ATOM     27  H   LIG d   1       9.182  12.092  -2.492  0.00  0.00     0.066 H 
ATOM     28  H   LIG d   1       9.167  13.664  -3.327  0.00  0.00     0.066 H 
ATOM     29  H   LIG d   1       7.677  12.695  -3.227  0.00  0.00     0.066 H 
ENDBRANCH  25  26
ENDBRANCH  19  25
ENDBRANCH  13  15
ENDBRANCH   9  13
BRANCH   1  30
ATOM     30  C   LIG d   1      10.235   5.956  -1.997  0.00  0.00    -0.035 C 
ATOM     31  H   LIG d   1      11.139   6.007  -1.390  0.00  0.00     0.028 H 
ATOM     32  H   LIG d   1       9.821   6.958  -2.117  0.00  0.00     0.028 H 
ATOM     33  H   LIG d   1       9.501   5.318  -1.504  0.00  0.00     0.028 H 
ENDBRANCH   1  30
BRANCH   4  34
ATOM     34  N   LIG d   1       8.228   0.950  -3.767  0.00  0.00    -0.281 N 
ATOM     35  C   LIG d   1       6.925   1.186  -3.517  0.00  0.00     0.248 C 
ATOM     36  O   LIG d   1       6.485   2.316  -3.603  0.00  0.00    -0.270 OA
ATOM     37  H   LIG d   1       8.598   0.064  -3.624  0.00  0.00     0.155 HD
BRANCH  35  38
ATOM     38  C   LIG d   1       6.033   0.073  -3.135  0.00  0.00     0.037 A 
ATOM     39  C   LIG d   1       6.224  -1.197  -3.681  0.00  0.00    -0.047 A 
ATOM     40  C   LIG d   1       5.388  -2.234  -3.321  0.00  0.00    -0.026 A 
ATOM     41  H   LIG d   1       7.026  -1.369  -4.384  0.00  0.00     0.063 H 
ATOM     42  C   LIG d   1       4.359  -2.014  -2.419  0.00  0.00     0.123 A 
ATOM     43  H   LIG d   1       5.535  -3.216  -3.743  0.00  0.00     0.065 H 
ATOM     44  C   LIG d   1       4.163  -0.754  -1.874  0.00  0.00    -0.026 A 
ATOM     45  F   LIG d   1       3.542  -3.031  -2.069  0.00  0.00    -0.205 F 
ATOM     46  C   LIG d   1       4.998   0.287  -2.221  0.00  0.00    -0.047 A 
ATOM     47  H   LIG d   1       3.360  -0.589  -1.171  0.00  0.00     0.065 H 
ATOM     48  H   LIG d   1       4.849   1.266  -1.792  0.00  0.00     0.063 H 
ENDBRANCH  35  38
ENDBRANCH   4  34
TORSDOF 7
ENDMDL
MODEL 4
REMARK VINA RESULT:      -6.6      7.656     13.586
REMARK  7 active torsions:
REMARK  status: ('A' for Active; 'I' for Inactive)
REMARK    1  A    between atoms: C_1  and  C_2 
REMARK    2  A    between atoms: C_5  and  N_21 
REMARK    3  A    between atoms: C_10  and  C_11 
REMARK    4  A    between atoms: C_11  and  C_13 
REMARK    5  A    between atoms: C_16  and  O_19 
REMARK    6  A    between atoms: O_19  and  C_20 
REMARK       I    between atoms: N_21  and  C_22 
REMARK    7  A    between atoms: C_22  and  C_24 
ROOT
ATOM      1  C   LIG d   1       8.724   1.531  -5.192  0.00  0.00     0.006 A 
ATOM      2  C   LIG d   1       7.446   0.824  -5.140  0.00  0.00     0.025 A 
ATOM      3  C   LIG d   1       6.663   0.160  -6.089  0.00  0.00    -0.029 A 
ATOM      4  C   LIG d   1       5.468  -0.417  -5.703  0.00  0.00     0.035 A 
ATOM      5  C   LIG d   1       5.052  -0.346  -4.373  0.00  0.00    -0.037 A 
ATOM      6  C   LIG d   1       5.820   0.303  -3.431  0.00  0.00    -0.017 A 
ATOM      7  C   LIG d   1       7.023   0.894  -3.800  0.00  0.00     0.136 A 
ATOM      8  O   LIG d   1       7.960   1.577  -3.112  0.00  0.00    -0.451 OA
ATOM      9  C   LIG d   1       8.969   1.958  -3.925  0.00  0.00     0.179 A 
ATOM     10  H   LIG d   1       6.988   0.102  -7.118  0.00  0.00     0.064 H 
ATOM     11  H   LIG d   1       4.119  -0.803  -4.079  0.00  0.00     0.064 H 
ATOM     12  H   LIG d   1       5.488   0.350  -2.405  0.00  0.00     0.066 H 
ENDROOT
BRANCH   9  13
ATOM     13  C   LIG d   1      10.152   2.718  -3.503  0.00  0.00     0.228 C 
ATOM     14  O   LIG d   1      11.216   2.149  -3.342  0.00  0.00    -0.283 OA
BRANCH  13  15
ATOM     15  C   LIG d   1      10.053   4.172  -3.274  0.00  0.00     0.026 A 
ATOM     16  C   LIG d   1       9.535   5.005  -4.270  0.00  0.00    -0.047 A 
ATOM     17  C   LIG d   1       9.444   6.362  -4.053  0.00  0.00    -0.019 A 
ATOM     18  H   LIG d   1       9.207   4.586  -5.210  0.00  0.00     0.063 H 
ATOM     19  C   LIG d   1       9.867   6.904  -2.844  0.00  0.00     0.120 A 
ATOM     20  H   LIG d   1       9.044   7.006  -4.822  0.00  0.00     0.065 H 
ATOM     21  C   LIG d   1      10.383   6.079  -1.851  0.00  0.00    -0.019 A 
ATOM     22  C   LIG d   1      10.472   4.721  -2.058  0.00  0.00    -0.047 A 
ATOM     23  H   LIG d   1      10.710   6.505  -0.913  0.00  0.00     0.065 H 
ATOM     24  H   LIG d   1      10.869   4.081  -1.284  0.00  0.00     0.063 H 
BRANCH  19  25
ATOM     25  O   LIG d   1       9.776   8.241  -2.634  0.00  0.00    -0.495 OA
BRANCH  25  26
ATOM     26  C   LIG d   1       9.618   8.676  -1.282  0.00  0.00     0.079 C 
ATOM     27  H   LIG d   1       9.402   9.745  -1.267  0.00  0.00     0.066 H 
ATOM     28  H   LIG d   1       8.796   8.132  -0.818  0.00  0.00     0.066 H 
ATOM     29  H   LIG d   1      10.539   8.485  -0.730  0.00  0.00     0.066 H 
ENDBRANCH  25  26
ENDBRANCH  19  25
ENDBRANCH  13  15
ENDBRANCH   9  13
BRANCH   1  30
ATOM     30  C   LIG d   1       9.594   1.741  -6.404  0.00  0.00    -0.035 C 
ATOM     31  H   LIG d   1       9.271   2.638  -6.932  0.00  0.00     0.028 H 
ATOM     32  H   LIG d   1      10.632   1.859  -6.089  0.00  0.00     0.028 H 
ATOM     33  H   LIG d   1       9.512   0.879  -7.066  0.00  0.00     0.028 H 
ENDBRANCH   1  30
BRANCH   4  34
ATOM     34  N   LIG d   1       4.675  -1.081  -6.648  0.00  0.00    -0.281 N 
ATOM     35  C   LIG d   1       3.778  -0.391  -7.379  0.00  0.00     0.248 C 
ATOM     36  O   LIG d   1       3.589   0.789  -7.153  0.00  0.00    -0.270 OA
ATOM     37  H   LIG d   1       4.771  -2.038  -6.774  0.00  0.00     0.155 HD
BRANCH  35  38
ATOM     38  C   LIG d   1       3.022  -1.068  -8.452  0.00  0.00     0.037 A 
ATOM     39  C   LIG d   1       3.281  -2.406  -8.754  0.00  0.00    -0.047 A 
ATOM     40  C   LIG d   1       2.572  -3.034  -9.757  0.00  0.00    -0.026 A 
ATOM     41  H   LIG d   1       4.034  -2.949  -8.203  0.00  0.00     0.063 H 
ATOM     42  C   LIG d   1       1.605  -2.336 -10.465  0.00  0.00     0.123 A 
ATOM     43  H   LIG d   1       2.771  -4.068  -9.991  0.00  0.00     0.065 H 
ATOM     44  C   LIG d   1       1.345  -1.007 -10.170  0.00  0.00    -0.026 A 
ATOM     45  F   LIG d   1       0.914  -2.955 -11.447  0.00  0.00    -0.205 F 
ATOM     46  C   LIG d   1       2.042  -0.372  -9.165  0.00  0.00    -0.047 A 
ATOM     47  H   LIG d   1       0.591  -0.469 -10.725  0.00  0.00     0.065 H 
ATOM     48  H   LIG d   1       1.835   0.662  -8.932  0.00  0.00     0.063 H 
ENDBRANCH  35  38
ENDBRANCH   4  34
TORSDOF 7
ENDMDL
MODEL 5
REMARK VINA RESULT:      -6.6      8.126     15.136
REMARK  7 active torsions:
REMARK  status: ('A' for Active; 'I' for Inactive)
REMARK    1  A    between atoms: C_1  and  C_2 
REMARK    2  A    between atoms: C_5  and  N_21 
REMARK    3  A    between atoms: C_10  and  C_11 
REMARK    4  A    between atoms: C_11  and  C_13 
REMARK    5  A    between atoms: C_16  and  O_19 
REMARK    6  A    between atoms: O_19  and  C_20 
REMARK       I    between atoms: N_21  and  C_22 
REMARK    7  A    between atoms: C_22  and  C_24 
ROOT
ATOM      1  C   LIG d   1      10.057   5.524  -5.098  0.00  0.00     0.006 A 
ATOM      2  C   LIG d   1       9.891   4.095  -4.835  0.00  0.00     0.025 A 
ATOM      3  C   LIG d   1       8.900   3.331  -4.213  0.00  0.00    -0.029 A 
ATOM      4  C   LIG d   1       9.052   1.960  -4.124  0.00  0.00     0.035 A 
ATOM      5  C   LIG d   1      10.183   1.344  -4.661  0.00  0.00    -0.037 A 
ATOM      6  C   LIG d   1      11.162   2.090  -5.280  0.00  0.00    -0.017 A 
ATOM      7  C   LIG d   1      11.030   3.471  -5.376  0.00  0.00     0.136 A 
ATOM      8  O   LIG d   1      11.806   4.433  -5.913  0.00  0.00    -0.451 OA
ATOM      9  C   LIG d   1      11.242   5.649  -5.755  0.00  0.00     0.179 A 
ATOM     10  H   LIG d   1       8.023   3.808  -3.802  0.00  0.00     0.064 H 
ATOM     11  H   LIG d   1      10.292   0.272  -4.591  0.00  0.00     0.064 H 
ATOM     12  H   LIG d   1      12.032   1.601  -5.692  0.00  0.00     0.066 H 
ENDROOT
BRANCH   9  13
ATOM     13  C   LIG d   1      11.819   6.916  -6.222  0.00  0.00     0.228 C 
ATOM     14  O   LIG d   1      12.620   7.513  -5.526  0.00  0.00    -0.283 OA
BRANCH  13  15
ATOM     15  C   LIG d   1      11.431   7.465  -7.535  0.00  0.00     0.026 A 
ATOM     16  C   LIG d   1      11.947   8.692  -7.963  0.00  0.00    -0.047 A 
ATOM     17  C   LIG d   1      11.581   9.201  -9.189  0.00  0.00    -0.019 A 
ATOM     18  H   LIG d   1      12.630   9.241  -7.332  0.00  0.00     0.063 H 
ATOM     19  C   LIG d   1      10.700   8.496 -10.002  0.00  0.00     0.120 A 
ATOM     20  H   LIG d   1      11.979  10.149  -9.520  0.00  0.00     0.065 H 
ATOM     21  C   LIG d   1      10.184   7.276  -9.581  0.00  0.00    -0.019 A 
ATOM     22  C   LIG d   1      10.549   6.757  -8.358  0.00  0.00    -0.047 A 
ATOM     23  H   LIG d   1       9.500   6.732 -10.215  0.00  0.00     0.065 H 
ATOM     24  H   LIG d   1      10.151   5.807  -8.034  0.00  0.00     0.063 H 
BRANCH  19  25
ATOM     25  O   LIG d   1      10.342   9.002 -11.209  0.00  0.00    -0.495 OA
BRANCH  25  26
ATOM     26  C   LIG d   1      11.363   9.658 -11.965  0.00  0.00     0.079 C 
ATOM     27  H   LIG d   1      11.437   9.197 -12.950  0.00  0.00     0.066 H 
ATOM     28  H   LIG d   1      11.113  10.713 -12.075  0.00  0.00     0.066 H 
ATOM     29  H   LIG d   1      12.317   9.561 -11.447  0.00  0.00     0.066 H 
ENDBRANCH  25  26
ENDBRANCH  19  25
ENDBRANCH  13  15
ENDBRANCH   9  13
BRANCH   1  30
ATOM     30  C   LIG d   1       9.109   6.631  -4.720  0.00  0.00    -0.035 C 
ATOM     31  H   LIG d   1       8.715   7.097  -5.623  0.00  0.00     0.028 H 
ATOM     32  H   LIG d   1       8.285   6.219  -4.135  0.00  0.00     0.028 H 
ATOM     33  H   LIG d   1       9.637   7.377  -4.127  0.00  0.00     0.028 H 
ENDBRANCH   1  30
BRANCH   4  34
ATOM     34  N   LIG d   1       8.066   1.187  -3.499  0.00  0.00    -0.281 N 
ATOM     35  C   LIG d   1       7.039   0.695  -4.220  0.00  0.00     0.248 C 
ATOM     36  O   LIG d   1       6.916   1.001  -5.390  0.00  0.00    -0.270 OA
ATOM     37  H   LIG d   1       8.122   1.006  -2.548  0.00  0.00     0.155 HD
BRANCH  35  38
ATOM     38  C   LIG d   1       6.060  -0.213  -3.587  0.00  0.00     0.037 A 
ATOM     39  C   LIG d   1       5.284   0.231  -2.515  0.00  0.00    -0.047 A 
ATOM     40  C   LIG d   1       4.372  -0.620  -1.928  0.00  0.00    -0.026 A 
ATOM     41  H   LIG d   1       5.396   1.240  -2.147  0.00  0.00     0.063 H 
ATOM     42  C   LIG d   1       4.227  -1.916  -2.401  0.00  0.00     0.123 A 
ATOM     43  H   LIG d   1       3.771  -0.278  -1.100  0.00  0.00     0.065 H 
ATOM     44  C   LIG d   1       4.996  -2.363  -3.464  0.00  0.00    -0.026 A 
ATOM     45  F   LIG d   1       3.332  -2.747  -1.822  0.00  0.00    -0.205 F 
ATOM     46  C   LIG d   1       5.905  -1.518  -4.063  0.00  0.00    -0.047 A 
ATOM     47  H   LIG d   1       4.879  -3.373  -3.828  0.00  0.00     0.065 H 
ATOM     48  H   LIG d   1       6.500  -1.864  -4.894  0.00  0.00     0.063 H 
ENDBRANCH  35  38
ENDBRANCH   4  34
TORSDOF 7
ENDMDL
MODEL 6
REMARK VINA RESULT:      -6.2      8.229     12.755
REMARK  7 active torsions:
REMARK  status: ('A' for Active; 'I' for Inactive)
REMARK    1  A    between atoms: C_1  and  C_2 
REMARK    2  A    between atoms: C_5  and  N_21 
REMARK    3  A    between atoms: C_10  and  C_11 
REMARK    4  A    between atoms: C_11  and  C_13 
REMARK    5  A    between atoms: C_16  and  O_19 
REMARK    6  A    between atoms: O_19  and  C_20 
REMARK       I    between atoms: N_21  and  C_22 
REMARK    7  A    between atoms: C_22  and  C_24 
ROOT
ATOM      1  C   LIG d   1       9.017   2.689  -5.359  0.00  0.00     0.006 A 
ATOM      2  C   LIG d   1       9.267   3.937  -4.641  0.00  0.00     0.025 A 
ATOM      3  C   LIG d   1       9.122   5.289  -4.963  0.00  0.00    -0.029 A 
ATOM      4  C   LIG d   1       9.461   6.252  -4.032  0.00  0.00     0.035 A 
ATOM      5  C   LIG d   1       9.937   5.875  -2.776  0.00  0.00    -0.037 A 
ATOM      6  C   LIG d   1      10.079   4.545  -2.449  0.00  0.00    -0.017 A 
ATOM      7  C   LIG d   1       9.747   3.561  -3.373  0.00  0.00     0.136 A 
ATOM      8  O   LIG d   1       9.780   2.214  -3.333  0.00  0.00    -0.451 OA
ATOM      9  C   LIG d   1       9.351   1.688  -4.500  0.00  0.00     0.179 A 
ATOM     10  H   LIG d   1       8.749   5.580  -5.935  0.00  0.00     0.064 H 
ATOM     11  H   LIG d   1      10.196   6.634  -2.052  0.00  0.00     0.064 H 
ATOM     12  H   LIG d   1      10.447   4.266  -1.473  0.00  0.00     0.066 H 
ENDROOT
BRANCH   9  13
ATOM     13  C   LIG d   1       9.260   0.253  -4.797  0.00  0.00     0.228 C 
ATOM     14  O   LIG d   1      10.186  -0.315  -5.347  0.00  0.00    -0.283 OA
BRANCH  13  15
ATOM     15  C   LIG d   1       8.047  -0.501  -4.429  0.00  0.00     0.026 A 
ATOM     16  C   LIG d   1       7.923  -1.848  -4.783  0.00  0.00    -0.047 A 
ATOM     17  C   LIG d   1       6.789  -2.548  -4.437  0.00  0.00    -0.019 A 
ATOM     18  H   LIG d   1       8.716  -2.339  -5.329  0.00  0.00     0.063 H 
ATOM     19  C   LIG d   1       5.767  -1.918  -3.736  0.00  0.00     0.120 A 
ATOM     20  H   LIG d   1       6.692  -3.589  -4.711  0.00  0.00     0.065 H 
ATOM     21  C   LIG d   1       5.885  -0.579  -3.382  0.00  0.00    -0.019 A 
ATOM     22  C   LIG d   1       7.019   0.127  -3.719  0.00  0.00    -0.047 A 
ATOM     23  H   LIG d   1       5.089  -0.093  -2.837  0.00  0.00     0.065 H 
ATOM     24  H   LIG d   1       7.112   1.166  -3.439  0.00  0.00     0.063 H 
BRANCH  19  25
ATOM     25  O   LIG d   1       4.651  -2.611  -3.398  0.00  0.00    -0.495 OA
BRANCH  25  26
ATOM     26  C   LIG d   1       3.814  -2.041  -2.389  0.00  0.00     0.079 C 
ATOM     27  H   LIG d   1       3.702  -0.972  -2.572  0.00  0.00     0.066 H 
ATOM     28  H   LIG d   1       2.835  -2.519  -2.416  0.00  0.00     0.066 H 
ATOM     29  H   LIG d   1       4.269  -2.197  -1.410  0.00  0.00     0.066 H 
ENDBRANCH  25  26
ENDBRANCH  19  25
ENDBRANCH  13  15
ENDBRANCH   9  13
BRANCH   1  30
ATOM     30  C   LIG d   1       8.493   2.540  -6.763  0.00  0.00    -0.035 C 
ATOM     31  H   LIG d   1       7.507   2.999  -6.834  0.00  0.00     0.028 H 
ATOM     32  H   LIG d   1       9.174   3.034  -7.458  0.00  0.00     0.028 H 
ATOM     33  H   LIG d   1       8.422   1.483  -7.016  0.00  0.00     0.028 H 
ENDBRANCH   1  30
BRANCH   4  34
ATOM     34  N   LIG d   1       9.322   7.609  -4.347  0.00  0.00    -0.281 N 
ATOM     35  C   LIG d   1      10.227   8.212  -5.144  0.00  0.00     0.248 C 
ATOM     36  O   LIG d   1      11.214   7.605  -5.510  0.00  0.00    -0.270 OA
ATOM     37  H   LIG d   1       8.575   8.116  -3.991  0.00  0.00     0.155 HD
BRANCH  35  38
ATOM     38  C   LIG d   1      10.021   9.612  -5.568  0.00  0.00     0.037 A 
ATOM     39  C   LIG d   1      10.306   9.996  -6.880  0.00  0.00    -0.047 A 
ATOM     40  C   LIG d   1      10.112  11.304  -7.271  0.00  0.00    -0.026 A 
ATOM     41  H   LIG d   1      10.677   9.269  -7.588  0.00  0.00     0.063 H 
ATOM     42  C   LIG d   1       9.635  12.237  -6.363  0.00  0.00     0.123 A 
ATOM     43  H   LIG d   1      10.332  11.601  -8.284  0.00  0.00     0.065 H 
ATOM     44  C   LIG d   1       9.352  11.862  -5.058  0.00  0.00    -0.026 A 
ATOM     45  F   LIG d   1       9.448  13.518  -6.750  0.00  0.00    -0.205 F 
ATOM     46  C   LIG d   1       9.535  10.556  -4.659  0.00  0.00    -0.047 A 
ATOM     47  H   LIG d   1       8.981  12.593  -4.356  0.00  0.00     0.065 H 
ATOM     48  H   LIG d   1       9.309  10.263  -3.645  0.00  0.00     0.063 H 
ENDBRANCH  35  38
ENDBRANCH   4  34
TORSDOF 7
ENDMDL
MODEL 7
REMARK VINA RESULT:      -6.1      4.088      6.853
REMARK  7 active torsions:
REMARK  status: ('A' for Active; 'I' for Inactive)
REMARK    1  A    between atoms: C_1  and  C_2 
REMARK    2  A    between atoms: C_5  and  N_21 
REMARK    3  A    between atoms: C_10  and  C_11 
REMARK    4  A    between atoms: C_11  and  C_13 
REMARK    5  A    between atoms: C_16  and  O_19 
REMARK    6  A    between atoms: O_19  and  C_20 
REMARK       I    between atoms: N_21  and  C_22 
REMARK    7  A    between atoms: C_22  and  C_24 
ROOT
ATOM      1  C   LIG d   1       5.538  -2.994  -5.913  0.00  0.00     0.006 A 
ATOM      2  C   LIG d   1       5.709  -1.862  -5.004  0.00  0.00     0.025 A 
ATOM      3  C   LIG d   1       6.338  -0.618  -5.108  0.00  0.00    -0.029 A 
ATOM      4  C   LIG d   1       6.319   0.247  -4.030  0.00  0.00     0.035 A 
ATOM      5  C   LIG d   1       5.668  -0.116  -2.851  0.00  0.00    -0.037 A 
ATOM      6  C   LIG d   1       5.042  -1.338  -2.742  0.00  0.00    -0.017 A 
ATOM      7  C   LIG d   1       5.053  -2.225  -3.813  0.00  0.00     0.136 A 
ATOM      8  O   LIG d   1       4.537  -3.457  -3.991  0.00  0.00    -0.451 OA
ATOM      9  C   LIG d   1       4.817  -3.921  -5.228  0.00  0.00     0.179 A 
ATOM     10  H   LIG d   1       6.838  -0.336  -6.023  0.00  0.00     0.064 H 
ATOM     11  H   LIG d   1       5.654   0.568  -2.015  0.00  0.00     0.064 H 
ATOM     12  H   LIG d   1       4.541  -1.607  -1.824  0.00  0.00     0.066 H 
ENDROOT
BRANCH   9  13
ATOM     13  C   LIG d   1       4.405  -5.229  -5.752  0.00  0.00     0.228 C 
ATOM     14  O   LIG d   1       3.363  -5.335  -6.374  0.00  0.00    -0.283 OA
BRANCH  13  15
ATOM     15  C   LIG d   1       5.254  -6.415  -5.528  0.00  0.00     0.026 A 
ATOM     16  C   LIG d   1       4.668  -7.668  -5.322  0.00  0.00    -0.047 A 
ATOM     17  C   LIG d   1       5.464  -8.772  -5.113  0.00  0.00    -0.019 A 
ATOM     18  H   LIG d   1       3.592  -7.769  -5.325  0.00  0.00     0.063 H 
ATOM     19  C   LIG d   1       6.848  -8.642  -5.107  0.00  0.00     0.120 A 
ATOM     20  H   LIG d   1       5.012  -9.740  -4.953  0.00  0.00     0.065 H 
ATOM     21  C   LIG d   1       7.435  -7.399  -5.312  0.00  0.00    -0.019 A 
ATOM     22  C   LIG d   1       6.646  -6.291  -5.527  0.00  0.00    -0.047 A 
ATOM     23  H   LIG d   1       8.511  -7.303  -5.307  0.00  0.00     0.065 H 
ATOM     24  H   LIG d   1       7.103  -5.326  -5.691  0.00  0.00     0.063 H 
BRANCH  19  25
ATOM     25  O   LIG d   1       7.628  -9.733  -4.900  0.00  0.00    -0.495 OA
BRANCH  25  26
ATOM     26  C   LIG d   1       9.033  -9.508  -4.761  0.00  0.00     0.079 C 
ATOM     27  H   LIG d   1       9.230  -8.436  -4.751  0.00  0.00     0.066 H 
ATOM     28  H   LIG d   1       9.382  -9.952  -3.829  0.00  0.00     0.066 H 
ATOM     29  H   LIG d   1       9.558  -9.965  -5.601  0.00  0.00     0.066 H 
ENDBRANCH  25  26
ENDBRANCH  19  25
ENDBRANCH  13  15
ENDBRANCH   9  13
BRANCH   1  30
ATOM     30  C   LIG d   1       6.055  -3.109  -7.324  0.00  0.00    -0.035 C 
ATOM     31  H   LIG d   1       5.879  -4.119  -7.694  0.00  0.00     0.028 H 
ATOM     32  H   LIG d   1       5.533  -2.393  -7.960  0.00  0.00     0.028 H 
ATOM     33  H   LIG d   1       7.123  -2.896  -7.338  0.00  0.00     0.028 H 
ENDBRANCH   1  30
BRANCH   4  34
ATOM     34  N   LIG d   1       6.949   1.494  -4.124  0.00  0.00    -0.281 N 
ATOM     35  C   LIG d   1       8.281   1.563  -4.320  0.00  0.00     0.248 C 
ATOM     36  O   LIG d   1       8.948   0.546  -4.319  0.00  0.00    -0.270 OA
ATOM     37  H   LIG d   1       6.427   2.308  -4.047  0.00  0.00     0.155 HD
BRANCH  35  38
ATOM     38  C   LIG d   1       8.930   2.872  -4.531  0.00  0.00     0.037 A 
ATOM     39  C   LIG d   1       9.312   3.650  -3.437  0.00  0.00    -0.047 A 
ATOM     40  C   LIG d   1       9.918   4.872  -3.639  0.00  0.00    -0.026 A 
ATOM     41  H   LIG d   1       9.135   3.295  -2.432  0.00  0.00     0.063 H 
ATOM     42  C   LIG d   1      10.146   5.328  -4.929  0.00  0.00     0.123 A 
ATOM     43  H   LIG d   1      10.214   5.474  -2.794  0.00  0.00     0.065 H 
ATOM     44  C   LIG d   1       9.768   4.561  -6.020  0.00  0.00    -0.026 A 
ATOM     45  F   LIG d   1      10.740   6.527  -5.123  0.00  0.00    -0.205 F 
ATOM     46  C   LIG d   1       9.169   3.335  -5.828  0.00  0.00    -0.047 A 
ATOM     47  H   LIG d   1       9.948   4.922  -7.021  0.00  0.00     0.065 H 
ATOM     48  H   LIG d   1       8.879   2.735  -6.678  0.00  0.00     0.063 H 
ENDBRANCH  35  38
ENDBRANCH   4  34
TORSDOF 7
ENDMDL
MODEL 8
REMARK VINA RESULT:      -6.1      4.483      6.803
REMARK  7 active torsions:
REMARK  status: ('A' for Active; 'I' for Inactive)
REMARK    1  A    between atoms: C_1  and  C_2 
REMARK    2  A    between atoms: C_5  and  N_21 
REMARK    3  A    between atoms: C_10  and  C_11 
REMARK    4  A    between atoms: C_11  and  C_13 
REMARK    5  A    between atoms: C_16  and  O_19 
REMARK    6  A    between atoms: O_19  and  C_20 
REMARK       I    between atoms: N_21  and  C_22 
REMARK    7  A    between atoms: C_22  and  C_24 
ROOT
ATOM      1  C   LIG d   1       6.189  -3.639  -5.361  0.00  0.00     0.006 A 
ATOM      2  C   LIG d   1       6.275  -2.378  -4.627  0.00  0.00     0.025 A 
ATOM      3  C   LIG d   1       7.282  -1.426  -4.445  0.00  0.00    -0.029 A 
ATOM      4  C   LIG d   1       7.035  -0.313  -3.665  0.00  0.00     0.035 A 
ATOM      5  C   LIG d   1       5.784  -0.137  -3.071  0.00  0.00    -0.037 A 
ATOM      6  C   LIG d   1       4.785  -1.068  -3.249  0.00  0.00    -0.017 A 
ATOM      7  C   LIG d   1       5.015  -2.197  -4.027  0.00  0.00     0.136 A 
ATOM      8  O   LIG d   1       4.246  -3.250  -4.369  0.00  0.00    -0.451 OA
ATOM      9  C   LIG d   1       4.928  -4.107  -5.157  0.00  0.00     0.179 A 
ATOM     10  H   LIG d   1       8.248  -1.561  -4.909  0.00  0.00     0.064 H 
ATOM     11  H   LIG d   1       5.598   0.738  -2.466  0.00  0.00     0.064 H 
ATOM     12  H   LIG d   1       3.822  -0.920  -2.784  0.00  0.00     0.066 H 
ENDROOT
BRANCH   9  13
ATOM     13  C   LIG d   1       4.391  -5.357  -5.711  0.00  0.00     0.228 C 
ATOM     14  O   LIG d   1       4.180  -6.306  -4.978  0.00  0.00    -0.283 OA
BRANCH  13  15
ATOM     15  C   LIG d   1       4.104  -5.462  -7.154  0.00  0.00     0.026 A 
ATOM     16  C   LIG d   1       3.705  -4.332  -7.874  0.00  0.00    -0.047 A 
ATOM     17  C   LIG d   1       3.438  -4.436  -9.222  0.00  0.00    -0.019 A 
ATOM     18  H   LIG d   1       3.604  -3.380  -7.375  0.00  0.00     0.063 H 
ATOM     19  C   LIG d   1       3.565  -5.662  -9.865  0.00  0.00     0.120 A 
ATOM     20  H   LIG d   1       3.129  -3.563  -9.779  0.00  0.00     0.065 H 
ATOM     21  C   LIG d   1       3.961  -6.788  -9.153  0.00  0.00    -0.019 A 
ATOM     22  C   LIG d   1       4.235  -6.691  -7.807  0.00  0.00    -0.047 A 
ATOM     23  H   LIG d   1       4.059  -7.738  -9.657  0.00  0.00     0.065 H 
ATOM     24  H   LIG d   1       4.548  -7.566  -7.255  0.00  0.00     0.063 H 
BRANCH  19  25
ATOM     25  O   LIG d   1       3.300  -5.759 -11.193  0.00  0.00    -0.495 OA
BRANCH  25  26
ATOM     26  C   LIG d   1       2.071  -5.191 -11.652  0.00  0.00     0.079 C 
ATOM     27  H   LIG d   1       2.157  -4.946 -12.710  0.00  0.00     0.066 H 
ATOM     28  H   LIG d   1       1.264  -5.908 -11.508  0.00  0.00     0.066 H 
ATOM     29  H   LIG d   1       1.858  -4.283 -11.086  0.00  0.00     0.066 H 
ENDBRANCH  25  26
ENDBRANCH  19  25
ENDBRANCH  13  15
ENDBRANCH   9  13
BRANCH   1  30
ATOM     30  C   LIG d   1       7.275  -4.287  -6.180  0.00  0.00    -0.035 C 
ATOM     31  H   LIG d   1       7.525  -5.257  -5.749  0.00  0.00     0.028 H 
ATOM     32  H   LIG d   1       6.926  -4.423  -7.204  0.00  0.00     0.028 H 
ATOM     33  H   LIG d   1       8.159  -3.650  -6.180  0.00  0.00     0.028 H 
ENDBRANCH   1  30
BRANCH   4  34
ATOM     34  N   LIG d   1       8.039   0.644  -3.475  0.00  0.00    -0.281 N 
ATOM     35  C   LIG d   1       8.138   1.692  -4.316  0.00  0.00     0.248 C 
ATOM     36  O   LIG d   1       7.419   1.756  -5.295  0.00  0.00    -0.270 OA
ATOM     37  H   LIG d   1       8.663   0.552  -2.738  0.00  0.00     0.155 HD
BRANCH  35  38
ATOM     38  C   LIG d   1       9.124   2.760  -4.052  0.00  0.00     0.037 A 
ATOM     39  C   LIG d   1       9.087   3.945  -4.790  0.00  0.00    -0.047 A 
ATOM     40  C   LIG d   1      10.010   4.939  -4.540  0.00  0.00    -0.026 A 
ATOM     41  H   LIG d   1       8.338   4.083  -5.555  0.00  0.00     0.063 H 
ATOM     42  C   LIG d   1      10.972   4.763  -3.558  0.00  0.00     0.123 A 
ATOM     43  H   LIG d   1       9.982   5.855  -5.110  0.00  0.00     0.065 H 
ATOM     44  C   LIG d   1      11.014   3.588  -2.823  0.00  0.00    -0.026 A 
ATOM     45  F   LIG d   1      11.874   5.739  -3.316  0.00  0.00    -0.205 F 
ATOM     46  C   LIG d   1      10.092   2.591  -3.060  0.00  0.00    -0.047 A 
ATOM     47  H   LIG d   1      11.766   3.456  -2.059  0.00  0.00     0.065 H 
ATOM     48  H   LIG d   1      10.122   1.678  -2.483  0.00  0.00     0.063 H 
ENDBRANCH  35  38
ENDBRANCH   4  34
TORSDOF 7
ENDMDL
MODEL 9
REMARK VINA RESULT:      -6.0      7.240      9.459
REMARK  7 active torsions:
REMARK  status: ('A' for Active; 'I' for Inactive)
REMARK    1  A    between atoms: C_1  and  C_2 
REMARK    2  A    between atoms: C_5  and  N_21 
REMARK    3  A    between atoms: C_10  and  C_11 
REMARK    4  A    between atoms: C_11  and  C_13 
REMARK    5  A    between atoms: C_16  and  O_19 
REMARK    6  A    between atoms: O_19  and  C_20 
REMARK       I    between atoms: N_21  and  C_22 
REMARK    7  A    between atoms: C_22  and  C_24 
ROOT
ATOM      1  C   LIG d   1       5.321  -0.224  -7.213  0.00  0.00     0.006 A 
ATOM      2  C   LIG d   1       5.671  -0.928  -5.981  0.00  0.00     0.025 A 
ATOM      3  C   LIG d   1       6.834  -1.541  -5.509  0.00  0.00    -0.029 A 
ATOM      4  C   LIG d   1       6.833  -2.139  -4.262  0.00  0.00     0.035 A 
ATOM      5  C   LIG d   1       5.679  -2.119  -3.477  0.00  0.00    -0.037 A 
ATOM      6  C   LIG d   1       4.530  -1.513  -3.933  0.00  0.00    -0.017 A 
ATOM      7  C   LIG d   1       4.509  -0.910  -5.186  0.00  0.00     0.136 A 
ATOM      8  O   LIG d   1       3.553  -0.257  -5.876  0.00  0.00    -0.451 OA
ATOM      9  C   LIG d   1       4.022   0.153  -7.075  0.00  0.00     0.179 A 
ATOM     10  H   LIG d   1       7.728  -1.552  -6.115  0.00  0.00     0.064 H 
ATOM     11  H   LIG d   1       5.687  -2.585  -2.503  0.00  0.00     0.064 H 
ATOM     12  H   LIG d   1       3.644  -1.504  -3.316  0.00  0.00     0.066 H 
ENDROOT
BRANCH   9  13
ATOM     13  C   LIG d   1       3.245   0.894  -8.076  0.00  0.00     0.228 C 
ATOM     14  O   LIG d   1       2.940   2.056  -7.873  0.00  0.00    -0.283 OA
BRANCH  13  15
ATOM     15  C   LIG d   1       2.835   0.233  -9.330  0.00  0.00     0.026 A 
ATOM     16  C   LIG d   1       1.758  -0.658  -9.333  0.00  0.00    -0.047 A 
ATOM     17  C   LIG d   1       1.379  -1.273 -10.505  0.00  0.00    -0.019 A 
ATOM     18  H   LIG d   1       1.224  -0.866  -8.417  0.00  0.00     0.063 H 
ATOM     19  C   LIG d   1       2.065  -1.009 -11.685  0.00  0.00     0.120 A 
ATOM     20  H   LIG d   1       0.547  -1.963 -10.509  0.00  0.00     0.065 H 
ATOM     21  C   LIG d   1       3.137  -0.123 -11.687  0.00  0.00    -0.019 A 
ATOM     22  C   LIG d   1       3.519   0.500 -10.520  0.00  0.00    -0.047 A 
ATOM     23  H   LIG d   1       3.668   0.079 -12.605  0.00  0.00     0.065 H 
ATOM     24  H   LIG d   1       4.349   1.192 -10.523  0.00  0.00     0.063 H 
BRANCH  19  25
ATOM     25  O   LIG d   1       1.689  -1.618 -12.837  0.00  0.00    -0.495 OA
BRANCH  25  26
ATOM     26  C   LIG d   1       2.725  -1.941 -13.769  0.00  0.00     0.079 C 
ATOM     27  H   LIG d   1       3.069  -2.959 -13.589  0.00  0.00     0.066 H 
ATOM     28  H   LIG d   1       2.338  -1.861 -14.784  0.00  0.00     0.066 H 
ATOM     29  H   LIG d   1       3.557  -1.248 -13.640  0.00  0.00     0.066 H 
ENDBRANCH  25  26
ENDBRANCH  19  25
ENDBRANCH  13  15
ENDBRANCH   9  13
BRANCH   1  30
ATOM     30  C   LIG d   1       6.218   0.033  -8.395  0.00  0.00    -0.035 C 
ATOM     31  H   LIG d   1       5.611   0.180  -9.288  0.00  0.00     0.028 H 
ATOM     32  H   LIG d   1       6.814   0.928  -8.211  0.00  0.00     0.028 H 
ATOM     33  H   LIG d   1       6.881  -0.819  -8.541  0.00  0.00     0.028 H 
ENDBRANCH   1  30
BRANCH   4  34
ATOM     34  N   LIG d   1       7.993  -2.759  -3.783  0.00  0.00    -0.281 N 
ATOM     35  C   LIG d   1       8.295  -4.013  -4.170  0.00  0.00     0.248 C 
ATOM     36  O   LIG d   1       7.514  -4.642  -4.859  0.00  0.00    -0.270 OA
ATOM     37  H   LIG d   1       8.578  -2.285  -3.170  0.00  0.00     0.155 HD
BRANCH  35  38
ATOM     38  C   LIG d   1       9.573  -4.627  -3.755  0.00  0.00     0.037 A 
ATOM     39  C   LIG d   1       9.576  -5.836  -3.058  0.00  0.00    -0.047 A 
ATOM     40  C   LIG d   1      10.772  -6.405  -2.673  0.00  0.00    -0.026 A 
ATOM     41  H   LIG d   1       8.644  -6.327  -2.821  0.00  0.00     0.063 H 
ATOM     42  C   LIG d   1      11.970  -5.776  -2.977  0.00  0.00     0.123 A 
ATOM     43  H   LIG d   1      10.776  -7.339  -2.134  0.00  0.00     0.065 H 
ATOM     44  C   LIG d   1      11.973  -4.574  -3.669  0.00  0.00    -0.026 A 
ATOM     45  F   LIG d   1      13.139  -6.336  -2.598  0.00  0.00    -0.205 F 
ATOM     46  C   LIG d   1      10.784  -4.001  -4.065  0.00  0.00    -0.047 A 
ATOM     47  H   LIG d   1      12.909  -4.089  -3.903  0.00  0.00     0.065 H 
ATOM     48  H   LIG d   1      10.787  -3.068  -4.608  0.00  0.00     0.063 H 
ENDBRANCH  35  38
ENDBRANCH   4  34
TORSDOF 7
ENDMDL
