MODEL 1
REMARK VINA RESULT:      -8.6      0.000      0.000
REMARK  6 active torsions:
REMARK  status: ('A' for Active; 'I' for Inactive)
REMARK    1  A    between atoms: C_1  and  O_2 
REMARK    2  A    between atoms: O_2  and  C_3 
REMARK    3  A    between atoms: C_3  and  C_5 
REMARK    4  A    between atoms: C_6  and  N_15 
REMARK       I    between atoms: N_15  and  C_16 
REMARK    5  A    between atoms: C_16  and  C_18 
REMARK    6  A    between atoms: C_18  and  N_55 
ROOT
ATOM      1  C   LIG d   1       3.091  -1.003  -3.598  0.00  0.00    -0.027 C 
ATOM      2  C   LIG d   1       4.092  -1.445  -2.542  0.00  0.00     0.018 C 
ATOM      3  H   LIG d   1       3.648  -2.267  -1.981  0.00  0.00     0.037 H 
ATOM      4  C   LIG d   1       4.394  -0.303  -1.568  0.00  0.00    -0.031 C 
ATOM      5  C   LIG d   1       4.904   0.885  -2.392  0.00  0.00     0.040 C 
ATOM      6  H   LIG d   1       5.183   1.717  -1.745  0.00  0.00     0.042 H 
ATOM      7  C   LIG d   1       3.788   1.305  -3.362  0.00  0.00    -0.023 C 
ATOM      8  C   LIG d   1       6.087   0.441  -3.223  0.00  0.00     0.030 C 
ATOM      9  C   LIG d   1       7.019   1.379  -3.539  0.00  0.00    -0.042 C 
ATOM     10  C   LIG d   1       8.105   1.053  -4.359  0.00  0.00    -0.055 C 
ATOM     11  C   LIG d   1       8.198  -0.214  -4.857  0.00  0.00     0.003 C 
ATOM     12  C   LIG d   1       7.217  -1.156  -4.515  0.00  0.00     0.252 C 
ATOM     13  O   LIG d   1       7.255  -2.274  -5.004  0.00  0.00    -0.268 OA
ATOM     14  N   LIG d   1       6.227  -0.837  -3.646  0.00  0.00    -0.311 N 
ATOM     15  C   LIG d   1       5.389  -1.936  -3.163  0.00  0.00     0.034 C 
ATOM     16  H   LIG d   1       2.136  -0.785  -3.117  0.00  0.00     0.082 H 
ATOM     17  H   LIG d   1       2.951  -1.808  -4.319  0.00  0.00     0.082 H 
ATOM     18  H   LIG d   1       5.158  -0.616  -0.856  0.00  0.00     0.028 H 
ATOM     19  H   LIG d   1       3.486  -0.021  -1.035  0.00  0.00     0.028 H 
ATOM     20  H   LIG d   1       4.094   2.196  -3.912  0.00  0.00     0.082 H 
ATOM     21  H   LIG d   1       2.874   1.512  -2.805  0.00  0.00     0.082 H 
ATOM     22  H   LIG d   1       6.922   2.383  -3.154  0.00  0.00     0.064 H 
ATOM     23  H   LIG d   1       8.857   1.791  -4.593  0.00  0.00     0.062 H 
ATOM     24  H   LIG d   1       9.015  -0.488  -5.507  0.00  0.00     0.067 H 
ATOM     25  H   LIG d   1       5.152  -2.592  -4.001  0.00  0.00     0.050 H 
ATOM     26  H   LIG d   1       5.945  -2.503  -2.418  0.00  0.00     0.050 H 
ATOM     27  N   LIG d   1       3.584   0.190  -4.314  0.00  0.00     0.242 N 
ATOM     28  H   LIG d   1       4.482  -0.036  -4.760  0.00  0.00     0.204 HD
ENDROOT
BRANCH  27  29
ATOM     29  C   LIG d   1       2.619   0.587  -5.359  0.00  0.00     0.046 C 
ATOM     30  H   LIG d   1       2.409   1.655  -5.301  0.00  0.00     0.091 H 
ATOM     31  H   LIG d   1       1.694   0.027  -5.221  0.00  0.00     0.091 H 
BRANCH  29  32
ATOM     32  C   LIG d   1       3.205   0.263  -6.709  0.00  0.00     0.262 C 
ATOM     33  N   LIG d   1       3.071   1.134  -7.728  0.00  0.00    -0.279 N 
ATOM     34  H   LIG d   1       2.660   1.999  -7.576  0.00  0.00     0.155 HD
ATOM     35  O   LIG d   1       3.798  -0.782  -6.878  0.00  0.00    -0.270 OA
BRANCH  33  36
ATOM     36  C   LIG d   1       3.523   0.794  -8.999  0.00  0.00     0.073 A 
ATOM     37  C   LIG d   1       4.747   1.109  -9.551  0.00  0.00     0.147 A 
ATOM     38  N   LIG d   1       4.811   0.587 -10.834  0.00  0.00    -0.347 N 
ATOM     39  C   LIG d   1       3.640  -0.072 -11.130  0.00  0.00     0.049 A 
ATOM     40  H   LIG d   1       5.567   0.675 -11.435  0.00  0.00     0.166 HD
ATOM     41  C   LIG d   1       2.795   0.022 -10.010  0.00  0.00     0.022 A 
ATOM     42  C   LIG d   1       3.199  -0.757 -12.260  0.00  0.00    -0.038 A 
ATOM     43  C   LIG d   1       1.527  -0.568 -10.041  0.00  0.00    -0.051 A 
ATOM     44  C   LIG d   1       1.117  -1.236 -11.159  0.00  0.00    -0.061 A 
ATOM     45  H   LIG d   1       0.875  -0.497  -9.183  0.00  0.00     0.062 H 
ATOM     46  C   LIG d   1       1.947  -1.331 -12.268  0.00  0.00    -0.060 A 
ATOM     47  H   LIG d   1       0.138  -1.692 -11.182  0.00  0.00     0.062 H 
ATOM     48  H   LIG d   1       1.609  -1.861 -13.145  0.00  0.00     0.062 H 
ATOM     49  H   LIG d   1       3.837  -0.838 -13.128  0.00  0.00     0.064 H 
BRANCH  37  50
ATOM     50  C   LIG d   1       5.774   1.850  -8.911  0.00  0.00     0.357 C 
ATOM     51  O   LIG d   1       6.067   2.959  -9.319  0.00  0.00    -0.243 OA
BRANCH  50  52
ATOM     52  O   LIG d   1       6.426   1.326  -7.853  0.00  0.00    -0.463 OA
BRANCH  52  53
ATOM     53  C   LIG d   1       7.137   0.104  -8.070  0.00  0.00     0.082 C 
ATOM     54  H   LIG d   1       8.201   0.317  -8.175  0.00  0.00     0.066 H 
ATOM     55  H   LIG d   1       6.981  -0.561  -7.221  0.00  0.00     0.066 H 
ATOM     56  H   LIG d   1       6.769  -0.373  -8.979  0.00  0.00     0.066 H 
ENDBRANCH  52  53
ENDBRANCH  50  52
ENDBRANCH  37  50
ENDBRANCH  33  36
ENDBRANCH  29  32
ENDBRANCH  27  29
TORSDOF 6
ENDMDL
MODEL 2
REMARK VINA RESULT:      -7.7      1.891      2.100
REMARK  6 active torsions:
REMARK  status: ('A' for Active; 'I' for Inactive)
REMARK    1  A    between atoms: C_1  and  O_2 
REMARK    2  A    between atoms: O_2  and  C_3 
REMARK    3  A    between atoms: C_3  and  C_5 
REMARK    4  A    between atoms: C_6  and  N_15 
REMARK       I    between atoms: N_15  and  C_16 
REMARK    5  A    between atoms: C_16  and  C_18 
REMARK    6  A    between atoms: C_18  and  N_55 
ROOT
ATOM      1  C   LIG d   1       3.110  -1.036  -3.477  0.00  0.00    -0.027 C 
ATOM      2  C   LIG d   1       4.145  -1.437  -2.437  0.00  0.00     0.018 C 
ATOM      3  H   LIG d   1       3.725  -2.249  -1.841  0.00  0.00     0.037 H 
ATOM      4  C   LIG d   1       4.459  -0.265  -1.503  0.00  0.00    -0.031 C 
ATOM      5  C   LIG d   1       4.933   0.905  -2.373  0.00  0.00     0.040 C 
ATOM      6  H   LIG d   1       5.220   1.758  -1.758  0.00  0.00     0.042 H 
ATOM      7  C   LIG d   1       3.787   1.285  -3.324  0.00  0.00    -0.023 C 
ATOM      8  C   LIG d   1       6.098   0.450  -3.224  0.00  0.00     0.030 C 
ATOM      9  C   LIG d   1       7.011   1.389  -3.591  0.00  0.00    -0.042 C 
ATOM     10  C   LIG d   1       8.078   1.051  -4.431  0.00  0.00    -0.055 C 
ATOM     11  C   LIG d   1       8.172  -0.227  -4.896  0.00  0.00     0.003 C 
ATOM     12  C   LIG d   1       7.212  -1.170  -4.501  0.00  0.00     0.252 C 
ATOM     13  O   LIG d   1       7.250  -2.300  -4.960  0.00  0.00    -0.268 OA
ATOM     14  N   LIG d   1       6.242  -0.838  -3.615  0.00  0.00    -0.311 N 
ATOM     15  C   LIG d   1       5.430  -1.932  -3.080  0.00  0.00     0.034 C 
ATOM     16  H   LIG d   1       2.166  -0.815  -2.977  0.00  0.00     0.082 H 
ATOM     17  H   LIG d   1       2.960  -1.863  -4.171  0.00  0.00     0.082 H 
ATOM     18  H   LIG d   1       5.246  -0.550  -0.804  0.00  0.00     0.028 H 
ATOM     19  H   LIG d   1       3.562   0.021  -0.954  0.00  0.00     0.028 H 
ATOM     20  H   LIG d   1       4.067   2.164  -3.907  0.00  0.00     0.082 H 
ATOM     21  H   LIG d   1       2.886   1.497  -2.749  0.00  0.00     0.082 H 
ATOM     22  H   LIG d   1       6.912   2.402  -3.231  0.00  0.00     0.064 H 
ATOM     23  H   LIG d   1       8.815   1.792  -4.706  0.00  0.00     0.062 H 
ATOM     24  H   LIG d   1       8.975  -0.511  -5.561  0.00  0.00     0.067 H 
ATOM     25  H   LIG d   1       5.178  -2.614  -3.892  0.00  0.00     0.050 H 
ATOM     26  H   LIG d   1       6.013  -2.472  -2.334  0.00  0.00     0.050 H 
ATOM     27  N   LIG d   1       3.570   0.142  -4.239  0.00  0.00     0.242 N 
ATOM     28  H   LIG d   1       4.458  -0.087  -4.703  0.00  0.00     0.204 HD
ENDROOT
BRANCH  27  29
ATOM     29  C   LIG d   1       2.572   0.499  -5.268  0.00  0.00     0.046 C 
ATOM     30  H   LIG d   1       2.438   1.579  -5.312  0.00  0.00     0.091 H 
ATOM     31  H   LIG d   1       1.623   0.024  -5.023  0.00  0.00     0.091 H 
BRANCH  29  32
ATOM     32  C   LIG d   1       3.055  -0.002  -6.606  0.00  0.00     0.262 C 
ATOM     33  N   LIG d   1       4.304  -0.490  -6.731  0.00  0.00    -0.279 N 
ATOM     34  H   LIG d   1       4.869  -0.585  -5.949  0.00  0.00     0.155 HD
ATOM     35  O   LIG d   1       2.317   0.035  -7.568  0.00  0.00    -0.270 OA
BRANCH  33  36
ATOM     36  C   LIG d   1       4.784  -0.858  -7.984  0.00  0.00     0.073 A 
ATOM     37  C   LIG d   1       5.519  -0.074  -8.849  0.00  0.00     0.147 A 
ATOM     38  N   LIG d   1       5.803  -0.807  -9.991  0.00  0.00    -0.347 N 
ATOM     39  C   LIG d   1       5.265  -2.068  -9.883  0.00  0.00     0.049 A 
ATOM     40  H   LIG d   1       6.305  -0.479 -10.754  0.00  0.00     0.166 HD
ATOM     41  C   LIG d   1       4.615  -2.158  -8.639  0.00  0.00     0.022 A 
ATOM     42  C   LIG d   1       5.261  -3.172 -10.734  0.00  0.00    -0.038 A 
ATOM     43  C   LIG d   1       3.976  -3.346  -8.270  0.00  0.00    -0.051 A 
ATOM     44  C   LIG d   1       3.987  -4.414  -9.119  0.00  0.00    -0.061 A 
ATOM     45  H   LIG d   1       3.476  -3.417  -7.315  0.00  0.00     0.062 H 
ATOM     46  C   LIG d   1       4.625  -4.331 -10.349  0.00  0.00    -0.060 A 
ATOM     47  H   LIG d   1       3.493  -5.331  -8.832  0.00  0.00     0.062 H 
ATOM     48  H   LIG d   1       4.625  -5.185 -11.010  0.00  0.00     0.062 H 
ATOM     49  H   LIG d   1       5.756  -3.119 -11.693  0.00  0.00     0.064 H 
BRANCH  37  50
ATOM     50  C   LIG d   1       5.917   1.267  -8.611  0.00  0.00     0.357 C 
ATOM     51  O   LIG d   1       6.646   1.526  -7.672  0.00  0.00    -0.243 OA
BRANCH  50  52
ATOM     52  O   LIG d   1       5.486   2.254  -9.423  0.00  0.00    -0.463 OA
BRANCH  52  53
ATOM     53  C   LIG d   1       4.115   2.641  -9.302  0.00  0.00     0.082 C 
ATOM     54  H   LIG d   1       4.009   3.692  -9.571  0.00  0.00     0.066 H 
ATOM     55  H   LIG d   1       3.506   2.031  -9.970  0.00  0.00     0.066 H 
ATOM     56  H   LIG d   1       3.786   2.494  -8.274  0.00  0.00     0.066 H 
ENDBRANCH  52  53
ENDBRANCH  50  52
ENDBRANCH  37  50
ENDBRANCH  33  36
ENDBRANCH  29  32
ENDBRANCH  27  29
TORSDOF 6
ENDMDL
MODEL 3
REMARK VINA RESULT:      -7.6      2.057      6.416
REMARK  6 active torsions:
REMARK  status: ('A' for Active; 'I' for Inactive)
REMARK    1  A    between atoms: C_1  and  O_2 
REMARK    2  A    between atoms: O_2  and  C_3 
REMARK    3  A    between atoms: C_3  and  C_5 
REMARK    4  A    between atoms: C_6  and  N_15 
REMARK       I    between atoms: N_15  and  C_16 
REMARK    5  A    between atoms: C_16  and  C_18 
REMARK    6  A    between atoms: C_18  and  N_55 
ROOT
ATOM      1  C   LIG d   1       2.905   1.844  -8.159  0.00  0.00    -0.027 C 
ATOM      2  C   LIG d   1       3.553   2.130  -9.505  0.00  0.00     0.018 C 
ATOM      3  H   LIG d   1       3.123   3.054  -9.895  0.00  0.00     0.037 H 
ATOM      4  C   LIG d   1       3.260   1.004 -10.500  0.00  0.00    -0.031 C 
ATOM      5  C   LIG d   1       3.765  -0.304  -9.879  0.00  0.00     0.040 C 
ATOM      6  H   LIG d   1       3.627  -1.140 -10.565  0.00  0.00     0.042 H 
ATOM      7  C   LIG d   1       2.988  -0.542  -8.574  0.00  0.00    -0.023 C 
ATOM      8  C   LIG d   1       5.226  -0.150  -9.518  0.00  0.00     0.030 C 
ATOM      9  C   LIG d   1       5.995  -1.271  -9.525  0.00  0.00    -0.042 C 
ATOM     10  C   LIG d   1       7.339  -1.212  -9.138  0.00  0.00    -0.055 C 
ATOM     11  C   LIG d   1       7.855  -0.018  -8.729  0.00  0.00     0.003 C 
ATOM     12  C   LIG d   1       7.033   1.119  -8.731  0.00  0.00     0.252 C 
ATOM     13  O   LIG d   1       7.466   2.179  -8.308  0.00  0.00    -0.268 OA
ATOM     14  N   LIG d   1       5.762   1.051  -9.196  0.00  0.00    -0.311 N 
ATOM     15  C   LIG d   1       5.055   2.319  -9.381  0.00  0.00     0.034 C 
ATOM     16  H   LIG d   1       1.821   1.847  -8.274  0.00  0.00     0.082 H 
ATOM     17  H   LIG d   1       3.191   2.622  -7.451  0.00  0.00     0.082 H 
ATOM     18  H   LIG d   1       3.781   1.194 -11.438  0.00  0.00     0.028 H 
ATOM     19  H   LIG d   1       2.187   0.939 -10.679  0.00  0.00     0.028 H 
ATOM     20  H   LIG d   1       3.273  -1.504  -8.146  0.00  0.00     0.082 H 
ATOM     21  H   LIG d   1       1.917  -0.532  -8.775  0.00  0.00     0.082 H 
ATOM     22  H   LIG d   1       5.567  -2.213  -9.832  0.00  0.00     0.064 H 
ATOM     23  H   LIG d   1       7.956  -2.098  -9.164  0.00  0.00     0.062 H 
ATOM     24  H   LIG d   1       8.884   0.053  -8.408  0.00  0.00     0.067 H 
ATOM     25  H   LIG d   1       5.261   2.964  -8.527  0.00  0.00     0.050 H 
ATOM     26  H   LIG d   1       5.427   2.801 -10.285  0.00  0.00     0.050 H 
ATOM     27  N   LIG d   1       3.358   0.540  -7.633  0.00  0.00     0.242 N 
ATOM     28  H   LIG d   1       4.380   0.558  -7.531  0.00  0.00     0.204 HD
ENDROOT
BRANCH  27  29
ATOM     29  C   LIG d   1       2.749   0.290  -6.311  0.00  0.00     0.046 C 
ATOM     30  H   LIG d   1       1.919  -0.411  -6.398  0.00  0.00     0.091 H 
ATOM     31  H   LIG d   1       2.387   1.233  -5.901  0.00  0.00     0.091 H 
BRANCH  29  32
ATOM     32  C   LIG d   1       3.799  -0.286  -5.395  0.00  0.00     0.262 C 
ATOM     33  N   LIG d   1       5.105  -0.122  -5.681  0.00  0.00    -0.279 N 
ATOM     34  H   LIG d   1       5.372   0.425  -6.436  0.00  0.00     0.155 HD
ATOM     35  O   LIG d   1       3.467  -0.896  -4.401  0.00  0.00    -0.270 OA
BRANCH  33  36
ATOM     36  C   LIG d   1       6.072  -0.737  -4.893  0.00  0.00     0.073 A 
ATOM     37  C   LIG d   1       6.766  -0.169  -3.845  0.00  0.00     0.147 A 
ATOM     38  N   LIG d   1       7.638  -1.110  -3.319  0.00  0.00    -0.347 N 
ATOM     39  C   LIG d   1       7.520  -2.294  -4.009  0.00  0.00     0.049 A 
ATOM     40  H   LIG d   1       8.242  -0.956  -2.575  0.00  0.00     0.166 HD
ATOM     41  C   LIG d   1       6.547  -2.119  -5.008  0.00  0.00     0.022 A 
ATOM     42  C   LIG d   1       8.156  -3.529  -3.886  0.00  0.00    -0.038 A 
ATOM     43  C   LIG d   1       6.227  -3.178  -5.864  0.00  0.00    -0.051 A 
ATOM     44  C   LIG d   1       6.861  -4.378  -5.724  0.00  0.00    -0.061 A 
ATOM     45  H   LIG d   1       5.480  -3.046  -6.633  0.00  0.00     0.062 H 
ATOM     46  C   LIG d   1       7.824  -4.557  -4.739  0.00  0.00    -0.060 A 
ATOM     47  H   LIG d   1       6.613  -5.196  -6.385  0.00  0.00     0.062 H 
ATOM     48  H   LIG d   1       8.317  -5.512  -4.641  0.00  0.00     0.062 H 
ATOM     49  H   LIG d   1       8.905  -3.679  -3.123  0.00  0.00     0.064 H 
BRANCH  37  50
ATOM     50  C   LIG d   1       6.616   1.164  -3.382  0.00  0.00     0.357 C 
ATOM     51  O   LIG d   1       7.577   1.910  -3.357  0.00  0.00    -0.243 OA
BRANCH  50  52
ATOM     52  O   LIG d   1       5.409   1.603  -2.969  0.00  0.00    -0.463 OA
BRANCH  52  53
ATOM     53  C   LIG d   1       4.816   0.922  -1.861  0.00  0.00     0.082 C 
ATOM     54  H   LIG d   1       5.580   0.715  -1.111  0.00  0.00     0.066 H 
ATOM     55  H   LIG d   1       4.038   1.549  -1.425  0.00  0.00     0.066 H 
ATOM     56  H   LIG d   1       4.378  -0.015  -2.203  0.00  0.00     0.066 H 
ENDBRANCH  52  53
ENDBRANCH  50  52
ENDBRANCH  37  50
ENDBRANCH  33  36
ENDBRANCH  29  32
ENDBRANCH  27  29
TORSDOF 6
ENDMDL
MODEL 4
REMARK VINA RESULT:      -7.5      1.733      3.442
REMARK  6 active torsions:
REMARK  status: ('A' for Active; 'I' for Inactive)
REMARK    1  A    between atoms: C_1  and  O_2 
REMARK    2  A    between atoms: O_2  and  C_3 
REMARK    3  A    between atoms: C_3  and  C_5 
REMARK    4  A    between atoms: C_6  and  N_15 
REMARK       I    between atoms: N_15  and  C_16 
REMARK    5  A    between atoms: C_16  and  C_18 
REMARK    6  A    between atoms: C_18  and  N_55 
ROOT
ATOM      1  C   LIG d   1       3.119  -1.061  -3.379  0.00  0.00    -0.027 C 
ATOM      2  C   LIG d   1       4.148  -1.365  -2.301  0.00  0.00     0.018 C 
ATOM      3  H   LIG d   1       3.739  -2.142  -1.655  0.00  0.00     0.037 H 
ATOM      4  C   LIG d   1       4.425  -0.124  -1.449  0.00  0.00    -0.031 C 
ATOM      5  C   LIG d   1       4.885   0.993  -2.395  0.00  0.00     0.040 C 
ATOM      6  H   LIG d   1       5.145   1.893  -1.838  0.00  0.00     0.042 H 
ATOM      7  C   LIG d   1       3.743   1.279  -3.383  0.00  0.00    -0.023 C 
ATOM      8  C   LIG d   1       6.071   0.506  -3.197  0.00  0.00     0.030 C 
ATOM      9  C   LIG d   1       6.967   1.437  -3.620  0.00  0.00    -0.042 C 
ATOM     10  C   LIG d   1       8.053   1.065  -4.422  0.00  0.00    -0.055 C 
ATOM     11  C   LIG d   1       8.180  -0.241  -4.794  0.00  0.00     0.003 C 
ATOM     12  C   LIG d   1       7.235  -1.175  -4.344  0.00  0.00     0.252 C 
ATOM     13  O   LIG d   1       7.304  -2.334  -4.722  0.00  0.00    -0.268 OA
ATOM     14  N   LIG d   1       6.247  -0.803  -3.495  0.00  0.00    -0.311 N 
ATOM     15  C   LIG d   1       5.452  -1.875  -2.893  0.00  0.00     0.034 C 
ATOM     16  H   LIG d   1       2.164  -0.827  -2.907  0.00  0.00     0.082 H 
ATOM     17  H   LIG d   1       2.996  -1.938  -4.015  0.00  0.00     0.082 H 
ATOM     18  H   LIG d   1       5.209  -0.341  -0.723  0.00  0.00     0.028 H 
ATOM     19  H   LIG d   1       3.515   0.181  -0.932  0.00  0.00     0.028 H 
ATOM     20  H   LIG d   1       4.012   2.121  -4.023  0.00  0.00     0.082 H 
ATOM     21  H   LIG d   1       2.831   1.511  -2.834  0.00  0.00     0.082 H 
ATOM     22  H   LIG d   1       6.842   2.470  -3.333  0.00  0.00     0.064 H 
ATOM     23  H   LIG d   1       8.777   1.800  -4.739  0.00  0.00     0.062 H 
ATOM     24  H   LIG d   1       8.997  -0.552  -5.427  0.00  0.00     0.067 H 
ATOM     25  H   LIG d   1       5.226  -2.617  -3.658  0.00  0.00     0.050 H 
ATOM     26  H   LIG d   1       6.037  -2.347  -2.104  0.00  0.00     0.050 H 
ATOM     27  N   LIG d   1       3.563   0.070  -4.217  0.00  0.00     0.242 N 
ATOM     28  H   LIG d   1       4.462  -0.171  -4.653  0.00  0.00     0.204 HD
ENDROOT
BRANCH  27  29
ATOM     29  C   LIG d   1       2.571   0.331  -5.280  0.00  0.00     0.046 C 
ATOM     30  H   LIG d   1       2.211   1.358  -5.223  0.00  0.00     0.091 H 
ATOM     31  H   LIG d   1       1.733  -0.355  -5.162  0.00  0.00     0.091 H 
BRANCH  29  32
ATOM     32  C   LIG d   1       3.224   0.102  -6.619  0.00  0.00     0.262 C 
ATOM     33  N   LIG d   1       4.231  -0.785  -6.734  0.00  0.00    -0.279 N 
ATOM     34  H   LIG d   1       4.490  -1.327  -5.973  0.00  0.00     0.155 HD
ATOM     35  O   LIG d   1       2.841   0.716  -7.593  0.00  0.00    -0.270 OA
BRANCH  33  36
ATOM     36  C   LIG d   1       4.901  -0.924  -7.946  0.00  0.00     0.073 A 
ATOM     37  C   LIG d   1       4.642  -1.857  -8.929  0.00  0.00     0.147 A 
ATOM     38  N   LIG d   1       5.528  -1.663  -9.978  0.00  0.00    -0.347 N 
ATOM     39  C   LIG d   1       6.365  -0.609  -9.695  0.00  0.00     0.049 A 
ATOM     40  H   LIG d   1       5.555  -2.194 -10.790  0.00  0.00     0.166 HD
ATOM     41  C   LIG d   1       6.014  -0.104  -8.431  0.00  0.00     0.022 A 
ATOM     42  C   LIG d   1       7.412  -0.016 -10.399  0.00  0.00    -0.038 A 
ATOM     43  C   LIG d   1       6.713   0.983  -7.895  0.00  0.00    -0.051 A 
ATOM     44  C   LIG d   1       7.734   1.548  -8.604  0.00  0.00    -0.061 A 
ATOM     45  H   LIG d   1       6.446   1.373  -6.924  0.00  0.00     0.062 H 
ATOM     46  C   LIG d   1       8.086   1.053  -9.852  0.00  0.00    -0.060 A 
ATOM     47  H   LIG d   1       8.273   2.388  -8.189  0.00  0.00     0.062 H 
ATOM     48  H   LIG d   1       8.895   1.510 -10.400  0.00  0.00     0.062 H 
ATOM     49  H   LIG d   1       7.693  -0.393 -11.371  0.00  0.00     0.064 H 
BRANCH  37  50
ATOM     50  C   LIG d   1       3.635  -2.854  -8.875  0.00  0.00     0.357 C 
ATOM     51  O   LIG d   1       3.631  -3.665  -7.967  0.00  0.00    -0.243 OA
BRANCH  50  52
ATOM     52  O   LIG d   1       2.683  -2.905  -9.830  0.00  0.00    -0.463 OA
BRANCH  52  53
ATOM     53  C   LIG d   1       1.773  -1.805  -9.897  0.00  0.00     0.082 C 
ATOM     54  H   LIG d   1       1.108  -1.936 -10.751  0.00  0.00     0.066 H 
ATOM     55  H   LIG d   1       1.185  -1.765  -8.980  0.00  0.00     0.066 H 
ATOM     56  H   LIG d   1       2.333  -0.877 -10.012  0.00  0.00     0.066 H 
ENDBRANCH  52  53
ENDBRANCH  50  52
ENDBRANCH  37  50
ENDBRANCH  33  36
ENDBRANCH  29  32
ENDBRANCH  27  29
TORSDOF 6
ENDMDL
MODEL 5
REMARK VINA RESULT:      -7.3      2.077      2.913
REMARK  6 active torsions:
REMARK  status: ('A' for Active; 'I' for Inactive)
REMARK    1  A    between atoms: C_1  and  O_2 
REMARK    2  A    between atoms: O_2  and  C_3 
REMARK    3  A    between atoms: C_3  and  C_5 
REMARK    4  A    between atoms: C_6  and  N_15 
REMARK       I    between atoms: N_15  and  C_16 
REMARK    5  A    between atoms: C_16  and  C_18 
REMARK    6  A    between atoms: C_18  and  N_55 
ROOT
ATOM      1  C   LIG d   1       3.253  -0.969  -3.615  0.00  0.00    -0.027 C 
ATOM      2  C   LIG d   1       4.204  -1.263  -2.464  0.00  0.00     0.018 C 
ATOM      3  H   LIG d   1       3.750  -2.035  -1.842  0.00  0.00     0.037 H 
ATOM      4  C   LIG d   1       4.421  -0.015  -1.605  0.00  0.00    -0.031 C 
ATOM      5  C   LIG d   1       4.947   1.093  -2.524  0.00  0.00     0.040 C 
ATOM      6  H   LIG d   1       5.167   1.998  -1.958  0.00  0.00     0.042 H 
ATOM      7  C   LIG d   1       3.878   1.372  -3.593  0.00  0.00    -0.023 C 
ATOM      8  C   LIG d   1       6.186   0.600  -3.237  0.00  0.00     0.030 C 
ATOM      9  C   LIG d   1       7.111   1.528  -3.603  0.00  0.00    -0.042 C 
ATOM     10  C   LIG d   1       8.250   1.149  -4.323  0.00  0.00    -0.055 C 
ATOM     11  C   LIG d   1       8.403  -0.160  -4.675  0.00  0.00     0.003 C 
ATOM     12  C   LIG d   1       7.428  -1.090  -4.285  0.00  0.00     0.252 C 
ATOM     13  O   LIG d   1       7.522  -2.252  -4.647  0.00  0.00    -0.268 OA
ATOM     14  N   LIG d   1       6.382  -0.711  -3.511  0.00  0.00    -0.311 N 
ATOM     15  C   LIG d   1       5.546  -1.778  -2.958  0.00  0.00     0.034 C 
ATOM     16  H   LIG d   1       2.268  -0.730  -3.213  0.00  0.00     0.082 H 
ATOM     17  H   LIG d   1       3.176  -1.851  -4.250  0.00  0.00     0.082 H 
ATOM     18  H   LIG d   1       5.151  -0.226  -0.824  0.00  0.00     0.028 H 
ATOM     19  H   LIG d   1       3.477   0.293  -1.156  0.00  0.00     0.028 H 
ATOM     20  H   LIG d   1       4.192   2.208  -4.219  0.00  0.00     0.082 H 
ATOM     21  H   LIG d   1       2.929   1.609  -3.113  0.00  0.00     0.082 H 
ATOM     22  H   LIG d   1       6.966   2.563  -3.334  0.00  0.00     0.064 H 
ATOM     23  H   LIG d   1       8.995   1.882  -4.595  0.00  0.00     0.062 H 
ATOM     24  H   LIG d   1       9.263  -0.476  -5.246  0.00  0.00     0.067 H 
ATOM     25  H   LIG d   1       5.374  -2.527  -3.731  0.00  0.00     0.050 H 
ATOM     26  H   LIG d   1       6.073  -2.244  -2.126  0.00  0.00     0.050 H 
ATOM     27  N   LIG d   1       3.757   0.156  -4.428  0.00  0.00     0.242 N 
ATOM     28  H   LIG d   1       4.684  -0.089  -4.798  0.00  0.00     0.204 HD
ENDROOT
BRANCH  27  29
ATOM     29  C   LIG d   1       2.842   0.408  -5.561  0.00  0.00     0.046 C 
ATOM     30  H   LIG d   1       2.653   1.476  -5.669  0.00  0.00     0.091 H 
ATOM     31  H   LIG d   1       1.902  -0.112  -5.382  0.00  0.00     0.091 H 
BRANCH  29  32
ATOM     32  C   LIG d   1       3.477  -0.119  -6.823  0.00  0.00     0.262 C 
ATOM     33  N   LIG d   1       2.829  -1.034  -7.570  0.00  0.00    -0.279 N 
ATOM     34  H   LIG d   1       1.927  -1.301  -7.336  0.00  0.00     0.155 HD
ATOM     35  O   LIG d   1       4.569   0.281  -7.164  0.00  0.00    -0.270 OA
BRANCH  33  36
ATOM     36  C   LIG d   1       3.454  -1.595  -8.678  0.00  0.00     0.073 A 
ATOM     37  C   LIG d   1       3.973  -2.870  -8.776  0.00  0.00     0.147 A 
ATOM     38  N   LIG d   1       4.510  -3.042 -10.042  0.00  0.00    -0.347 N 
ATOM     39  C   LIG d   1       4.345  -1.893 -10.781  0.00  0.00     0.049 A 
ATOM     40  H   LIG d   1       4.939  -3.852 -10.361  0.00  0.00     0.166 HD
ATOM     41  C   LIG d   1       3.684  -0.950  -9.974  0.00  0.00     0.022 A 
ATOM     42  C   LIG d   1       4.699  -1.547 -12.084  0.00  0.00    -0.038 A 
ATOM     43  C   LIG d   1       3.389   0.318 -10.484  0.00  0.00    -0.051 A 
ATOM     44  C   LIG d   1       3.743   0.635 -11.764  0.00  0.00    -0.061 A 
ATOM     45  H   LIG d   1       2.881   1.045  -9.867  0.00  0.00     0.062 H 
ATOM     46  C   LIG d   1       4.397  -0.292 -12.564  0.00  0.00    -0.060 A 
ATOM     47  H   LIG d   1       3.514   1.615 -12.156  0.00  0.00     0.062 H 
ATOM     48  H   LIG d   1       4.671  -0.027 -13.574  0.00  0.00     0.062 H 
ATOM     49  H   LIG d   1       5.207  -2.260 -12.715  0.00  0.00     0.064 H 
BRANCH  37  50
ATOM     50  C   LIG d   1       3.962  -3.845  -7.746  0.00  0.00     0.357 C 
ATOM     51  O   LIG d   1       4.359  -3.557  -6.632  0.00  0.00    -0.243 OA
BRANCH  50  52
ATOM     52  O   LIG d   1       3.514  -5.092  -8.002  0.00  0.00    -0.463 OA
BRANCH  52  53
ATOM     53  C   LIG d   1       4.251  -6.175  -7.431  0.00  0.00     0.082 C 
ATOM     54  H   LIG d   1       3.851  -7.120  -7.800  0.00  0.00     0.066 H 
ATOM     55  H   LIG d   1       5.300  -6.089  -7.715  0.00  0.00     0.066 H 
ATOM     56  H   LIG d   1       4.164  -6.142  -6.346  0.00  0.00     0.066 H 
ENDBRANCH  52  53
ENDBRANCH  50  52
ENDBRANCH  37  50
ENDBRANCH  33  36
ENDBRANCH  29  32
ENDBRANCH  27  29
TORSDOF 6
ENDMDL
MODEL 6
REMARK VINA RESULT:      -7.3      2.388      7.312
REMARK  6 active torsions:
REMARK  status: ('A' for Active; 'I' for Inactive)
REMARK    1  A    between atoms: C_1  and  O_2 
REMARK    2  A    between atoms: O_2  and  C_3 
REMARK    3  A    between atoms: C_3  and  C_5 
REMARK    4  A    between atoms: C_6  and  N_15 
REMARK       I    between atoms: N_15  and  C_16 
REMARK    5  A    between atoms: C_16  and  C_18 
REMARK    6  A    between atoms: C_18  and  N_55 
ROOT
ATOM      1  C   LIG d   1       5.743  -2.506  -9.715  0.00  0.00    -0.027 C 
ATOM      2  C   LIG d   1       4.549  -2.228 -10.616  0.00  0.00     0.018 C 
ATOM      3  H   LIG d   1       4.215  -3.179 -11.033  0.00  0.00     0.037 H 
ATOM      4  C   LIG d   1       4.943  -1.305 -11.771  0.00  0.00    -0.031 C 
ATOM      5  C   LIG d   1       5.523  -0.023 -11.162  0.00  0.00     0.040 C 
ATOM      6  H   LIG d   1       5.778   0.698 -11.939  0.00  0.00     0.042 H 
ATOM      7  C   LIG d   1       6.769  -0.404 -10.347  0.00  0.00    -0.023 C 
ATOM      8  C   LIG d   1       4.515   0.569 -10.202  0.00  0.00     0.030 C 
ATOM      9  C   LIG d   1       4.537   1.916 -10.021  0.00  0.00    -0.042 C 
ATOM     10  C   LIG d   1       3.676   2.524  -9.099  0.00  0.00    -0.055 C 
ATOM     11  C   LIG d   1       2.835   1.738  -8.367  0.00  0.00     0.003 C 
ATOM     12  C   LIG d   1       2.841   0.351  -8.575  0.00  0.00     0.252 C 
ATOM     13  O   LIG d   1       2.138  -0.367  -7.882  0.00  0.00    -0.268 OA
ATOM     14  N   LIG d   1       3.619  -0.199  -9.538  0.00  0.00    -0.311 N 
ATOM     15  C   LIG d   1       3.393  -1.612  -9.846  0.00  0.00     0.034 C 
ATOM     16  H   LIG d   1       6.493  -3.064 -10.277  0.00  0.00     0.082 H 
ATOM     17  H   LIG d   1       5.419  -3.103  -8.863  0.00  0.00     0.082 H 
ATOM     18  H   LIG d   1       4.064  -1.066 -12.371  0.00  0.00     0.028 H 
ATOM     19  H   LIG d   1       5.695  -1.791 -12.394  0.00  0.00     0.028 H 
ATOM     20  H   LIG d   1       7.247   0.497  -9.961  0.00  0.00     0.082 H 
ATOM     21  H   LIG d   1       7.469  -0.950 -10.979  0.00  0.00     0.082 H 
ATOM     22  H   LIG d   1       5.222   2.523 -10.594  0.00  0.00     0.064 H 
ATOM     23  H   LIG d   1       3.678   3.596  -8.971  0.00  0.00     0.062 H 
ATOM     24  H   LIG d   1       2.174   2.178  -7.635  0.00  0.00     0.067 H 
ATOM     25  H   LIG d   1       3.258  -2.159  -8.913  0.00  0.00     0.050 H 
ATOM     26  H   LIG d   1       2.485  -1.702 -10.442  0.00  0.00     0.050 H 
ATOM     27  N   LIG d   1       6.320  -1.243  -9.213  0.00  0.00     0.242 N 
ATOM     28  H   LIG d   1       5.599  -0.734  -8.687  0.00  0.00     0.204 HD
ENDROOT
BRANCH  27  29
ATOM     29  C   LIG d   1       7.455  -1.529  -8.313  0.00  0.00     0.046 C 
ATOM     30  H   LIG d   1       8.063  -0.635  -8.168  0.00  0.00     0.091 H 
ATOM     31  H   LIG d   1       8.067  -2.317  -8.751  0.00  0.00     0.091 H 
BRANCH  29  32
ATOM     32  C   LIG d   1       6.916  -1.991  -6.984  0.00  0.00     0.262 C 
ATOM     33  N   LIG d   1       5.593  -1.931  -6.736  0.00  0.00    -0.279 N 
ATOM     34  H   LIG d   1       4.980  -1.658  -7.436  0.00  0.00     0.155 HD
ATOM     35  O   LIG d   1       7.674  -2.417  -6.138  0.00  0.00    -0.270 OA
BRANCH  33  36
ATOM     36  C   LIG d   1       5.106  -2.262  -5.476  0.00  0.00     0.073 A 
ATOM     37  C   LIG d   1       4.627  -3.492  -5.074  0.00  0.00     0.147 A 
ATOM     38  N   LIG d   1       4.237  -3.411  -3.746  0.00  0.00    -0.347 N 
ATOM     39  C   LIG d   1       4.459  -2.140  -3.269  0.00  0.00     0.049 A 
ATOM     40  H   LIG d   1       3.863  -4.142  -3.229  0.00  0.00     0.166 HD
ATOM     41  C   LIG d   1       5.007  -1.375  -4.314  0.00  0.00     0.022 A 
ATOM     42  C   LIG d   1       4.244  -1.543  -2.028  0.00  0.00    -0.038 A 
ATOM     43  C   LIG d   1       5.331  -0.031  -4.099  0.00  0.00    -0.051 A 
ATOM     44  C   LIG d   1       5.114   0.532  -2.875  0.00  0.00    -0.061 A 
ATOM     45  H   LIG d   1       5.752   0.559  -4.900  0.00  0.00     0.062 H 
ATOM     46  C   LIG d   1       4.571  -0.219  -1.840  0.00  0.00    -0.060 A 
ATOM     47  H   LIG d   1       5.365   1.569  -2.710  0.00  0.00     0.062 H 
ATOM     48  H   LIG d   1       4.405   0.240  -0.877  0.00  0.00     0.062 H 
ATOM     49  H   LIG d   1       3.824  -2.117  -1.216  0.00  0.00     0.064 H 
BRANCH  37  50
ATOM     50  C   LIG d   1       4.545  -4.651  -5.887  0.00  0.00     0.357 C 
ATOM     51  O   LIG d   1       3.480  -5.225  -6.020  0.00  0.00    -0.243 OA
BRANCH  50  52
ATOM     52  O   LIG d   1       5.646  -5.118  -6.512  0.00  0.00    -0.463 OA
BRANCH  52  53
ATOM     53  C   LIG d   1       6.628  -5.763  -5.698  0.00  0.00     0.082 C 
ATOM     54  H   LIG d   1       7.622  -5.426  -5.993  0.00  0.00     0.066 H 
ATOM     55  H   LIG d   1       6.454  -5.511  -4.652  0.00  0.00     0.066 H 
ATOM     56  H   LIG d   1       6.556  -6.842  -5.830  0.00  0.00     0.066 H 
ENDBRANCH  52  53
ENDBRANCH  50  52
ENDBRANCH  37  50
ENDBRANCH  33  36
ENDBRANCH  29  32
ENDBRANCH  27  29
TORSDOF 6
ENDMDL
MODEL 7
REMARK VINA RESULT:      -7.2      9.122     12.203
REMARK  6 active torsions:
REMARK  status: ('A' for Active; 'I' for Inactive)
REMARK    1  A    between atoms: C_1  and  O_2 
REMARK    2  A    between atoms: O_2  and  C_3 
REMARK    3  A    between atoms: C_3  and  C_5 
REMARK    4  A    between atoms: C_6  and  N_15 
REMARK       I    between atoms: N_15  and  C_16 
REMARK    5  A    between atoms: C_16  and  C_18 
REMARK    6  A    between atoms: C_18  and  N_55 
ROOT
ATOM      1  C   LIG d   1      10.565  11.699  -1.923  0.00  0.00    -0.027 C 
ATOM      2  C   LIG d   1      11.328  12.234  -3.125  0.00  0.00     0.018 C 
ATOM      3  H   LIG d   1      11.993  13.025  -2.775  0.00  0.00     0.037 H 
ATOM      4  C   LIG d   1      10.368  12.831  -4.156  0.00  0.00    -0.031 C 
ATOM      5  C   LIG d   1       9.367  11.736  -4.544  0.00  0.00     0.040 C 
ATOM      6  H   LIG d   1       8.683  12.089  -5.316  0.00  0.00     0.042 H 
ATOM      7  C   LIG d   1       8.592  11.331  -3.280  0.00  0.00    -0.023 C 
ATOM      8  C   LIG d   1      10.125  10.519  -5.024  0.00  0.00     0.030 C 
ATOM      9  C   LIG d   1       9.509   9.713  -5.929  0.00  0.00    -0.042 C 
ATOM     10  C   LIG d   1      10.126   8.535  -6.367  0.00  0.00    -0.055 C 
ATOM     11  C   LIG d   1      11.342   8.197  -5.850  0.00  0.00     0.003 C 
ATOM     12  C   LIG d   1      11.948   9.049  -4.915  0.00  0.00     0.252 C 
ATOM     13  O   LIG d   1      13.006   8.726  -4.400  0.00  0.00    -0.268 OA
ATOM     14  N   LIG d   1      11.369  10.227  -4.578  0.00  0.00    -0.311 N 
ATOM     15  C   LIG d   1      12.173  11.157  -3.783  0.00  0.00     0.034 C 
ATOM     16  H   LIG d   1      10.080  12.529  -1.407  0.00  0.00     0.082 H 
ATOM     17  H   LIG d   1      11.264  11.215  -1.241  0.00  0.00     0.082 H 
ATOM     18  H   LIG d   1      10.924  13.154  -5.037  0.00  0.00     0.028 H 
ATOM     19  H   LIG d   1       9.838  13.680  -3.722  0.00  0.00     0.028 H 
ATOM     20  H   LIG d   1       7.820  10.604  -3.538  0.00  0.00     0.082 H 
ATOM     21  H   LIG d   1       8.133  12.211  -2.831  0.00  0.00     0.082 H 
ATOM     22  H   LIG d   1       8.537   9.983  -6.314  0.00  0.00     0.064 H 
ATOM     23  H   LIG d   1       9.647   7.905  -7.101  0.00  0.00     0.062 H 
ATOM     24  H   LIG d   1      11.832   7.284  -6.156  0.00  0.00     0.067 H 
ATOM     25  H   LIG d   1      12.697  10.596  -3.009  0.00  0.00     0.050 H 
ATOM     26  H   LIG d   1      12.908  11.632  -4.432  0.00  0.00     0.050 H 
ATOM     27  N   LIG d   1       9.558  10.706  -2.348  0.00  0.00     0.242 N 
ATOM     28  H   LIG d   1      10.034   9.934  -2.830  0.00  0.00     0.204 HD
ENDROOT
BRANCH  27  29
ATOM     29  C   LIG d   1       8.849  10.170  -1.169  0.00  0.00     0.046 C 
ATOM     30  H   LIG d   1       7.781  10.375  -1.238  0.00  0.00     0.091 H 
ATOM     31  H   LIG d   1       9.251  10.634  -0.269  0.00  0.00     0.091 H 
BRANCH  29  32
ATOM     32  C   LIG d   1       9.070   8.680  -1.106  0.00  0.00     0.262 C 
ATOM     33  N   LIG d   1      10.272   8.164  -1.430  0.00  0.00    -0.279 N 
ATOM     34  H   LIG d   1      11.014   8.753  -1.635  0.00  0.00     0.155 HD
ATOM     35  O   LIG d   1       8.166   7.947  -0.764  0.00  0.00    -0.270 OA
BRANCH  33  36
ATOM     36  C   LIG d   1      10.448   6.784  -1.470  0.00  0.00     0.073 A 
ATOM     37  C   LIG d   1      10.987   5.992  -0.477  0.00  0.00     0.147 A 
ATOM     38  N   LIG d   1      10.988   4.673  -0.904  0.00  0.00    -0.347 N 
ATOM     39  C   LIG d   1      10.451   4.589  -2.168  0.00  0.00     0.049 A 
ATOM     40  H   LIG d   1      11.319   3.920  -0.389  0.00  0.00     0.166 HD
ATOM     41  C   LIG d   1      10.091   5.887  -2.573  0.00  0.00     0.022 A 
ATOM     42  C   LIG d   1      10.228   3.520  -3.033  0.00  0.00    -0.038 A 
ATOM     43  C   LIG d   1       9.516   6.091  -3.831  0.00  0.00    -0.051 A 
ATOM     44  C   LIG d   1       9.306   5.028  -4.661  0.00  0.00    -0.061 A 
ATOM     45  H   LIG d   1       9.239   7.086  -4.145  0.00  0.00     0.062 H 
ATOM     46  C   LIG d   1       9.660   3.744  -4.267  0.00  0.00    -0.060 A 
ATOM     47  H   LIG d   1       8.861   5.186  -5.633  0.00  0.00     0.062 H 
ATOM     48  H   LIG d   1       9.488   2.914  -4.934  0.00  0.00     0.062 H 
ATOM     49  H   LIG d   1      10.500   2.518  -2.736  0.00  0.00     0.064 H 
BRANCH  37  50
ATOM     50  C   LIG d   1      11.465   6.453   0.776  0.00  0.00     0.357 C 
ATOM     51  O   LIG d   1      11.250   5.805   1.784  0.00  0.00    -0.243 OA
BRANCH  50  52
ATOM     52  O   LIG d   1      12.156   7.609   0.852  0.00  0.00    -0.463 OA
BRANCH  52  53
ATOM     53  C   LIG d   1      11.635   8.620   1.718  0.00  0.00     0.082 C 
ATOM     54  H   LIG d   1      10.702   9.005   1.307  0.00  0.00     0.066 H 
ATOM     55  H   LIG d   1      11.450   8.192   2.704  0.00  0.00     0.066 H 
ATOM     56  H   LIG d   1      12.357   9.432   1.803  0.00  0.00     0.066 H 
ENDBRANCH  52  53
ENDBRANCH  50  52
ENDBRANCH  37  50
ENDBRANCH  33  36
ENDBRANCH  29  32
ENDBRANCH  27  29
TORSDOF 6
ENDMDL
MODEL 8
REMARK VINA RESULT:      -6.9      2.018      6.769
REMARK  6 active torsions:
REMARK  status: ('A' for Active; 'I' for Inactive)
REMARK    1  A    between atoms: C_1  and  O_2 
REMARK    2  A    between atoms: O_2  and  C_3 
REMARK    3  A    between atoms: C_3  and  C_5 
REMARK    4  A    between atoms: C_6  and  N_15 
REMARK       I    between atoms: N_15  and  C_16 
REMARK    5  A    between atoms: C_16  and  C_18 
REMARK    6  A    between atoms: C_18  and  N_55 
ROOT
ATOM      1  C   LIG d   1       4.975  -3.008  -9.269  0.00  0.00    -0.027 C 
ATOM      2  C   LIG d   1       3.611  -2.741  -9.886  0.00  0.00     0.018 C 
ATOM      3  H   LIG d   1       3.068  -3.687  -9.924  0.00  0.00     0.037 H 
ATOM      4  C   LIG d   1       3.755  -2.211 -11.315  0.00  0.00    -0.031 C 
ATOM      5  C   LIG d   1       4.622  -0.948 -11.253  0.00  0.00     0.040 C 
ATOM      6  H   LIG d   1       4.722  -0.494 -12.240  0.00  0.00     0.042 H 
ATOM      7  C   LIG d   1       6.000  -1.343 -10.699  0.00  0.00    -0.023 C 
ATOM      8  C   LIG d   1       4.004   0.031 -10.280  0.00  0.00     0.030 C 
ATOM      9  C   LIG d   1       4.224   1.355 -10.497  0.00  0.00    -0.042 C 
ATOM     10  C   LIG d   1       3.737   2.313  -9.599  0.00  0.00    -0.055 C 
ATOM     11  C   LIG d   1       3.061   1.894  -8.492  0.00  0.00     0.003 C 
ATOM     12  C   LIG d   1       2.854   0.520  -8.296  0.00  0.00     0.252 C 
ATOM     13  O   LIG d   1       2.305   0.130  -7.278  0.00  0.00    -0.268 OA
ATOM     14  N   LIG d   1       3.258  -0.378  -9.228  0.00  0.00    -0.311 N 
ATOM     15  C   LIG d   1       2.799  -1.758  -9.060  0.00  0.00     0.034 C 
ATOM     16  H   LIG d   1       5.466  -3.812  -9.818  0.00  0.00     0.082 H 
ATOM     17  H   LIG d   1       4.845  -3.313  -8.230  0.00  0.00     0.082 H 
ATOM     18  H   LIG d   1       2.773  -1.966 -11.720  0.00  0.00     0.028 H 
ATOM     19  H   LIG d   1       4.238  -2.961 -11.941  0.00  0.00     0.028 H 
ATOM     20  H   LIG d   1       6.665  -0.478 -10.712  0.00  0.00     0.082 H 
ATOM     21  H   LIG d   1       6.426  -2.142 -11.305  0.00  0.00     0.082 H 
ATOM     22  H   LIG d   1       4.779   1.671 -11.368  0.00  0.00     0.064 H 
ATOM     23  H   LIG d   1       3.893   3.365  -9.782  0.00  0.00     0.062 H 
ATOM     24  H   LIG d   1       2.689   2.610  -7.773  0.00  0.00     0.067 H 
ATOM     25  H   LIG d   1       2.878  -2.030  -8.008  0.00  0.00     0.050 H 
ATOM     26  H   LIG d   1       1.754  -1.821  -9.363  0.00  0.00     0.050 H 
ATOM     27  N   LIG d   1       5.806  -1.788  -9.301  0.00  0.00     0.242 N 
ATOM     28  H   LIG d   1       5.327  -1.044  -8.778  0.00  0.00     0.204 HD
ENDROOT
BRANCH  27  29
ATOM     29  C   LIG d   1       7.114  -2.051  -8.667  0.00  0.00     0.046 C 
ATOM     30  H   LIG d   1       7.904  -1.500  -9.176  0.00  0.00     0.091 H 
ATOM     31  H   LIG d   1       7.325  -3.119  -8.716  0.00  0.00     0.091 H 
BRANCH  29  32
ATOM     32  C   LIG d   1       7.049  -1.618  -7.224  0.00  0.00     0.262 C 
ATOM     33  N   LIG d   1       6.183  -0.658  -6.848  0.00  0.00    -0.279 N 
ATOM     34  H   LIG d   1       5.553  -0.295  -7.488  0.00  0.00     0.155 HD
ATOM     35  O   LIG d   1       7.777  -2.135  -6.404  0.00  0.00    -0.270 OA
BRANCH  33  36
ATOM     36  C   LIG d   1       6.193  -0.187  -5.539  0.00  0.00     0.073 A 
ATOM     37  C   LIG d   1       6.979   0.827  -5.032  0.00  0.00     0.147 A 
ATOM     38  N   LIG d   1       6.689   0.993  -3.686  0.00  0.00    -0.347 N 
ATOM     39  C   LIG d   1       5.716   0.099  -3.304  0.00  0.00     0.049 A 
ATOM     40  H   LIG d   1       7.111   1.641  -3.101  0.00  0.00     0.166 HD
ATOM     41  C   LIG d   1       5.363  -0.666  -4.430  0.00  0.00     0.022 A 
ATOM     42  C   LIG d   1       5.081  -0.146  -2.088  0.00  0.00    -0.038 A 
ATOM     43  C   LIG d   1       4.385  -1.660  -4.319  0.00  0.00    -0.051 A 
ATOM     44  C   LIG d   1       3.775  -1.881  -3.118  0.00  0.00    -0.061 A 
ATOM     45  H   LIG d   1       4.112  -2.250  -5.182  0.00  0.00     0.062 H 
ATOM     46  C   LIG d   1       4.120  -1.129  -2.003  0.00  0.00    -0.060 A 
ATOM     47  H   LIG d   1       3.019  -2.648  -3.034  0.00  0.00     0.062 H 
ATOM     48  H   LIG d   1       3.629  -1.315  -1.060  0.00  0.00     0.062 H 
ATOM     49  H   LIG d   1       5.340   0.434  -1.214  0.00  0.00     0.064 H 
BRANCH  37  50
ATOM     50  C   LIG d   1       7.933   1.576  -5.768  0.00  0.00     0.357 C 
ATOM     51  O   LIG d   1       7.711   1.871  -6.927  0.00  0.00    -0.243 OA
BRANCH  50  52
ATOM     52  O   LIG d   1       9.087   1.959  -5.183  0.00  0.00    -0.463 OA
BRANCH  52  53
ATOM     53  C   LIG d   1       9.202   3.337  -4.817  0.00  0.00     0.082 C 
ATOM     54  H   LIG d   1       8.778   3.485  -3.824  0.00  0.00     0.066 H 
ATOM     55  H   LIG d   1      10.254   3.623  -4.811  0.00  0.00     0.066 H 
ATOM     56  H   LIG d   1       8.662   3.950  -5.539  0.00  0.00     0.066 H 
ENDBRANCH  52  53
ENDBRANCH  50  52
ENDBRANCH  37  50
ENDBRANCH  33  36
ENDBRANCH  29  32
ENDBRANCH  27  29
TORSDOF 6
ENDMDL
MODEL 9
REMARK VINA RESULT:      -6.9      2.451      7.361
REMARK  6 active torsions:
REMARK  status: ('A' for Active; 'I' for Inactive)
REMARK    1  A    between atoms: C_1  and  O_2 
REMARK    2  A    between atoms: O_2  and  C_3 
REMARK    3  A    between atoms: C_3  and  C_5 
REMARK    4  A    between atoms: C_6  and  N_15 
REMARK       I    between atoms: N_15  and  C_16 
REMARK    5  A    between atoms: C_16  and  C_18 
REMARK    6  A    between atoms: C_18  and  N_55 
ROOT
ATOM      1  C   LIG d   1       3.868   0.723 -10.890  0.00  0.00    -0.027 C 
ATOM      2  C   LIG d   1       4.389  -0.027 -12.107  0.00  0.00     0.018 C 
ATOM      3  H   LIG d   1       4.779   0.708 -12.812  0.00  0.00     0.037 H 
ATOM      4  C   LIG d   1       3.261  -0.802 -12.792  0.00  0.00    -0.031 C 
ATOM      5  C   LIG d   1       2.647  -1.743 -11.748  0.00  0.00     0.040 C 
ATOM      6  H   LIG d   1       1.865  -2.360 -12.191  0.00  0.00     0.042 H 
ATOM      7  C   LIG d   1       2.075  -0.883 -10.610  0.00  0.00    -0.023 C 
ATOM      8  C   LIG d   1       3.737  -2.611 -11.160  0.00  0.00     0.030 C 
ATOM      9  C   LIG d   1       3.382  -3.842 -10.706  0.00  0.00    -0.042 C 
ATOM     10  C   LIG d   1       4.327  -4.672 -10.090  0.00  0.00    -0.055 C 
ATOM     11  C   LIG d   1       5.602  -4.213  -9.931  0.00  0.00     0.003 C 
ATOM     12  C   LIG d   1       5.933  -2.936 -10.407  0.00  0.00     0.252 C 
ATOM     13  O   LIG d   1       7.053  -2.491 -10.215  0.00  0.00    -0.268 OA
ATOM     14  N   LIG d   1       5.022  -2.192 -11.080  0.00  0.00    -0.311 N 
ATOM     15  C   LIG d   1       5.512  -0.983 -11.743  0.00  0.00     0.034 C 
ATOM     16  H   LIG d   1       3.160   1.487 -11.216  0.00  0.00     0.082 H 
ATOM     17  H   LIG d   1       4.702   1.205 -10.381  0.00  0.00     0.082 H 
ATOM     18  H   LIG d   1       3.662  -1.382 -13.623  0.00  0.00     0.028 H 
ATOM     19  H   LIG d   1       2.503  -0.109 -13.156  0.00  0.00     0.028 H 
ATOM     20  H   LIG d   1       1.566  -1.520  -9.886  0.00  0.00     0.082 H 
ATOM     21  H   LIG d   1       1.375  -0.153 -11.015  0.00  0.00     0.082 H 
ATOM     22  H   LIG d   1       2.364  -4.183 -10.821  0.00  0.00     0.064 H 
ATOM     23  H   LIG d   1       4.051  -5.658  -9.749  0.00  0.00     0.062 H 
ATOM     24  H   LIG d   1       6.346  -4.825  -9.443  0.00  0.00     0.067 H 
ATOM     25  H   LIG d   1       6.208  -0.473 -11.075  0.00  0.00     0.050 H 
ATOM     26  H   LIG d   1       6.041  -1.268 -12.651  0.00  0.00     0.050 H 
ATOM     27  N   LIG d   1       3.214  -0.207  -9.948  0.00  0.00     0.242 N 
ATOM     28  H   LIG d   1       3.897  -0.917  -9.653  0.00  0.00     0.204 HD
ENDROOT
BRANCH  27  29
ATOM     29  C   LIG d   1       2.744   0.528  -8.756  0.00  0.00     0.046 C 
ATOM     30  H   LIG d   1       1.712   0.264  -8.526  0.00  0.00     0.091 H 
ATOM     31  H   LIG d   1       2.811   1.599  -8.949  0.00  0.00     0.091 H 
BRANCH  29  32
ATOM     32  C   LIG d   1       3.626   0.171  -7.587  0.00  0.00     0.262 C 
ATOM     33  N   LIG d   1       3.181  -0.679  -6.643  0.00  0.00    -0.279 N 
ATOM     34  H   LIG d   1       2.322  -1.117  -6.749  0.00  0.00     0.155 HD
ATOM     35  O   LIG d   1       4.737   0.651  -7.498  0.00  0.00    -0.270 OA
BRANCH  33  36
ATOM     36  C   LIG d   1       3.953  -0.931  -5.513  0.00  0.00     0.073 A 
ATOM     37  C   LIG d   1       4.869  -1.950  -5.350  0.00  0.00     0.147 A 
ATOM     38  N   LIG d   1       5.427  -1.856  -4.084  0.00  0.00    -0.347 N 
ATOM     39  C   LIG d   1       4.889  -0.781  -3.414  0.00  0.00     0.049 A 
ATOM     40  H   LIG d   1       6.096  -2.459  -3.723  0.00  0.00     0.166 HD
ATOM     41  C   LIG d   1       3.958  -0.161  -4.267  0.00  0.00     0.022 A 
ATOM     42  C   LIG d   1       5.100  -0.258  -2.140  0.00  0.00    -0.038 A 
ATOM     43  C   LIG d   1       3.259   0.969  -3.830  0.00  0.00    -0.051 A 
ATOM     44  C   LIG d   1       3.484   1.465  -2.579  0.00  0.00    -0.061 A 
ATOM     45  H   LIG d   1       2.543   1.448  -4.482  0.00  0.00     0.062 H 
ATOM     46  C   LIG d   1       4.400   0.855  -1.733  0.00  0.00    -0.060 A 
ATOM     47  H   LIG d   1       2.943   2.338  -2.243  0.00  0.00     0.062 H 
ATOM     48  H   LIG d   1       4.567   1.259  -0.745  0.00  0.00     0.062 H 
ATOM     49  H   LIG d   1       5.812  -0.724  -1.474  0.00  0.00     0.064 H 
BRANCH  37  50
ATOM     50  C   LIG d   1       5.186  -2.936  -6.319  0.00  0.00     0.357 C 
ATOM     51  O   LIG d   1       6.321  -3.022  -6.749  0.00  0.00    -0.243 OA
BRANCH  50  52
ATOM     52  O   LIG d   1       4.230  -3.777  -6.764  0.00  0.00    -0.463 OA
BRANCH  52  53
ATOM     53  C   LIG d   1       4.262  -5.117  -6.268  0.00  0.00     0.082 C 
ATOM     54  H   LIG d   1       3.333  -5.624  -6.529  0.00  0.00     0.066 H 
ATOM     55  H   LIG d   1       5.104  -5.648  -6.713  0.00  0.00     0.066 H 
ATOM     56  H   LIG d   1       4.375  -5.100  -5.184  0.00  0.00     0.066 H 
ENDBRANCH  52  53
ENDBRANCH  50  52
ENDBRANCH  37  50
ENDBRANCH  33  36
ENDBRANCH  29  32
ENDBRANCH  27  29
TORSDOF 6
ENDMDL
