MODEL 1
REMARK VINA RESULT:      -6.2      0.000      0.000
REMARK  6 active torsions:
REMARK  status: ('A' for Active; 'I' for Inactive)
REMARK    1  A    between atoms: C_1  and  C_2 
REMARK    2  A    between atoms: C_2  and  C_3 
REMARK    3  A    between atoms: C_5  and  C_12 
REMARK    4  A    between atoms: C_8  and  O_9 
REMARK    5  A    between atoms: O_9  and  C_10 
REMARK    6  A    between atoms: C_13  and  C_18 
ROOT
ATOM      1  C   LIG d   1       4.884  -3.290  -5.355  0.00  0.00     0.073 A 
ATOM      2  C   LIG d   1       4.482  -3.489  -6.670  0.00  0.00     0.027 A 
ATOM      3  C   LIG d   1       3.900  -4.767  -6.738  0.00  0.00     0.058 A 
ATOM      4  N   LIG d   1       3.943  -5.309  -5.551  0.00  0.00    -0.181 NA
ATOM      5  H   LIG d   1       4.717  -4.573  -3.719  0.00  0.00     0.189 HD
ATOM      6  N   LIG d   1       4.556  -4.417  -4.663  0.00  0.00    -0.276 N 
ATOM      7  H   LIG d   1       3.486  -5.224  -7.625  0.00  0.00     0.085 H 
ENDROOT
BRANCH   1   8
ATOM      8  C   LIG d   1       5.547  -2.087  -4.812  0.00  0.00    -0.007 A 
ATOM      9  C   LIG d   1       4.789  -1.083  -4.207  0.00  0.00    -0.046 A 
ATOM     10  C   LIG d   1       5.411   0.038  -3.700  0.00  0.00    -0.005 A 
ATOM     11  H   LIG d   1       3.716  -1.185  -4.135  0.00  0.00     0.063 H 
ATOM     12  C   LIG d   1       6.790   0.176  -3.795  0.00  0.00     0.123 A 
ATOM     13  C   LIG d   1       7.553  -0.820  -4.390  0.00  0.00    -0.027 A 
ATOM     14  C   LIG d   1       6.939  -1.950  -4.902  0.00  0.00    -0.096 A 
ATOM     15  H   LIG d   1       8.625  -0.711  -4.457  0.00  0.00     0.065 H 
ATOM     16  O   LIG d   1       7.682  -2.922  -5.489  0.00  0.00    -0.873 OA
BRANCH  10  17
ATOM     17  C   LIG d   1       4.592   1.121  -3.047  0.00  0.00    -0.027 C 
ATOM     18  H   LIG d   1       3.592   1.132  -3.482  0.00  0.00     0.031 H 
ATOM     19  H   LIG d   1       5.070   2.087  -3.210  0.00  0.00     0.031 H 
BRANCH  17  20
ATOM     20  C   LIG d   1       4.491   0.849  -1.545  0.00  0.00    -0.061 C 
ATOM     21  H   LIG d   1       3.536   1.216  -1.172  0.00  0.00     0.023 H 
ATOM     22  H   LIG d   1       4.564  -0.223  -1.365  0.00  0.00     0.023 H 
ATOM     23  H   LIG d   1       5.304   1.360  -1.028  0.00  0.00     0.023 H 
ENDBRANCH  17  20
ENDBRANCH  10  17
BRANCH  12  24
ATOM     24  O   LIG d   1       7.396   1.286  -3.299  0.00  0.00    -0.495 OA
BRANCH  24  25
ATOM     25  C   LIG d   1       8.055   2.139  -4.237  0.00  0.00     0.079 C 
ATOM     26  H   LIG d   1       9.113   1.881  -4.283  0.00  0.00     0.066 H 
ATOM     27  H   LIG d   1       7.606   2.011  -5.223  0.00  0.00     0.066 H 
ATOM     28  H   LIG d   1       7.947   3.178  -3.922  0.00  0.00     0.066 H 
ENDBRANCH  24  25
ENDBRANCH  12  24
ENDBRANCH   1   8
BRANCH   2  29
ATOM     29  C   LIG d   1       4.639  -2.533  -7.791  0.00  0.00    -0.011 A 
ATOM     30  C   LIG d   1       3.779  -1.441  -7.903  0.00  0.00    -0.009 A 
ATOM     31  C   LIG d   1       3.930  -0.546  -8.947  0.00  0.00     0.163 A 
ATOM     32  H   LIG d   1       2.997  -1.293  -7.172  0.00  0.00     0.066 H 
ATOM     33  C   LIG d   1       4.934  -0.741  -9.889  0.00  0.00     0.162 A 
ATOM     34  O   LIG d   1       3.081   0.514  -9.044  0.00  0.00    -0.485 OA
ATOM     35  C   LIG d   1       5.786  -1.831  -9.781  0.00  0.00    -0.016 A 
ATOM     36  O   LIG d   1       5.097   0.131 -10.923  0.00  0.00    -0.485 OA
ATOM     37  C   LIG d   1       5.642  -2.724  -8.740  0.00  0.00    -0.050 A 
ATOM     38  H   LIG d   1       6.565  -1.981 -10.514  0.00  0.00     0.066 H 
ATOM     39  H   LIG d   1       6.307  -3.572  -8.658  0.00  0.00     0.062 H 
ATOM     40  C   LIG d   1       3.996   0.997 -11.214  0.00  0.00     0.124 C 
ATOM     41  C   LIG d   1       3.491   1.592  -9.893  0.00  0.00     0.124 C 
ATOM     42  H   LIG d   1       3.197   0.430 -11.692  0.00  0.00     0.073 H 
ATOM     43  H   LIG d   1       4.323   1.799 -11.877  0.00  0.00     0.073 H 
ATOM     44  H   LIG d   1       2.643   2.251 -10.087  0.00  0.00     0.073 H 
ATOM     45  H   LIG d   1       4.292   2.154  -9.414  0.00  0.00     0.073 H 
ENDBRANCH   2  29
TORSDOF 6
ENDMDL
MODEL 2
REMARK VINA RESULT:      -6.2      2.001      6.059
REMARK  6 active torsions:
REMARK  status: ('A' for Active; 'I' for Inactive)
REMARK    1  A    between atoms: C_1  and  C_2 
REMARK    2  A    between atoms: C_2  and  C_3 
REMARK    3  A    between atoms: C_5  and  C_12 
REMARK    4  A    between atoms: C_8  and  O_9 
REMARK    5  A    between atoms: O_9  and  C_10 
REMARK    6  A    between atoms: C_13  and  C_18 
ROOT
ATOM      1  C   LIG d   1       4.119  -1.207  -4.459  0.00  0.00     0.073 A 
ATOM      2  C   LIG d   1       5.221  -1.054  -3.628  0.00  0.00     0.027 A 
ATOM      3  C   LIG d   1       4.870  -1.570  -2.369  0.00  0.00     0.058 A 
ATOM      4  N   LIG d   1       3.641  -2.009  -2.427  0.00  0.00    -0.181 NA
ATOM      5  H   LIG d   1       2.249  -2.024  -4.027  0.00  0.00     0.189 HD
ATOM      6  N   LIG d   1       3.139  -1.794  -3.716  0.00  0.00    -0.276 N 
ATOM      7  H   LIG d   1       5.510  -1.601  -1.499  0.00  0.00     0.085 H 
ENDROOT
BRANCH   1   8
ATOM      8  C   LIG d   1       4.026  -0.806  -5.878  0.00  0.00    -0.007 A 
ATOM      9  C   LIG d   1       4.699  -1.537  -6.858  0.00  0.00    -0.046 A 
ATOM     10  C   LIG d   1       4.607  -1.161  -8.181  0.00  0.00    -0.005 A 
ATOM     11  H   LIG d   1       5.289  -2.397  -6.580  0.00  0.00     0.063 H 
ATOM     12  C   LIG d   1       3.853  -0.052  -8.542  0.00  0.00     0.123 A 
ATOM     13  C   LIG d   1       3.175   0.678  -7.575  0.00  0.00    -0.027 A 
ATOM     14  C   LIG d   1       3.259   0.309  -6.243  0.00  0.00    -0.096 A 
ATOM     15  H   LIG d   1       2.586   1.536  -7.861  0.00  0.00     0.065 H 
ATOM     16  O   LIG d   1       2.601   1.024  -5.296  0.00  0.00    -0.873 OA
BRANCH  10  17
ATOM     17  C   LIG d   1       5.335  -1.951  -9.238  0.00  0.00    -0.027 C 
ATOM     18  H   LIG d   1       5.400  -1.359 -10.152  0.00  0.00     0.031 H 
ATOM     19  H   LIG d   1       4.793  -2.874  -9.439  0.00  0.00     0.031 H 
BRANCH  17  20
ATOM     20  C   LIG d   1       6.745  -2.284  -8.745  0.00  0.00    -0.061 C 
ATOM     21  H   LIG d   1       7.240  -1.372  -8.414  0.00  0.00     0.023 H 
ATOM     22  H   LIG d   1       6.682  -2.986  -7.915  0.00  0.00     0.023 H 
ATOM     23  H   LIG d   1       7.317  -2.733  -9.559  0.00  0.00     0.023 H 
ENDBRANCH  17  20
ENDBRANCH  10  17
BRANCH  12  24
ATOM     24  O   LIG d   1       3.773   0.317  -9.847  0.00  0.00    -0.495 OA
BRANCH  24  25
ATOM     25  C   LIG d   1       3.959   1.703 -10.142  0.00  0.00     0.079 C 
ATOM     26  H   LIG d   1       3.058   2.256  -9.873  0.00  0.00     0.066 H 
ATOM     27  H   LIG d   1       4.805   2.086  -9.571  0.00  0.00     0.066 H 
ATOM     28  H   LIG d   1       4.155   1.825 -11.208  0.00  0.00     0.066 H 
ENDBRANCH  24  25
ENDBRANCH  12  24
ENDBRANCH   1   8
BRANCH   2  29
ATOM     29  C   LIG d   1       6.526  -0.455  -4.001  0.00  0.00    -0.011 A 
ATOM     30  C   LIG d   1       6.858   0.824  -3.560  0.00  0.00    -0.009 A 
ATOM     31  C   LIG d   1       8.079   1.379  -3.904  0.00  0.00     0.163 A 
ATOM     32  H   LIG d   1       6.165   1.381  -2.946  0.00  0.00     0.066 H 
ATOM     33  C   LIG d   1       8.968   0.662  -4.697  0.00  0.00     0.162 A 
ATOM     34  O   LIG d   1       8.390   2.630  -3.467  0.00  0.00    -0.485 OA
ATOM     35  C   LIG d   1       8.634  -0.610  -5.141  0.00  0.00    -0.016 A 
ATOM     36  O   LIG d   1      10.174   1.192  -5.045  0.00  0.00    -0.485 OA
ATOM     37  C   LIG d   1       7.420  -1.168  -4.798  0.00  0.00    -0.050 A 
ATOM     38  H   LIG d   1       9.326  -1.165  -5.757  0.00  0.00     0.066 H 
ATOM     39  H   LIG d   1       7.163  -2.159  -5.145  0.00  0.00     0.062 H 
ATOM     40  C   LIG d   1      10.320   2.608  -4.899  0.00  0.00     0.124 C 
ATOM     41  C   LIG d   1       9.769   3.009  -3.524  0.00  0.00     0.124 C 
ATOM     42  H   LIG d   1       9.760   3.119  -5.683  0.00  0.00     0.073 H 
ATOM     43  H   LIG d   1      11.374   2.878  -4.966  0.00  0.00     0.073 H 
ATOM     44  H   LIG d   1       9.860   4.088  -3.392  0.00  0.00     0.073 H 
ATOM     45  H   LIG d   1      10.325   2.494  -2.741  0.00  0.00     0.073 H 
ENDBRANCH   2  29
TORSDOF 6
ENDMDL
MODEL 3
REMARK VINA RESULT:      -5.9      3.036      4.133
REMARK  6 active torsions:
REMARK  status: ('A' for Active; 'I' for Inactive)
REMARK    1  A    between atoms: C_1  and  C_2 
REMARK    2  A    between atoms: C_2  and  C_3 
REMARK    3  A    between atoms: C_5  and  C_12 
REMARK    4  A    between atoms: C_8  and  O_9 
REMARK    5  A    between atoms: O_9  and  C_10 
REMARK    6  A    between atoms: C_13  and  C_18 
ROOT
ATOM      1  C   LIG d   1       8.766   0.519  -4.999  0.00  0.00     0.073 A 
ATOM      2  C   LIG d   1       8.757   0.709  -6.374  0.00  0.00     0.027 A 
ATOM      3  C   LIG d   1      10.009   1.242  -6.729  0.00  0.00     0.058 A 
ATOM      4  N   LIG d   1      10.730   1.368  -5.648  0.00  0.00    -0.181 NA
ATOM      5  H   LIG d   1      10.283   0.921  -3.624  0.00  0.00     0.189 HD
ATOM      6  N   LIG d   1       9.984   0.931  -4.547  0.00  0.00    -0.276 N 
ATOM      7  H   LIG d   1      10.322   1.503  -7.730  0.00  0.00     0.085 H 
ENDROOT
BRANCH   1   8
ATOM      8  C   LIG d   1       7.662  -0.022  -4.180  0.00  0.00    -0.007 A 
ATOM      9  C   LIG d   1       6.774   0.844  -3.541  0.00  0.00    -0.046 A 
ATOM     10  C   LIG d   1       5.744   0.335  -2.779  0.00  0.00    -0.005 A 
ATOM     11  H   LIG d   1       6.892   1.912  -3.646  0.00  0.00     0.063 H 
ATOM     12  C   LIG d   1       5.591  -1.039  -2.638  0.00  0.00     0.123 A 
ATOM     13  C   LIG d   1       6.467  -1.908  -3.274  0.00  0.00    -0.027 A 
ATOM     14  C   LIG d   1       7.504  -1.408  -4.042  0.00  0.00    -0.096 A 
ATOM     15  H   LIG d   1       6.341  -2.975  -3.166  0.00  0.00     0.065 H 
ATOM     16  O   LIG d   1       8.364  -2.257  -4.660  0.00  0.00    -0.873 OA
BRANCH  10  17
ATOM     17  C   LIG d   1       4.785   1.272  -2.090  0.00  0.00    -0.027 C 
ATOM     18  H   LIG d   1       5.304   2.195  -1.830  0.00  0.00     0.031 H 
ATOM     19  H   LIG d   1       4.404   0.800  -1.185  0.00  0.00     0.031 H 
BRANCH  17  20
ATOM     20  C   LIG d   1       3.620   1.589  -3.029  0.00  0.00    -0.061 C 
ATOM     21  H   LIG d   1       3.492   0.774  -3.741  0.00  0.00     0.023 H 
ATOM     22  H   LIG d   1       2.707   1.711  -2.447  0.00  0.00     0.023 H 
ATOM     23  H   LIG d   1       3.832   2.513  -3.571  0.00  0.00     0.023 H 
ENDBRANCH  17  20
ENDBRANCH  10  17
BRANCH  12  24
ATOM     24  O   LIG d   1       4.578  -1.533  -1.880  0.00  0.00    -0.495 OA
BRANCH  24  25
ATOM     25  C   LIG d   1       3.538  -2.235  -2.564  0.00  0.00     0.079 C 
ATOM     26  H   LIG d   1       3.663  -2.111  -3.640  0.00  0.00     0.066 H 
ATOM     27  H   LIG d   1       3.588  -3.294  -2.312  0.00  0.00     0.066 H 
ATOM     28  H   LIG d   1       2.570  -1.835  -2.262  0.00  0.00     0.066 H 
ENDBRANCH  24  25
ENDBRANCH  12  24
ENDBRANCH   1   8
BRANCH   2  29
ATOM     29  C   LIG d   1       7.636   0.407  -7.296  0.00  0.00    -0.011 A 
ATOM     30  C   LIG d   1       6.756   1.417  -7.681  0.00  0.00    -0.009 A 
ATOM     31  C   LIG d   1       5.714   1.133  -8.546  0.00  0.00     0.163 A 
ATOM     32  H   LIG d   1       6.891   2.422  -7.307  0.00  0.00     0.066 H 
ATOM     33  C   LIG d   1       5.540  -0.161  -9.023  0.00  0.00     0.162 A 
ATOM     34  O   LIG d   1       4.861   2.130  -8.912  0.00  0.00    -0.485 OA
ATOM     35  C   LIG d   1       6.412  -1.168  -8.634  0.00  0.00    -0.016 A 
ATOM     36  O   LIG d   1       4.519  -0.457  -9.876  0.00  0.00    -0.485 OA
ATOM     37  C   LIG d   1       7.455  -0.889  -7.776  0.00  0.00    -0.050 A 
ATOM     38  H   LIG d   1       6.275  -2.173  -9.006  0.00  0.00     0.066 H 
ATOM     39  H   LIG d   1       8.133  -1.676  -7.475  0.00  0.00     0.062 H 
ATOM     40  C   LIG d   1       3.446   0.486  -9.946  0.00  0.00     0.124 C 
ATOM     41  C   LIG d   1       4.049   1.892 -10.066  0.00  0.00     0.124 C 
ATOM     42  H   LIG d   1       2.839   0.422  -9.043  0.00  0.00     0.073 H 
ATOM     43  H   LIG d   1       2.828   0.275 -10.819  0.00  0.00     0.073 H 
ATOM     44  H   LIG d   1       3.249   2.632 -10.112  0.00  0.00     0.073 H 
ATOM     45  H   LIG d   1       4.660   1.954 -10.966  0.00  0.00     0.073 H 
ENDBRANCH   2  29
TORSDOF 6
ENDMDL
MODEL 4
REMARK VINA RESULT:      -5.8      1.955      5.894
REMARK  6 active torsions:
REMARK  status: ('A' for Active; 'I' for Inactive)
REMARK    1  A    between atoms: C_1  and  C_2 
REMARK    2  A    between atoms: C_2  and  C_3 
REMARK    3  A    between atoms: C_5  and  C_12 
REMARK    4  A    between atoms: C_8  and  O_9 
REMARK    5  A    between atoms: O_9  and  C_10 
REMARK    6  A    between atoms: C_13  and  C_18 
ROOT
ATOM      1  C   LIG d   1       4.130  -1.298  -4.513  0.00  0.00     0.073 A 
ATOM      2  C   LIG d   1       5.129  -0.946  -3.614  0.00  0.00     0.027 A 
ATOM      3  C   LIG d   1       4.737  -1.416  -2.349  0.00  0.00     0.058 A 
ATOM      4  N   LIG d   1       3.581  -2.013  -2.466  0.00  0.00    -0.181 NA
ATOM      5  H   LIG d   1       2.344  -2.318  -4.161  0.00  0.00     0.189 HD
ATOM      6  N   LIG d   1       3.169  -1.954  -3.803  0.00  0.00    -0.276 N 
ATOM      7  H   LIG d   1       5.298  -1.303  -1.433  0.00  0.00     0.085 H 
ENDROOT
BRANCH   1   8
ATOM      8  C   LIG d   1       4.110  -1.012  -5.962  0.00  0.00    -0.007 A 
ATOM      9  C   LIG d   1       3.492   0.145  -6.439  0.00  0.00    -0.046 A 
ATOM     10  C   LIG d   1       3.478   0.409  -7.792  0.00  0.00    -0.005 A 
ATOM     11  H   LIG d   1       3.028   0.833  -5.748  0.00  0.00     0.063 H 
ATOM     12  C   LIG d   1       4.071  -0.476  -8.684  0.00  0.00     0.123 A 
ATOM     13  C   LIG d   1       4.692  -1.626  -8.218  0.00  0.00    -0.027 A 
ATOM     14  C   LIG d   1       4.714  -1.901  -6.861  0.00  0.00    -0.096 A 
ATOM     15  H   LIG d   1       5.156  -2.308  -8.914  0.00  0.00     0.065 H 
ATOM     16  O   LIG d   1       5.317  -3.028  -6.404  0.00  0.00    -0.873 OA
BRANCH  10  17
ATOM     17  C   LIG d   1       2.810   1.659  -8.306  0.00  0.00    -0.027 C 
ATOM     18  H   LIG d   1       2.373   2.206  -7.470  0.00  0.00     0.031 H 
ATOM     19  H   LIG d   1       2.028   1.387  -9.014  0.00  0.00     0.031 H 
BRANCH  17  20
ATOM     20  C   LIG d   1       3.847   2.540  -9.005  0.00  0.00    -0.061 C 
ATOM     21  H   LIG d   1       3.478   2.826  -9.989  0.00  0.00     0.023 H 
ATOM     22  H   LIG d   1       4.025   3.435  -8.409  0.00  0.00     0.023 H 
ATOM     23  H   LIG d   1       4.780   1.985  -9.114  0.00  0.00     0.023 H 
ENDBRANCH  17  20
ENDBRANCH  10  17
BRANCH  12  24
ATOM     24  O   LIG d   1       4.046  -0.212 -10.016  0.00  0.00    -0.495 OA
BRANCH  24  25
ATOM     25  C   LIG d   1       3.871  -1.325 -10.895  0.00  0.00     0.079 C 
ATOM     26  H   LIG d   1       4.824  -1.574 -11.361  0.00  0.00     0.066 H 
ATOM     27  H   LIG d   1       3.509  -2.183 -10.326  0.00  0.00     0.066 H 
ATOM     28  H   LIG d   1       3.145  -1.068 -11.667  0.00  0.00     0.066 H 
ENDBRANCH  24  25
ENDBRANCH  12  24
ENDBRANCH   1   8
BRANCH   2  29
ATOM     29  C   LIG d   1       6.377  -0.211  -3.932  0.00  0.00    -0.011 A 
ATOM     30  C   LIG d   1       7.396  -0.841  -4.644  0.00  0.00    -0.009 A 
ATOM     31  C   LIG d   1       8.558  -0.151  -4.945  0.00  0.00     0.163 A 
ATOM     32  H   LIG d   1       7.277  -1.865  -4.965  0.00  0.00     0.066 H 
ATOM     33  C   LIG d   1       8.711   1.167  -4.527  0.00  0.00     0.162 A 
ATOM     34  O   LIG d   1       9.546  -0.780  -5.639  0.00  0.00    -0.485 OA
ATOM     35  C   LIG d   1       7.698   1.791  -3.813  0.00  0.00    -0.016 A 
ATOM     36  O   LIG d   1       9.847   1.860  -4.815  0.00  0.00    -0.485 OA
ATOM     37  C   LIG d   1       6.537   1.109  -3.515  0.00  0.00    -0.050 A 
ATOM     38  H   LIG d   1       7.819   2.815  -3.490  0.00  0.00     0.066 H 
ATOM     39  H   LIG d   1       5.750   1.599  -2.959  0.00  0.00     0.062 H 
ATOM     40  C   LIG d   1      10.990   1.091  -5.202  0.00  0.00     0.124 C 
ATOM     41  C   LIG d   1      10.542   0.054  -6.240  0.00  0.00     0.124 C 
ATOM     42  H   LIG d   1      11.404   0.583  -4.330  0.00  0.00     0.073 H 
ATOM     43  H   LIG d   1      11.745   1.746  -5.638  0.00  0.00     0.073 H 
ATOM     44  H   LIG d   1      11.395  -0.554  -6.545  0.00  0.00     0.073 H 
ATOM     45  H   LIG d   1      10.123   0.561  -7.108  0.00  0.00     0.073 H 
ENDBRANCH   2  29
TORSDOF 6
ENDMDL
MODEL 5
REMARK VINA RESULT:      -5.8      1.825      2.588
REMARK  6 active torsions:
REMARK  status: ('A' for Active; 'I' for Inactive)
REMARK    1  A    between atoms: C_1  and  C_2 
REMARK    2  A    between atoms: C_2  and  C_3 
REMARK    3  A    between atoms: C_5  and  C_12 
REMARK    4  A    between atoms: C_8  and  O_9 
REMARK    5  A    between atoms: O_9  and  C_10 
REMARK    6  A    between atoms: C_13  and  C_18 
ROOT
ATOM      1  C   LIG d   1       6.358  -3.144  -5.666  0.00  0.00     0.073 A 
ATOM      2  C   LIG d   1       5.932  -3.160  -6.988  0.00  0.00     0.027 A 
ATOM      3  C   LIG d   1       6.458  -4.321  -7.581  0.00  0.00     0.058 A 
ATOM      4  N   LIG d   1       7.154  -4.969  -6.686  0.00  0.00    -0.181 NA
ATOM      5  H   LIG d   1       7.556  -4.519  -4.653  0.00  0.00     0.189 HD
ATOM      6  N   LIG d   1       7.118  -4.260  -5.479  0.00  0.00    -0.276 N 
ATOM      7  H   LIG d   1       6.310  -4.628  -8.607  0.00  0.00     0.085 H 
ENDROOT
BRANCH   1   8
ATOM      8  C   LIG d   1       6.049  -2.112  -4.656  0.00  0.00    -0.007 A 
ATOM      9  C   LIG d   1       6.807  -0.941  -4.597  0.00  0.00    -0.046 A 
ATOM     10  C   LIG d   1       6.514   0.021  -3.654  0.00  0.00    -0.005 A 
ATOM     11  H   LIG d   1       7.620  -0.789  -5.291  0.00  0.00     0.063 H 
ATOM     12  C   LIG d   1       5.471  -0.173  -2.757  0.00  0.00     0.123 A 
ATOM     13  C   LIG d   1       4.709  -1.332  -2.812  0.00  0.00    -0.027 A 
ATOM     14  C   LIG d   1       4.993  -2.304  -3.755  0.00  0.00    -0.096 A 
ATOM     15  H   LIG d   1       3.896  -1.476  -2.116  0.00  0.00     0.065 H 
ATOM     16  O   LIG d   1       4.251  -3.440  -3.807  0.00  0.00    -0.873 OA
BRANCH  10  17
ATOM     17  C   LIG d   1       7.333   1.284  -3.591  0.00  0.00    -0.027 C 
ATOM     18  H   LIG d   1       8.108   1.177  -2.831  0.00  0.00     0.031 H 
ATOM     19  H   LIG d   1       6.687   2.124  -3.337  0.00  0.00     0.031 H 
BRANCH  17  20
ATOM     20  C   LIG d   1       7.986   1.537  -4.952  0.00  0.00    -0.061 C 
ATOM     21  H   LIG d   1       7.357   2.205  -5.539  0.00  0.00     0.023 H 
ATOM     22  H   LIG d   1       8.965   1.993  -4.806  0.00  0.00     0.023 H 
ATOM     23  H   LIG d   1       8.101   0.589  -5.480  0.00  0.00     0.023 H 
ENDBRANCH  17  20
ENDBRANCH  10  17
BRANCH  12  24
ATOM     24  O   LIG d   1       5.193   0.776  -1.826  0.00  0.00    -0.495 OA
BRANCH  24  25
ATOM     25  C   LIG d   1       3.968   1.496  -1.979  0.00  0.00     0.079 C 
ATOM     26  H   LIG d   1       4.126   2.542  -1.718  0.00  0.00     0.066 H 
ATOM     27  H   LIG d   1       3.632   1.425  -3.014  0.00  0.00     0.066 H 
ATOM     28  H   LIG d   1       3.211   1.068  -1.321  0.00  0.00     0.066 H 
ENDBRANCH  24  25
ENDBRANCH  12  24
ENDBRANCH   1   8
BRANCH   2  29
ATOM     29  C   LIG d   1       5.082  -2.142  -7.650  0.00  0.00    -0.011 A 
ATOM     30  C   LIG d   1       5.508  -0.817  -7.722  0.00  0.00    -0.009 A 
ATOM     31  C   LIG d   1       4.715   0.132  -8.346  0.00  0.00     0.163 A 
ATOM     32  H   LIG d   1       6.459  -0.531  -7.296  0.00  0.00     0.066 H 
ATOM     33  C   LIG d   1       3.491  -0.237  -8.890  0.00  0.00     0.162 A 
ATOM     34  O   LIG d   1       5.144   1.423  -8.407  0.00  0.00    -0.485 OA
ATOM     35  C   LIG d   1       3.064  -1.556  -8.813  0.00  0.00    -0.016 A 
ATOM     36  O   LIG d   1       2.698   0.683  -9.508  0.00  0.00    -0.485 OA
ATOM     37  C   LIG d   1       3.852  -2.505  -8.196  0.00  0.00    -0.050 A 
ATOM     38  H   LIG d   1       2.112  -1.840  -9.237  0.00  0.00     0.066 H 
ATOM     39  H   LIG d   1       3.517  -3.531  -8.138  0.00  0.00     0.062 H 
ATOM     40  C   LIG d   1       2.981   2.059  -9.238  0.00  0.00     0.124 C 
ATOM     41  C   LIG d   1       4.496   2.272  -9.359  0.00  0.00     0.124 C 
ATOM     42  H   LIG d   1       2.653   2.312  -8.229  0.00  0.00     0.073 H 
ATOM     43  H   LIG d   1       2.462   2.690  -9.960  0.00  0.00     0.073 H 
ATOM     44  H   LIG d   1       4.738   3.314  -9.147  0.00  0.00     0.073 H 
ATOM     45  H   LIG d   1       4.823   2.015 -10.366  0.00  0.00     0.073 H 
ENDBRANCH   2  29
TORSDOF 6
ENDMDL
MODEL 6
REMARK VINA RESULT:      -5.7      2.515      4.166
REMARK  6 active torsions:
REMARK  status: ('A' for Active; 'I' for Inactive)
REMARK    1  A    between atoms: C_1  and  C_2 
REMARK    2  A    between atoms: C_2  and  C_3 
REMARK    3  A    between atoms: C_5  and  C_12 
REMARK    4  A    between atoms: C_8  and  O_9 
REMARK    5  A    between atoms: O_9  and  C_10 
REMARK    6  A    between atoms: C_13  and  C_18 
ROOT
ATOM      1  C   LIG d   1       4.539  -2.218  -4.002  0.00  0.00     0.073 A 
ATOM      2  C   LIG d   1       4.070  -1.106  -4.689  0.00  0.00     0.027 A 
ATOM      3  C   LIG d   1       3.068  -0.519  -3.897  0.00  0.00     0.058 A 
ATOM      4  N   LIG d   1       2.935  -1.221  -2.805  0.00  0.00    -0.181 NA
ATOM      5  H   LIG d   1       3.940  -2.971  -2.151  0.00  0.00     0.189 HD
ATOM      6  N   LIG d   1       3.835  -2.294  -2.838  0.00  0.00    -0.276 N 
ATOM      7  H   LIG d   1       2.503   0.367  -4.150  0.00  0.00     0.085 H 
ENDROOT
BRANCH   1   8
ATOM      8  C   LIG d   1       5.598  -3.146  -4.450  0.00  0.00    -0.007 A 
ATOM      9  C   LIG d   1       6.921  -2.944  -4.053  0.00  0.00    -0.046 A 
ATOM     10  C   LIG d   1       7.905  -3.813  -4.472  0.00  0.00    -0.005 A 
ATOM     11  H   LIG d   1       7.172  -2.108  -3.417  0.00  0.00     0.063 H 
ATOM     12  C   LIG d   1       7.587  -4.886  -5.294  0.00  0.00     0.123 A 
ATOM     13  C   LIG d   1       6.274  -5.098  -5.690  0.00  0.00    -0.027 A 
ATOM     14  C   LIG d   1       5.277  -4.232  -5.275  0.00  0.00    -0.096 A 
ATOM     15  H   LIG d   1       6.030  -5.937  -6.325  0.00  0.00     0.065 H 
ATOM     16  O   LIG d   1       3.992  -4.436  -5.665  0.00  0.00    -0.873 OA
BRANCH  10  17
ATOM     17  C   LIG d   1       9.333  -3.593  -4.043  0.00  0.00    -0.027 C 
ATOM     18  H   LIG d   1       9.551  -2.525  -4.042  0.00  0.00     0.031 H 
ATOM     19  H   LIG d   1      10.003  -4.102  -4.736  0.00  0.00     0.031 H 
BRANCH  17  20
ATOM     20  C   LIG d   1       9.534  -4.155  -2.634  0.00  0.00    -0.061 C 
ATOM     21  H   LIG d   1       8.880  -3.631  -1.937  0.00  0.00     0.023 H 
ATOM     22  H   LIG d   1       9.294  -5.218  -2.629  0.00  0.00     0.023 H 
ATOM     23  H   LIG d   1      10.572  -4.015  -2.332  0.00  0.00     0.023 H 
ENDBRANCH  17  20
ENDBRANCH  10  17
BRANCH  12  24
ATOM     24  O   LIG d   1       8.564  -5.734  -5.709  0.00  0.00    -0.495 OA
BRANCH  24  25
ATOM     25  C   LIG d   1       8.422  -6.298  -7.015  0.00  0.00     0.079 C 
ATOM     26  H   LIG d   1       7.372  -6.522  -7.202  0.00  0.00     0.066 H 
ATOM     27  H   LIG d   1       8.781  -5.586  -7.758  0.00  0.00     0.066 H 
ATOM     28  H   LIG d   1       9.007  -7.216  -7.079  0.00  0.00     0.066 H 
ENDBRANCH  24  25
ENDBRANCH  12  24
ENDBRANCH   1   8
BRANCH   2  29
ATOM     29  C   LIG d   1       4.539  -0.628  -6.012  0.00  0.00    -0.011 A 
ATOM     30  C   LIG d   1       3.647  -0.539  -7.079  0.00  0.00    -0.009 A 
ATOM     31  C   LIG d   1       4.086  -0.086  -8.311  0.00  0.00     0.163 A 
ATOM     32  H   LIG d   1       2.612  -0.817  -6.942  0.00  0.00     0.066 H 
ATOM     33  C   LIG d   1       5.419   0.268  -8.486  0.00  0.00     0.162 A 
ATOM     34  O   LIG d   1       3.203  -0.006  -9.345  0.00  0.00    -0.485 OA
ATOM     35  C   LIG d   1       6.308   0.172  -7.425  0.00  0.00    -0.016 A 
ATOM     36  O   LIG d   1       5.868   0.715  -9.692  0.00  0.00    -0.485 OA
ATOM     37  C   LIG d   1       5.875  -0.273  -6.194  0.00  0.00    -0.050 A 
ATOM     38  H   LIG d   1       7.343   0.448  -7.563  0.00  0.00     0.066 H 
ATOM     39  H   LIG d   1       6.571  -0.346  -5.370  0.00  0.00     0.062 H 
ATOM     40  C   LIG d   1       5.041   0.442 -10.828  0.00  0.00     0.124 C 
ATOM     41  C   LIG d   1       3.592   0.797 -10.464  0.00  0.00     0.124 C 
ATOM     42  H   LIG d   1       5.107  -0.615 -11.086  0.00  0.00     0.073 H 
ATOM     43  H   LIG d   1       5.366   1.047 -11.674  0.00  0.00     0.073 H 
ATOM     44  H   LIG d   1       2.939   0.588 -11.312  0.00  0.00     0.073 H 
ATOM     45  H   LIG d   1       3.528   1.852 -10.200  0.00  0.00     0.073 H 
ENDBRANCH   2  29
TORSDOF 6
ENDMDL
MODEL 7
REMARK VINA RESULT:      -5.6      2.237      3.970
REMARK  6 active torsions:
REMARK  status: ('A' for Active; 'I' for Inactive)
REMARK    1  A    between atoms: C_1  and  C_2 
REMARK    2  A    between atoms: C_2  and  C_3 
REMARK    3  A    between atoms: C_5  and  C_12 
REMARK    4  A    between atoms: C_8  and  O_9 
REMARK    5  A    between atoms: O_9  and  C_10 
REMARK    6  A    between atoms: C_13  and  C_18 
ROOT
ATOM      1  C   LIG d   1       4.291  -1.521  -4.021  0.00  0.00     0.073 A 
ATOM      2  C   LIG d   1       3.770  -0.607  -4.927  0.00  0.00     0.027 A 
ATOM      3  C   LIG d   1       2.678   0.023  -4.304  0.00  0.00     0.058 A 
ATOM      4  N   LIG d   1       2.543  -0.470  -3.103  0.00  0.00    -0.181 NA
ATOM      5  H   LIG d   1       3.651  -1.964  -2.085  0.00  0.00     0.189 HD
ATOM      6  N   LIG d   1       3.529  -1.441  -2.893  0.00  0.00    -0.276 N 
ATOM      7  H   LIG d   1       2.057   0.789  -4.746  0.00  0.00     0.085 H 
ENDROOT
BRANCH   1   8
ATOM      8  C   LIG d   1       5.447  -2.413  -4.239  0.00  0.00    -0.007 A 
ATOM      9  C   LIG d   1       5.286  -3.610  -4.937  0.00  0.00    -0.046 A 
ATOM     10  C   LIG d   1       6.369  -4.440  -5.140  0.00  0.00    -0.005 A 
ATOM     11  H   LIG d   1       4.315  -3.886  -5.320  0.00  0.00     0.063 H 
ATOM     12  C   LIG d   1       7.619  -4.091  -4.646  0.00  0.00     0.123 A 
ATOM     13  C   LIG d   1       7.790  -2.900  -3.954  0.00  0.00    -0.027 A 
ATOM     14  C   LIG d   1       6.710  -2.059  -3.745  0.00  0.00    -0.096 A 
ATOM     15  H   LIG d   1       8.765  -2.631  -3.576  0.00  0.00     0.065 H 
ATOM     16  O   LIG d   1       6.875  -0.896  -3.065  0.00  0.00    -0.873 OA
BRANCH  10  17
ATOM     17  C   LIG d   1       6.193  -5.732  -5.895  0.00  0.00    -0.027 C 
ATOM     18  H   LIG d   1       6.870  -6.484  -5.488  0.00  0.00     0.031 H 
ATOM     19  H   LIG d   1       6.417  -5.571  -6.949  0.00  0.00     0.031 H 
BRANCH  17  20
ATOM     20  C   LIG d   1       4.749  -6.215  -5.749  0.00  0.00    -0.061 C 
ATOM     21  H   LIG d   1       4.729  -7.305  -5.726  0.00  0.00     0.023 H 
ATOM     22  H   LIG d   1       4.327  -5.825  -4.823  0.00  0.00     0.023 H 
ATOM     23  H   LIG d   1       4.160  -5.860  -6.595  0.00  0.00     0.023 H 
ENDBRANCH  17  20
ENDBRANCH  10  17
BRANCH  12  24
ATOM     24  O   LIG d   1       8.679  -4.917  -4.843  0.00  0.00    -0.495 OA
BRANCH  24  25
ATOM     25  C   LIG d   1       9.861  -4.334  -5.398  0.00  0.00     0.079 C 
ATOM     26  H   LIG d   1      10.121  -4.850  -6.322  0.00  0.00     0.066 H 
ATOM     27  H   LIG d   1       9.682  -3.279  -5.607  0.00  0.00     0.066 H 
ATOM     28  H   LIG d   1      10.681  -4.429  -4.686  0.00  0.00     0.066 H 
ENDBRANCH  24  25
ENDBRANCH  12  24
ENDBRANCH   1   8
BRANCH   2  29
ATOM     29  C   LIG d   1       4.272  -0.345  -6.297  0.00  0.00    -0.011 A 
ATOM     30  C   LIG d   1       3.391  -0.350  -7.377  0.00  0.00    -0.009 A 
ATOM     31  C   LIG d   1       3.861  -0.099  -8.655  0.00  0.00     0.163 A 
ATOM     32  H   LIG d   1       2.341  -0.545  -7.216  0.00  0.00     0.066 H 
ATOM     33  C   LIG d   1       5.214   0.148  -8.861  0.00  0.00     0.162 A 
ATOM     34  O   LIG d   1       2.989  -0.110  -9.700  0.00  0.00    -0.485 OA
ATOM     35  C   LIG d   1       6.092   0.146  -7.786  0.00  0.00    -0.016 A 
ATOM     36  O   LIG d   1       5.693   0.396 -10.111  0.00  0.00    -0.485 OA
ATOM     37  C   LIG d   1       5.628  -0.099  -6.511  0.00  0.00    -0.050 A 
ATOM     38  H   LIG d   1       7.142   0.339  -7.948  0.00  0.00     0.066 H 
ATOM     39  H   LIG d   1       6.314  -0.098  -5.676  0.00  0.00     0.062 H 
ATOM     40  C   LIG d   1       4.856   0.019 -11.208  0.00  0.00     0.124 C 
ATOM     41  C   LIG d   1       3.431   0.506 -10.914  0.00  0.00     0.124 C 
ATOM     42  H   LIG d   1       4.858  -1.066 -11.318  0.00  0.00     0.073 H 
ATOM     43  H   LIG d   1       5.220   0.481 -12.126  0.00  0.00     0.073 H 
ATOM     44  H   LIG d   1       2.769   0.222 -11.733  0.00  0.00     0.073 H 
ATOM     45  H   LIG d   1       3.429   1.590 -10.799  0.00  0.00     0.073 H 
ENDBRANCH   2  29
TORSDOF 6
ENDMDL
MODEL 8
REMARK VINA RESULT:      -5.6      3.466      4.960
REMARK  6 active torsions:
REMARK  status: ('A' for Active; 'I' for Inactive)
REMARK    1  A    between atoms: C_1  and  C_2 
REMARK    2  A    between atoms: C_2  and  C_3 
REMARK    3  A    between atoms: C_5  and  C_12 
REMARK    4  A    between atoms: C_8  and  O_9 
REMARK    5  A    between atoms: O_9  and  C_10 
REMARK    6  A    between atoms: C_13  and  C_18 
ROOT
ATOM      1  C   LIG d   1       4.804   0.179  -8.094  0.00  0.00     0.073 A 
ATOM      2  C   LIG d   1       4.555  -0.356  -9.351  0.00  0.00     0.027 A 
ATOM      3  C   LIG d   1       4.938   0.609 -10.299  0.00  0.00     0.058 A 
ATOM      4  N   LIG d   1       5.389   1.659  -9.666  0.00  0.00    -0.181 NA
ATOM      5  H   LIG d   1       5.583   2.048  -7.590  0.00  0.00     0.189 HD
ATOM      6  N   LIG d   1       5.315   1.428  -8.287  0.00  0.00    -0.276 N 
ATOM      7  H   LIG d   1       4.871   0.500 -11.372  0.00  0.00     0.085 H 
ENDROOT
BRANCH   1   8
ATOM      8  C   LIG d   1       4.557  -0.478  -6.795  0.00  0.00    -0.007 A 
ATOM      9  C   LIG d   1       5.275  -1.621  -6.440  0.00  0.00    -0.046 A 
ATOM     10  C   LIG d   1       5.043  -2.231  -5.226  0.00  0.00    -0.005 A 
ATOM     11  H   LIG d   1       6.014  -2.026  -7.117  0.00  0.00     0.063 H 
ATOM     12  C   LIG d   1       4.091  -1.716  -4.355  0.00  0.00     0.123 A 
ATOM     13  C   LIG d   1       3.375  -0.576  -4.697  0.00  0.00    -0.027 A 
ATOM     14  C   LIG d   1       3.601   0.045  -5.914  0.00  0.00    -0.096 A 
ATOM     15  H   LIG d   1       2.640  -0.176  -4.015  0.00  0.00     0.065 H 
ATOM     16  O   LIG d   1       2.898   1.156  -6.252  0.00  0.00    -0.873 OA
BRANCH  10  17
ATOM     17  C   LIG d   1       5.819  -3.465  -4.845  0.00  0.00    -0.027 C 
ATOM     18  H   LIG d   1       5.671  -3.673  -3.784  0.00  0.00     0.031 H 
ATOM     19  H   LIG d   1       6.879  -3.302  -5.039  0.00  0.00     0.031 H 
BRANCH  17  20
ATOM     20  C   LIG d   1       5.325  -4.653  -5.672  0.00  0.00    -0.061 C 
ATOM     21  H   LIG d   1       4.472  -5.114  -5.174  0.00  0.00     0.023 H 
ATOM     22  H   LIG d   1       5.027  -4.308  -6.661  0.00  0.00     0.023 H 
ATOM     23  H   LIG d   1       6.128  -5.386  -5.769  0.00  0.00     0.023 H 
ENDBRANCH  17  20
ENDBRANCH  10  17
BRANCH  12  24
ATOM     24  O   LIG d   1       3.862  -2.326  -3.164  0.00  0.00    -0.495 OA
BRANCH  24  25
ATOM     25  C   LIG d   1       4.265  -1.622  -1.987  0.00  0.00     0.079 C 
ATOM     26  H   LIG d   1       3.846  -2.113  -1.108  0.00  0.00     0.066 H 
ATOM     27  H   LIG d   1       5.353  -1.623  -1.918  0.00  0.00     0.066 H 
ATOM     28  H   LIG d   1       3.905  -0.594  -2.036  0.00  0.00     0.066 H 
ENDBRANCH  24  25
ENDBRANCH  12  24
ENDBRANCH   1   8
BRANCH   2  29
ATOM     29  C   LIG d   1       3.991  -1.697  -9.640  0.00  0.00    -0.011 A 
ATOM     30  C   LIG d   1       2.616  -1.854  -9.810  0.00  0.00    -0.009 A 
ATOM     31  C   LIG d   1       2.092  -3.105 -10.085  0.00  0.00     0.163 A 
ATOM     32  H   LIG d   1       1.962  -0.998  -9.732  0.00  0.00     0.066 H 
ATOM     33  C   LIG d   1       2.937  -4.206 -10.181  0.00  0.00     0.162 A 
ATOM     34  O   LIG d   1       0.748  -3.243 -10.248  0.00  0.00    -0.485 OA
ATOM     35  C   LIG d   1       4.304  -4.050 -10.005  0.00  0.00    -0.016 A 
ATOM     36  O   LIG d   1       2.438  -5.444 -10.451  0.00  0.00    -0.485 OA
ATOM     37  C   LIG d   1       4.832  -2.804  -9.735  0.00  0.00    -0.050 A 
ATOM     38  H   LIG d   1       4.958  -4.906 -10.080  0.00  0.00     0.066 H 
ATOM     39  H   LIG d   1       5.898  -2.686  -9.599  0.00  0.00     0.062 H 
ATOM     40  C   LIG d   1       1.033  -5.630 -10.249  0.00  0.00     0.124 C 
ATOM     41  C   LIG d   1       0.295  -4.443 -10.884  0.00  0.00     0.124 C 
ATOM     42  H   LIG d   1       0.817  -5.669  -9.181  0.00  0.00     0.073 H 
ATOM     43  H   LIG d   1       0.713  -6.558 -10.723  0.00  0.00     0.073 H 
ATOM     44  H   LIG d   1      -0.779  -4.556 -10.734  0.00  0.00     0.073 H 
ATOM     45  H   LIG d   1       0.517  -4.401 -11.950  0.00  0.00     0.073 H 
ENDBRANCH   2  29
TORSDOF 6
ENDMDL
MODEL 9
REMARK VINA RESULT:      -5.6      3.472      7.249
REMARK  6 active torsions:
REMARK  status: ('A' for Active; 'I' for Inactive)
REMARK    1  A    between atoms: C_1  and  C_2 
REMARK    2  A    between atoms: C_2  and  C_3 
REMARK    3  A    between atoms: C_5  and  C_12 
REMARK    4  A    between atoms: C_8  and  O_9 
REMARK    5  A    between atoms: O_9  and  C_10 
REMARK    6  A    between atoms: C_13  and  C_18 
ROOT
ATOM      1  C   LIG d   1       3.670  -0.219  -9.601  0.00  0.00     0.073 A 
ATOM      2  C   LIG d   1       3.905   0.573  -8.484  0.00  0.00     0.027 A 
ATOM      3  C   LIG d   1       4.365   1.818  -8.946  0.00  0.00     0.058 A 
ATOM      4  N   LIG d   1       4.407   1.789 -10.251  0.00  0.00    -0.181 NA
ATOM      5  H   LIG d   1       3.925   0.243 -11.619  0.00  0.00     0.189 HD
ATOM      6  N   LIG d   1       3.985   0.531 -10.695  0.00  0.00    -0.276 N 
ATOM      7  H   LIG d   1       4.638   2.659  -8.325  0.00  0.00     0.085 H 
ENDROOT
BRANCH   1   8
ATOM      8  C   LIG d   1       3.177  -1.611  -9.602  0.00  0.00    -0.007 A 
ATOM      9  C   LIG d   1       3.849  -2.593  -8.873  0.00  0.00    -0.046 A 
ATOM     10  C   LIG d   1       3.384  -3.891  -8.876  0.00  0.00    -0.005 A 
ATOM     11  H   LIG d   1       4.731  -2.336  -8.306  0.00  0.00     0.063 H 
ATOM     12  C   LIG d   1       2.252  -4.228  -9.608  0.00  0.00     0.123 A 
ATOM     13  C   LIG d   1       1.574  -3.256 -10.331  0.00  0.00    -0.027 A 
ATOM     14  C   LIG d   1       2.031  -1.950 -10.335  0.00  0.00    -0.096 A 
ATOM     15  H   LIG d   1       0.692  -3.521 -10.895  0.00  0.00     0.065 H 
ATOM     16  O   LIG d   1       1.372  -1.000 -11.047  0.00  0.00    -0.873 OA
BRANCH  10  17
ATOM     17  C   LIG d   1       4.111  -4.951  -8.088  0.00  0.00    -0.027 C 
ATOM     18  H   LIG d   1       5.093  -5.121  -8.530  0.00  0.00     0.031 H 
ATOM     19  H   LIG d   1       3.536  -5.877  -8.108  0.00  0.00     0.031 H 
BRANCH  17  20
ATOM     20  C   LIG d   1       4.277  -4.485  -6.640  0.00  0.00    -0.061 C 
ATOM     21  H   LIG d   1       4.308  -5.351  -5.980  0.00  0.00     0.023 H 
ATOM     22  H   LIG d   1       5.205  -3.922  -6.544  0.00  0.00     0.023 H 
ATOM     23  H   LIG d   1       3.435  -3.849  -6.365  0.00  0.00     0.023 H 
ENDBRANCH  17  20
ENDBRANCH  10  17
BRANCH  12  24
ATOM     24  O   LIG d   1       1.804  -5.510  -9.611  0.00  0.00    -0.495 OA
BRANCH  24  25
ATOM     25  C   LIG d   1       0.684  -5.804 -10.448  0.00  0.00     0.079 C 
ATOM     26  H   LIG d   1       0.293  -6.790 -10.199  0.00  0.00     0.066 H 
ATOM     27  H   LIG d   1      -0.093  -5.054 -10.292  0.00  0.00     0.066 H 
ATOM     28  H   LIG d   1       0.997  -5.790 -11.493  0.00  0.00     0.066 H 
ENDBRANCH  24  25
ENDBRANCH  12  24
ENDBRANCH   1   8
BRANCH   2  29
ATOM     29  C   LIG d   1       3.708   0.177  -7.069  0.00  0.00    -0.011 A 
ATOM     30  C   LIG d   1       4.692  -0.552  -6.404  0.00  0.00    -0.009 A 
ATOM     31  C   LIG d   1       4.508  -0.915  -5.081  0.00  0.00     0.163 A 
ATOM     32  H   LIG d   1       5.600  -0.829  -6.920  0.00  0.00     0.066 H 
ATOM     33  C   LIG d   1       3.338  -0.561  -4.420  0.00  0.00     0.162 A 
ATOM     34  O   LIG d   1       5.478  -1.629  -4.445  0.00  0.00    -0.485 OA
ATOM     35  C   LIG d   1       2.355   0.160  -5.085  0.00  0.00    -0.016 A 
ATOM     36  O   LIG d   1       3.141  -0.910  -3.118  0.00  0.00    -0.485 OA
ATOM     37  C   LIG d   1       2.536   0.528  -6.402  0.00  0.00    -0.050 A 
ATOM     38  H   LIG d   1       1.447   0.434  -4.569  0.00  0.00     0.066 H 
ATOM     39  H   LIG d   1       1.768   1.089  -6.916  0.00  0.00     0.062 H 
ATOM     40  C   LIG d   1       3.974  -1.950  -2.598  0.00  0.00     0.124 C 
ATOM     41  C   LIG d   1       5.422  -1.660  -3.015  0.00  0.00     0.124 C 
ATOM     42  H   LIG d   1       3.660  -2.912  -3.004  0.00  0.00     0.073 H 
ATOM     43  H   LIG d   1       3.902  -1.970  -1.510  0.00  0.00     0.073 H 
ATOM     44  H   LIG d   1       6.078  -2.445  -2.638  0.00  0.00     0.073 H 
ATOM     45  H   LIG d   1       5.734  -0.696  -2.613  0.00  0.00     0.073 H 
ENDBRANCH   2  29
TORSDOF 6
ENDMDL
MODEL 10
REMARK VINA RESULT:      -5.5      2.436      3.967
REMARK  6 active torsions:
REMARK  status: ('A' for Active; 'I' for Inactive)
REMARK    1  A    between atoms: C_1  and  C_2 
REMARK    2  A    between atoms: C_2  and  C_3 
REMARK    3  A    between atoms: C_5  and  C_12 
REMARK    4  A    between atoms: C_8  and  O_9 
REMARK    5  A    between atoms: O_9  and  C_10 
REMARK    6  A    between atoms: C_13  and  C_18 
ROOT
ATOM      1  C   LIG d   1       5.373  -0.247  -3.420  0.00  0.00     0.073 A 
ATOM      2  C   LIG d   1       4.183  -0.202  -4.135  0.00  0.00     0.027 A 
ATOM      3  C   LIG d   1       3.213   0.368  -3.292  0.00  0.00     0.058 A 
ATOM      4  N   LIG d   1       3.770   0.651  -2.146  0.00  0.00    -0.181 NA
ATOM      5  H   LIG d   1       5.760   0.372  -1.466  0.00  0.00     0.189 HD
ATOM      6  N   LIG d   1       5.118   0.275  -2.188  0.00  0.00    -0.276 N 
ATOM      7  H   LIG d   1       2.178   0.544  -3.551  0.00  0.00     0.085 H 
ENDROOT
BRANCH   1   8
ATOM      8  C   LIG d   1       6.668  -0.768  -3.903  0.00  0.00    -0.007 A 
ATOM      9  C   LIG d   1       7.043  -2.083  -3.624  0.00  0.00    -0.046 A 
ATOM     10  C   LIG d   1       8.252  -2.565  -4.078  0.00  0.00    -0.005 A 
ATOM     11  H   LIG d   1       6.385  -2.722  -3.053  0.00  0.00     0.063 H 
ATOM     12  C   LIG d   1       9.103  -1.745  -4.808  0.00  0.00     0.123 A 
ATOM     13  C   LIG d   1       8.736  -0.438  -5.095  0.00  0.00    -0.027 A 
ATOM     14  C   LIG d   1       7.524   0.057  -4.645  0.00  0.00    -0.096 A 
ATOM     15  H   LIG d   1       9.398   0.195  -5.668  0.00  0.00     0.065 H 
ATOM     16  O   LIG d   1       7.167   1.338  -4.921  0.00  0.00    -0.873 OA
BRANCH  10  17
ATOM     17  C   LIG d   1       8.655  -3.986  -3.775  0.00  0.00    -0.027 C 
ATOM     18  H   LIG d   1       9.292  -4.361  -4.577  0.00  0.00     0.031 H 
ATOM     19  H   LIG d   1       7.763  -4.607  -3.696  0.00  0.00     0.031 H 
BRANCH  17  20
ATOM     20  C   LIG d   1       9.423  -4.026  -2.453  0.00  0.00    -0.061 C 
ATOM     21  H   LIG d   1       8.760  -3.738  -1.637  0.00  0.00     0.023 H 
ATOM     22  H   LIG d   1       9.795  -5.036  -2.280  0.00  0.00     0.023 H 
ATOM     23  H   LIG d   1      10.264  -3.332  -2.500  0.00  0.00     0.023 H 
ENDBRANCH  17  20
ENDBRANCH  10  17
BRANCH  12  24
ATOM     24  O   LIG d   1      10.295  -2.226  -5.246  0.00  0.00    -0.495 OA
BRANCH  24  25
ATOM     25  C   LIG d   1      11.379  -1.297  -5.326  0.00  0.00     0.079 C 
ATOM     26  H   LIG d   1      11.922  -1.290  -4.381  0.00  0.00     0.066 H 
ATOM     27  H   LIG d   1      12.052  -1.594  -6.131  0.00  0.00     0.066 H 
ATOM     28  H   LIG d   1      10.988  -0.299  -5.529  0.00  0.00     0.066 H 
ENDBRANCH  24  25
ENDBRANCH  12  24
ENDBRANCH   1   8
BRANCH   2  29
ATOM     29  C   LIG d   1       3.975  -0.668  -5.527  0.00  0.00    -0.011 A 
ATOM     30  C   LIG d   1       3.254   0.116  -6.425  0.00  0.00    -0.009 A 
ATOM     31  C   LIG d   1       3.066  -0.318  -7.726  0.00  0.00     0.163 A 
ATOM     32  H   LIG d   1       2.845   1.064  -6.107  0.00  0.00     0.066 H 
ATOM     33  C   LIG d   1       3.590  -1.541  -8.132  0.00  0.00     0.162 A 
ATOM     34  O   LIG d   1       2.358   0.458  -8.592  0.00  0.00    -0.485 OA
ATOM     35  C   LIG d   1       4.303  -2.324  -7.235  0.00  0.00    -0.016 A 
ATOM     36  O   LIG d   1       3.415  -1.983  -9.409  0.00  0.00    -0.485 OA
ATOM     37  C   LIG d   1       4.496  -1.893  -5.939  0.00  0.00    -0.050 A 
ATOM     38  H   LIG d   1       4.708  -3.273  -7.553  0.00  0.00     0.066 H 
ATOM     39  H   LIG d   1       5.052  -2.506  -5.243  0.00  0.00     0.062 H 
ATOM     40  C   LIG d   1       2.380  -1.354 -10.171  0.00  0.00     0.124 C 
ATOM     41  C   LIG d   1       2.501   0.164  -9.986  0.00  0.00     0.124 C 
ATOM     42  H   LIG d   1       1.405  -1.691  -9.818  0.00  0.00     0.073 H 
ATOM     43  H   LIG d   1       2.495  -1.606 -11.226  0.00  0.00     0.073 H 
ATOM     44  H   LIG d   1       1.716   0.668 -10.551  0.00  0.00     0.073 H 
ATOM     45  H   LIG d   1       3.478   0.500 -10.334  0.00  0.00     0.073 H 
ENDBRANCH   2  29
TORSDOF 6
ENDMDL
