MODEL 1
REMARK VINA RESULT:      -5.9      0.000      0.000
REMARK  18 active torsions:
REMARK  status: ('A' for Active; 'I' for Inactive)
REMARK    1  A    between atoms: C_1  and  C_2 
REMARK    2  A    between atoms: C_2  and  C_4 
REMARK    3  A    between atoms: C_2  and  N_6 
REMARK       I    between atoms: N_6  and  C_7 
REMARK    4  A    between atoms: C_7  and  C_9 
REMARK    5  A    between atoms: C_9  and  C_11 
REMARK    6  A    between atoms: C_9  and  N_16 
REMARK    7  A    between atoms: C_11  and  C_12 
REMARK    8  A    between atoms: C_12  and  C_13 
REMARK       I    between atoms: C_13  and  N_15 
REMARK       I    between atoms: N_16  and  C_17 
REMARK    9  A    between atoms: C_17  and  C_19 
REMARK   10  A    between atoms: C_19  and  C_21 
REMARK   11  A    between atoms: C_19  and  N_29 
REMARK   12  A    between atoms: C_26  and  N_28 
REMARK       I    between atoms: N_29  and  C_30 
REMARK       I    between atoms: C_30  and  N_32 
REMARK   13  A    between atoms: N_32  and  C_33 
REMARK   14  A    between atoms: C_33  and  C_35 
REMARK   15  A    between atoms: C_33  and  C_39 
REMARK   16  A    between atoms: C_35  and  C_36 
REMARK   17  A    between atoms: C_36  and  C_37 
REMARK   18  A    between atoms: C_36  and  C_38 
ROOT
ATOM      1  C   UNK d   1       6.533  -0.965  -4.422  0.00  0.00     0.134 C 
ATOM      2  H   UNK d   1       6.281  -1.701  -5.187  0.00  0.00     0.063 H 
ENDROOT
BRANCH   1   3
ATOM      3  C   UNK d   1       7.081   0.275  -5.081  0.00  0.00     0.237 C 
ATOM      4  N   UNK d   1       7.404   0.257  -6.389  0.00  0.00    -0.302 N 
ATOM      5  H   UNK d   1       7.336  -0.569  -6.894  0.00  0.00     0.149 HD
ATOM      6  O   UNK d   1       7.230   1.289  -4.433  0.00  0.00    -0.274 OA
BRANCH   4   7
ATOM      7  C   UNK d   1       7.859   1.483  -7.048  0.00  0.00     0.100 C 
ATOM      8  H   UNK d   1       7.762   2.322  -6.360  0.00  0.00     0.059 H 
BRANCH   7   9
ATOM      9  C   UNK d   1       7.020   1.736  -8.273  0.00  0.00     0.234 C 
ATOM     10  N   UNK d   1       5.705   1.440  -8.263  0.00  0.00    -0.305 N 
ATOM     11  H   UNK d   1       5.299   1.063  -7.466  0.00  0.00     0.149 HD
ATOM     12  O   UNK d   1       7.527   2.206  -9.270  0.00  0.00    -0.274 OA
BRANCH  10  13
ATOM     13  C   UNK d   1       4.888   1.686  -9.454  0.00  0.00     0.076 C 
ATOM     14  H   UNK d   1       5.453   2.291 -10.162  0.00  0.00     0.057 H 
BRANCH  13  15
ATOM     15  C   UNK d   1       4.520   0.351 -10.104  0.00  0.00    -0.040 C 
ATOM     16  H   UNK d   1       3.814   0.524 -10.916  0.00  0.00     0.025 H 
ATOM     17  H   UNK d   1       5.420  -0.123 -10.499  0.00  0.00     0.025 H 
ATOM     18  H   UNK d   1       4.064  -0.302  -9.359  0.00  0.00     0.025 H 
ENDBRANCH  13  15
BRANCH  13  19
ATOM     19  C   UNK d   1       3.631   2.415  -9.058  0.00  0.00     0.140 C 
ATOM     20  O   UNK d   1       3.081   2.150  -8.017  0.00  0.00    -0.299 OA
ATOM     21  H   UNK d   1       3.222   3.177  -9.705  0.00  0.00     0.105 H 
ENDBRANCH  13  19
ENDBRANCH  10  13
ENDBRANCH   7   9
BRANCH   7  22
ATOM     22  C   UNK d   1       9.325   1.328  -7.458  0.00  0.00    -0.018 C 
ATOM     23  H   UNK d   1       9.591   0.270  -7.464  0.00  0.00     0.029 H 
ATOM     24  H   UNK d   1       9.469   1.745  -8.455  0.00  0.00     0.029 H 
BRANCH  22  25
ATOM     25  C   UNK d   1      10.215   2.072  -6.460  0.00  0.00     0.026 C 
ATOM     26  H   UNK d   1      11.063   2.511  -6.987  0.00  0.00     0.036 H 
ATOM     27  H   UNK d   1       9.638   2.861  -5.978  0.00  0.00     0.036 H 
BRANCH  25  28
ATOM     28  C   UNK d   1      10.716   1.107  -5.417  0.00  0.00     0.211 C 
ATOM     29  O   UNK d   1      11.430   0.181  -5.739  0.00  0.00    -0.276 OA
ATOM     30  N   UNK d   1      10.372   1.273  -4.125  0.00  0.00    -0.329 N 
ATOM     31  H   UNK d   1       9.801   2.014  -3.866  0.00  0.00     0.145 HD
ATOM     32  H   UNK d   1      10.694   0.653  -3.452  0.00  0.00     0.145 HD
ENDBRANCH  25  28
ENDBRANCH  22  25
ENDBRANCH   7  22
ENDBRANCH   4   7
ENDBRANCH   1   3
BRANCH   1  33
ATOM     33  C   UNK d   1       5.277  -0.607  -3.625  0.00  0.00     0.105 C 
ATOM     34  H   UNK d   1       5.570  -0.140  -2.684  0.00  0.00     0.072 H 
ATOM     35  N   UNK d   1       4.469   0.330  -4.396  0.00  0.00    -0.277 N 
ATOM     36  C   UNK d   1       3.178   0.295  -4.445  0.00  0.00     0.327 C 
ATOM     37  H   UNK d   1       4.926   1.020  -4.902  0.00  0.00     0.258 HD
ATOM     38  N   UNK d   1       2.443  -0.658  -3.779  0.00  0.00    -0.241 N 
ATOM     39  C   UNK d   1       3.115  -1.484  -2.764  0.00  0.00     0.061 C 
ATOM     40  H   UNK d   1       1.502  -0.782  -3.974  0.00  0.00     0.244 HD
ATOM     41  C   UNK d   1       4.486  -1.883  -3.330  0.00  0.00     0.012 C 
ATOM     42  H   UNK d   1       2.523  -2.377  -2.563  0.00  0.00     0.063 H 
ATOM     43  H   UNK d   1       3.244  -0.912  -1.846  0.00  0.00     0.063 H 
ATOM     44  H   UNK d   1       4.351  -2.452  -4.250  0.00  0.00     0.033 H 
ATOM     45  H   UNK d   1       5.023  -2.487  -2.598  0.00  0.00     0.033 H 
BRANCH  36  46
ATOM     46  N   UNK d   1       2.516   1.242  -5.190  0.00  0.00    -0.254 N 
ATOM     47  H   UNK d   1       1.984   0.972  -5.955  0.00  0.00     0.241 HD
ATOM     48  H   UNK d   1       2.579   2.180  -4.950  0.00  0.00     0.241 HD
ENDBRANCH  36  46
ENDBRANCH   1  33
BRANCH   1  49
ATOM     49  N   UNK d   1       7.542  -1.526  -3.520  0.00  0.00    -0.285 N 
ATOM     50  C   UNK d   0       8.058  -2.747  -3.761  0.00  0.00     0.301 C 
ATOM     51  O   UNK d   0       7.689  -3.383  -4.728  0.00  0.00    -0.253 OA
ATOM     52  N   UNK d   1       8.986  -3.262  -2.930  0.00  0.00    -0.291 N 
ATOM     53  H   UNK d   1       9.281  -2.754  -2.158  0.00  0.00     0.151 HD
ATOM     54  H   UNK d   1       7.836  -1.018  -2.748  0.00  0.00     0.151 HD
BRANCH  52  55
ATOM     55  C   UNK d   1       9.548  -4.589  -3.192  0.00  0.00     0.064 C 
ATOM     56  H   UNK d   1       8.871  -5.149  -3.836  0.00  0.00     0.056 H 
BRANCH  55  57
ATOM     57  C   UNK d   1       9.729  -5.337  -1.870  0.00  0.00    -0.027 C 
ATOM     58  H   UNK d   1      10.455  -4.810  -1.251  0.00  0.00     0.029 H 
ATOM     59  H   UNK d   1       8.774  -5.386  -1.348  0.00  0.00     0.029 H 
BRANCH  57  60
ATOM     60  C   UNK d   1      10.231  -6.755  -2.150  0.00  0.00    -0.045 C 
ATOM     61  H   UNK d   1      11.031  -6.718  -2.889  0.00  0.00     0.030 H 
BRANCH  60  62
ATOM     62  C   UNK d   1      10.759  -7.374  -0.856  0.00  0.00    -0.063 C 
ATOM     63  H   UNK d   1       9.928  -7.559  -0.176  0.00  0.00     0.023 H 
ATOM     64  H   UNK d   1      11.261  -8.315  -1.081  0.00  0.00     0.023 H 
ATOM     65  H   UNK d   1      11.466  -6.689  -0.387  0.00  0.00     0.023 H 
ENDBRANCH  60  62
BRANCH  60  66
ATOM     66  C   UNK d   1       9.079  -7.606  -2.690  0.00  0.00    -0.063 C 
ATOM     67  H   UNK d   1       9.481  -8.469  -3.221  0.00  0.00     0.023 H 
ATOM     68  H   UNK d   1       8.459  -7.946  -1.861  0.00  0.00     0.023 H 
ATOM     69  H   UNK d   1       8.476  -7.008  -3.374  0.00  0.00     0.023 H 
ENDBRANCH  60  66
ENDBRANCH  57  60
ENDBRANCH  55  57
BRANCH  55  70
ATOM     70  C   UNK d   1      10.884  -4.443  -3.874  0.00  0.00     0.062 C 
ATOM     71  O   UNK d   1      11.053  -4.907  -4.989  0.00  0.00    -0.548 OA
ATOM     72  O   UNK d   1      11.795  -3.860  -3.313  0.00  0.00    -0.548 OA
ENDBRANCH  55  70
ENDBRANCH  52  55
ENDBRANCH   1  49
TORSDOF 18
ENDMDL
MODEL 2
REMARK VINA RESULT:      -5.8      3.088      7.233
REMARK  18 active torsions:
REMARK  status: ('A' for Active; 'I' for Inactive)
REMARK    1  A    between atoms: C_1  and  C_2 
REMARK    2  A    between atoms: C_2  and  C_4 
REMARK    3  A    between atoms: C_2  and  N_6 
REMARK       I    between atoms: N_6  and  C_7 
REMARK    4  A    between atoms: C_7  and  C_9 
REMARK    5  A    between atoms: C_9  and  C_11 
REMARK    6  A    between atoms: C_9  and  N_16 
REMARK    7  A    between atoms: C_11  and  C_12 
REMARK    8  A    between atoms: C_12  and  C_13 
REMARK       I    between atoms: C_13  and  N_15 
REMARK       I    between atoms: N_16  and  C_17 
REMARK    9  A    between atoms: C_17  and  C_19 
REMARK   10  A    between atoms: C_19  and  C_21 
REMARK   11  A    between atoms: C_19  and  N_29 
REMARK   12  A    between atoms: C_26  and  N_28 
REMARK       I    between atoms: N_29  and  C_30 
REMARK       I    between atoms: C_30  and  N_32 
REMARK   13  A    between atoms: N_32  and  C_33 
REMARK   14  A    between atoms: C_33  and  C_35 
REMARK   15  A    between atoms: C_33  and  C_39 
REMARK   16  A    between atoms: C_35  and  C_36 
REMARK   17  A    between atoms: C_36  and  C_37 
REMARK   18  A    between atoms: C_36  and  C_38 
ROOT
ATOM      1  C   UNK d   1       8.930   1.461  -4.888  0.00  0.00     0.134 C 
ATOM      2  H   UNK d   1       8.388   1.453  -5.834  0.00  0.00     0.063 H 
ENDROOT
BRANCH   1   3
ATOM      3  C   UNK d   1      10.368   1.083  -5.130  0.00  0.00     0.237 C 
ATOM      4  N   UNK d   1      11.061   0.426  -4.179  0.00  0.00    -0.302 N 
ATOM      5  H   UNK d   1      10.653   0.246  -3.318  0.00  0.00     0.149 HD
ATOM      6  O   UNK d   1      10.901   1.368  -6.181  0.00  0.00    -0.274 OA
BRANCH   4   7
ATOM      7  C   UNK d   1      12.433  -0.014  -4.445  0.00  0.00     0.100 C 
ATOM      8  H   UNK d   1      12.655   0.110  -5.505  0.00  0.00     0.059 H 
BRANCH   7   9
ATOM      9  C   UNK d   1      12.578  -1.465  -4.066  0.00  0.00     0.234 C 
ATOM     10  N   UNK d   1      11.494  -2.266  -4.039  0.00  0.00    -0.305 N 
ATOM     11  H   UNK d   1      10.620  -1.907  -4.262  0.00  0.00     0.149 HD
ATOM     12  O   UNK d   1      13.670  -1.913  -3.786  0.00  0.00    -0.274 OA
BRANCH  10  13
ATOM     13  C   UNK d   1      11.634  -3.676  -3.670  0.00  0.00     0.076 C 
ATOM     14  H   UNK d   1      12.566  -3.817  -3.122  0.00  0.00     0.057 H 
BRANCH  13  15
ATOM     15  C   UNK d   1      10.456  -4.092  -2.788  0.00  0.00    -0.040 C 
ATOM     16  H   UNK d   1       9.549  -4.139  -3.391  0.00  0.00     0.025 H 
ATOM     17  H   UNK d   1      10.654  -5.073  -2.354  0.00  0.00     0.025 H 
ATOM     18  H   UNK d   1      10.324  -3.362  -1.989  0.00  0.00     0.025 H 
ENDBRANCH  13  15
BRANCH  13  19
ATOM     19  C   UNK d   1      11.651  -4.521  -4.917  0.00  0.00     0.140 C 
ATOM     20  O   UNK d   1      10.613  -4.826  -5.454  0.00  0.00    -0.299 OA
ATOM     21  H   UNK d   1      12.591  -4.853  -5.332  0.00  0.00     0.105 H 
ENDBRANCH  13  19
ENDBRANCH  10  13
ENDBRANCH   7   9
BRANCH   7  22
ATOM     22  C   UNK d   1      13.408   0.828  -3.620  0.00  0.00    -0.018 C 
ATOM     23  H   UNK d   1      12.850   1.427  -2.898  0.00  0.00     0.029 H 
ATOM     24  H   UNK d   1      14.097   0.170  -3.090  0.00  0.00     0.029 H 
BRANCH  22  25
ATOM     25  C   UNK d   1      14.197   1.753  -4.549  0.00  0.00     0.026 C 
ATOM     26  H   UNK d   1      15.224   1.834  -4.193  0.00  0.00     0.036 H 
ATOM     27  H   UNK d   1      14.193   1.342  -5.558  0.00  0.00     0.036 H 
BRANCH  25  28
ATOM     28  C   UNK d   1      13.560   3.118  -4.560  0.00  0.00     0.211 C 
ATOM     29  O   UNK d   1      13.585   3.808  -3.562  0.00  0.00    -0.276 OA
ATOM     30  N   UNK d   1      12.961   3.573  -5.678  0.00  0.00    -0.329 N 
ATOM     31  H   UNK d   1      12.941   3.022  -6.476  0.00  0.00     0.145 HD
ATOM     32  H   UNK d   1      12.550   4.453  -5.686  0.00  0.00     0.145 HD
ENDBRANCH  25  28
ENDBRANCH  22  25
ENDBRANCH   7  22
ENDBRANCH   4   7
ENDBRANCH   1   3
BRANCH   1  33
ATOM     33  C   UNK d   1       8.866   2.862  -4.276  0.00  0.00     0.105 C 
ATOM     34  H   UNK d   1       7.834   3.092  -4.010  0.00  0.00     0.072 H 
ATOM     35  N   UNK d   1       9.692   2.900  -3.074  0.00  0.00    -0.277 N 
ATOM     36  C   UNK d   1      10.428   3.908  -2.739  0.00  0.00     0.327 C 
ATOM     37  H   UNK d   1       9.688   2.124  -2.492  0.00  0.00     0.258 HD
ATOM     38  N   UNK d   1      10.515   5.042  -3.511  0.00  0.00    -0.241 N 
ATOM     39  C   UNK d   1       9.539   5.236  -4.594  0.00  0.00     0.061 C 
ATOM     40  H   UNK d   1      11.206   5.702  -3.344  0.00  0.00     0.244 HD
ATOM     41  C   UNK d   1       9.363   3.884  -5.301  0.00  0.00     0.012 C 
ATOM     42  H   UNK d   1       9.911   5.978  -5.300  0.00  0.00     0.063 H 
ATOM     43  H   UNK d   1       8.586   5.565  -4.180  0.00  0.00     0.063 H 
ATOM     44  H   UNK d   1      10.320   3.557  -5.710  0.00  0.00     0.033 H 
ATOM     45  H   UNK d   1       8.632   3.982  -6.104  0.00  0.00     0.033 H 
BRANCH  36  46
ATOM     46  N   UNK d   1      11.152   3.842  -1.572  0.00  0.00    -0.254 N 
ATOM     47  H   UNK d   1      11.219   4.622  -0.999  0.00  0.00     0.241 HD
ATOM     48  H   UNK d   1      11.595   3.016  -1.322  0.00  0.00     0.241 HD
ENDBRANCH  36  46
ENDBRANCH   1  33
BRANCH   1  49
ATOM     49  N   UNK d   1       8.319   0.498  -3.968  0.00  0.00    -0.285 N 
ATOM     50  C   UNK d   0       7.064   0.059  -4.187  0.00  0.00     0.301 C 
ATOM     51  O   UNK d   0       6.439   0.460  -5.149  0.00  0.00    -0.253 OA
ATOM     52  N   UNK d   1       6.503  -0.827  -3.340  0.00  0.00    -0.291 N 
ATOM     53  H   UNK d   1       7.002  -1.148  -2.573  0.00  0.00     0.151 HD
ATOM     54  H   UNK d   1       8.818   0.179  -3.200  0.00  0.00     0.151 HD
BRANCH  52  55
ATOM     55  C   UNK d   1       5.139  -1.306  -3.579  0.00  0.00     0.064 C 
ATOM     56  H   UNK d   1       4.686  -0.726  -4.383  0.00  0.00     0.056 H 
BRANCH  55  57
ATOM     57  C   UNK d   1       4.310  -1.142  -2.304  0.00  0.00    -0.027 C 
ATOM     58  H   UNK d   1       3.803  -2.080  -2.077  0.00  0.00     0.029 H 
ATOM     59  H   UNK d   1       4.967  -0.875  -1.476  0.00  0.00     0.029 H 
BRANCH  57  60
ATOM     60  C   UNK d   1       3.272  -0.037  -2.508  0.00  0.00    -0.045 C 
ATOM     61  H   UNK d   1       2.427  -0.204  -1.840  0.00  0.00     0.030 H 
BRANCH  60  62
ATOM     62  C   UNK d   1       3.905   1.320  -2.201  0.00  0.00    -0.063 C 
ATOM     63  H   UNK d   1       3.261   1.877  -1.521  0.00  0.00     0.023 H 
ATOM     64  H   UNK d   1       4.880   1.170  -1.737  0.00  0.00     0.023 H 
ATOM     65  H   UNK d   1       4.027   1.883  -3.127  0.00  0.00     0.023 H 
ENDBRANCH  60  62
BRANCH  60  66
ATOM     66  C   UNK d   1       2.785  -0.057  -3.959  0.00  0.00    -0.063 C 
ATOM     67  H   UNK d   1       2.349   0.910  -4.210  0.00  0.00     0.023 H 
ATOM     68  H   UNK d   1       3.626  -0.260  -4.622  0.00  0.00     0.023 H 
ATOM     69  H   UNK d   1       2.032  -0.836  -4.078  0.00  0.00     0.023 H 
ENDBRANCH  60  66
ENDBRANCH  57  60
ENDBRANCH  55  57
BRANCH  55  70
ATOM     70  C   UNK d   1       5.178  -2.760  -3.970  0.00  0.00     0.062 C 
ATOM     71  O   UNK d   1       4.181  -3.451  -3.847  0.00  0.00    -0.548 OA
ATOM     72  O   UNK d   1       6.206  -3.247  -4.410  0.00  0.00    -0.548 OA
ENDBRANCH  55  70
ENDBRANCH  52  55
ENDBRANCH   1  49
TORSDOF 18
ENDMDL
MODEL 3
REMARK VINA RESULT:      -5.8      3.866      6.726
REMARK  18 active torsions:
REMARK  status: ('A' for Active; 'I' for Inactive)
REMARK    1  A    between atoms: C_1  and  C_2 
REMARK    2  A    between atoms: C_2  and  C_4 
REMARK    3  A    between atoms: C_2  and  N_6 
REMARK       I    between atoms: N_6  and  C_7 
REMARK    4  A    between atoms: C_7  and  C_9 
REMARK    5  A    between atoms: C_9  and  C_11 
REMARK    6  A    between atoms: C_9  and  N_16 
REMARK    7  A    between atoms: C_11  and  C_12 
REMARK    8  A    between atoms: C_12  and  C_13 
REMARK       I    between atoms: C_13  and  N_15 
REMARK       I    between atoms: N_16  and  C_17 
REMARK    9  A    between atoms: C_17  and  C_19 
REMARK   10  A    between atoms: C_19  and  C_21 
REMARK   11  A    between atoms: C_19  and  N_29 
REMARK   12  A    between atoms: C_26  and  N_28 
REMARK       I    between atoms: N_29  and  C_30 
REMARK       I    between atoms: C_30  and  N_32 
REMARK   13  A    between atoms: N_32  and  C_33 
REMARK   14  A    between atoms: C_33  and  C_35 
REMARK   15  A    between atoms: C_33  and  C_39 
REMARK   16  A    between atoms: C_35  and  C_36 
REMARK   17  A    between atoms: C_36  and  C_37 
REMARK   18  A    between atoms: C_36  and  C_38 
ROOT
ATOM      1  C   UNK d   1       9.403   3.852  -4.451  0.00  0.00     0.134 C 
ATOM      2  H   UNK d   1       8.407   4.297  -4.465  0.00  0.00     0.063 H 
ENDROOT
BRANCH   1   3
ATOM      3  C   UNK d   1       9.969   3.848  -5.847  0.00  0.00     0.237 C 
ATOM      4  N   UNK d   1       9.160   3.626  -6.902  0.00  0.00    -0.302 N 
ATOM      5  H   UNK d   1       8.224   3.415  -6.760  0.00  0.00     0.149 HD
ATOM      6  O   UNK d   1      11.153   4.044  -6.022  0.00  0.00    -0.274 OA
BRANCH   4   7
ATOM      7  C   UNK d   1       9.694   3.703  -8.264  0.00  0.00     0.100 C 
ATOM      8  H   UNK d   1      10.783   3.689  -8.228  0.00  0.00     0.059 H 
BRANCH   7   9
ATOM      9  C   UNK d   1       9.228   4.979  -8.916  0.00  0.00     0.234 C 
ATOM     10  N   UNK d   1       9.817   6.150  -8.603  0.00  0.00    -0.305 N 
ATOM     11  H   UNK d   1      10.541   6.171  -7.957  0.00  0.00     0.149 HD
ATOM     12  O   UNK d   1       8.322   4.952  -9.722  0.00  0.00    -0.274 OA
BRANCH  10  13
ATOM     13  C   UNK d   1       9.363   7.390  -9.236  0.00  0.00     0.076 C 
ATOM     14  H   UNK d   1       8.522   7.175  -9.894  0.00  0.00     0.057 H 
BRANCH  13  15
ATOM     15  C   UNK d   1       8.927   8.383  -8.158  0.00  0.00    -0.040 C 
ATOM     16  H   UNK d   1       9.181   9.396  -8.471  0.00  0.00     0.025 H 
ATOM     17  H   UNK d   1       7.849   8.309  -8.009  0.00  0.00     0.025 H 
ATOM     18  H   UNK d   1       9.439   8.153  -7.223  0.00  0.00     0.025 H 
ENDBRANCH  13  15
BRANCH  13  19
ATOM     19  C   UNK d   1      10.491   7.985 -10.039  0.00  0.00     0.140 C 
ATOM     20  O   UNK d   1      10.468   9.155 -10.338  0.00  0.00    -0.299 OA
ATOM     21  H   UNK d   1      11.320   7.366 -10.347  0.00  0.00     0.105 H 
ENDBRANCH  13  19
ENDBRANCH  10  13
ENDBRANCH   7   9
BRANCH   7  22
ATOM     22  C   UNK d   1       9.197   2.505  -9.075  0.00  0.00    -0.018 C 
ATOM     23  H   UNK d   1       8.496   2.847  -9.838  0.00  0.00     0.029 H 
ATOM     24  H   UNK d   1      10.044   2.013  -9.554  0.00  0.00     0.029 H 
BRANCH  22  25
ATOM     25  C   UNK d   1       8.493   1.515  -8.143  0.00  0.00     0.026 C 
ATOM     26  H   UNK d   1       8.850   0.506  -8.349  0.00  0.00     0.036 H 
ATOM     27  H   UNK d   1       8.711   1.774  -7.107  0.00  0.00     0.036 H 
BRANCH  25  28
ATOM     28  C   UNK d   1       7.005   1.578  -8.374  0.00  0.00     0.211 C 
ATOM     29  O   UNK d   1       6.563   2.195  -9.321  0.00  0.00    -0.276 OA
ATOM     30  N   UNK d   1       6.165   0.951  -7.528  0.00  0.00    -0.329 N 
ATOM     31  H   UNK d   1       6.518   0.458  -6.771  0.00  0.00     0.145 HD
ATOM     32  H   UNK d   1       5.207   0.991  -7.676  0.00  0.00     0.145 HD
ENDBRANCH  25  28
ENDBRANCH  22  25
ENDBRANCH   7  22
ENDBRANCH   4   7
ENDBRANCH   1   3
BRANCH   1  33
ATOM     33  C   UNK d   1      10.314   4.670  -3.533  0.00  0.00     0.105 C 
ATOM     34  H   UNK d   1      11.211   4.959  -4.082  0.00  0.00     0.072 H 
ATOM     35  N   UNK d   1       9.608   5.870  -3.100  0.00  0.00    -0.277 N 
ATOM     36  C   UNK d   1       9.690   6.361  -1.907  0.00  0.00     0.327 C 
ATOM     37  H   UNK d   1       9.045   6.327  -3.743  0.00  0.00     0.258 HD
ATOM     38  N   UNK d   1      10.446   5.772  -0.921  0.00  0.00    -0.241 N 
ATOM     39  C   UNK d   1      11.405   4.722  -1.299  0.00  0.00     0.061 C 
ATOM     40  H   UNK d   1      10.348   6.042   0.005  0.00  0.00     0.244 HD
ATOM     41  C   UNK d   1      10.714   3.816  -2.328  0.00  0.00     0.012 C 
ATOM     42  H   UNK d   1      11.682   4.141  -0.419  0.00  0.00     0.063 H 
ATOM     43  H   UNK d   1      12.293   5.174  -1.739  0.00  0.00     0.063 H 
ATOM     44  H   UNK d   1       9.823   3.370  -1.883  0.00  0.00     0.033 H 
ATOM     45  H   UNK d   1      11.400   3.031  -2.646  0.00  0.00     0.033 H 
BRANCH  36  46
ATOM     46  N   UNK d   1       8.995   7.510  -1.613  0.00  0.00    -0.254 N 
ATOM     47  H   UNK d   1       9.020   7.875  -0.714  0.00  0.00     0.241 HD
ATOM     48  H   UNK d   1       8.481   7.956  -2.304  0.00  0.00     0.241 HD
ENDBRANCH  36  46
ENDBRANCH   1  33
BRANCH   1  49
ATOM     49  N   UNK d   1       9.316   2.477  -3.954  0.00  0.00    -0.285 N 
ATOM     50  C   UNK d   0       8.248   1.714  -4.263  0.00  0.00     0.301 C 
ATOM     51  O   UNK d   0       7.358   2.167  -4.956  0.00  0.00    -0.253 OA
ATOM     52  N   UNK d   1       8.169   0.449  -3.806  0.00  0.00    -0.291 N 
ATOM     53  H   UNK d   1       8.880   0.087  -3.253  0.00  0.00     0.151 HD
ATOM     54  H   UNK d   1      10.026   2.116  -3.401  0.00  0.00     0.151 HD
BRANCH  52  55
ATOM     55  C   UNK d   1       7.010  -0.380  -4.143  0.00  0.00     0.064 C 
ATOM     56  H   UNK d   1       6.252   0.235  -4.628  0.00  0.00     0.056 H 
BRANCH  55  57
ATOM     57  C   UNK d   1       6.429  -0.989  -2.865  0.00  0.00    -0.027 C 
ATOM     58  H   UNK d   1       6.539  -2.072  -2.896  0.00  0.00     0.029 H 
ATOM     59  H   UNK d   1       6.962  -0.594  -2.000  0.00  0.00     0.029 H 
BRANCH  57  60
ATOM     60  C   UNK d   1       4.945  -0.629  -2.757  0.00  0.00    -0.045 C 
ATOM     61  H   UNK d   1       4.554  -0.403  -3.748  0.00  0.00     0.030 H 
BRANCH  60  62
ATOM     62  C   UNK d   1       4.177  -1.808  -2.161  0.00  0.00    -0.063 C 
ATOM     63  H   UNK d   1       4.512  -1.982  -1.139  0.00  0.00     0.023 H 
ATOM     64  H   UNK d   1       3.110  -1.584  -2.160  0.00  0.00     0.023 H 
ATOM     65  H   UNK d   1       4.360  -2.701  -2.759  0.00  0.00     0.023 H 
ENDBRANCH  60  62
BRANCH  60  66
ATOM     66  C   UNK d   1       4.783   0.596  -1.853  0.00  0.00    -0.063 C 
ATOM     67  H   UNK d   1       5.000   1.500  -2.422  0.00  0.00     0.023 H 
ATOM     68  H   UNK d   1       3.760   0.639  -1.481  0.00  0.00     0.023 H 
ATOM     69  H   UNK d   1       5.472   0.521  -1.013  0.00  0.00     0.023 H 
ENDBRANCH  60  66
ENDBRANCH  57  60
ENDBRANCH  55  57
BRANCH  55  70
ATOM     70  C   UNK d   1       7.435  -1.484  -5.076  0.00  0.00     0.062 C 
ATOM     71  O   UNK d   1       8.454  -2.115  -4.850  0.00  0.00    -0.548 OA
ATOM     72  O   UNK d   1       6.761  -1.747  -6.058  0.00  0.00    -0.548 OA
ENDBRANCH  55  70
ENDBRANCH  52  55
ENDBRANCH   1  49
TORSDOF 18
ENDMDL
MODEL 4
REMARK VINA RESULT:      -5.7      4.365      6.140
REMARK  18 active torsions:
REMARK  status: ('A' for Active; 'I' for Inactive)
REMARK    1  A    between atoms: C_1  and  C_2 
REMARK    2  A    between atoms: C_2  and  C_4 
REMARK    3  A    between atoms: C_2  and  N_6 
REMARK       I    between atoms: N_6  and  C_7 
REMARK    4  A    between atoms: C_7  and  C_9 
REMARK    5  A    between atoms: C_9  and  C_11 
REMARK    6  A    between atoms: C_9  and  N_16 
REMARK    7  A    between atoms: C_11  and  C_12 
REMARK    8  A    between atoms: C_12  and  C_13 
REMARK       I    between atoms: C_13  and  N_15 
REMARK       I    between atoms: N_16  and  C_17 
REMARK    9  A    between atoms: C_17  and  C_19 
REMARK   10  A    between atoms: C_19  and  C_21 
REMARK   11  A    between atoms: C_19  and  N_29 
REMARK   12  A    between atoms: C_26  and  N_28 
REMARK       I    between atoms: N_29  and  C_30 
REMARK       I    between atoms: C_30  and  N_32 
REMARK   13  A    between atoms: N_32  and  C_33 
REMARK   14  A    between atoms: C_33  and  C_35 
REMARK   15  A    between atoms: C_33  and  C_39 
REMARK   16  A    between atoms: C_35  and  C_36 
REMARK   17  A    between atoms: C_36  and  C_37 
REMARK   18  A    between atoms: C_36  and  C_38 
ROOT
ATOM      1  C   UNK d   1       4.344  -3.105  -5.608  0.00  0.00     0.134 C 
ATOM      2  H   UNK d   1       3.280  -3.343  -5.566  0.00  0.00     0.063 H 
ENDROOT
BRANCH   1   3
ATOM      3  C   UNK d   1       4.688  -2.591  -6.982  0.00  0.00     0.237 C 
ATOM      4  N   UNK d   1       3.863  -2.833  -8.019  0.00  0.00    -0.302 N 
ATOM      5  H   UNK d   1       3.075  -3.386  -7.893  0.00  0.00     0.149 HD
ATOM      6  O   UNK d   1       5.707  -1.957  -7.154  0.00  0.00    -0.274 OA
BRANCH   4   7
ATOM      7  C   UNK d   1       4.155  -2.264  -9.337  0.00  0.00     0.100 C 
ATOM      8  H   UNK d   1       5.232  -2.147  -9.451  0.00  0.00     0.059 H 
BRANCH   7   9
ATOM      9  C   UNK d   1       3.485  -0.921  -9.464  0.00  0.00     0.234 C 
ATOM     10  N   UNK d   1       4.118   0.191  -9.038  0.00  0.00    -0.305 N 
ATOM     11  H   UNK d   1       5.004   0.125  -8.649  0.00  0.00     0.149 HD
ATOM     12  O   UNK d   1       2.376  -0.839  -9.950  0.00  0.00    -0.274 OA
BRANCH  10  13
ATOM     13  C   UNK d   1       3.466   1.497  -9.161  0.00  0.00     0.076 C 
ATOM     14  H   UNK d   1       2.781   1.483 -10.008  0.00  0.00     0.057 H 
BRANCH  13  15
ATOM     15  C   UNK d   1       2.688   1.801  -7.880  0.00  0.00    -0.040 C 
ATOM     16  H   UNK d   1       1.970   1.002  -7.691  0.00  0.00     0.025 H 
ATOM     17  H   UNK d   1       3.381   1.872  -7.041  0.00  0.00     0.025 H 
ATOM     18  H   UNK d   1       2.158   2.746  -7.992  0.00  0.00     0.025 H 
ENDBRANCH  13  15
BRANCH  13  19
ATOM     19  C   UNK d   1       4.512   2.560  -9.378  0.00  0.00     0.140 C 
ATOM     20  O   UNK d   1       5.680   2.257  -9.427  0.00  0.00    -0.299 OA
ATOM     21  H   UNK d   1       4.217   3.593  -9.490  0.00  0.00     0.105 H 
ENDBRANCH  13  19
ENDBRANCH  10  13
ENDBRANCH   7   9
BRANCH   7  22
ATOM     22  C   UNK d   1       3.628  -3.201 -10.425  0.00  0.00    -0.018 C 
ATOM     23  H   UNK d   1       3.047  -2.629 -11.149  0.00  0.00     0.029 H 
ATOM     24  H   UNK d   1       4.467  -3.680 -10.930  0.00  0.00     0.029 H 
BRANCH  22  25
ATOM     25  C   UNK d   1       2.738  -4.272  -9.789  0.00  0.00     0.026 C 
ATOM     26  H   UNK d   1       3.215  -5.247  -9.888  0.00  0.00     0.036 H 
ATOM     27  H   UNK d   1       2.592  -4.043  -8.734  0.00  0.00     0.036 H 
BRANCH  25  28
ATOM     28  C   UNK d   1       1.402  -4.294 -10.487  0.00  0.00     0.211 C 
ATOM     29  O   UNK d   1       1.136  -5.189 -11.262  0.00  0.00    -0.276 OA
ATOM     30  N   UNK d   1       0.501  -3.320 -10.249  0.00  0.00    -0.329 N 
ATOM     31  H   UNK d   1       0.713  -2.605  -9.629  0.00  0.00     0.145 HD
ATOM     32  H   UNK d   1      -0.359  -3.334 -10.698  0.00  0.00     0.145 HD
ENDBRANCH  25  28
ENDBRANCH  22  25
ENDBRANCH   7  22
ENDBRANCH   4   7
ENDBRANCH   1   3
BRANCH   1  33
ATOM     33  C   UNK d   1       4.668  -2.033  -4.566  0.00  0.00     0.105 C 
ATOM     34  H   UNK d   1       5.742  -1.844  -4.567  0.00  0.00     0.072 H 
ATOM     35  N   UNK d   1       3.964  -0.803  -4.905  0.00  0.00    -0.277 N 
ATOM     36  C   UNK d   1       3.418  -0.022  -4.031  0.00  0.00     0.327 C 
ATOM     37  H   UNK d   1       3.900  -0.555  -5.841  0.00  0.00     0.258 HD
ATOM     38  N   UNK d   1       3.437  -0.300  -2.685  0.00  0.00    -0.241 N 
ATOM     39  C   UNK d   1       4.336  -1.357  -2.195  0.00  0.00     0.061 C 
ATOM     40  H   UNK d   1       2.870   0.191  -2.071  0.00  0.00     0.244 HD
ATOM     41  C   UNK d   1       4.246  -2.531  -3.182  0.00  0.00     0.012 C 
ATOM     42  H   UNK d   1       4.020  -1.681  -1.203  0.00  0.00     0.063 H 
ATOM     43  H   UNK d   1       5.359  -0.984  -2.154  0.00  0.00     0.063 H 
ATOM     44  H   UNK d   1       3.219  -2.897  -3.222  0.00  0.00     0.033 H 
ATOM     45  H   UNK d   1       4.911  -3.332  -2.861  0.00  0.00     0.033 H 
BRANCH  36  46
ATOM     46  N   UNK d   1       2.795   1.124  -4.463  0.00  0.00    -0.254 N 
ATOM     47  H   UNK d   1       2.976   1.471  -5.351  0.00  0.00     0.241 HD
ATOM     48  H   UNK d   1       2.172   1.586  -3.880  0.00  0.00     0.241 HD
ENDBRANCH  36  46
ENDBRANCH   1  33
BRANCH   1  49
ATOM     49  N   UNK d   1       5.125  -4.312  -5.328  0.00  0.00    -0.285 N 
ATOM     50  C   UNK d   0       4.615  -5.527  -5.611  0.00  0.00     0.301 C 
ATOM     51  O   UNK d   0       3.506  -5.621  -6.099  0.00  0.00    -0.253 OA
ATOM     52  N   UNK d   1       5.334  -6.637  -5.352  0.00  0.00    -0.291 N 
ATOM     53  H   UNK d   1       6.220  -6.561  -4.963  0.00  0.00     0.151 HD
ATOM     54  H   UNK d   1       6.010  -4.236  -4.938  0.00  0.00     0.151 HD
BRANCH  52  55
ATOM     55  C   UNK d   1       4.780  -7.957  -5.661  0.00  0.00     0.064 C 
ATOM     56  H   UNK d   1       3.692  -7.915  -5.609  0.00  0.00     0.056 H 
BRANCH  55  57
ATOM     57  C   UNK d   1       5.298  -8.977  -4.645  0.00  0.00    -0.027 C 
ATOM     58  H   UNK d   1       6.267  -9.354  -4.970  0.00  0.00     0.029 H 
ATOM     59  H   UNK d   1       5.403  -8.499  -3.671  0.00  0.00     0.029 H 
BRANCH  57  60
ATOM     60  C   UNK d   1       4.308 -10.139  -4.538  0.00  0.00    -0.045 C 
ATOM     61  H   UNK d   1       3.589 -10.080  -5.355  0.00  0.00     0.030 H 
BRANCH  60  62
ATOM     62  C   UNK d   1       5.067 -11.464  -4.622  0.00  0.00    -0.063 C 
ATOM     63  H   UNK d   1       4.839 -12.070  -3.745  0.00  0.00     0.023 H 
ATOM     64  H   UNK d   1       4.765 -12.000  -5.522  0.00  0.00     0.023 H 
ATOM     65  H   UNK d   1       6.139 -11.268  -4.659  0.00  0.00     0.023 H 
ENDBRANCH  60  62
BRANCH  60  66
ATOM     66  C   UNK d   1       3.568 -10.058  -3.201  0.00  0.00    -0.063 C 
ATOM     67  H   UNK d   1       4.172  -9.503  -2.484  0.00  0.00     0.023 H 
ATOM     68  H   UNK d   1       2.615  -9.548  -3.344  0.00  0.00     0.023 H 
ATOM     69  H   UNK d   1       3.388 -11.064  -2.824  0.00  0.00     0.023 H 
ENDBRANCH  60  66
ENDBRANCH  57  60
ENDBRANCH  55  57
BRANCH  55  70
ATOM     70  C   UNK d   1       5.202  -8.369  -7.047  0.00  0.00     0.062 C 
ATOM     71  O   UNK d   1       6.382  -8.554  -7.295  0.00  0.00    -0.548 OA
ATOM     72  O   UNK d   1       4.366  -8.517  -7.921  0.00  0.00    -0.548 OA
ENDBRANCH  55  70
ENDBRANCH  52  55
ENDBRANCH   1  49
TORSDOF 18
ENDMDL
MODEL 5
REMARK VINA RESULT:      -5.7      3.387      6.840
REMARK  18 active torsions:
REMARK  status: ('A' for Active; 'I' for Inactive)
REMARK    1  A    between atoms: C_1  and  C_2 
REMARK    2  A    between atoms: C_2  and  C_4 
REMARK    3  A    between atoms: C_2  and  N_6 
REMARK       I    between atoms: N_6  and  C_7 
REMARK    4  A    between atoms: C_7  and  C_9 
REMARK    5  A    between atoms: C_9  and  C_11 
REMARK    6  A    between atoms: C_9  and  N_16 
REMARK    7  A    between atoms: C_11  and  C_12 
REMARK    8  A    between atoms: C_12  and  C_13 
REMARK       I    between atoms: C_13  and  N_15 
REMARK       I    between atoms: N_16  and  C_17 
REMARK    9  A    between atoms: C_17  and  C_19 
REMARK   10  A    between atoms: C_19  and  C_21 
REMARK   11  A    between atoms: C_19  and  N_29 
REMARK   12  A    between atoms: C_26  and  N_28 
REMARK       I    between atoms: N_29  and  C_30 
REMARK       I    between atoms: C_30  and  N_32 
REMARK   13  A    between atoms: N_32  and  C_33 
REMARK   14  A    between atoms: C_33  and  C_35 
REMARK   15  A    between atoms: C_33  and  C_39 
REMARK   16  A    between atoms: C_35  and  C_36 
REMARK   17  A    between atoms: C_36  and  C_37 
REMARK   18  A    between atoms: C_36  and  C_38 
ROOT
ATOM      1  C   UNK d   1       8.620   1.944  -4.287  0.00  0.00     0.134 C 
ATOM      2  H   UNK d   1       7.709   2.544  -4.288  0.00  0.00     0.063 H 
ENDROOT
BRANCH   1   3
ATOM      3  C   UNK d   1       9.246   1.983  -5.657  0.00  0.00     0.237 C 
ATOM      4  N   UNK d   1       8.903   2.951  -6.528  0.00  0.00    -0.302 N 
ATOM      5  H   UNK d   1       8.212   3.591  -6.295  0.00  0.00     0.149 HD
ATOM      6  O   UNK d   1      10.061   1.143  -5.974  0.00  0.00    -0.274 OA
BRANCH   4   7
ATOM      7  C   UNK d   1       9.571   3.038  -7.829  0.00  0.00     0.100 C 
ATOM      8  H   UNK d   1      10.233   2.181  -7.954  0.00  0.00     0.059 H 
BRANCH   7   9
ATOM      9  C   UNK d   1      10.376   4.310  -7.896  0.00  0.00     0.234 C 
ATOM     10  N   UNK d   1      10.484   5.098  -6.808  0.00  0.00    -0.305 N 
ATOM     11  H   UNK d   1      10.042   4.847  -5.982  0.00  0.00     0.149 HD
ATOM     12  O   UNK d   1      10.928   4.625  -8.930  0.00  0.00    -0.274 OA
BRANCH  10  13
ATOM     13  C   UNK d   1      11.266   6.335  -6.874  0.00  0.00     0.076 C 
ATOM     14  H   UNK d   1      11.461   6.586  -7.916  0.00  0.00     0.057 H 
BRANCH  13  15
ATOM     15  C   UNK d   1      10.482   7.470  -6.213  0.00  0.00    -0.040 C 
ATOM     16  H   UNK d   1      11.177   8.183  -5.770  0.00  0.00     0.025 H 
ATOM     17  H   UNK d   1       9.872   7.976  -6.962  0.00  0.00     0.025 H 
ATOM     18  H   UNK d   1       9.836   7.061  -5.436  0.00  0.00     0.025 H 
ENDBRANCH  13  15
BRANCH  13  19
ATOM     19  C   UNK d   1      12.573   6.140  -6.150  0.00  0.00     0.140 C 
ATOM     20  O   UNK d   1      12.807   5.093  -5.597  0.00  0.00    -0.299 OA
ATOM     21  H   UNK d   1      13.302   6.937  -6.126  0.00  0.00     0.105 H 
ENDBRANCH  13  19
ENDBRANCH  10  13
ENDBRANCH   7   9
BRANCH   7  22
ATOM     22  C   UNK d   1       8.522   3.039  -8.942  0.00  0.00    -0.018 C 
ATOM     23  H   UNK d   1       7.740   3.761  -8.704  0.00  0.00     0.029 H 
ATOM     24  H   UNK d   1       8.994   3.313  -9.886  0.00  0.00     0.029 H 
BRANCH  22  25
ATOM     25  C   UNK d   1       7.908   1.643  -9.066  0.00  0.00     0.026 C 
ATOM     26  H   UNK d   1       8.011   1.291 -10.092  0.00  0.00     0.036 H 
ATOM     27  H   UNK d   1       8.424   0.959  -8.393  0.00  0.00     0.036 H 
BRANCH  25  28
ATOM     28  C   UNK d   1       6.448   1.702  -8.698  0.00  0.00     0.211 C 
ATOM     29  O   UNK d   1       5.670   2.316  -9.398  0.00  0.00    -0.276 OA
ATOM     30  N   UNK d   1       6.006   1.072  -7.592  0.00  0.00    -0.329 N 
ATOM     31  H   UNK d   1       6.627   0.581  -7.033  0.00  0.00     0.145 HD
ATOM     32  H   UNK d   1       5.065   1.110  -7.355  0.00  0.00     0.145 HD
ENDBRANCH  25  28
ENDBRANCH  22  25
ENDBRANCH   7  22
ENDBRANCH   4   7
ENDBRANCH   1   3
BRANCH   1  33
ATOM     33  C   UNK d   1       9.602   2.510  -3.260  0.00  0.00     0.105 C 
ATOM     34  H   UNK d   1       9.202   2.356  -2.257  0.00  0.00     0.072 H 
ATOM     35  N   UNK d   1      10.877   1.814  -3.380  0.00  0.00    -0.277 N 
ATOM     36  C   UNK d   1      12.027   2.395  -3.270  0.00  0.00     0.327 C 
ATOM     37  H   UNK d   1      10.864   0.860  -3.551  0.00  0.00     0.258 HD
ATOM     38  N   UNK d   1      12.148   3.747  -3.048  0.00  0.00    -0.241 N 
ATOM     39  C   UNK d   1      10.953   4.506  -2.646  0.00  0.00     0.061 C 
ATOM     40  H   UNK d   1      13.003   4.190  -3.155  0.00  0.00     0.244 HD
ATOM     41  C   UNK d   1       9.782   4.009  -3.506  0.00  0.00     0.012 C 
ATOM     42  H   UNK d   1      11.116   5.570  -2.819  0.00  0.00     0.063 H 
ATOM     43  H   UNK d   1      10.740   4.330  -1.592  0.00  0.00     0.063 H 
ATOM     44  H   UNK d   1      10.002   4.183  -4.560  0.00  0.00     0.033 H 
ATOM     45  H   UNK d   1       8.871   4.539  -3.227  0.00  0.00     0.033 H 
BRANCH  36  46
ATOM     46  N   UNK d   1      13.168   1.637  -3.382  0.00  0.00    -0.254 N 
ATOM     47  H   UNK d   1      13.111   0.668  -3.356  0.00  0.00     0.241 HD
ATOM     48  H   UNK d   1      14.029   2.070  -3.489  0.00  0.00     0.241 HD
ENDBRANCH  36  46
ENDBRANCH   1  33
BRANCH   1  49
ATOM     49  N   UNK d   1       8.292   0.559  -3.938  0.00  0.00    -0.285 N 
ATOM     50  C   UNK d   0       7.023   0.118  -4.049  0.00  0.00     0.301 C 
ATOM     51  O   UNK d   0       6.151   0.868  -4.440  0.00  0.00    -0.253 OA
ATOM     52  N   UNK d   1       6.723  -1.156  -3.728  0.00  0.00    -0.291 N 
ATOM     53  H   UNK d   1       7.419  -1.755  -3.417  0.00  0.00     0.151 HD
ATOM     54  H   UNK d   1       8.988  -0.039  -3.626  0.00  0.00     0.151 HD
BRANCH  52  55
ATOM     55  C   UNK d   1       5.344  -1.636  -3.850  0.00  0.00     0.064 C 
ATOM     56  H   UNK d   1       4.774  -0.947  -4.473  0.00  0.00     0.056 H 
BRANCH  55  57
ATOM     57  C   UNK d   1       4.706  -1.713  -2.461  0.00  0.00    -0.027 C 
ATOM     58  H   UNK d   1       4.283  -2.706  -2.310  0.00  0.00     0.029 H 
ATOM     59  H   UNK d   1       5.466  -1.523  -1.702  0.00  0.00     0.029 H 
BRANCH  57  60
ATOM     60  C   UNK d   1       3.599  -0.664  -2.348  0.00  0.00    -0.045 C 
ATOM     61  H   UNK d   1       2.828  -1.021  -1.666  0.00  0.00     0.030 H 
BRANCH  60  62
ATOM     62  C   UNK d   1       4.187   0.642  -1.814  0.00  0.00    -0.063 C 
ATOM     63  H   UNK d   1       3.814   1.478  -2.406  0.00  0.00     0.023 H 
ATOM     64  H   UNK d   1       3.893   0.775  -0.773  0.00  0.00     0.023 H 
ATOM     65  H   UNK d   1       5.275   0.607  -1.882  0.00  0.00     0.023 H 
ENDBRANCH  60  62
BRANCH  60  66
ATOM     66  C   UNK d   1       2.984  -0.421  -3.729  0.00  0.00    -0.063 C 
ATOM     67  H   UNK d   1       3.778  -0.256  -4.457  0.00  0.00     0.023 H 
ATOM     68  H   UNK d   1       2.397  -1.290  -4.023  0.00  0.00     0.023 H 
ATOM     69  H   UNK d   1       2.339   0.456  -3.689  0.00  0.00     0.023 H 
ENDBRANCH  60  66
ENDBRANCH  57  60
ENDBRANCH  55  57
BRANCH  55  70
ATOM     70  C   UNK d   1       5.342  -3.004  -4.481  0.00  0.00     0.062 C 
ATOM     71  O   UNK d   1       6.336  -3.411  -5.056  0.00  0.00    -0.548 OA
ATOM     72  O   UNK d   1       4.346  -3.704  -4.416  0.00  0.00    -0.548 OA
ENDBRANCH  55  70
ENDBRANCH  52  55
ENDBRANCH   1  49
TORSDOF 18
ENDMDL
MODEL 6
REMARK VINA RESULT:      -5.6      3.259      6.326
REMARK  18 active torsions:
REMARK  status: ('A' for Active; 'I' for Inactive)
REMARK    1  A    between atoms: C_1  and  C_2 
REMARK    2  A    between atoms: C_2  and  C_4 
REMARK    3  A    between atoms: C_2  and  N_6 
REMARK       I    between atoms: N_6  and  C_7 
REMARK    4  A    between atoms: C_7  and  C_9 
REMARK    5  A    between atoms: C_9  and  C_11 
REMARK    6  A    between atoms: C_9  and  N_16 
REMARK    7  A    between atoms: C_11  and  C_12 
REMARK    8  A    between atoms: C_12  and  C_13 
REMARK       I    between atoms: C_13  and  N_15 
REMARK       I    between atoms: N_16  and  C_17 
REMARK    9  A    between atoms: C_17  and  C_19 
REMARK   10  A    between atoms: C_19  and  C_21 
REMARK   11  A    between atoms: C_19  and  N_29 
REMARK   12  A    between atoms: C_26  and  N_28 
REMARK       I    between atoms: N_29  and  C_30 
REMARK       I    between atoms: C_30  and  N_32 
REMARK   13  A    between atoms: N_32  and  C_33 
REMARK   14  A    between atoms: C_33  and  C_35 
REMARK   15  A    between atoms: C_33  and  C_39 
REMARK   16  A    between atoms: C_35  and  C_36 
REMARK   17  A    between atoms: C_36  and  C_37 
REMARK   18  A    between atoms: C_36  and  C_38 
ROOT
ATOM      1  C   UNK d   1       8.323   1.921  -5.205  0.00  0.00     0.134 C 
ATOM      2  H   UNK d   1       7.456   2.580  -5.141  0.00  0.00     0.063 H 
ENDROOT
BRANCH   1   3
ATOM      3  C   UNK d   1       8.554   1.535  -6.644  0.00  0.00     0.237 C 
ATOM      4  N   UNK d   1       7.531   1.558  -7.520  0.00  0.00    -0.302 N 
ATOM      5  H   UNK d   1       6.634   1.769  -7.215  0.00  0.00     0.149 HD
ATOM      6  O   UNK d   1       9.661   1.206  -7.012  0.00  0.00    -0.274 OA
BRANCH   4   7
ATOM      7  C   UNK d   1       7.771   1.262  -8.935  0.00  0.00     0.100 C 
ATOM      8  H   UNK d   1       8.340   0.337  -9.021  0.00  0.00     0.059 H 
BRANCH   7   9
ATOM      9  C   UNK d   1       8.549   2.392  -9.559  0.00  0.00     0.234 C 
ATOM     10  N   UNK d   1       8.510   3.622  -9.010  0.00  0.00    -0.305 N 
ATOM     11  H   UNK d   1       7.979   3.780  -8.213  0.00  0.00     0.149 HD
ATOM     12  O   UNK d   1       9.211   2.194 -10.556  0.00  0.00    -0.274 OA
BRANCH  10  13
ATOM     13  C   UNK d   1       9.266   4.720  -9.617  0.00  0.00     0.076 C 
ATOM     14  H   UNK d   1       9.687   4.389 -10.566  0.00  0.00     0.057 H 
BRANCH  13  15
ATOM     15  C   UNK d   1       8.334   5.908  -9.858  0.00  0.00    -0.040 C 
ATOM     16  H   UNK d   1       8.653   6.752  -9.246  0.00  0.00     0.025 H 
ATOM     17  H   UNK d   1       8.368   6.190 -10.911  0.00  0.00     0.025 H 
ATOM     18  H   UNK d   1       7.314   5.631  -9.590  0.00  0.00     0.025 H 
ENDBRANCH  13  15
BRANCH  13  19
ATOM     19  C   UNK d   1      10.379   5.135  -8.689  0.00  0.00     0.140 C 
ATOM     20  O   UNK d   1      10.130   5.772  -7.695  0.00  0.00    -0.299 OA
ATOM     21  H   UNK d   1      11.399   4.861  -8.913  0.00  0.00     0.105 H 
ENDBRANCH  13  19
ENDBRANCH  10  13
ENDBRANCH   7   9
BRANCH   7  22
ATOM     22  C   UNK d   1       6.432   1.106  -9.657  0.00  0.00    -0.018 C 
ATOM     23  H   UNK d   1       6.296   1.933 -10.355  0.00  0.00     0.029 H 
ATOM     24  H   UNK d   1       6.423   0.163 -10.205  0.00  0.00     0.029 H 
BRANCH  22  25
ATOM     25  C   UNK d   1       5.295   1.109  -8.633  0.00  0.00     0.026 C 
ATOM     26  H   UNK d   1       4.973   0.086  -8.443  0.00  0.00     0.036 H 
ATOM     27  H   UNK d   1       5.646   1.558  -7.703  0.00  0.00     0.036 H 
BRANCH  25  28
ATOM     28  C   UNK d   1       4.137   1.910  -9.170  0.00  0.00     0.211 C 
ATOM     29  O   UNK d   1       4.100   2.211 -10.344  0.00  0.00    -0.276 OA
ATOM     30  N   UNK d   1       3.142   2.292  -8.346  0.00  0.00    -0.329 N 
ATOM     31  H   UNK d   1       3.171   2.052  -7.406  0.00  0.00     0.145 HD
ATOM     32  H   UNK d   1       2.396   2.808  -8.691  0.00  0.00     0.145 HD
ENDBRANCH  25  28
ENDBRANCH  22  25
ENDBRANCH   7  22
ENDBRANCH   4   7
ENDBRANCH   1   3
BRANCH   1  33
ATOM     33  C   UNK d   1       9.557   2.647  -4.667  0.00  0.00     0.105 C 
ATOM     34  H   UNK d   1      10.455   2.188  -5.082  0.00  0.00     0.072 H 
ATOM     35  N   UNK d   1       9.505   4.048  -5.070  0.00  0.00    -0.277 N 
ATOM     36  C   UNK d   1       9.869   5.028  -4.310  0.00  0.00     0.327 C 
ATOM     37  H   UNK d   1       9.178   4.256  -5.959  0.00  0.00     0.258 HD
ATOM     38  N   UNK d   1      10.325   4.834  -3.028  0.00  0.00    -0.241 N 
ATOM     39  C   UNK d   1      10.675   3.469  -2.603  0.00  0.00     0.061 C 
ATOM     40  H   UNK d   1      10.414   5.580  -2.417  0.00  0.00     0.244 HD
ATOM     41  C   UNK d   1       9.589   2.527  -3.142  0.00  0.00     0.012 C 
ATOM     42  H   UNK d   1      10.704   3.417  -1.514  0.00  0.00     0.063 H 
ATOM     43  H   UNK d   1      11.645   3.191  -3.013  0.00  0.00     0.063 H 
ATOM     44  H   UNK d   1       8.619   2.813  -2.732  0.00  0.00     0.033 H 
ATOM     45  H   UNK d   1       9.821   1.500  -2.860  0.00  0.00     0.033 H 
BRANCH  36  46
ATOM     46  N   UNK d   1       9.794   6.310  -4.801  0.00  0.00    -0.254 N 
ATOM     47  H   UNK d   1      10.541   6.685  -5.295  0.00  0.00     0.241 HD
ATOM     48  H   UNK d   1       8.995   6.841  -4.653  0.00  0.00     0.241 HD
ENDBRANCH  36  46
ENDBRANCH   1  33
BRANCH   1  49
ATOM     49  N   UNK d   1       8.079   0.715  -4.409  0.00  0.00    -0.285 N 
ATOM     50  C   UNK d   0       6.860   0.143  -4.409  0.00  0.00     0.301 C 
ATOM     51  O   UNK d   0       5.962   0.625  -5.070  0.00  0.00    -0.253 OA
ATOM     52  N   UNK d   1       6.637  -0.966  -3.676  0.00  0.00    -0.291 N 
ATOM     53  H   UNK d   1       7.354  -1.352  -3.148  0.00  0.00     0.151 HD
ATOM     54  H   UNK d   1       8.796   0.331  -3.881  0.00  0.00     0.151 HD
BRANCH  52  55
ATOM     55  C   UNK d   1       5.311  -1.590  -3.676  0.00  0.00     0.064 C 
ATOM     56  H   UNK d   1       4.644  -1.023  -4.325  0.00  0.00     0.056 H 
BRANCH  55  57
ATOM     57  C   UNK d   1       4.751  -1.599  -2.252  0.00  0.00    -0.027 C 
ATOM     58  H   UNK d   1       4.268  -2.556  -2.058  0.00  0.00     0.029 H 
ATOM     59  H   UNK d   1       5.564  -1.451  -1.541  0.00  0.00     0.029 H 
BRANCH  57  60
ATOM     60  C   UNK d   1       3.729  -0.470  -2.099  0.00  0.00    -0.045 C 
ATOM     61  H   UNK d   1       3.018  -0.729  -1.314  0.00  0.00     0.030 H 
BRANCH  60  62
ATOM     62  C   UNK d   1       4.452   0.825  -1.727  0.00  0.00    -0.063 C 
ATOM     63  H   UNK d   1       4.665   1.394  -2.631  0.00  0.00     0.023 H 
ATOM     64  H   UNK d   1       3.819   1.417  -1.065  0.00  0.00     0.023 H 
ATOM     65  H   UNK d   1       5.386   0.587  -1.219  0.00  0.00     0.023 H 
ENDBRANCH  60  62
BRANCH  60  66
ATOM     66  C   UNK d   1       2.981  -0.277  -3.420  0.00  0.00    -0.063 C 
ATOM     67  H   UNK d   1       3.647   0.178  -4.152  0.00  0.00     0.023 H 
ATOM     68  H   UNK d   1       2.641  -1.244  -3.789  0.00  0.00     0.023 H 
ATOM     69  H   UNK d   1       2.120   0.372  -3.257  0.00  0.00     0.023 H 
ENDBRANCH  60  66
ENDBRANCH  57  60
ENDBRANCH  55  57
BRANCH  55  70
ATOM     70  C   UNK d   1       5.421  -3.005  -4.182  0.00  0.00     0.062 C 
ATOM     71  O   UNK d   1       6.503  -3.443  -4.535  0.00  0.00    -0.548 OA
ATOM     72  O   UNK d   1       4.430  -3.712  -4.237  0.00  0.00    -0.548 OA
ENDBRANCH  55  70
ENDBRANCH  52  55
ENDBRANCH   1  49
TORSDOF 18
ENDMDL
MODEL 7
REMARK VINA RESULT:      -5.5      4.414      7.246
REMARK  18 active torsions:
REMARK  status: ('A' for Active; 'I' for Inactive)
REMARK    1  A    between atoms: C_1  and  C_2 
REMARK    2  A    between atoms: C_2  and  C_4 
REMARK    3  A    between atoms: C_2  and  N_6 
REMARK       I    between atoms: N_6  and  C_7 
REMARK    4  A    between atoms: C_7  and  C_9 
REMARK    5  A    between atoms: C_9  and  C_11 
REMARK    6  A    between atoms: C_9  and  N_16 
REMARK    7  A    between atoms: C_11  and  C_12 
REMARK    8  A    between atoms: C_12  and  C_13 
REMARK       I    between atoms: C_13  and  N_15 
REMARK       I    between atoms: N_16  and  C_17 
REMARK    9  A    between atoms: C_17  and  C_19 
REMARK   10  A    between atoms: C_19  and  C_21 
REMARK   11  A    between atoms: C_19  and  N_29 
REMARK   12  A    between atoms: C_26  and  N_28 
REMARK       I    between atoms: N_29  and  C_30 
REMARK       I    between atoms: C_30  and  N_32 
REMARK   13  A    between atoms: N_32  and  C_33 
REMARK   14  A    between atoms: C_33  and  C_35 
REMARK   15  A    between atoms: C_33  and  C_39 
REMARK   16  A    between atoms: C_35  and  C_36 
REMARK   17  A    between atoms: C_36  and  C_37 
REMARK   18  A    between atoms: C_36  and  C_38 
ROOT
ATOM      1  C   UNK d   1       3.106  -1.256  -7.820  0.00  0.00     0.134 C 
ATOM      2  H   UNK d   1       2.289  -1.533  -7.153  0.00  0.00     0.063 H 
ENDROOT
BRANCH   1   3
ATOM      3  C   UNK d   1       3.852  -2.495  -8.240  0.00  0.00     0.237 C 
ATOM      4  N   UNK d   1       3.400  -3.711  -7.875  0.00  0.00    -0.302 N 
ATOM      5  H   UNK d   1       2.625  -3.787  -7.296  0.00  0.00     0.149 HD
ATOM      6  O   UNK d   1       4.860  -2.399  -8.908  0.00  0.00    -0.274 OA
BRANCH   4   7
ATOM      7  C   UNK d   1       4.079  -4.919  -8.351  0.00  0.00     0.100 C 
ATOM      8  H   UNK d   1       5.049  -4.650  -8.767  0.00  0.00     0.059 H 
BRANCH   7   9
ATOM      9  C   UNK d   1       3.241  -5.580  -9.415  0.00  0.00     0.234 C 
ATOM     10  N   UNK d   1       1.961  -5.199  -9.599  0.00  0.00    -0.305 N 
ATOM     11  H   UNK d   1       1.579  -4.500  -9.045  0.00  0.00     0.149 HD
ATOM     12  O   UNK d   1       3.718  -6.455 -10.106  0.00  0.00    -0.274 OA
BRANCH  10  13
ATOM     13  C   UNK d   1       1.146  -5.842 -10.632  0.00  0.00     0.076 C 
ATOM     14  H   UNK d   1       1.684  -6.698 -11.038  0.00  0.00     0.057 H 
BRANCH  13  15
ATOM     15  C   UNK d   1      -0.175  -6.311 -10.021  0.00  0.00    -0.040 C 
ATOM     16  H   UNK d   1      -0.176  -7.399  -9.948  0.00  0.00     0.025 H 
ATOM     17  H   UNK d   1      -0.290  -5.881  -9.026  0.00  0.00     0.025 H 
ATOM     18  H   UNK d   1      -1.002  -5.989 -10.654  0.00  0.00     0.025 H 
ENDBRANCH  13  15
BRANCH  13  19
ATOM     19  C   UNK d   1       0.867  -4.855 -11.736  0.00  0.00     0.140 C 
ATOM     20  O   UNK d   1       1.769  -4.457 -12.433  0.00  0.00    -0.299 OA
ATOM     21  H   UNK d   1      -0.140  -4.504 -11.905  0.00  0.00     0.105 H 
ENDBRANCH  13  19
ENDBRANCH  10  13
ENDBRANCH   7   9
BRANCH   7  22
ATOM     22  C   UNK d   1       4.276  -5.887  -7.184  0.00  0.00    -0.018 C 
ATOM     23  H   UNK d   1       3.768  -5.499  -6.300  0.00  0.00     0.029 H 
ATOM     24  H   UNK d   1       3.859  -6.860  -7.444  0.00  0.00     0.029 H 
BRANCH  22  25
ATOM     25  C   UNK d   1       5.771  -6.035  -6.890  0.00  0.00     0.026 C 
ATOM     26  H   UNK d   1       5.918  -6.811  -6.139  0.00  0.00     0.036 H 
ATOM     27  H   UNK d   1       6.295  -6.309  -7.805  0.00  0.00     0.036 H 
BRANCH  25  28
ATOM     28  C   UNK d   1       6.313  -4.727  -6.374  0.00  0.00     0.211 C 
ATOM     29  O   UNK d   1       7.162  -4.131  -7.004  0.00  0.00    -0.276 OA
ATOM     30  N   UNK d   1       5.856  -4.218  -5.214  0.00  0.00    -0.329 N 
ATOM     31  H   UNK d   1       5.177  -4.693  -4.710  0.00  0.00     0.145 HD
ATOM     32  H   UNK d   1       6.205  -3.375  -4.882  0.00  0.00     0.145 HD
ENDBRANCH  25  28
ENDBRANCH  22  25
ENDBRANCH   7  22
ENDBRANCH   4   7
ENDBRANCH   1   3
BRANCH   1  33
ATOM     33  C   UNK d   1       2.539  -0.557  -9.057  0.00  0.00     0.105 C 
ATOM     34  H   UNK d   1       1.936   0.295  -8.744  0.00  0.00     0.072 H 
ATOM     35  N   UNK d   1       3.640  -0.087  -9.890  0.00  0.00    -0.277 N 
ATOM     36  C   UNK d   1       3.634  -0.131 -11.182  0.00  0.00     0.327 C 
ATOM     37  H   UNK d   1       4.421   0.282  -9.450  0.00  0.00     0.258 HD
ATOM     38  N   UNK d   1       2.581  -0.655 -11.894  0.00  0.00    -0.241 N 
ATOM     39  C   UNK d   1       1.314  -0.913 -11.192  0.00  0.00     0.061 C 
ATOM     40  H   UNK d   1       2.671  -0.850 -12.839  0.00  0.00     0.244 HD
ATOM     41  C   UNK d   1       1.660  -1.539  -9.834  0.00  0.00     0.012 C 
ATOM     42  H   UNK d   1       0.703  -1.603 -11.774  0.00  0.00     0.063 H 
ATOM     43  H   UNK d   1       0.775   0.023 -11.043  0.00  0.00     0.063 H 
ATOM     44  H   UNK d   1       2.202  -2.473  -9.988  0.00  0.00     0.033 H 
ATOM     45  H   UNK d   1       0.744  -1.733  -9.275  0.00  0.00     0.033 H 
BRANCH  36  46
ATOM     46  N   UNK d   1       4.720   0.359 -11.868  0.00  0.00    -0.254 N 
ATOM     47  H   UNK d   1       5.251  -0.234 -12.423  0.00  0.00     0.241 HD
ATOM     48  H   UNK d   1       4.954   1.297 -11.798  0.00  0.00     0.241 HD
ENDBRANCH  36  46
ENDBRANCH   1  33
BRANCH   1  49
ATOM     49  N   UNK d   1       4.019  -0.348  -7.121  0.00  0.00    -0.285 N 
ATOM     50  C   UNK d   0       4.522  -0.691  -5.919  0.00  0.00     0.301 C 
ATOM     51  O   UNK d   0       4.220  -1.754  -5.414  0.00  0.00    -0.253 OA
ATOM     52  N   UNK d   1       5.362   0.145  -5.277  0.00  0.00    -0.291 N 
ATOM     53  H   UNK d   1       5.605   0.993  -5.680  0.00  0.00     0.151 HD
ATOM     54  H   UNK d   1       4.260   0.500  -7.524  0.00  0.00     0.151 HD
BRANCH  52  55
ATOM     55  C   UNK d   1       5.910  -0.228  -3.971  0.00  0.00     0.064 C 
ATOM     56  H   UNK d   1       5.330  -1.053  -3.556  0.00  0.00     0.056 H 
BRANCH  55  57
ATOM     57  C   UNK d   1       5.836   0.972  -3.025  0.00  0.00    -0.027 C 
ATOM     58  H   UNK d   1       6.789   1.089  -2.510  0.00  0.00     0.029 H 
ATOM     59  H   UNK d   1       5.620   1.873  -3.598  0.00  0.00     0.029 H 
BRANCH  57  60
ATOM     60  C   UNK d   1       4.725   0.743  -1.997  0.00  0.00    -0.045 C 
ATOM     61  H   UNK d   1       5.038   1.140  -1.031  0.00  0.00     0.030 H 
BRANCH  60  62
ATOM     62  C   UNK d   1       3.453   1.457  -2.454  0.00  0.00    -0.063 C 
ATOM     63  H   UNK d   1       2.761   0.730  -2.880  0.00  0.00     0.023 H 
ATOM     64  H   UNK d   1       2.984   1.947  -1.601  0.00  0.00     0.023 H 
ATOM     65  H   UNK d   1       3.705   2.203  -3.208  0.00  0.00     0.023 H 
ENDBRANCH  60  62
BRANCH  60  66
ATOM     66  C   UNK d   1       4.452  -0.757  -1.867  0.00  0.00    -0.063 C 
ATOM     67  H   UNK d   1       4.435  -1.211  -2.857  0.00  0.00     0.023 H 
ATOM     68  H   UNK d   1       5.236  -1.218  -1.268  0.00  0.00     0.023 H 
ATOM     69  H   UNK d   1       3.488  -0.909  -1.381  0.00  0.00     0.023 H 
ENDBRANCH  60  66
ENDBRANCH  57  60
ENDBRANCH  55  57
BRANCH  55  70
ATOM     70  C   UNK d   1       7.346  -0.654  -4.131  0.00  0.00     0.062 C 
ATOM     71  O   UNK d   1       8.214   0.184  -4.310  0.00  0.00    -0.548 OA
ATOM     72  O   UNK d   1       7.642  -1.835  -4.080  0.00  0.00    -0.548 OA
ENDBRANCH  55  70
ENDBRANCH  52  55
ENDBRANCH   1  49
TORSDOF 18
ENDMDL
MODEL 8
REMARK VINA RESULT:      -5.4      4.150      7.329
REMARK  18 active torsions:
REMARK  status: ('A' for Active; 'I' for Inactive)
REMARK    1  A    between atoms: C_1  and  C_2 
REMARK    2  A    between atoms: C_2  and  C_4 
REMARK    3  A    between atoms: C_2  and  N_6 
REMARK       I    between atoms: N_6  and  C_7 
REMARK    4  A    between atoms: C_7  and  C_9 
REMARK    5  A    between atoms: C_9  and  C_11 
REMARK    6  A    between atoms: C_9  and  N_16 
REMARK    7  A    between atoms: C_11  and  C_12 
REMARK    8  A    between atoms: C_12  and  C_13 
REMARK       I    between atoms: C_13  and  N_15 
REMARK       I    between atoms: N_16  and  C_17 
REMARK    9  A    between atoms: C_17  and  C_19 
REMARK   10  A    between atoms: C_19  and  C_21 
REMARK   11  A    between atoms: C_19  and  N_29 
REMARK   12  A    between atoms: C_26  and  N_28 
REMARK       I    between atoms: N_29  and  C_30 
REMARK       I    between atoms: C_30  and  N_32 
REMARK   13  A    between atoms: N_32  and  C_33 
REMARK   14  A    between atoms: C_33  and  C_35 
REMARK   15  A    between atoms: C_33  and  C_39 
REMARK   16  A    between atoms: C_35  and  C_36 
REMARK   17  A    between atoms: C_36  and  C_37 
REMARK   18  A    between atoms: C_36  and  C_38 
ROOT
ATOM      1  C   UNK d   1       9.330   2.780  -3.803  0.00  0.00     0.134 C 
ATOM      2  H   UNK d   1       8.449   3.407  -3.660  0.00  0.00     0.063 H 
ENDROOT
BRANCH   1   3
ATOM      3  C   UNK d   1       9.906   3.029  -5.173  0.00  0.00     0.237 C 
ATOM      4  N   UNK d   1       9.606   4.164  -5.834  0.00  0.00    -0.302 N 
ATOM      5  H   UNK d   1       8.975   4.795  -5.453  0.00  0.00     0.149 HD
ATOM      6  O   UNK d   1      10.641   2.208  -5.680  0.00  0.00    -0.274 OA
BRANCH   4   7
ATOM      7  C   UNK d   1      10.230   4.444  -7.130  0.00  0.00     0.100 C 
ATOM      8  H   UNK d   1      11.145   3.861  -7.225  0.00  0.00     0.059 H 
BRANCH   7   9
ATOM      9  C   UNK d   1      10.556   5.912  -7.223  0.00  0.00     0.234 C 
ATOM     10  N   UNK d   1       9.618   6.832  -6.923  0.00  0.00    -0.305 N 
ATOM     11  H   UNK d   1       8.731   6.548  -6.648  0.00  0.00     0.149 HD
ATOM     12  O   UNK d   1      11.664   6.266  -7.569  0.00  0.00    -0.274 OA
BRANCH  10  13
ATOM     13  C   UNK d   1       9.935   8.259  -7.014  0.00  0.00     0.076 C 
ATOM     14  H   UNK d   1      11.011   8.385  -7.131  0.00  0.00     0.057 H 
BRANCH  13  15
ATOM     15  C   UNK d   1       9.216   8.865  -8.221  0.00  0.00    -0.040 C 
ATOM     16  H   UNK d   1       8.460   8.168  -8.582  0.00  0.00     0.025 H 
ATOM     17  H   UNK d   1       8.738   9.800  -7.929  0.00  0.00     0.025 H 
ATOM     18  H   UNK d   1       9.938   9.059  -9.014  0.00  0.00     0.025 H 
ENDBRANCH  13  15
BRANCH  13  19
ATOM     19  C   UNK d   1       9.481   8.955  -5.758  0.00  0.00     0.140 C 
ATOM     20  O   UNK d   1       9.422  10.161  -5.722  0.00  0.00    -0.299 OA
ATOM     21  H   UNK d   1       9.206   8.376  -4.889  0.00  0.00     0.105 H 
ENDBRANCH  13  19
ENDBRANCH  10  13
ENDBRANCH   7   9
BRANCH   7  22
ATOM     22  C   UNK d   1       9.264   4.064  -8.253  0.00  0.00    -0.018 C 
ATOM     23  H   UNK d   1       8.857   3.070  -8.063  0.00  0.00     0.029 H 
ATOM     24  H   UNK d   1       8.450   4.788  -8.293  0.00  0.00     0.029 H 
BRANCH  22  25
ATOM     25  C   UNK d   1      10.010   4.064  -9.590  0.00  0.00     0.026 C 
ATOM     26  H   UNK d   1      11.084   4.044  -9.406  0.00  0.00     0.036 H 
ATOM     27  H   UNK d   1       9.723   3.184 -10.165  0.00  0.00     0.036 H 
BRANCH  25  28
ATOM     28  C   UNK d   1       9.655   5.307 -10.364  0.00  0.00     0.211 C 
ATOM     29  O   UNK d   1       8.501   5.519 -10.675  0.00  0.00    -0.276 OA
ATOM     30  N   UNK d   1      10.618   6.183 -10.711  0.00  0.00    -0.329 N 
ATOM     31  H   UNK d   1      11.540   6.013 -10.463  0.00  0.00     0.145 HD
ATOM     32  H   UNK d   1      10.389   6.983 -11.210  0.00  0.00     0.145 HD
ENDBRANCH  25  28
ENDBRANCH  22  25
ENDBRANCH   7  22
ENDBRANCH   4   7
ENDBRANCH   1   3
BRANCH   1  33
ATOM     33  C   UNK d   1      10.376   3.119  -2.740  0.00  0.00     0.105 C 
ATOM     34  H   UNK d   1      10.083   2.669  -1.791  0.00  0.00     0.072 H 
ATOM     35  N   UNK d   1      11.668   2.582  -3.148  0.00  0.00    -0.277 N 
ATOM     36  C   UNK d   1      12.791   3.197  -2.972  0.00  0.00     0.327 C 
ATOM     37  H   UNK d   1      11.688   1.711  -3.575  0.00  0.00     0.258 HD
ATOM     38  N   UNK d   1      12.863   4.443  -2.395  0.00  0.00    -0.241 N 
ATOM     39  C   UNK d   1      11.675   4.971  -1.706  0.00  0.00     0.061 C 
ATOM     40  H   UNK d   1      13.680   4.963  -2.441  0.00  0.00     0.244 HD
ATOM     41  C   UNK d   1      10.453   4.638  -2.575  0.00  0.00     0.012 C 
ATOM     42  H   UNK d   1      11.765   6.051  -1.589  0.00  0.00     0.063 H 
ATOM     43  H   UNK d   1      11.574   4.501  -0.728  0.00  0.00     0.063 H 
ATOM     44  H   UNK d   1      10.561   5.108  -3.553  0.00  0.00     0.033 H 
ATOM     45  H   UNK d   1       9.548   5.001  -2.089  0.00  0.00     0.033 H 
BRANCH  36  46
ATOM     46  N   UNK d   1      13.954   2.587  -3.379  0.00  0.00    -0.254 N 
ATOM     47  H   UNK d   1      14.333   1.865  -2.853  0.00  0.00     0.241 HD
ATOM     48  H   UNK d   1      14.395   2.878  -4.193  0.00  0.00     0.241 HD
ENDBRANCH  36  46
ENDBRANCH   1  33
BRANCH   1  49
ATOM     49  N   UNK d   1       8.949   1.370  -3.682  0.00  0.00    -0.285 N 
ATOM     50  C   UNK d   0       7.660   1.005  -3.827  0.00  0.00     0.301 C 
ATOM     51  O   UNK d   0       6.813   1.844  -4.061  0.00  0.00    -0.253 OA
ATOM     52  N   UNK d   1       7.311  -0.292  -3.715  0.00  0.00    -0.291 N 
ATOM     53  H   UNK d   1       7.987  -0.963  -3.529  0.00  0.00     0.151 HD
ATOM     54  H   UNK d   1       9.625   0.700  -3.495  0.00  0.00     0.151 HD
BRANCH  52  55
ATOM     55  C   UNK d   1       5.910  -0.690  -3.874  0.00  0.00     0.064 C 
ATOM     56  H   UNK d   1       5.277   0.197  -3.853  0.00  0.00     0.056 H 
BRANCH  55  57
ATOM     57  C   UNK d   1       5.513  -1.627  -2.732  0.00  0.00    -0.027 C 
ATOM     58  H   UNK d   1       5.248  -2.603  -3.138  0.00  0.00     0.029 H 
ATOM     59  H   UNK d   1       6.351  -1.736  -2.044  0.00  0.00     0.029 H 
BRANCH  57  60
ATOM     60  C   UNK d   1       4.312  -1.042  -1.985  0.00  0.00    -0.045 C 
ATOM     61  H   UNK d   1       4.202  -1.544  -1.025  0.00  0.00     0.030 H 
BRANCH  60  62
ATOM     62  C   UNK d   1       4.535   0.453  -1.756  0.00  0.00    -0.063 C 
ATOM     63  H   UNK d   1       4.181   0.726  -0.762  0.00  0.00     0.023 H 
ATOM     64  H   UNK d   1       5.598   0.680  -1.838  0.00  0.00     0.023 H 
ATOM     65  H   UNK d   1       3.984   1.022  -2.506  0.00  0.00     0.023 H 
ENDBRANCH  60  62
BRANCH  60  66
ATOM     66  C   UNK d   1       3.044  -1.249  -2.817  0.00  0.00    -0.063 C 
ATOM     67  H   UNK d   1       2.169  -1.158  -2.174  0.00  0.00     0.023 H 
ATOM     68  H   UNK d   1       2.998  -0.495  -3.602  0.00  0.00     0.023 H 
ATOM     69  H   UNK d   1       3.064  -2.241  -3.267  0.00  0.00     0.023 H 
ENDBRANCH  60  66
ENDBRANCH  57  60
ENDBRANCH  55  57
BRANCH  55  70
ATOM     70  C   UNK d   1       5.736  -1.401  -5.191  0.00  0.00     0.062 C 
ATOM     71  O   UNK d   1       5.305  -0.795  -6.158  0.00  0.00    -0.548 OA
ATOM     72  O   UNK d   1       6.026  -2.580  -5.291  0.00  0.00    -0.548 OA
ENDBRANCH  55  70
ENDBRANCH  52  55
ENDBRANCH   1  49
TORSDOF 18
ENDMDL
MODEL 9
REMARK VINA RESULT:      -5.4      3.391      7.814
REMARK  18 active torsions:
REMARK  status: ('A' for Active; 'I' for Inactive)
REMARK    1  A    between atoms: C_1  and  C_2 
REMARK    2  A    between atoms: C_2  and  C_4 
REMARK    3  A    between atoms: C_2  and  N_6 
REMARK       I    between atoms: N_6  and  C_7 
REMARK    4  A    between atoms: C_7  and  C_9 
REMARK    5  A    between atoms: C_9  and  C_11 
REMARK    6  A    between atoms: C_9  and  N_16 
REMARK    7  A    between atoms: C_11  and  C_12 
REMARK    8  A    between atoms: C_12  and  C_13 
REMARK       I    between atoms: C_13  and  N_15 
REMARK       I    between atoms: N_16  and  C_17 
REMARK    9  A    between atoms: C_17  and  C_19 
REMARK   10  A    between atoms: C_19  and  C_21 
REMARK   11  A    between atoms: C_19  and  N_29 
REMARK   12  A    between atoms: C_26  and  N_28 
REMARK       I    between atoms: N_29  and  C_30 
REMARK       I    between atoms: C_30  and  N_32 
REMARK   13  A    between atoms: N_32  and  C_33 
REMARK   14  A    between atoms: C_33  and  C_35 
REMARK   15  A    between atoms: C_33  and  C_39 
REMARK   16  A    between atoms: C_35  and  C_36 
REMARK   17  A    between atoms: C_36  and  C_37 
REMARK   18  A    between atoms: C_36  and  C_38 
ROOT
ATOM      1  C   UNK d   1      10.035   2.526  -4.086  0.00  0.00     0.134 C 
ATOM      2  H   UNK d   1       9.565   2.904  -4.995  0.00  0.00     0.063 H 
ENDROOT
BRANCH   1   3
ATOM      3  C   UNK d   1      11.422   2.031  -4.407  0.00  0.00     0.237 C 
ATOM      4  N   UNK d   1      11.852   0.857  -3.902  0.00  0.00    -0.302 N 
ATOM      5  H   UNK d   1      11.291   0.358  -3.288  0.00  0.00     0.149 HD
ATOM      6  O   UNK d   1      12.150   2.687  -5.120  0.00  0.00    -0.274 OA
BRANCH   4   7
ATOM      7  C   UNK d   1      13.168   0.336  -4.280  0.00  0.00     0.100 C 
ATOM      8  H   UNK d   1      13.532   0.870  -5.157  0.00  0.00     0.059 H 
BRANCH   7   9
ATOM      9  C   UNK d   1      13.055  -1.133  -4.595  0.00  0.00     0.234 C 
ATOM     10  N   UNK d   1      11.960  -1.822  -4.215  0.00  0.00    -0.305 N 
ATOM     11  H   UNK d   1      11.246  -1.371  -3.738  0.00  0.00     0.149 HD
ATOM     12  O   UNK d   1      13.950  -1.696  -5.190  0.00  0.00    -0.274 OA
BRANCH  10  13
ATOM     13  C   UNK d   1      11.851  -3.250  -4.521  0.00  0.00     0.076 C 
ATOM     14  H   UNK d   1      12.825  -3.632  -4.826  0.00  0.00     0.057 H 
BRANCH  13  15
ATOM     15  C   UNK d   1      11.374  -4.003  -3.278  0.00  0.00    -0.040 C 
ATOM     16  H   UNK d   1      10.445  -4.528  -3.504  0.00  0.00     0.025 H 
ATOM     17  H   UNK d   1      12.134  -4.723  -2.975  0.00  0.00     0.025 H 
ATOM     18  H   UNK d   1      11.203  -3.294  -2.468  0.00  0.00     0.025 H 
ENDBRANCH  13  15
BRANCH  13  19
ATOM     19  C   UNK d   1      10.860  -3.449  -5.639  0.00  0.00     0.140 C 
ATOM     20  O   UNK d   1       9.719  -3.754  -5.388  0.00  0.00    -0.299 OA
ATOM     21  H   UNK d   1      11.169  -3.317  -6.665  0.00  0.00     0.105 H 
ENDBRANCH  13  19
ENDBRANCH  10  13
ENDBRANCH   7   9
BRANCH   7  22
ATOM     22  C   UNK d   1      14.146   0.535  -3.121  0.00  0.00    -0.018 C 
ATOM     23  H   UNK d   1      13.604   0.892  -2.244  0.00  0.00     0.029 H 
ATOM     24  H   UNK d   1      14.630  -0.414  -2.887  0.00  0.00     0.029 H 
BRANCH  22  25
ATOM     25  C   UNK d   1      15.208   1.563  -3.519  0.00  0.00     0.026 C 
ATOM     26  H   UNK d   1      15.998   1.069  -4.085  0.00  0.00     0.036 H 
ATOM     27  H   UNK d   1      14.749   2.338  -4.134  0.00  0.00     0.036 H 
BRANCH  25  28
ATOM     28  C   UNK d   1      15.793   2.187  -2.279  0.00  0.00     0.211 C 
ATOM     29  O   UNK d   1      16.203   3.329  -2.310  0.00  0.00    -0.276 OA
ATOM     30  N   UNK d   1      15.860   1.479  -1.135  0.00  0.00    -0.329 N 
ATOM     31  H   UNK d   1      15.532   0.566  -1.109  0.00  0.00     0.145 HD
ATOM     32  H   UNK d   1      16.236   1.881  -0.336  0.00  0.00     0.145 HD
ENDBRANCH  25  28
ENDBRANCH  22  25
ENDBRANCH   7  22
ENDBRANCH   4   7
ENDBRANCH   1   3
BRANCH   1  33
ATOM     33  C   UNK d   1      10.122   3.650  -3.051  0.00  0.00     0.105 C 
ATOM     34  H   UNK d   1       9.417   3.450  -2.244  0.00  0.00     0.072 H 
ATOM     35  N   UNK d   1      11.474   3.700  -2.508  0.00  0.00    -0.277 N 
ATOM     36  C   UNK d   1      12.098   4.798  -2.235  0.00  0.00     0.327 C 
ATOM     37  H   UNK d   1      11.931   2.862  -2.341  0.00  0.00     0.258 HD
ATOM     38  N   UNK d   1      11.541   6.035  -2.457  0.00  0.00    -0.241 N 
ATOM     39  C   UNK d   1      10.100   6.118  -2.746  0.00  0.00     0.061 C 
ATOM     40  H   UNK d   1      12.085   6.836  -2.423  0.00  0.00     0.244 HD
ATOM     41  C   UNK d   1       9.760   4.979  -3.718  0.00  0.00     0.012 C 
ATOM     42  H   UNK d   1       9.870   7.079  -3.206  0.00  0.00     0.063 H 
ATOM     43  H   UNK d   1       9.530   6.003  -1.825  0.00  0.00     0.063 H 
ATOM     44  H   UNK d   1      10.337   5.097  -4.636  0.00  0.00     0.033 H 
ATOM     45  H   UNK d   1       8.695   4.997  -3.946  0.00  0.00     0.033 H 
BRANCH  36  46
ATOM     46  N   UNK d   1      13.366   4.727  -1.707  0.00  0.00    -0.254 N 
ATOM     47  H   UNK d   1      14.125   4.561  -2.288  0.00  0.00     0.241 HD
ATOM     48  H   UNK d   1      13.501   4.845  -0.753  0.00  0.00     0.241 HD
ENDBRANCH  36  46
ENDBRANCH   1  33
BRANCH   1  49
ATOM     49  N   UNK d   1       9.235   1.424  -3.545  0.00  0.00    -0.285 N 
ATOM     50  C   UNK d   0       7.934   1.309  -3.877  0.00  0.00     0.301 C 
ATOM     51  O   UNK d   0       7.425   2.118  -4.627  0.00  0.00    -0.253 OA
ATOM     52  N   UNK d   1       7.199   0.295  -3.379  0.00  0.00    -0.291 N 
ATOM     53  H   UNK d   1       7.606  -0.351  -2.782  0.00  0.00     0.151 HD
ATOM     54  H   UNK d   1       9.642   0.779  -2.947  0.00  0.00     0.151 HD
BRANCH  52  55
ATOM     55  C   UNK d   1       5.785   0.169  -3.741  0.00  0.00     0.064 C 
ATOM     56  H   UNK d   1       5.325   1.157  -3.755  0.00  0.00     0.056 H 
BRANCH  55  57
ATOM     57  C   UNK d   1       5.072  -0.711  -2.713  0.00  0.00    -0.027 C 
ATOM     58  H   UNK d   1       4.883  -1.693  -3.144  0.00  0.00     0.029 H 
ATOM     59  H   UNK d   1       5.700  -0.817  -1.828  0.00  0.00     0.029 H 
BRANCH  57  60
ATOM     60  C   UNK d   1       3.743  -0.061  -2.319  0.00  0.00    -0.045 C 
ATOM     61  H   UNK d   1       3.552  -0.238  -1.261  0.00  0.00     0.030 H 
BRANCH  60  62
ATOM     62  C   UNK d   1       3.814   1.443  -2.580  0.00  0.00    -0.063 C 
ATOM     63  H   UNK d   1       4.168   1.620  -3.596  0.00  0.00     0.023 H 
ATOM     64  H   UNK d   1       2.823   1.881  -2.460  0.00  0.00     0.023 H 
ATOM     65  H   UNK d   1       4.503   1.904  -1.871  0.00  0.00     0.023 H 
ENDBRANCH  60  62
BRANCH  60  66
ATOM     66  C   UNK d   1       2.612  -0.671  -3.150  0.00  0.00    -0.063 C 
ATOM     67  H   UNK d   1       2.301   0.038  -3.917  0.00  0.00     0.023 H 
ATOM     68  H   UNK d   1       2.963  -1.588  -3.624  0.00  0.00     0.023 H 
ATOM     69  H   UNK d   1       1.767  -0.899  -2.501  0.00  0.00     0.023 H 
ENDBRANCH  60  66
ENDBRANCH  57  60
ENDBRANCH  55  57
BRANCH  55  70
ATOM     70  C   UNK d   1       5.669  -0.458  -5.106  0.00  0.00     0.062 C 
ATOM     71  O   UNK d   1       6.250  -1.503  -5.348  0.00  0.00    -0.548 OA
ATOM     72  O   UNK d   1       4.995   0.077  -5.969  0.00  0.00    -0.548 OA
ENDBRANCH  55  70
ENDBRANCH  52  55
ENDBRANCH   1  49
TORSDOF 18
ENDMDL
MODEL 10
REMARK VINA RESULT:      -5.4      3.731      8.312
REMARK  18 active torsions:
REMARK  status: ('A' for Active; 'I' for Inactive)
REMARK    1  A    between atoms: C_1  and  C_2 
REMARK    2  A    between atoms: C_2  and  C_4 
REMARK    3  A    between atoms: C_2  and  N_6 
REMARK       I    between atoms: N_6  and  C_7 
REMARK    4  A    between atoms: C_7  and  C_9 
REMARK    5  A    between atoms: C_9  and  C_11 
REMARK    6  A    between atoms: C_9  and  N_16 
REMARK    7  A    between atoms: C_11  and  C_12 
REMARK    8  A    between atoms: C_12  and  C_13 
REMARK       I    between atoms: C_13  and  N_15 
REMARK       I    between atoms: N_16  and  C_17 
REMARK    9  A    between atoms: C_17  and  C_19 
REMARK   10  A    between atoms: C_19  and  C_21 
REMARK   11  A    between atoms: C_19  and  N_29 
REMARK   12  A    between atoms: C_26  and  N_28 
REMARK       I    between atoms: N_29  and  C_30 
REMARK       I    between atoms: C_30  and  N_32 
REMARK   13  A    between atoms: N_32  and  C_33 
REMARK   14  A    between atoms: C_33  and  C_35 
REMARK   15  A    between atoms: C_33  and  C_39 
REMARK   16  A    between atoms: C_35  and  C_36 
REMARK   17  A    between atoms: C_36  and  C_37 
REMARK   18  A    between atoms: C_36  and  C_38 
ROOT
ATOM      1  C   UNK d   1      10.503   1.291  -4.722  0.00  0.00     0.134 C 
ATOM      2  H   UNK d   1      10.556   1.989  -5.559  0.00  0.00     0.063 H 
ENDROOT
BRANCH   1   3
ATOM      3  C   UNK d   1       9.466   0.237  -5.013  0.00  0.00     0.237 C 
ATOM      4  N   UNK d   1       8.470   0.012  -4.134  0.00  0.00    -0.302 N 
ATOM      5  H   UNK d   1       8.450   0.489  -3.290  0.00  0.00     0.149 HD
ATOM      6  O   UNK d   1       9.528  -0.408  -6.038  0.00  0.00    -0.274 OA
BRANCH   4   7
ATOM      7  C   UNK d   1       7.415  -0.955  -4.454  0.00  0.00     0.100 C 
ATOM      8  H   UNK d   1       7.594  -1.371  -5.445  0.00  0.00     0.059 H 
BRANCH   7   9
ATOM      9  C   UNK d   1       6.077  -0.264  -4.431  0.00  0.00     0.234 C 
ATOM     10  N   UNK d   1       5.252  -0.425  -3.377  0.00  0.00    -0.305 N 
ATOM     11  H   UNK d   1       5.521  -0.987  -2.633  0.00  0.00     0.149 HD
ATOM     12  O   UNK d   1       5.741   0.437  -5.363  0.00  0.00    -0.274 OA
BRANCH  10  13
ATOM     13  C   UNK d   1       3.951   0.247  -3.356  0.00  0.00     0.076 C 
ATOM     14  H   UNK d   1       3.807   0.790  -4.290  0.00  0.00     0.057 H 
BRANCH  13  15
ATOM     15  C   UNK d   1       2.842  -0.795  -3.195  0.00  0.00    -0.040 C 
ATOM     16  H   UNK d   1       2.110  -0.673  -3.994  0.00  0.00     0.025 H 
ATOM     17  H   UNK d   1       3.272  -1.795  -3.247  0.00  0.00     0.025 H 
ATOM     18  H   UNK d   1       2.353  -0.660  -2.231  0.00  0.00     0.025 H 
ENDBRANCH  13  15
BRANCH  13  19
ATOM     19  C   UNK d   1       3.904   1.212  -2.200  0.00  0.00     0.140 C 
ATOM     20  O   UNK d   1       4.783   1.208  -1.373  0.00  0.00    -0.299 OA
ATOM     21  H   UNK d   1       3.084   1.910  -2.112  0.00  0.00     0.105 H 
ENDBRANCH  13  19
ENDBRANCH  10  13
ENDBRANCH   7   9
BRANCH   7  22
ATOM     22  C   UNK d   1       7.426  -2.080  -3.418  0.00  0.00    -0.018 C 
ATOM     23  H   UNK d   1       8.168  -1.861  -2.650  0.00  0.00     0.029 H 
ATOM     24  H   UNK d   1       6.440  -2.160  -2.959  0.00  0.00     0.029 H 
BRANCH  22  25
ATOM     25  C   UNK d   1       7.776  -3.402  -4.105  0.00  0.00     0.026 C 
ATOM     26  H   UNK d   1       6.954  -4.107  -3.978  0.00  0.00     0.036 H 
ATOM     27  H   UNK d   1       7.945  -3.226  -5.167  0.00  0.00     0.036 H 
BRANCH  25  28
ATOM     28  C   UNK d   1       9.027  -3.973  -3.487  0.00  0.00     0.211 C 
ATOM     29  O   UNK d   1       9.713  -4.752  -4.115  0.00  0.00    -0.276 OA
ATOM     30  N   UNK d   1       9.384  -3.617  -2.238  0.00  0.00    -0.329 N 
ATOM     31  H   UNK d   1       8.836  -2.994  -1.735  0.00  0.00     0.145 HD
ATOM     32  H   UNK d   1      10.190  -3.984  -1.839  0.00  0.00     0.145 HD
ENDBRANCH  25  28
ENDBRANCH  22  25
ENDBRANCH   7  22
ENDBRANCH   4   7
ENDBRANCH   1   3
BRANCH   1  33
ATOM     33  C   UNK d   1      11.867   0.625  -4.527  0.00  0.00     0.105 C 
ATOM     34  H   UNK d   1      12.372   1.083  -3.677  0.00  0.00     0.072 H 
ATOM     35  N   UNK d   1      11.675  -0.796  -4.264  0.00  0.00    -0.277 N 
ATOM     36  C   UNK d   1      12.441  -1.725  -4.735  0.00  0.00     0.327 C 
ATOM     37  H   UNK d   1      10.930  -1.061  -3.702  0.00  0.00     0.258 HD
ATOM     38  N   UNK d   1      13.508  -1.450  -5.557  0.00  0.00    -0.241 N 
ATOM     39  C   UNK d   1      13.964  -0.056  -5.680  0.00  0.00     0.061 C 
ATOM     40  H   UNK d   1      13.951  -2.160  -6.046  0.00  0.00     0.244 HD
ATOM     41  C   UNK d   1      12.713   0.829  -5.786  0.00  0.00     0.012 C 
ATOM     42  H   UNK d   1      14.575   0.056  -6.575  0.00  0.00     0.063 H 
ATOM     43  H   UNK d   1      14.542   0.223  -4.799  0.00  0.00     0.063 H 
ATOM     44  H   UNK d   1      12.136   0.543  -6.666  0.00  0.00     0.033 H 
ATOM     45  H   UNK d   1      13.009   1.875  -5.864  0.00  0.00     0.033 H 
BRANCH  36  46
ATOM     46  N   UNK d   1      12.177  -3.033  -4.406  0.00  0.00    -0.254 N 
ATOM     47  H   UNK d   1      12.533  -3.408  -3.584  0.00  0.00     0.241 HD
ATOM     48  H   UNK d   1      11.635  -3.582  -4.994  0.00  0.00     0.241 HD
ENDBRANCH  36  46
ENDBRANCH   1  33
BRANCH   1  49
ATOM     49  N   UNK d   1      10.135   2.016  -3.504  0.00  0.00    -0.285 N 
ATOM     50  C   UNK d   0      10.643   3.242  -3.270  0.00  0.00     0.301 C 
ATOM     51  O   UNK d   0      11.404   3.748  -4.070  0.00  0.00    -0.253 OA
ATOM     52  N   UNK d   1      10.303   3.909  -2.149  0.00  0.00    -0.291 N 
ATOM     53  H   UNK d   1       9.694   3.506  -1.510  0.00  0.00     0.151 HD
ATOM     54  H   UNK d   1       9.527   1.613  -2.865  0.00  0.00     0.151 HD
BRANCH  52  55
ATOM     55  C   UNK d   1      10.854   5.243  -1.895  0.00  0.00     0.064 C 
ATOM     56  H   UNK d   1      11.678   5.432  -2.583  0.00  0.00     0.056 H 
BRANCH  55  57
ATOM     57  C   UNK d   1      11.365   5.318  -0.455  0.00  0.00    -0.027 C 
ATOM     58  H   UNK d   1      10.737   5.999   0.119  0.00  0.00     0.029 H 
ATOM     59  H   UNK d   1      11.330   4.326  -0.005  0.00  0.00     0.029 H 
BRANCH  57  60
ATOM     60  C   UNK d   1      12.808   5.829  -0.451  0.00  0.00    -0.045 C 
ATOM     61  H   UNK d   1      13.350   5.379   0.380  0.00  0.00     0.030 H 
BRANCH  60  62
ATOM     62  C   UNK d   1      13.486   5.450  -1.768  0.00  0.00    -0.063 C 
ATOM     63  H   UNK d   1      14.077   4.546  -1.625  0.00  0.00     0.023 H 
ATOM     64  H   UNK d   1      12.727   5.270  -2.529  0.00  0.00     0.023 H 
ATOM     65  H   UNK d   1      14.137   6.263  -2.089  0.00  0.00     0.023 H 
ENDBRANCH  60  62
BRANCH  60  66
ATOM     66  C   UNK d   1      12.809   7.351  -0.295  0.00  0.00    -0.063 C 
ATOM     67  H   UNK d   1      11.783   7.719  -0.306  0.00  0.00     0.023 H 
ATOM     68  H   UNK d   1      13.281   7.619   0.650  0.00  0.00     0.023 H 
ATOM     69  H   UNK d   1      13.365   7.800  -1.118  0.00  0.00     0.023 H 
ENDBRANCH  60  66
ENDBRANCH  57  60
ENDBRANCH  55  57
BRANCH  55  70
ATOM     70  C   UNK d   1       9.779   6.278  -2.102  0.00  0.00     0.062 C 
ATOM     71  O   UNK d   1       9.348   6.907  -1.150  0.00  0.00    -0.548 OA
ATOM     72  O   UNK d   1       9.341   6.488  -3.219  0.00  0.00    -0.548 OA
ENDBRANCH  55  70
ENDBRANCH  52  55
ENDBRANCH   1  49
TORSDOF 18
ENDMDL
