MODEL 1
REMARK VINA RESULT:      -6.2      0.000      0.000
REMARK  6 active torsions:
REMARK  status: ('A' for Active; 'I' for Inactive)
REMARK    1  A    between atoms: C_1  and  C_2 
REMARK    2  A    between atoms: C_2  and  C_3 
REMARK    3  A    between atoms: C_3  and  N_4 
REMARK    4  A    between atoms: C_6  and  C_13 
REMARK    5  A    between atoms: N_18  and  C_21 
REMARK    6  A    between atoms: C_24  and  C_27 
ROOT
ATOM      1  N   LIG d   1       3.853  -0.764  -6.050  0.00  0.00    -0.346 N 
ATOM      2  C   LIG d   1       4.391  -1.944  -6.487  0.00  0.00     0.010 A 
ATOM      3  C   LIG d   1       4.798  -2.677  -5.439  0.00  0.00    -0.010 A 
ATOM      4  C   LIG d   1       4.495  -1.903  -4.232  0.00  0.00     0.004 A 
ATOM      5  C   LIG d   1       3.907  -0.705  -4.676  0.00  0.00     0.049 A 
ATOM      6  C   LIG d   1       3.511   0.247  -3.742  0.00  0.00    -0.038 A 
ATOM      7  C   LIG d   1       3.703   0.009  -2.399  0.00  0.00    -0.060 A 
ATOM      8  C   LIG d   1       4.288  -1.174  -1.966  0.00  0.00    -0.061 A 
ATOM      9  C   LIG d   1       4.676  -2.126  -2.866  0.00  0.00    -0.052 A 
ATOM     10  H   LIG d   1       4.476  -2.242  -7.522  0.00  0.00     0.081 H 
ATOM     11  H   LIG d   1       3.056   1.170  -4.069  0.00  0.00     0.064 H 
ATOM     12  H   LIG d   1       3.397   0.749  -1.675  0.00  0.00     0.062 H 
ATOM     13  H   LIG d   1       4.432  -1.344  -0.909  0.00  0.00     0.062 H 
ATOM     14  H   LIG d   1       5.132  -3.043  -2.522  0.00  0.00     0.062 H 
ENDROOT
BRANCH   3  15
ATOM     15  C   LIG d   1       5.444  -4.037  -5.493  0.00  0.00     0.072 A 
ATOM     16  H   LIG d   1       5.729  -4.365  -4.494  0.00  0.00     0.045 H 
ATOM     17  C   LIG d   1       4.513  -5.043  -6.138  0.00  0.00     0.234 A 
ATOM     18  N   LIG d   1       5.091  -5.521  -7.250  0.00  0.00    -0.210 N 
ATOM     19  O   LIG d   1       3.423  -5.361  -5.715  0.00  0.00    -0.274 OA
ATOM     20  C   LIG d   1       6.304  -5.017  -7.508  0.00  0.00     0.227 A 
ATOM     21  C   LIG d   1       6.668  -4.020  -6.430  0.00  0.00     0.040 A 
ATOM     22  O   LIG d   1       6.999  -5.311  -8.456  0.00  0.00    -0.275 OA
ATOM     23  H   LIG d   1       6.811  -3.028  -6.857  0.00  0.00     0.037 H 
ATOM     24  H   LIG d   1       7.563  -4.342  -5.896  0.00  0.00     0.037 H 
BRANCH  18  25
ATOM     25  C   LIG d   1       4.475  -6.475  -8.072  0.00  0.00     0.044 A 
ATOM     26  C   LIG d   1       4.654  -7.829  -7.821  0.00  0.00    -0.040 A 
ATOM     27  C   LIG d   1       4.041  -8.767  -8.629  0.00  0.00    -0.057 A 
ATOM     28  H   LIG d   1       5.270  -8.148  -6.993  0.00  0.00     0.064 H 
ATOM     29  C   LIG d   1       3.258  -8.359  -9.693  0.00  0.00    -0.050 A 
ATOM     30  H   LIG d   1       4.177  -9.820  -8.432  0.00  0.00     0.062 H 
ATOM     31  C   LIG d   1       3.081  -7.011  -9.948  0.00  0.00    -0.057 A 
ATOM     32  C   LIG d   1       3.688  -6.069  -9.141  0.00  0.00    -0.040 A 
ATOM     33  H   LIG d   1       2.469  -6.695 -10.780  0.00  0.00     0.062 H 
ATOM     34  H   LIG d   1       3.550  -5.017  -9.341  0.00  0.00     0.064 H 
BRANCH  29  35
ATOM     35  C   LIG d   1       2.595  -9.385 -10.575  0.00  0.00    -0.040 C 
ATOM     36  H   LIG d   1       3.326 -10.136 -10.872  0.00  0.00     0.028 H 
ATOM     37  H   LIG d   1       1.783  -9.864 -10.029  0.00  0.00     0.028 H 
ATOM     38  H   LIG d   1       2.195  -8.896 -11.464  0.00  0.00     0.028 H 
ENDBRANCH  29  35
ENDBRANCH  18  25
ENDBRANCH   3  15
BRANCH   1  39
ATOM     39  C   LIG d   1       3.306   0.283  -6.917  0.00  0.00     0.023 C 
ATOM     40  H   LIG d   1       4.105   0.963  -7.213  0.00  0.00     0.049 H 
ATOM     41  H   LIG d   1       2.539   0.839  -6.376  0.00  0.00     0.049 H 
BRANCH  39  42
ATOM     42  C   LIG d   1       2.691  -0.356  -8.163  0.00  0.00    -0.038 C 
ATOM     43  H   LIG d   1       1.729  -0.800  -7.907  0.00  0.00     0.028 H 
ATOM     44  H   LIG d   1       3.359  -1.129  -8.542  0.00  0.00     0.028 H 
BRANCH  42  45
ATOM     45  C   LIG d   1       2.487   0.715  -9.237  0.00  0.00    -0.064 C 
ATOM     46  H   LIG d   1       1.572   0.506  -9.790  0.00  0.00     0.023 H 
ATOM     47  H   LIG d   1       2.410   1.695  -8.764  0.00  0.00     0.023 H 
ATOM     48  H   LIG d   1       3.336   0.710  -9.922  0.00  0.00     0.023 H 
ENDBRANCH  42  45
ENDBRANCH  39  42
ENDBRANCH   1  39
TORSDOF 6
ENDMDL
MODEL 2
REMARK VINA RESULT:      -6.2      4.242      5.566
REMARK  6 active torsions:
REMARK  status: ('A' for Active; 'I' for Inactive)
REMARK    1  A    between atoms: C_1  and  C_2 
REMARK    2  A    between atoms: C_2  and  C_3 
REMARK    3  A    between atoms: C_3  and  N_4 
REMARK    4  A    between atoms: C_6  and  C_13 
REMARK    5  A    between atoms: N_18  and  C_21 
REMARK    6  A    between atoms: C_24  and  C_27 
ROOT
ATOM      1  N   LIG d   1       4.325  -0.512  -4.822  0.00  0.00    -0.346 N 
ATOM      2  C   LIG d   1       4.267  -0.124  -6.133  0.00  0.00     0.010 A 
ATOM      3  C   LIG d   1       5.387  -0.499  -6.771  0.00  0.00    -0.010 A 
ATOM      4  C   LIG d   1       6.231  -1.184  -5.788  0.00  0.00     0.004 A 
ATOM      5  C   LIG d   1       5.516  -1.158  -4.577  0.00  0.00     0.049 A 
ATOM      6  C   LIG d   1       6.076  -1.737  -3.443  0.00  0.00    -0.038 A 
ATOM      7  C   LIG d   1       7.321  -2.323  -3.517  0.00  0.00    -0.060 A 
ATOM      8  C   LIG d   1       8.024  -2.343  -4.714  0.00  0.00    -0.061 A 
ATOM      9  C   LIG d   1       7.488  -1.787  -5.842  0.00  0.00    -0.052 A 
ATOM     10  H   LIG d   1       3.443   0.405  -6.587  0.00  0.00     0.081 H 
ATOM     11  H   LIG d   1       5.538  -1.726  -2.507  0.00  0.00     0.064 H 
ATOM     12  H   LIG d   1       7.755  -2.771  -2.635  0.00  0.00     0.062 H 
ATOM     13  H   LIG d   1       8.999  -2.805  -4.755  0.00  0.00     0.062 H 
ATOM     14  H   LIG d   1       8.042  -1.805  -6.770  0.00  0.00     0.062 H 
ENDROOT
BRANCH   3  15
ATOM     15  C   LIG d   1       5.714  -0.262  -8.223  0.00  0.00     0.072 A 
ATOM     16  H   LIG d   1       6.765  -0.473  -8.418  0.00  0.00     0.045 H 
ATOM     17  C   LIG d   1       4.827  -1.106  -9.113  0.00  0.00     0.234 A 
ATOM     18  N   LIG d   1       4.093  -0.297  -9.893  0.00  0.00    -0.210 N 
ATOM     19  O   LIG d   1       4.788  -2.318  -9.118  0.00  0.00    -0.274 OA
ATOM     20  C   LIG d   1       4.317   1.009  -9.704  0.00  0.00     0.227 A 
ATOM     21  C   LIG d   1       5.366   1.185  -8.628  0.00  0.00     0.040 A 
ATOM     22  O   LIG d   1       3.766   1.909 -10.301  0.00  0.00    -0.275 OA
ATOM     23  H   LIG d   1       4.956   1.733  -7.779  0.00  0.00     0.037 H 
ATOM     24  H   LIG d   1       6.244   1.693  -9.027  0.00  0.00     0.037 H 
BRANCH  18  25
ATOM     25  C   LIG d   1       3.171  -0.782 -10.830  0.00  0.00     0.044 A 
ATOM     26  C   LIG d   1       3.590  -1.110 -12.112  0.00  0.00    -0.040 A 
ATOM     27  C   LIG d   1       2.680  -1.594 -13.033  0.00  0.00    -0.057 A 
ATOM     28  H   LIG d   1       4.627  -0.991 -12.389  0.00  0.00     0.064 H 
ATOM     29  C   LIG d   1       1.351  -1.741 -12.681  0.00  0.00    -0.050 A 
ATOM     30  H   LIG d   1       3.007  -1.853 -14.029  0.00  0.00     0.062 H 
ATOM     31  C   LIG d   1       0.930  -1.410 -11.406  0.00  0.00    -0.057 A 
ATOM     32  C   LIG d   1       1.836  -0.931 -10.480  0.00  0.00    -0.040 A 
ATOM     33  H   LIG d   1      -0.109  -1.527 -11.134  0.00  0.00     0.062 H 
ATOM     34  H   LIG d   1       1.506  -0.673  -9.485  0.00  0.00     0.064 H 
BRANCH  29  35
ATOM     35  C   LIG d   1       0.361  -2.264 -13.689  0.00  0.00    -0.040 C 
ATOM     36  H   LIG d   1       0.887  -2.831 -14.456  0.00  0.00     0.028 H 
ATOM     37  H   LIG d   1      -0.360  -2.909 -13.189  0.00  0.00     0.028 H 
ATOM     38  H   LIG d   1      -0.162  -1.426 -14.152  0.00  0.00     0.028 H 
ENDBRANCH  29  35
ENDBRANCH  18  25
ENDBRANCH   3  15
BRANCH   1  39
ATOM     39  C   LIG d   1       3.278  -0.271  -3.825  0.00  0.00     0.023 C 
ATOM     40  H   LIG d   1       3.320  -1.045  -3.060  0.00  0.00     0.049 H 
ATOM     41  H   LIG d   1       2.302  -0.294  -4.311  0.00  0.00     0.049 H 
BRANCH  39  42
ATOM     42  C   LIG d   1       3.496   1.098  -3.179  0.00  0.00    -0.038 C 
ATOM     43  H   LIG d   1       2.530   1.571  -2.996  0.00  0.00     0.028 H 
ATOM     44  H   LIG d   1       4.088   1.725  -3.846  0.00  0.00     0.028 H 
BRANCH  42  45
ATOM     45  C   LIG d   1       4.236   0.923  -1.852  0.00  0.00    -0.064 C 
ATOM     46  H   LIG d   1       5.026   0.181  -1.970  0.00  0.00     0.023 H 
ATOM     47  H   LIG d   1       4.675   1.875  -1.552  0.00  0.00     0.023 H 
ATOM     48  H   LIG d   1       3.536   0.590  -1.085  0.00  0.00     0.023 H 
ENDBRANCH  42  45
ENDBRANCH  39  42
ENDBRANCH   1  39
TORSDOF 6
ENDMDL
MODEL 3
REMARK VINA RESULT:      -6.1      7.253      9.364
REMARK  6 active torsions:
REMARK  status: ('A' for Active; 'I' for Inactive)
REMARK    1  A    between atoms: C_1  and  C_2 
REMARK    2  A    between atoms: C_2  and  C_3 
REMARK    3  A    between atoms: C_3  and  N_4 
REMARK    4  A    between atoms: C_6  and  C_13 
REMARK    5  A    between atoms: N_18  and  C_21 
REMARK    6  A    between atoms: C_24  and  C_27 
ROOT
ATOM      1  N   LIG d   1       9.513   6.747  -5.045  0.00  0.00    -0.346 N 
ATOM      2  C   LIG d   1       9.490   5.514  -5.638  0.00  0.00     0.010 A 
ATOM      3  C   LIG d   1       9.812   4.569  -4.741  0.00  0.00    -0.010 A 
ATOM      4  C   LIG d   1      10.060   5.253  -3.469  0.00  0.00     0.004 A 
ATOM      5  C   LIG d   1       9.864   6.623  -3.719  0.00  0.00     0.049 A 
ATOM      6  C   LIG d   1      10.036   7.536  -2.685  0.00  0.00    -0.038 A 
ATOM      7  C   LIG d   1      10.399   7.092  -1.432  0.00  0.00    -0.060 A 
ATOM      8  C   LIG d   1      10.596   5.739  -1.191  0.00  0.00    -0.061 A 
ATOM      9  C   LIG d   1      10.423   4.824  -2.192  0.00  0.00    -0.052 A 
ATOM     10  H   LIG d   1       9.250   5.329  -6.674  0.00  0.00     0.081 H 
ATOM     11  H   LIG d   1       9.886   8.591  -2.862  0.00  0.00     0.064 H 
ATOM     12  H   LIG d   1      10.533   7.802  -0.630  0.00  0.00     0.062 H 
ATOM     13  H   LIG d   1      10.881   5.406  -0.204  0.00  0.00     0.062 H 
ATOM     14  H   LIG d   1      10.580   3.773  -1.997  0.00  0.00     0.062 H 
ENDROOT
BRANCH   3  15
ATOM     15  C   LIG d   1       9.901   3.086  -4.993  0.00  0.00     0.072 A 
ATOM     16  H   LIG d   1      10.938   2.755  -4.963  0.00  0.00     0.045 H 
ATOM     17  C   LIG d   1       9.068   2.324  -3.985  0.00  0.00     0.234 A 
ATOM     18  N   LIG d   1       8.109   1.646  -4.633  0.00  0.00    -0.210 N 
ATOM     19  O   LIG d   1       9.242   2.328  -2.785  0.00  0.00    -0.274 OA
ATOM     20  C   LIG d   1       8.122   1.799  -5.963  0.00  0.00     0.227 A 
ATOM     21  C   LIG d   1       9.254   2.727  -6.346  0.00  0.00     0.040 A 
ATOM     22  O   LIG d   1       7.349   1.278  -6.737  0.00  0.00    -0.275 OA
ATOM     23  H   LIG d   1       8.868   3.620  -6.837  0.00  0.00     0.037 H 
ATOM     24  H   LIG d   1       9.970   2.213  -6.989  0.00  0.00     0.037 H 
BRANCH  18  25
ATOM     25  C   LIG d   1       7.172   0.840  -3.971  0.00  0.00     0.044 A 
ATOM     26  C   LIG d   1       7.312  -0.541  -3.982  0.00  0.00    -0.040 A 
ATOM     27  C   LIG d   1       6.391  -1.333  -3.323  0.00  0.00    -0.057 A 
ATOM     28  H   LIG d   1       8.142  -0.996  -4.502  0.00  0.00     0.064 H 
ATOM     29  C   LIG d   1       5.325  -0.751  -2.662  0.00  0.00    -0.050 A 
ATOM     30  H   LIG d   1       6.502  -2.407  -3.328  0.00  0.00     0.062 H 
ATOM     31  C   LIG d   1       5.180   0.624  -2.653  0.00  0.00    -0.057 A 
ATOM     32  C   LIG d   1       6.101   1.421  -3.306  0.00  0.00    -0.040 A 
ATOM     33  H   LIG d   1       4.347   1.076  -2.136  0.00  0.00     0.062 H 
ATOM     34  H   LIG d   1       5.987   2.495  -3.299  0.00  0.00     0.064 H 
BRANCH  29  35
ATOM     35  C   LIG d   1       4.319  -1.618  -1.949  0.00  0.00    -0.040 C 
ATOM     36  H   LIG d   1       3.578  -1.976  -2.662  0.00  0.00     0.028 H 
ATOM     37  H   LIG d   1       4.829  -2.468  -1.496  0.00  0.00     0.028 H 
ATOM     38  H   LIG d   1       3.824  -1.035  -1.172  0.00  0.00     0.028 H 
ENDBRANCH  29  35
ENDBRANCH  18  25
ENDBRANCH   3  15
BRANCH   1  39
ATOM     39  C   LIG d   1       9.214   8.012  -5.722  0.00  0.00     0.023 C 
ATOM     40  H   LIG d   1       9.589   8.842  -5.122  0.00  0.00     0.049 H 
ATOM     41  H   LIG d   1       8.135   8.113  -5.845  0.00  0.00     0.049 H 
BRANCH  39  42
ATOM     42  C   LIG d   1       9.889   8.028  -7.094  0.00  0.00    -0.038 C 
ATOM     43  H   LIG d   1      10.254   7.028  -7.331  0.00  0.00     0.028 H 
ATOM     44  H   LIG d   1      10.726   8.727  -7.079  0.00  0.00     0.028 H 
BRANCH  42  45
ATOM     45  C   LIG d   1       8.877   8.466  -8.155  0.00  0.00    -0.064 C 
ATOM     46  H   LIG d   1       9.406   8.781  -9.054  0.00  0.00     0.023 H 
ATOM     47  H   LIG d   1       8.219   7.630  -8.395  0.00  0.00     0.023 H 
ATOM     48  H   LIG d   1       8.284   9.296  -7.771  0.00  0.00     0.023 H 
ENDBRANCH  42  45
ENDBRANCH  39  42
ENDBRANCH   1  39
TORSDOF 6
ENDMDL
MODEL 4
REMARK VINA RESULT:      -6.1      6.689      9.783
REMARK  6 active torsions:
REMARK  status: ('A' for Active; 'I' for Inactive)
REMARK    1  A    between atoms: C_1  and  C_2 
REMARK    2  A    between atoms: C_2  and  C_3 
REMARK    3  A    between atoms: C_3  and  N_4 
REMARK    4  A    between atoms: C_6  and  C_13 
REMARK    5  A    between atoms: N_18  and  C_21 
REMARK    6  A    between atoms: C_24  and  C_27 
ROOT
ATOM      1  N   LIG d   1       7.156  -1.517  -4.030  0.00  0.00    -0.346 N 
ATOM      2  C   LIG d   1       7.918  -0.546  -4.620  0.00  0.00     0.010 A 
ATOM      3  C   LIG d   1       7.467   0.668  -4.265  0.00  0.00    -0.010 A 
ATOM      4  C   LIG d   1       6.322   0.456  -3.375  0.00  0.00     0.004 A 
ATOM      5  C   LIG d   1       6.167  -0.938  -3.267  0.00  0.00     0.049 A 
ATOM      6  C   LIG d   1       5.142  -1.450  -2.479  0.00  0.00    -0.038 A 
ATOM      7  C   LIG d   1       4.290  -0.591  -1.820  0.00  0.00    -0.060 A 
ATOM      8  C   LIG d   1       4.445   0.785  -1.934  0.00  0.00    -0.061 A 
ATOM      9  C   LIG d   1       5.451   1.308  -2.696  0.00  0.00    -0.052 A 
ATOM     10  H   LIG d   1       8.758  -0.728  -5.273  0.00  0.00     0.081 H 
ATOM     11  H   LIG d   1       5.012  -2.518  -2.385  0.00  0.00     0.064 H 
ATOM     12  H   LIG d   1       3.494  -0.990  -1.209  0.00  0.00     0.062 H 
ATOM     13  H   LIG d   1       3.769   1.445  -1.411  0.00  0.00     0.062 H 
ATOM     14  H   LIG d   1       5.565   2.379  -2.780  0.00  0.00     0.062 H 
ENDROOT
BRANCH   3  15
ATOM     15  C   LIG d   1       8.030   1.996  -4.700  0.00  0.00     0.072 A 
ATOM     16  H   LIG d   1       7.305   2.791  -4.536  0.00  0.00     0.045 H 
ATOM     17  C   LIG d   1       9.321   2.292  -3.965  0.00  0.00     0.234 A 
ATOM     18  N   LIG d   1      10.318   2.394  -4.858  0.00  0.00    -0.210 N 
ATOM     19  O   LIG d   1       9.432   2.417  -2.764  0.00  0.00    -0.274 OA
ATOM     20  C   LIG d   1       9.944   2.218  -6.131  0.00  0.00     0.227 A 
ATOM     21  C   LIG d   1       8.457   1.946  -6.181  0.00  0.00     0.040 A 
ATOM     22  O   LIG d   1      10.681   2.269  -7.092  0.00  0.00    -0.275 OA
ATOM     23  H   LIG d   1       8.262   0.961  -6.604  0.00  0.00     0.037 H 
ATOM     24  H   LIG d   1       7.944   2.720  -6.754  0.00  0.00     0.037 H 
BRANCH  18  25
ATOM     25  C   LIG d   1      11.642   2.664  -4.485  0.00  0.00     0.044 A 
ATOM     26  C   LIG d   1      12.498   1.623  -4.153  0.00  0.00    -0.040 A 
ATOM     27  C   LIG d   1      13.804   1.892  -3.792  0.00  0.00    -0.057 A 
ATOM     28  H   LIG d   1      12.143   0.603  -4.179  0.00  0.00     0.064 H 
ATOM     29  C   LIG d   1      14.256   3.198  -3.752  0.00  0.00    -0.050 A 
ATOM     30  H   LIG d   1      14.471   1.082  -3.537  0.00  0.00     0.062 H 
ATOM     31  C   LIG d   1      13.405   4.238  -4.077  0.00  0.00    -0.057 A 
ATOM     32  C   LIG d   1      12.099   3.974  -4.444  0.00  0.00    -0.040 A 
ATOM     33  H   LIG d   1      13.761   5.257  -4.046  0.00  0.00     0.062 H 
ATOM     34  H   LIG d   1      11.435   4.787  -4.698  0.00  0.00     0.064 H 
BRANCH  29  35
ATOM     35  C   LIG d   1      15.680   3.488  -3.352  0.00  0.00    -0.040 C 
ATOM     36  H   LIG d   1      15.705   4.367  -2.709  0.00  0.00     0.028 H 
ATOM     37  H   LIG d   1      16.088   2.632  -2.815  0.00  0.00     0.028 H 
ATOM     38  H   LIG d   1      16.277   3.674  -4.246  0.00  0.00     0.028 H 
ENDBRANCH  29  35
ENDBRANCH  18  25
ENDBRANCH   3  15
BRANCH   1  39
ATOM     39  C   LIG d   1       7.358  -2.960  -4.192  0.00  0.00     0.023 C 
ATOM     40  H   LIG d   1       6.898  -3.288  -5.123  0.00  0.00     0.049 H 
ATOM     41  H   LIG d   1       6.899  -3.487  -3.354  0.00  0.00     0.049 H 
BRANCH  39  42
ATOM     42  C   LIG d   1       8.857  -3.263  -4.227  0.00  0.00    -0.038 C 
ATOM     43  H   LIG d   1       9.414  -2.331  -4.328  0.00  0.00     0.028 H 
ATOM     44  H   LIG d   1       9.076  -3.912  -5.075  0.00  0.00     0.028 H 
BRANCH  42  45
ATOM     45  C   LIG d   1       9.266  -3.963  -2.929  0.00  0.00    -0.064 C 
ATOM     46  H   LIG d   1       8.487  -3.825  -2.180  0.00  0.00     0.023 H 
ATOM     47  H   LIG d   1       9.404  -5.028  -3.118  0.00  0.00     0.023 H 
ATOM     48  H   LIG d   1      10.201  -3.536  -2.565  0.00  0.00     0.023 H 
ENDBRANCH  42  45
ENDBRANCH  39  42
ENDBRANCH   1  39
TORSDOF 6
ENDMDL
MODEL 5
REMARK VINA RESULT:      -6.1      3.100      7.906
REMARK  6 active torsions:
REMARK  status: ('A' for Active; 'I' for Inactive)
REMARK    1  A    between atoms: C_1  and  C_2 
REMARK    2  A    between atoms: C_2  and  C_3 
REMARK    3  A    between atoms: C_3  and  N_4 
REMARK    4  A    between atoms: C_6  and  C_13 
REMARK    5  A    between atoms: N_18  and  C_21 
REMARK    6  A    between atoms: C_24  and  C_27 
ROOT
ATOM      1  N   LIG d   1       8.268  -7.255  -4.485  0.00  0.00    -0.346 N 
ATOM      2  C   LIG d   1       7.988  -6.058  -5.085  0.00  0.00     0.010 A 
ATOM      3  C   LIG d   1       6.753  -6.088  -5.611  0.00  0.00    -0.010 A 
ATOM      4  C   LIG d   1       6.198  -7.413  -5.324  0.00  0.00     0.004 A 
ATOM      5  C   LIG d   1       7.196  -8.109  -4.618  0.00  0.00     0.049 A 
ATOM      6  C   LIG d   1       6.955  -9.415  -4.209  0.00  0.00    -0.038 A 
ATOM      7  C   LIG d   1       5.749 -10.014  -4.501  0.00  0.00    -0.060 A 
ATOM      8  C   LIG d   1       4.768  -9.324  -5.202  0.00  0.00    -0.061 A 
ATOM      9  C   LIG d   1       4.981  -8.036  -5.606  0.00  0.00    -0.052 A 
ATOM     10  H   LIG d   1       8.660  -5.214  -5.128  0.00  0.00     0.081 H 
ATOM     11  H   LIG d   1       7.712  -9.961  -3.664  0.00  0.00     0.064 H 
ATOM     12  H   LIG d   1       5.564 -11.029  -4.183  0.00  0.00     0.062 H 
ATOM     13  H   LIG d   1       3.828  -9.808  -5.423  0.00  0.00     0.062 H 
ATOM     14  H   LIG d   1       4.214  -7.507  -6.152  0.00  0.00     0.062 H 
ENDROOT
BRANCH   3  15
ATOM     15  C   LIG d   1       6.069  -4.971  -6.356  0.00  0.00     0.072 A 
ATOM     16  H   LIG d   1       5.423  -5.371  -7.137  0.00  0.00     0.045 H 
ATOM     17  C   LIG d   1       5.277  -4.103  -5.402  0.00  0.00     0.234 A 
ATOM     18  N   LIG d   1       5.768  -2.854  -5.438  0.00  0.00    -0.210 N 
ATOM     19  O   LIG d   1       4.349  -4.477  -4.718  0.00  0.00    -0.274 OA
ATOM     20  C   LIG d   1       6.797  -2.685  -6.277  0.00  0.00     0.227 A 
ATOM     21  C   LIG d   1       7.108  -4.002  -6.955  0.00  0.00     0.040 A 
ATOM     22  O   LIG d   1       7.386  -1.643  -6.464  0.00  0.00    -0.275 OA
ATOM     23  H   LIG d   1       8.120  -4.327  -6.714  0.00  0.00     0.037 H 
ATOM     24  H   LIG d   1       6.977  -3.918  -8.034  0.00  0.00     0.037 H 
BRANCH  18  25
ATOM     25  C   LIG d   1       5.243  -1.812  -4.661  0.00  0.00     0.044 A 
ATOM     26  C   LIG d   1       4.219  -1.020  -5.161  0.00  0.00    -0.040 A 
ATOM     27  C   LIG d   1       3.699   0.003  -4.391  0.00  0.00    -0.057 A 
ATOM     28  H   LIG d   1       3.827  -1.204  -6.151  0.00  0.00     0.064 H 
ATOM     29  C   LIG d   1       4.204   0.243  -3.127  0.00  0.00    -0.050 A 
ATOM     30  H   LIG d   1       2.899   0.617  -4.778  0.00  0.00     0.062 H 
ATOM     31  C   LIG d   1       5.228  -0.541  -2.627  0.00  0.00    -0.057 A 
ATOM     32  C   LIG d   1       5.748  -1.569  -3.391  0.00  0.00    -0.040 A 
ATOM     33  H   LIG d   1       5.620  -0.352  -1.639  0.00  0.00     0.062 H 
ATOM     34  H   LIG d   1       6.547  -2.180  -3.000  0.00  0.00     0.064 H 
BRANCH  29  35
ATOM     35  C   LIG d   1       3.638   1.363  -2.292  0.00  0.00    -0.040 C 
ATOM     36  H   LIG d   1       3.467   1.008  -1.276  0.00  0.00     0.028 H 
ATOM     37  H   LIG d   1       4.342   2.194  -2.273  0.00  0.00     0.028 H 
ATOM     38  H   LIG d   1       2.694   1.697  -2.724  0.00  0.00     0.028 H 
ENDBRANCH  29  35
ENDBRANCH  18  25
ENDBRANCH   3  15
BRANCH   1  39
ATOM     39  C   LIG d   1       9.525  -7.583  -3.806  0.00  0.00     0.023 C 
ATOM     40  H   LIG d   1      10.303  -6.893  -4.130  0.00  0.00     0.049 H 
ATOM     41  H   LIG d   1       9.817  -8.603  -4.056  0.00  0.00     0.049 H 
BRANCH  39  42
ATOM     42  C   LIG d   1       9.333  -7.462  -2.293  0.00  0.00    -0.038 C 
ATOM     43  H   LIG d   1       9.938  -8.216  -1.789  0.00  0.00     0.028 H 
ATOM     44  H   LIG d   1       8.283  -7.614  -2.046  0.00  0.00     0.028 H 
BRANCH  42  45
ATOM     45  C   LIG d   1       9.770  -6.069  -1.834  0.00  0.00    -0.064 C 
ATOM     46  H   LIG d   1       9.063  -5.691  -1.096  0.00  0.00     0.023 H 
ATOM     47  H   LIG d   1      10.763  -6.128  -1.388  0.00  0.00     0.023 H 
ATOM     48  H   LIG d   1       9.796  -5.396  -2.690  0.00  0.00     0.023 H 
ENDBRANCH  42  45
ENDBRANCH  39  42
ENDBRANCH   1  39
TORSDOF 6
ENDMDL
MODEL 6
REMARK VINA RESULT:      -6.0      7.170      9.794
REMARK  6 active torsions:
REMARK  status: ('A' for Active; 'I' for Inactive)
REMARK    1  A    between atoms: C_1  and  C_2 
REMARK    2  A    between atoms: C_2  and  C_3 
REMARK    3  A    between atoms: C_3  and  N_4 
REMARK    4  A    between atoms: C_6  and  C_13 
REMARK    5  A    between atoms: N_18  and  C_21 
REMARK    6  A    between atoms: C_24  and  C_27 
ROOT
ATOM      1  N   LIG d   1       9.849   6.437  -4.058  0.00  0.00    -0.346 N 
ATOM      2  C   LIG d   1       9.895   5.081  -3.877  0.00  0.00     0.010 A 
ATOM      3  C   LIG d   1       9.853   4.460  -5.066  0.00  0.00    -0.010 A 
ATOM      4  C   LIG d   1       9.774   5.503  -6.092  0.00  0.00     0.004 A 
ATOM      5  C   LIG d   1       9.769   6.728  -5.401  0.00  0.00     0.049 A 
ATOM      6  C   LIG d   1       9.695   7.915  -6.121  0.00  0.00    -0.038 A 
ATOM      7  C   LIG d   1       9.623   7.879  -7.497  0.00  0.00    -0.060 A 
ATOM      8  C   LIG d   1       9.624   6.667  -8.174  0.00  0.00    -0.061 A 
ATOM      9  C   LIG d   1       9.705   5.489  -7.486  0.00  0.00    -0.052 A 
ATOM     10  H   LIG d   1       9.956   4.585  -2.920  0.00  0.00     0.081 H 
ATOM     11  H   LIG d   1       9.692   8.864  -5.604  0.00  0.00     0.064 H 
ATOM     12  H   LIG d   1       9.564   8.802  -8.054  0.00  0.00     0.062 H 
ATOM     13  H   LIG d   1       9.567   6.656  -9.252  0.00  0.00     0.062 H 
ATOM     14  H   LIG d   1       9.705   4.550  -8.020  0.00  0.00     0.062 H 
ENDROOT
BRANCH   3  15
ATOM     15  C   LIG d   1       9.882   2.971  -5.301  0.00  0.00     0.072 A 
ATOM     16  H   LIG d   1      10.908   2.609  -5.334  0.00  0.00     0.045 H 
ATOM     17  C   LIG d   1       9.095   2.248  -4.229  0.00  0.00     0.234 A 
ATOM     18  N   LIG d   1       8.076   1.591  -4.803  0.00  0.00    -0.210 N 
ATOM     19  O   LIG d   1       9.348   2.263  -3.043  0.00  0.00    -0.274 OA
ATOM     20  C   LIG d   1       8.006   1.725  -6.133  0.00  0.00     0.227 A 
ATOM     21  C   LIG d   1       9.137   2.613  -6.603  0.00  0.00     0.040 A 
ATOM     22  O   LIG d   1       7.169   1.217  -6.846  0.00  0.00    -0.275 OA
ATOM     23  H   LIG d   1       8.746   3.511  -7.082  0.00  0.00     0.037 H 
ATOM     24  H   LIG d   1       9.794   2.070  -7.283  0.00  0.00     0.037 H 
BRANCH  18  25
ATOM     25  C   LIG d   1       7.161   0.823  -4.068  0.00  0.00     0.044 A 
ATOM     26  C   LIG d   1       6.096   1.438  -3.424  0.00  0.00    -0.040 A 
ATOM     27  C   LIG d   1       5.193   0.679  -2.706  0.00  0.00    -0.057 A 
ATOM     28  H   LIG d   1       5.972   2.509  -3.487  0.00  0.00     0.064 H 
ATOM     29  C   LIG d   1       5.354  -0.692  -2.620  0.00  0.00    -0.050 A 
ATOM     30  H   LIG d   1       4.362   1.156  -2.208  0.00  0.00     0.062 H 
ATOM     31  C   LIG d   1       6.417  -1.307  -3.256  0.00  0.00    -0.057 A 
ATOM     32  C   LIG d   1       7.321  -0.553  -3.980  0.00  0.00    -0.040 A 
ATOM     33  H   LIG d   1       6.541  -2.378  -3.188  0.00  0.00     0.062 H 
ATOM     34  H   LIG d   1       8.150  -1.034  -4.477  0.00  0.00     0.064 H 
BRANCH  29  35
ATOM     35  C   LIG d   1       4.370  -1.516  -1.831  0.00  0.00    -0.040 C 
ATOM     36  H   LIG d   1       4.223  -1.066  -0.850  0.00  0.00     0.028 H 
ATOM     37  H   LIG d   1       3.420  -1.553  -2.362  0.00  0.00     0.028 H 
ATOM     38  H   LIG d   1       4.758  -2.528  -1.711  0.00  0.00     0.028 H 
ENDBRANCH  29  35
ENDBRANCH  18  25
ENDBRANCH   3  15
BRANCH   1  39
ATOM     39  C   LIG d   1       9.876   7.431  -2.982  0.00  0.00     0.023 C 
ATOM     40  H   LIG d   1       9.231   8.269  -3.246  0.00  0.00     0.049 H 
ATOM     41  H   LIG d   1      10.897   7.789  -2.842  0.00  0.00     0.049 H 
BRANCH  39  42
ATOM     42  C   LIG d   1       9.376   6.792  -1.685  0.00  0.00    -0.038 C 
ATOM     43  H   LIG d   1       9.116   5.749  -1.871  0.00  0.00     0.028 H 
ATOM     44  H   LIG d   1       8.496   7.328  -1.331  0.00  0.00     0.028 H 
BRANCH  42  45
ATOM     45  C   LIG d   1      10.477   6.861  -0.626  0.00  0.00    -0.064 C 
ATOM     46  H   LIG d   1      11.081   7.754  -0.786  0.00  0.00     0.023 H 
ATOM     47  H   LIG d   1      10.026   6.901   0.366  0.00  0.00     0.023 H 
ATOM     48  H   LIG d   1      11.110   5.976  -0.699  0.00  0.00     0.023 H 
ENDBRANCH  42  45
ENDBRANCH  39  42
ENDBRANCH   1  39
TORSDOF 6
ENDMDL
MODEL 7
REMARK VINA RESULT:      -6.0      4.214      7.929
REMARK  6 active torsions:
REMARK  status: ('A' for Active; 'I' for Inactive)
REMARK    1  A    between atoms: C_1  and  C_2 
REMARK    2  A    between atoms: C_2  and  C_3 
REMARK    3  A    between atoms: C_3  and  N_4 
REMARK    4  A    between atoms: C_6  and  C_13 
REMARK    5  A    between atoms: N_18  and  C_21 
REMARK    6  A    between atoms: C_24  and  C_27 
ROOT
ATOM      1  N   LIG d   1       4.287  -1.510 -12.921  0.00  0.00    -0.346 N 
ATOM      2  C   LIG d   1       4.518  -0.617 -11.910  0.00  0.00     0.010 A 
ATOM      3  C   LIG d   1       3.360  -0.292 -11.314  0.00  0.00    -0.010 A 
ATOM      4  C   LIG d   1       2.301  -1.037 -12.000  0.00  0.00     0.004 A 
ATOM      5  C   LIG d   1       2.940  -1.783 -13.007  0.00  0.00     0.049 A 
ATOM      6  C   LIG d   1       2.179  -2.598 -13.838  0.00  0.00    -0.038 A 
ATOM      7  C   LIG d   1       0.813  -2.662 -13.670  0.00  0.00    -0.060 A 
ATOM      8  C   LIG d   1       0.186  -1.920 -12.678  0.00  0.00    -0.061 A 
ATOM      9  C   LIG d   1       0.917  -1.120 -11.844  0.00  0.00    -0.052 A 
ATOM     10  H   LIG d   1       5.488  -0.232 -11.633  0.00  0.00     0.081 H 
ATOM     11  H   LIG d   1       2.657  -3.178 -14.614  0.00  0.00     0.064 H 
ATOM     12  H   LIG d   1       0.223  -3.294 -14.317  0.00  0.00     0.062 H 
ATOM     13  H   LIG d   1      -0.886  -1.981 -12.560  0.00  0.00     0.062 H 
ATOM     14  H   LIG d   1       0.422  -0.545 -11.075  0.00  0.00     0.062 H 
ENDROOT
BRANCH   3  15
ATOM     15  C   LIG d   1       3.183   0.660 -10.160  0.00  0.00     0.072 A 
ATOM     16  H   LIG d   1       2.379   1.366 -10.366  0.00  0.00     0.045 H 
ATOM     17  C   LIG d   1       2.908  -0.101  -8.880  0.00  0.00     0.234 A 
ATOM     18  N   LIG d   1       3.889   0.154  -8.001  0.00  0.00    -0.210 N 
ATOM     19  O   LIG d   1       1.954  -0.824  -8.685  0.00  0.00    -0.274 OA
ATOM     20  C   LIG d   1       4.833   0.989  -8.449  0.00  0.00     0.227 A 
ATOM     21  C   LIG d   1       4.499   1.406  -9.864  0.00  0.00     0.040 A 
ATOM     22  O   LIG d   1       5.804   1.353  -7.820  0.00  0.00    -0.275 OA
ATOM     23  H   LIG d   1       5.283   1.090 -10.552  0.00  0.00     0.037 H 
ATOM     24  H   LIG d   1       4.350   2.485  -9.921  0.00  0.00     0.037 H 
BRANCH  18  25
ATOM     25  C   LIG d   1       3.918  -0.407  -6.716  0.00  0.00     0.044 A 
ATOM     26  C   LIG d   1       4.661  -1.555  -6.476  0.00  0.00    -0.040 A 
ATOM     27  C   LIG d   1       4.693  -2.103  -5.208  0.00  0.00    -0.057 A 
ATOM     28  H   LIG d   1       5.216  -2.018  -7.279  0.00  0.00     0.064 H 
ATOM     29  C   LIG d   1       3.978  -1.514  -4.181  0.00  0.00    -0.050 A 
ATOM     30  H   LIG d   1       5.274  -2.993  -5.019  0.00  0.00     0.062 H 
ATOM     31  C   LIG d   1       3.233  -0.373  -4.418  0.00  0.00    -0.057 A 
ATOM     32  C   LIG d   1       3.202   0.182  -5.683  0.00  0.00    -0.040 A 
ATOM     33  H   LIG d   1       2.676   0.085  -3.615  0.00  0.00     0.062 H 
ATOM     34  H   LIG d   1       2.620   1.072  -5.868  0.00  0.00     0.064 H 
BRANCH  29  35
ATOM     35  C   LIG d   1       4.011  -2.117  -2.801  0.00  0.00    -0.040 C 
ATOM     36  H   LIG d   1       3.266  -2.909  -2.732  0.00  0.00     0.028 H 
ATOM     37  H   LIG d   1       5.001  -2.530  -2.608  0.00  0.00     0.028 H 
ATOM     38  H   LIG d   1       3.791  -1.346  -2.062  0.00  0.00     0.028 H 
ENDBRANCH  29  35
ENDBRANCH  18  25
ENDBRANCH   3  15
BRANCH   1  39
ATOM     39  C   LIG d   1       5.319  -2.085 -13.789  0.00  0.00     0.023 C 
ATOM     40  H   LIG d   1       4.855  -2.762 -14.505  0.00  0.00     0.049 H 
ATOM     41  H   LIG d   1       6.038  -2.636 -13.181  0.00  0.00     0.049 H 
BRANCH  39  42
ATOM     42  C   LIG d   1       6.038  -0.962 -14.539  0.00  0.00    -0.038 C 
ATOM     43  H   LIG d   1       6.927  -1.363 -15.026  0.00  0.00     0.028 H 
ATOM     44  H   LIG d   1       6.329  -0.183 -13.835  0.00  0.00     0.028 H 
BRANCH  42  45
ATOM     45  C   LIG d   1       5.100  -0.373 -15.594  0.00  0.00    -0.064 C 
ATOM     46  H   LIG d   1       5.511   0.567 -15.962  0.00  0.00     0.023 H 
ATOM     47  H   LIG d   1       4.999  -1.074 -16.423  0.00  0.00     0.023 H 
ATOM     48  H   LIG d   1       4.120  -0.193 -15.151  0.00  0.00     0.023 H 
ENDBRANCH  42  45
ENDBRANCH  39  42
ENDBRANCH   1  39
TORSDOF 6
ENDMDL
MODEL 8
REMARK VINA RESULT:      -6.0      2.561      3.407
REMARK  6 active torsions:
REMARK  status: ('A' for Active; 'I' for Inactive)
REMARK    1  A    between atoms: C_1  and  C_2 
REMARK    2  A    between atoms: C_2  and  C_3 
REMARK    3  A    between atoms: C_3  and  N_4 
REMARK    4  A    between atoms: C_6  and  C_13 
REMARK    5  A    between atoms: N_18  and  C_21 
REMARK    6  A    between atoms: C_24  and  C_27 
ROOT
ATOM      1  N   LIG d   1       7.244   0.239  -4.444  0.00  0.00    -0.346 N 
ATOM      2  C   LIG d   1       7.533  -1.028  -4.871  0.00  0.00     0.010 A 
ATOM      3  C   LIG d   1       6.746  -1.914  -4.240  0.00  0.00    -0.010 A 
ATOM      4  C   LIG d   1       5.882  -1.150  -3.335  0.00  0.00     0.004 A 
ATOM      5  C   LIG d   1       6.243   0.199  -3.500  0.00  0.00     0.049 A 
ATOM      6  C   LIG d   1       5.589   1.175  -2.756  0.00  0.00    -0.038 A 
ATOM      7  C   LIG d   1       4.601   0.811  -1.867  0.00  0.00    -0.060 A 
ATOM      8  C   LIG d   1       4.252  -0.523  -1.705  0.00  0.00    -0.061 A 
ATOM      9  C   LIG d   1       4.876  -1.497  -2.432  0.00  0.00    -0.052 A 
ATOM     10  H   LIG d   1       8.282  -1.279  -5.607  0.00  0.00     0.081 H 
ATOM     11  H   LIG d   1       5.854   2.215  -2.874  0.00  0.00     0.064 H 
ATOM     12  H   LIG d   1       4.095   1.570  -1.289  0.00  0.00     0.062 H 
ATOM     13  H   LIG d   1       3.476  -0.792  -1.003  0.00  0.00     0.062 H 
ATOM     14  H   LIG d   1       4.600  -2.533  -2.300  0.00  0.00     0.062 H 
ENDROOT
BRANCH   3  15
ATOM     15  C   LIG d   1       6.749  -3.409  -4.427  0.00  0.00     0.072 A 
ATOM     16  H   LIG d   1       6.764  -3.915  -3.462  0.00  0.00     0.045 H 
ATOM     17  C   LIG d   1       5.550  -3.847  -5.240  0.00  0.00     0.234 A 
ATOM     18  N   LIG d   1       5.977  -4.430  -6.370  0.00  0.00    -0.210 N 
ATOM     19  O   LIG d   1       4.390  -3.693  -4.919  0.00  0.00    -0.274 OA
ATOM     20  C   LIG d   1       7.308  -4.484  -6.498  0.00  0.00     0.227 A 
ATOM     21  C   LIG d   1       7.952  -3.846  -5.287  0.00  0.00     0.040 A 
ATOM     22  O   LIG d   1       7.904  -4.968  -7.437  0.00  0.00    -0.275 OA
ATOM     23  H   LIG d   1       8.548  -2.982  -5.580  0.00  0.00     0.037 H 
ATOM     24  H   LIG d   1       8.564  -4.572  -4.750  0.00  0.00     0.037 H 
BRANCH  18  25
ATOM     25  C   LIG d   1       5.100  -4.943  -7.336  0.00  0.00     0.044 A 
ATOM     26  C   LIG d   1       4.538  -4.098  -8.283  0.00  0.00    -0.040 A 
ATOM     27  C   LIG d   1       3.678  -4.607  -9.238  0.00  0.00    -0.057 A 
ATOM     28  H   LIG d   1       4.775  -3.044  -8.277  0.00  0.00     0.064 H 
ATOM     29  C   LIG d   1       3.369  -5.955  -9.243  0.00  0.00    -0.050 A 
ATOM     30  H   LIG d   1       3.244  -3.951  -9.978  0.00  0.00     0.062 H 
ATOM     31  C   LIG d   1       3.923  -6.798  -8.297  0.00  0.00    -0.057 A 
ATOM     32  C   LIG d   1       4.788  -6.295  -7.344  0.00  0.00    -0.040 A 
ATOM     33  H   LIG d   1       3.681  -7.850  -8.304  0.00  0.00     0.062 H 
ATOM     34  H   LIG d   1       5.220  -6.954  -6.606  0.00  0.00     0.064 H 
BRANCH  29  35
ATOM     35  C   LIG d   1       2.427  -6.505 -10.282  0.00  0.00    -0.040 C 
ATOM     36  H   LIG d   1       2.481  -7.593 -10.282  0.00  0.00     0.028 H 
ATOM     37  H   LIG d   1       1.409  -6.192 -10.052  0.00  0.00     0.028 H 
ATOM     38  H   LIG d   1       2.709  -6.128 -11.265  0.00  0.00     0.028 H 
ENDBRANCH  29  35
ENDBRANCH  18  25
ENDBRANCH   3  15
BRANCH   1  39
ATOM     39  C   LIG d   1       7.907   1.458  -4.917  0.00  0.00     0.023 C 
ATOM     40  H   LIG d   1       7.176   2.263  -4.991  0.00  0.00     0.049 H 
ATOM     41  H   LIG d   1       8.345   1.275  -5.899  0.00  0.00     0.049 H 
BRANCH  39  42
ATOM     42  C   LIG d   1       9.007   1.855  -3.932  0.00  0.00    -0.038 C 
ATOM     43  H   LIG d   1       9.940   1.367  -4.214  0.00  0.00     0.028 H 
ATOM     44  H   LIG d   1       8.723   1.546  -2.926  0.00  0.00     0.028 H 
BRANCH  42  45
ATOM     45  C   LIG d   1       9.196   3.373  -3.965  0.00  0.00    -0.064 C 
ATOM     46  H   LIG d   1       8.699   3.821  -3.104  0.00  0.00     0.023 H 
ATOM     47  H   LIG d   1      10.261   3.608  -3.931  0.00  0.00     0.023 H 
ATOM     48  H   LIG d   1       8.767   3.774  -4.883  0.00  0.00     0.023 H 
ENDBRANCH  42  45
ENDBRANCH  39  42
ENDBRANCH   1  39
TORSDOF 6
ENDMDL
MODEL 9
REMARK VINA RESULT:      -5.7      3.283      5.091
REMARK  6 active torsions:
REMARK  status: ('A' for Active; 'I' for Inactive)
REMARK    1  A    between atoms: C_1  and  C_2 
REMARK    2  A    between atoms: C_2  and  C_3 
REMARK    3  A    between atoms: C_3  and  N_4 
REMARK    4  A    between atoms: C_6  and  C_13 
REMARK    5  A    between atoms: N_18  and  C_21 
REMARK    6  A    between atoms: C_24  and  C_27 
ROOT
ATOM      1  N   LIG d   1       6.693  -0.053  -4.768  0.00  0.00    -0.346 N 
ATOM      2  C   LIG d   1       6.219  -0.801  -5.812  0.00  0.00     0.010 A 
ATOM      3  C   LIG d   1       4.913  -1.055  -5.635  0.00  0.00    -0.010 A 
ATOM      4  C   LIG d   1       4.519  -0.419  -4.376  0.00  0.00     0.004 A 
ATOM      5  C   LIG d   1       5.680   0.192  -3.869  0.00  0.00     0.049 A 
ATOM      6  C   LIG d   1       5.617   0.880  -2.663  0.00  0.00    -0.038 A 
ATOM      7  C   LIG d   1       4.423   0.953  -1.977  0.00  0.00    -0.060 A 
ATOM      8  C   LIG d   1       3.281   0.344  -2.480  0.00  0.00    -0.061 A 
ATOM      9  C   LIG d   1       3.320  -0.330  -3.668  0.00  0.00    -0.052 A 
ATOM     10  H   LIG d   1       6.808  -1.136  -6.653  0.00  0.00     0.081 H 
ATOM     11  H   LIG d   1       6.500   1.356  -2.263  0.00  0.00     0.064 H 
ATOM     12  H   LIG d   1       4.376   1.486  -1.040  0.00  0.00     0.062 H 
ATOM     13  H   LIG d   1       2.353   0.409  -1.930  0.00  0.00     0.062 H 
ATOM     14  H   LIG d   1       2.427  -0.802  -4.052  0.00  0.00     0.062 H 
ENDROOT
BRANCH   3  15
ATOM     15  C   LIG d   1       4.021  -1.846  -6.558  0.00  0.00     0.072 A 
ATOM     16  H   LIG d   1       3.046  -2.009  -6.100  0.00  0.00     0.045 H 
ATOM     17  C   LIG d   1       3.873  -1.139  -7.889  0.00  0.00     0.234 A 
ATOM     18  N   LIG d   1       4.360  -1.929  -8.859  0.00  0.00    -0.210 N 
ATOM     19  O   LIG d   1       3.392  -0.038  -8.049  0.00  0.00    -0.274 OA
ATOM     20  C   LIG d   1       4.836  -3.104  -8.432  0.00  0.00     0.227 A 
ATOM     21  C   LIG d   1       4.680  -3.189  -6.930  0.00  0.00     0.040 A 
ATOM     22  O   LIG d   1       5.319  -3.964  -9.137  0.00  0.00    -0.275 OA
ATOM     23  H   LIG d   1       5.652  -3.287  -6.447  0.00  0.00     0.037 H 
ATOM     24  H   LIG d   1       4.030  -4.023  -6.658  0.00  0.00     0.037 H 
BRANCH  18  25
ATOM     25  C   LIG d   1       4.364  -1.552 -10.209  0.00  0.00     0.044 A 
ATOM     26  C   LIG d   1       5.487  -0.948 -10.759  0.00  0.00    -0.040 A 
ATOM     27  C   LIG d   1       5.491  -0.584 -12.091  0.00  0.00    -0.057 A 
ATOM     28  H   LIG d   1       6.358  -0.766 -10.146  0.00  0.00     0.064 H 
ATOM     29  C   LIG d   1       4.376  -0.811 -12.875  0.00  0.00    -0.050 A 
ATOM     30  H   LIG d   1       6.366  -0.117 -12.520  0.00  0.00     0.062 H 
ATOM     31  C   LIG d   1       3.254  -1.409 -12.330  0.00  0.00    -0.057 A 
ATOM     32  C   LIG d   1       3.246  -1.780 -10.999  0.00  0.00    -0.040 A 
ATOM     33  H   LIG d   1       2.384  -1.586 -12.944  0.00  0.00     0.062 H 
ATOM     34  H   LIG d   1       2.370  -2.246 -10.574  0.00  0.00     0.064 H 
BRANCH  29  35
ATOM     35  C   LIG d   1       4.382  -0.408 -14.327  0.00  0.00    -0.040 C 
ATOM     36  H   LIG d   1       5.411  -0.317 -14.675  0.00  0.00     0.028 H 
ATOM     37  H   LIG d   1       3.864  -1.164 -14.917  0.00  0.00     0.028 H 
ATOM     38  H   LIG d   1       3.875   0.551 -14.440  0.00  0.00     0.028 H 
ENDBRANCH  29  35
ENDBRANCH  18  25
ENDBRANCH   3  15
BRANCH   1  39
ATOM     39  C   LIG d   1       8.076   0.411  -4.625  0.00  0.00     0.023 C 
ATOM     40  H   LIG d   1       8.717  -0.140  -5.314  0.00  0.00     0.049 H 
ATOM     41  H   LIG d   1       8.413   0.241  -3.602  0.00  0.00     0.049 H 
BRANCH  39  42
ATOM     42  C   LIG d   1       8.148   1.904  -4.946  0.00  0.00    -0.038 C 
ATOM     43  H   LIG d   1       7.138   2.304  -5.043  0.00  0.00     0.028 H 
ATOM     44  H   LIG d   1       8.689   2.050  -5.881  0.00  0.00     0.028 H 
BRANCH  42  45
ATOM     45  C   LIG d   1       8.877   2.633  -3.815  0.00  0.00    -0.064 C 
ATOM     46  H   LIG d   1       9.639   1.979  -3.392  0.00  0.00     0.023 H 
ATOM     47  H   LIG d   1       9.351   3.534  -4.209  0.00  0.00     0.023 H 
ATOM     48  H   LIG d   1       8.163   2.910  -3.040  0.00  0.00     0.023 H 
ENDBRANCH  42  45
ENDBRANCH  39  42
ENDBRANCH   1  39
TORSDOF 6
ENDMDL
MODEL 10
REMARK VINA RESULT:      -5.6      3.177      7.716
REMARK  6 active torsions:
REMARK  status: ('A' for Active; 'I' for Inactive)
REMARK    1  A    between atoms: C_1  and  C_2 
REMARK    2  A    between atoms: C_2  and  C_3 
REMARK    3  A    between atoms: C_3  and  N_4 
REMARK    4  A    between atoms: C_6  and  C_13 
REMARK    5  A    between atoms: N_18  and  C_21 
REMARK    6  A    between atoms: C_24  and  C_27 
ROOT
ATOM      1  N   LIG d   1       5.768  -8.757  -4.992  0.00  0.00    -0.346 N 
ATOM      2  C   LIG d   1       5.293  -7.727  -5.757  0.00  0.00     0.010 A 
ATOM      3  C   LIG d   1       6.167  -6.709  -5.748  0.00  0.00    -0.010 A 
ATOM      4  C   LIG d   1       7.295  -7.122  -4.908  0.00  0.00     0.004 A 
ATOM      5  C   LIG d   1       6.988  -8.417  -4.453  0.00  0.00     0.049 A 
ATOM      6  C   LIG d   1       7.884  -9.076  -3.619  0.00  0.00    -0.038 A 
ATOM      7  C   LIG d   1       9.056  -8.455  -3.245  0.00  0.00    -0.060 A 
ATOM      8  C   LIG d   1       9.353  -7.174  -3.693  0.00  0.00    -0.061 A 
ATOM      9  C   LIG d   1       8.490  -6.512  -4.521  0.00  0.00    -0.052 A 
ATOM     10  H   LIG d   1       4.353  -7.733  -6.289  0.00  0.00     0.081 H 
ATOM     11  H   LIG d   1       7.663 -10.072  -3.264  0.00  0.00     0.064 H 
ATOM     12  H   LIG d   1       9.751  -8.967  -2.596  0.00  0.00     0.062 H 
ATOM     13  H   LIG d   1      10.275  -6.701  -3.390  0.00  0.00     0.062 H 
ATOM     14  H   LIG d   1       8.726  -5.516  -4.864  0.00  0.00     0.062 H 
ENDROOT
BRANCH   3  15
ATOM     15  C   LIG d   1       6.018  -5.392  -6.464  0.00  0.00     0.072 A 
ATOM     16  H   LIG d   1       5.629  -5.546  -7.470  0.00  0.00     0.045 H 
ATOM     17  C   LIG d   1       5.118  -4.460  -5.682  0.00  0.00     0.234 A 
ATOM     18  N   LIG d   1       5.816  -3.368  -5.334  0.00  0.00    -0.210 N 
ATOM     19  O   LIG d   1       3.954  -4.669  -5.414  0.00  0.00    -0.274 OA
ATOM     20  C   LIG d   1       7.088  -3.366  -5.750  0.00  0.00     0.227 A 
ATOM     21  C   LIG d   1       7.365  -4.644  -6.511  0.00  0.00     0.040 A 
ATOM     22  O   LIG d   1       7.891  -2.481  -5.547  0.00  0.00    -0.275 OA
ATOM     23  H   LIG d   1       8.144  -5.224  -6.016  0.00  0.00     0.037 H 
ATOM     24  H   LIG d   1       7.646  -4.423  -7.542  0.00  0.00     0.037 H 
BRANCH  18  25
ATOM     25  C   LIG d   1       5.256  -2.315  -4.598  0.00  0.00     0.044 A 
ATOM     26  C   LIG d   1       5.297  -2.337  -3.211  0.00  0.00    -0.040 A 
ATOM     27  C   LIG d   1       4.749  -1.294  -2.488  0.00  0.00    -0.057 A 
ATOM     28  H   LIG d   1       5.759  -3.167  -2.697  0.00  0.00     0.064 H 
ATOM     29  C   LIG d   1       4.152  -0.234  -3.145  0.00  0.00    -0.050 A 
ATOM     30  H   LIG d   1       4.784  -1.309  -1.409  0.00  0.00     0.062 H 
ATOM     31  C   LIG d   1       4.106  -0.212  -4.527  0.00  0.00    -0.057 A 
ATOM     32  C   LIG d   1       4.656  -1.249  -5.255  0.00  0.00    -0.040 A 
ATOM     33  H   LIG d   1       3.639   0.618  -5.038  0.00  0.00     0.062 H 
ATOM     34  H   LIG d   1       4.619  -1.230  -6.334  0.00  0.00     0.064 H 
BRANCH  29  35
ATOM     35  C   LIG d   1       3.552   0.898  -2.353  0.00  0.00    -0.040 C 
ATOM     36  H   LIG d   1       2.534   0.639  -2.063  0.00  0.00     0.028 H 
ATOM     37  H   LIG d   1       4.151   1.076  -1.461  0.00  0.00     0.028 H 
ATOM     38  H   LIG d   1       3.536   1.801  -2.965  0.00  0.00     0.028 H 
ENDBRANCH  29  35
ENDBRANCH  18  25
ENDBRANCH   3  15
BRANCH   1  39
ATOM     39  C   LIG d   1       5.078 -10.032  -4.773  0.00  0.00     0.023 C 
ATOM     40  H   LIG d   1       5.812 -10.832  -4.684  0.00  0.00     0.049 H 
ATOM     41  H   LIG d   1       4.418 -10.237  -5.617  0.00  0.00     0.049 H 
BRANCH  39  42
ATOM     42  C   LIG d   1       4.254  -9.951  -3.487  0.00  0.00    -0.038 C 
ATOM     43  H   LIG d   1       3.849  -8.944  -3.378  0.00  0.00     0.028 H 
ATOM     44  H   LIG d   1       4.889 -10.182  -2.633  0.00  0.00     0.028 H 
BRANCH  42  45
ATOM     45  C   LIG d   1       3.103 -10.957  -3.555  0.00  0.00    -0.064 C 
ATOM     46  H   LIG d   1       2.271 -10.522  -4.109  0.00  0.00     0.023 H 
ATOM     47  H   LIG d   1       3.441 -11.863  -4.060  0.00  0.00     0.023 H 
ATOM     48  H   LIG d   1       2.777 -11.206  -2.545  0.00  0.00     0.023 H 
ENDBRANCH  42  45
ENDBRANCH  39  42
ENDBRANCH   1  39
TORSDOF 6
ENDMDL
