MODEL 1
REMARK VINA RESULT:      -5.7      0.000      0.000
REMARK  2 active torsions:
REMARK  status: ('A' for Active; 'I' for Inactive)
REMARK    1  A    between atoms: C_5  and  O_7 
REMARK    2  A    between atoms: C_11  and  O_14 
ROOT
ATOM      1  C   LIG d   1       4.324   1.425  -2.400  0.00  0.00    -0.058 A 
ATOM      2  C   LIG d   1       5.616   1.009  -2.671  0.00  0.00    -0.058 A 
ATOM      3  C   LIG d   1       5.856  -0.252  -3.179  0.00  0.00    -0.031 A 
ATOM      4  C   LIG d   1       4.779  -1.111  -3.413  0.00  0.00     0.062 A 
ATOM      5  C   LIG d   1       3.469  -0.690  -3.135  0.00  0.00     0.128 A 
ATOM      6  C   LIG d   1       3.252   0.585  -2.633  0.00  0.00    -0.019 A 
ATOM      7  C   LIG d   1       5.013  -2.464  -3.944  0.00  0.00     0.169 C 
ATOM      8  O   LIG d   1       4.129  -3.294  -3.960  0.00  0.00    -0.292 OA
ATOM      9  C   LIG d   1       6.397  -2.782  -4.471  0.00  0.00     0.037 C 
ATOM     10  C   LIG d   1       7.411  -2.187  -3.486  0.00  0.00     0.066 C 
ATOM     11  H   LIG d   1       7.220  -2.579  -2.487  0.00  0.00     0.060 H 
ATOM     12  C   LIG d   1       7.272  -0.667  -3.471  0.00  0.00    -0.000 C 
ATOM     13  H   LIG d   1       4.151   2.415  -2.004  0.00  0.00     0.062 H 
ATOM     14  H   LIG d   1       6.444   1.678  -2.485  0.00  0.00     0.062 H 
ATOM     15  H   LIG d   1       2.247   0.919  -2.419  0.00  0.00     0.065 H 
ATOM     16  H   LIG d   1       6.508  -3.773  -4.537  0.00  0.00     0.037 H 
ATOM     17  H   LIG d   1       6.530  -2.336  -5.457  0.00  0.00     0.037 H 
ATOM     18  H   LIG d   1       7.566  -0.272  -4.444  0.00  0.00     0.034 H 
ATOM     19  H   LIG d   1       7.930  -0.255  -2.706  0.00  0.00     0.034 H 
ENDROOT
BRANCH  10  20
ATOM     20  O   LIG d   1       8.735  -2.540  -3.892  0.00  0.00    -0.391 OA
ATOM     21  H   LIG d   1       9.330  -1.785  -3.992  0.00  0.00     0.210 HD
ENDBRANCH  10  20
BRANCH   5  22
ATOM     22  O   LIG d   1       2.422  -1.521  -3.362  0.00  0.00    -0.506 OA
ATOM     23  H   LIG d   1       1.945  -1.782  -2.563  0.00  0.00     0.292 HD
ENDBRANCH   5  22
TORSDOF 2
ENDMDL
MODEL 2
REMARK VINA RESULT:      -5.6      1.587      2.964
REMARK  2 active torsions:
REMARK  status: ('A' for Active; 'I' for Inactive)
REMARK    1  A    between atoms: C_5  and  O_7 
REMARK    2  A    between atoms: C_11  and  O_14 
ROOT
ATOM      1  C   LIG d   1       3.548   0.712  -2.235  0.00  0.00    -0.058 A 
ATOM      2  C   LIG d   1       3.465  -0.615  -2.621  0.00  0.00    -0.058 A 
ATOM      3  C   LIG d   1       4.545  -1.246  -3.205  0.00  0.00    -0.031 A 
ATOM      4  C   LIG d   1       5.727  -0.529  -3.409  0.00  0.00     0.062 A 
ATOM      5  C   LIG d   1       5.810   0.818  -3.020  0.00  0.00     0.128 A 
ATOM      6  C   LIG d   1       4.714   1.428  -2.428  0.00  0.00    -0.019 A 
ATOM      7  C   LIG d   1       6.887  -1.179  -4.039  0.00  0.00     0.169 C 
ATOM      8  O   LIG d   1       7.842  -0.532  -4.415  0.00  0.00    -0.292 OA
ATOM      9  C   LIG d   1       6.847  -2.684  -4.202  0.00  0.00     0.037 C 
ATOM     10  C   LIG d   1       5.438  -3.057  -4.681  0.00  0.00     0.066 C 
ATOM     11  H   LIG d   1       5.209  -2.509  -5.596  0.00  0.00     0.060 H 
ATOM     12  C   LIG d   1       4.422  -2.691  -3.602  0.00  0.00    -0.000 C 
ATOM     13  H   LIG d   1       2.696   1.192  -1.778  0.00  0.00     0.062 H 
ATOM     14  H   LIG d   1       2.546  -1.162  -2.462  0.00  0.00     0.062 H 
ATOM     15  H   LIG d   1       4.770   2.462  -2.123  0.00  0.00     0.065 H 
ATOM     16  H   LIG d   1       7.534  -2.966  -4.872  0.00  0.00     0.037 H 
ATOM     17  H   LIG d   1       7.054  -3.166  -3.246  0.00  0.00     0.037 H 
ATOM     18  H   LIG d   1       4.592  -3.318  -2.726  0.00  0.00     0.034 H 
ATOM     19  H   LIG d   1       3.417  -2.874  -3.981  0.00  0.00     0.034 H 
ENDROOT
BRANCH  10  20
ATOM     20  O   LIG d   1       5.377  -4.461  -4.938  0.00  0.00    -0.391 OA
ATOM     21  H   LIG d   1       4.819  -4.950  -4.317  0.00  0.00     0.210 HD
ENDBRANCH  10  20
BRANCH   5  22
ATOM     22  O   LIG d   1       6.956   1.515  -3.216  0.00  0.00    -0.506 OA
ATOM     23  H   LIG d   1       7.623   1.040  -3.730  0.00  0.00     0.292 HD
ENDBRANCH   5  22
TORSDOF 2
ENDMDL
MODEL 3
REMARK VINA RESULT:      -5.5      2.047      2.415
REMARK  2 active torsions:
REMARK  status: ('A' for Active; 'I' for Inactive)
REMARK    1  A    between atoms: C_5  and  O_7 
REMARK    2  A    between atoms: C_11  and  O_14 
ROOT
ATOM      1  C   LIG d   1       3.158  -1.323  -2.552  0.00  0.00    -0.058 A 
ATOM      2  C   LIG d   1       4.476  -1.726  -2.416  0.00  0.00    -0.058 A 
ATOM      3  C   LIG d   1       5.416  -1.384  -3.367  0.00  0.00    -0.031 A 
ATOM      4  C   LIG d   1       5.024  -0.629  -4.475  0.00  0.00     0.062 A 
ATOM      5  C   LIG d   1       3.687  -0.224  -4.614  0.00  0.00     0.128 A 
ATOM      6  C   LIG d   1       2.762  -0.572  -3.641  0.00  0.00    -0.019 A 
ATOM      7  C   LIG d   1       6.008  -0.262  -5.507  0.00  0.00     0.169 C 
ATOM      8  O   LIG d   1       5.659   0.206  -6.569  0.00  0.00    -0.292 OA
ATOM      9  C   LIG d   1       7.472  -0.491  -5.194  0.00  0.00     0.037 C 
ATOM     10  C   LIG d   1       7.588  -1.861  -4.513  0.00  0.00     0.066 C 
ATOM     11  H   LIG d   1       7.152  -2.625  -5.157  0.00  0.00     0.060 H 
ATOM     12  C   LIG d   1       6.841  -1.830  -3.182  0.00  0.00    -0.000 C 
ATOM     13  H   LIG d   1       2.434  -1.597  -1.799  0.00  0.00     0.062 H 
ATOM     14  H   LIG d   1       4.771  -2.312  -1.557  0.00  0.00     0.062 H 
ATOM     15  H   LIG d   1       1.732  -0.262  -3.738  0.00  0.00     0.065 H 
ATOM     16  H   LIG d   1       8.001  -0.472  -6.042  0.00  0.00     0.037 H 
ATOM     17  H   LIG d   1       7.834   0.289  -4.523  0.00  0.00     0.037 H 
ATOM     18  H   LIG d   1       7.346  -1.141  -2.505  0.00  0.00     0.034 H 
ATOM     19  H   LIG d   1       6.849  -2.828  -2.745  0.00  0.00     0.034 H 
ENDROOT
BRANCH  10  20
ATOM     20  O   LIG d   1       8.965  -2.163  -4.280  0.00  0.00    -0.391 OA
ATOM     21  H   LIG d   1       9.205  -3.079  -4.474  0.00  0.00     0.210 HD
ENDBRANCH  10  20
BRANCH   5  22
ATOM     22  O   LIG d   1       3.304   0.510  -5.688  0.00  0.00    -0.506 OA
ATOM     23  H   LIG d   1       3.334   0.027  -6.525  0.00  0.00     0.292 HD
ENDBRANCH   5  22
TORSDOF 2
ENDMDL
MODEL 4
REMARK VINA RESULT:      -5.4      2.319      3.194
REMARK  2 active torsions:
REMARK  status: ('A' for Active; 'I' for Inactive)
REMARK    1  A    between atoms: C_5  and  O_7 
REMARK    2  A    between atoms: C_11  and  O_14 
ROOT
ATOM      1  C   LIG d   1       3.946  -2.055  -2.458  0.00  0.00    -0.058 A 
ATOM      2  C   LIG d   1       4.821  -2.447  -3.457  0.00  0.00    -0.058 A 
ATOM      3  C   LIG d   1       5.806  -1.589  -3.905  0.00  0.00    -0.031 A 
ATOM      4  C   LIG d   1       5.908  -0.314  -3.342  0.00  0.00     0.062 A 
ATOM      5  C   LIG d   1       5.019   0.084  -2.332  0.00  0.00     0.128 A 
ATOM      6  C   LIG d   1       4.043  -0.799  -1.893  0.00  0.00    -0.019 A 
ATOM      7  C   LIG d   1       6.944   0.621  -3.812  0.00  0.00     0.169 C 
ATOM      8  O   LIG d   1       6.924   1.791  -3.495  0.00  0.00    -0.292 OA
ATOM      9  C   LIG d   1       8.035   0.070  -4.706  0.00  0.00     0.037 C 
ATOM     10  C   LIG d   1       7.368  -0.868  -5.721  0.00  0.00     0.066 C 
ATOM     11  H   LIG d   1       6.590  -0.326  -6.259  0.00  0.00     0.060 H 
ATOM     12  C   LIG d   1       6.746  -2.051  -4.984  0.00  0.00    -0.000 C 
ATOM     13  H   LIG d   1       3.182  -2.738  -2.117  0.00  0.00     0.062 H 
ATOM     14  H   LIG d   1       4.734  -3.434  -3.889  0.00  0.00     0.062 H 
ATOM     15  H   LIG d   1       3.356  -0.502  -1.113  0.00  0.00     0.065 H 
ATOM     16  H   LIG d   1       8.497   0.824  -5.172  0.00  0.00     0.037 H 
ATOM     17  H   LIG d   1       8.759  -0.485  -4.108  0.00  0.00     0.037 H 
ATOM     18  H   LIG d   1       7.539  -2.649  -4.534  0.00  0.00     0.034 H 
ATOM     19  H   LIG d   1       6.197  -2.667  -5.697  0.00  0.00     0.034 H 
ENDROOT
BRANCH  10  20
ATOM     20  O   LIG d   1       8.347  -1.344  -6.646  0.00  0.00    -0.391 OA
ATOM     21  H   LIG d   1       8.352  -2.305  -6.753  0.00  0.00     0.210 HD
ENDBRANCH  10  20
BRANCH   5  22
ATOM     22  O   LIG d   1       5.117   1.320  -1.784  0.00  0.00    -0.506 OA
ATOM     23  H   LIG d   1       5.045   2.041  -2.424  0.00  0.00     0.292 HD
ENDBRANCH   5  22
TORSDOF 2
ENDMDL
MODEL 5
REMARK VINA RESULT:      -5.3      1.551      1.990
REMARK  2 active torsions:
REMARK  status: ('A' for Active; 'I' for Inactive)
REMARK    1  A    between atoms: C_5  and  O_7 
REMARK    2  A    between atoms: C_11  and  O_14 
ROOT
ATOM      1  C   LIG d   1       3.194   0.381  -2.395  0.00  0.00    -0.058 A 
ATOM      2  C   LIG d   1       4.419   1.013  -2.531  0.00  0.00    -0.058 A 
ATOM      3  C   LIG d   1       5.404   0.469  -3.332  0.00  0.00    -0.031 A 
ATOM      4  C   LIG d   1       5.155  -0.731  -4.002  0.00  0.00     0.062 A 
ATOM      5  C   LIG d   1       3.914  -1.372  -3.862  0.00  0.00     0.128 A 
ATOM      6  C   LIG d   1       2.937  -0.803  -3.058  0.00  0.00    -0.019 A 
ATOM      7  C   LIG d   1       6.194  -1.333  -4.853  0.00  0.00     0.169 C 
ATOM      8  O   LIG d   1       6.084  -2.464  -5.274  0.00  0.00    -0.292 OA
ATOM      9  C   LIG d   1       7.408  -0.489  -5.184  0.00  0.00     0.037 C 
ATOM     10  C   LIG d   1       7.829   0.233  -3.897  0.00  0.00     0.066 C 
ATOM     11  H   LIG d   1       8.005  -0.500  -3.110  0.00  0.00     0.060 H 
ATOM     12  C   LIG d   1       6.719   1.188  -3.465  0.00  0.00    -0.000 C 
ATOM     13  H   LIG d   1       2.433   0.819  -1.767  0.00  0.00     0.062 H 
ATOM     14  H   LIG d   1       4.605   1.939  -2.007  0.00  0.00     0.062 H 
ATOM     15  H   LIG d   1       1.978  -1.287  -2.947  0.00  0.00     0.065 H 
ATOM     16  H   LIG d   1       8.144  -1.079  -5.514  0.00  0.00     0.037 H 
ATOM     17  H   LIG d   1       7.153   0.241  -5.953  0.00  0.00     0.037 H 
ATOM     18  H   LIG d   1       6.619   1.980  -4.208  0.00  0.00     0.034 H 
ATOM     19  H   LIG d   1       6.983   1.631  -2.505  0.00  0.00     0.034 H 
ENDROOT
BRANCH  10  20
ATOM     20  O   LIG d   1       9.027   0.974  -4.136  0.00  0.00    -0.391 OA
ATOM     21  H   LIG d   1       9.548   1.148  -3.340  0.00  0.00     0.210 HD
ENDBRANCH  10  20
BRANCH   5  22
ATOM     22  O   LIG d   1       3.670  -2.536  -4.512  0.00  0.00    -0.506 OA
ATOM     23  H   LIG d   1       4.328  -2.757  -5.184  0.00  0.00     0.292 HD
ENDBRANCH   5  22
TORSDOF 2
ENDMDL
MODEL 6
REMARK VINA RESULT:      -5.0      1.523      3.879
REMARK  2 active torsions:
REMARK  status: ('A' for Active; 'I' for Inactive)
REMARK    1  A    between atoms: C_5  and  O_7 
REMARK    2  A    between atoms: C_11  and  O_14 
ROOT
ATOM      1  C   LIG d   1       8.409  -0.442  -4.766  0.00  0.00    -0.058 A 
ATOM      2  C   LIG d   1       7.582   0.440  -4.091  0.00  0.00    -0.058 A 
ATOM      3  C   LIG d   1       6.388   0.008  -3.548  0.00  0.00    -0.031 A 
ATOM      4  C   LIG d   1       6.018  -1.332  -3.691  0.00  0.00     0.062 A 
ATOM      5  C   LIG d   1       6.856  -2.225  -4.378  0.00  0.00     0.128 A 
ATOM      6  C   LIG d   1       8.054  -1.769  -4.908  0.00  0.00    -0.019 A 
ATOM      7  C   LIG d   1       4.745  -1.812  -3.129  0.00  0.00     0.169 C 
ATOM      8  O   LIG d   1       4.305  -2.905  -3.414  0.00  0.00    -0.292 OA
ATOM      9  C   LIG d   1       4.004  -0.892  -2.180  0.00  0.00     0.037 C 
ATOM     10  C   LIG d   1       4.067   0.523  -2.771  0.00  0.00     0.066 C 
ATOM     11  H   LIG d   1       3.660   0.513  -3.782  0.00  0.00     0.060 H 
ATOM     12  C   LIG d   1       5.520   0.991  -2.812  0.00  0.00    -0.000 C 
ATOM     13  H   LIG d   1       9.340  -0.090  -5.184  0.00  0.00     0.062 H 
ATOM     14  H   LIG d   1       7.874   1.475  -3.986  0.00  0.00     0.062 H 
ATOM     15  H   LIG d   1       8.706  -2.449  -5.435  0.00  0.00     0.065 H 
ATOM     16  H   LIG d   1       3.056  -1.196  -2.094  0.00  0.00     0.037 H 
ATOM     17  H   LIG d   1       4.481  -0.907  -1.200  0.00  0.00     0.037 H 
ATOM     18  H   LIG d   1       5.889   1.099  -1.791  0.00  0.00     0.034 H 
ATOM     19  H   LIG d   1       5.570   1.957  -3.313  0.00  0.00     0.034 H 
ENDROOT
BRANCH  10  20
ATOM     20  O   LIG d   1       3.303   1.414  -1.957  0.00  0.00    -0.391 OA
ATOM     21  H   LIG d   1       3.838   2.006  -1.411  0.00  0.00     0.210 HD
ENDBRANCH  10  20
BRANCH   5  22
ATOM     22  O   LIG d   1       6.499  -3.525  -4.517  0.00  0.00    -0.506 OA
ATOM     23  H   LIG d   1       6.608  -3.870  -5.414  0.00  0.00     0.292 HD
ENDBRANCH   5  22
TORSDOF 2
ENDMDL
MODEL 7
REMARK VINA RESULT:      -4.9      2.516      3.985
REMARK  2 active torsions:
REMARK  status: ('A' for Active; 'I' for Inactive)
REMARK    1  A    between atoms: C_5  and  O_7 
REMARK    2  A    between atoms: C_11  and  O_14 
ROOT
ATOM      1  C   LIG d   1       6.423  -1.309  -6.461  0.00  0.00    -0.058 A 
ATOM      2  C   LIG d   1       6.590  -0.911  -5.146  0.00  0.00    -0.058 A 
ATOM      3  C   LIG d   1       5.521  -0.427  -4.418  0.00  0.00    -0.031 A 
ATOM      4  C   LIG d   1       4.265  -0.338  -5.024  0.00  0.00     0.062 A 
ATOM      5  C   LIG d   1       4.098  -0.739  -6.359  0.00  0.00     0.128 A 
ATOM      6  C   LIG d   1       5.185  -1.229  -7.068  0.00  0.00    -0.019 A 
ATOM      7  C   LIG d   1       3.115   0.184  -4.270  0.00  0.00     0.169 C 
ATOM      8  O   LIG d   1       2.074   0.465  -4.826  0.00  0.00    -0.292 OA
ATOM      9  C   LIG d   1       3.274   0.357  -2.773  0.00  0.00     0.037 C 
ATOM     10  C   LIG d   1       4.661   0.968  -2.528  0.00  0.00     0.066 C 
ATOM     11  H   LIG d   1       4.753   1.897  -3.091  0.00  0.00     0.060 H 
ATOM     12  C   LIG d   1       5.736  -0.014  -2.987  0.00  0.00    -0.000 C 
ATOM     13  H   LIG d   1       7.268  -1.687  -7.018  0.00  0.00     0.062 H 
ATOM     14  H   LIG d   1       7.564  -0.981  -4.684  0.00  0.00     0.062 H 
ATOM     15  H   LIG d   1       5.065  -1.544  -8.094  0.00  0.00     0.065 H 
ATOM     16  H   LIG d   1       2.557   0.961  -2.429  0.00  0.00     0.037 H 
ATOM     17  H   LIG d   1       3.203  -0.612  -2.278  0.00  0.00     0.037 H 
ATOM     18  H   LIG d   1       5.706  -0.899  -2.351  0.00  0.00     0.034 H 
ATOM     19  H   LIG d   1       6.714   0.459  -2.895  0.00  0.00     0.034 H 
ENDROOT
BRANCH  10  20
ATOM     20  O   LIG d   1       4.824   1.235  -1.134  0.00  0.00    -0.391 OA
ATOM     21  H   LIG d   1       4.418   2.063  -0.842  0.00  0.00     0.210 HD
ENDBRANCH  10  20
BRANCH   5  22
ATOM     22  O   LIG d   1       2.881  -0.655  -6.949  0.00  0.00    -0.506 OA
ATOM     23  H   LIG d   1       2.486   0.227  -6.913  0.00  0.00     0.292 HD
ENDBRANCH   5  22
TORSDOF 2
ENDMDL
MODEL 8
REMARK VINA RESULT:      -4.9      2.240      4.352
REMARK  2 active torsions:
REMARK  status: ('A' for Active; 'I' for Inactive)
REMARK    1  A    between atoms: C_5  and  O_7 
REMARK    2  A    between atoms: C_11  and  O_14 
ROOT
ATOM      1  C   LIG d   1       8.596  -0.985  -5.153  0.00  0.00    -0.058 A 
ATOM      2  C   LIG d   1       7.541  -1.817  -4.821  0.00  0.00    -0.058 A 
ATOM      3  C   LIG d   1       6.497  -1.352  -4.047  0.00  0.00    -0.031 A 
ATOM      4  C   LIG d   1       6.516  -0.030  -3.596  0.00  0.00     0.062 A 
ATOM      5  C   LIG d   1       7.588   0.813  -3.931  0.00  0.00     0.128 A 
ATOM      6  C   LIG d   1       8.622   0.325  -4.716  0.00  0.00    -0.019 A 
ATOM      7  C   LIG d   1       5.418   0.483  -2.761  0.00  0.00     0.169 C 
ATOM      8  O   LIG d   1       5.509   1.548  -2.189  0.00  0.00    -0.292 OA
ATOM      9  C   LIG d   1       4.169  -0.366  -2.642  0.00  0.00     0.037 C 
ATOM     10  C   LIG d   1       4.620  -1.822  -2.462  0.00  0.00     0.066 C 
ATOM     11  H   LIG d   1       5.284  -1.893  -1.600  0.00  0.00     0.060 H 
ATOM     12  C   LIG d   1       5.362  -2.282  -3.714  0.00  0.00    -0.000 C 
ATOM     13  H   LIG d   1       9.406  -1.362  -5.761  0.00  0.00     0.062 H 
ATOM     14  H   LIG d   1       7.535  -2.840  -5.172  0.00  0.00     0.062 H 
ATOM     15  H   LIG d   1       9.449   0.967  -4.982  0.00  0.00     0.065 H 
ATOM     16  H   LIG d   1       3.633  -0.062  -1.855  0.00  0.00     0.037 H 
ATOM     17  H   LIG d   1       3.570  -0.272  -3.548  0.00  0.00     0.037 H 
ATOM     18  H   LIG d   1       4.665  -2.309  -4.552  0.00  0.00     0.034 H 
ATOM     19  H   LIG d   1       5.757  -3.284  -3.547  0.00  0.00     0.034 H 
ENDROOT
BRANCH  10  20
ATOM     20  O   LIG d   1       3.476  -2.653  -2.253  0.00  0.00    -0.391 OA
ATOM     21  H   LIG d   1       3.536  -3.519  -2.679  0.00  0.00     0.210 HD
ENDBRANCH  10  20
BRANCH   5  22
ATOM     22  O   LIG d   1       7.609   2.096  -3.495  0.00  0.00    -0.506 OA
ATOM     23  H   LIG d   1       7.323   2.741  -4.156  0.00  0.00     0.292 HD
ENDBRANCH   5  22
TORSDOF 2
ENDMDL
MODEL 9
REMARK VINA RESULT:      -4.8      9.896     11.246
REMARK  2 active torsions:
REMARK  status: ('A' for Active; 'I' for Inactive)
REMARK    1  A    between atoms: C_5  and  O_7 
REMARK    2  A    between atoms: C_11  and  O_14 
ROOT
ATOM      1  C   LIG d   1      11.155  10.768   0.951  0.00  0.00    -0.058 A 
ATOM      2  C   LIG d   1      11.763   9.525   0.970  0.00  0.00    -0.058 A 
ATOM      3  C   LIG d   1      11.196   8.455   0.307  0.00  0.00    -0.031 A 
ATOM      4  C   LIG d   1       9.994   8.637  -0.382  0.00  0.00     0.062 A 
ATOM      5  C   LIG d   1       9.376   9.898  -0.399  0.00  0.00     0.128 A 
ATOM      6  C   LIG d   1       9.969  10.960   0.268  0.00  0.00    -0.019 A 
ATOM      7  C   LIG d   1       9.367   7.508  -1.087  0.00  0.00     0.169 C 
ATOM      8  O   LIG d   1       8.234   7.584  -1.512  0.00  0.00    -0.292 OA
ATOM      9  C   LIG d   1      10.187   6.247  -1.264  0.00  0.00     0.037 C 
ATOM     10  C   LIG d   1      10.913   5.982   0.062  0.00  0.00     0.066 C 
ATOM     11  H   LIG d   1      10.184   5.923   0.870  0.00  0.00     0.060 H 
ATOM     12  C   LIG d   1      11.890   7.121   0.341  0.00  0.00    -0.000 C 
ATOM     13  H   LIG d   1      11.610  11.597   1.473  0.00  0.00     0.062 H 
ATOM     14  H   LIG d   1      12.691   9.391   1.508  0.00  0.00     0.062 H 
ATOM     15  H   LIG d   1       9.503  11.934   0.257  0.00  0.00     0.065 H 
ATOM     16  H   LIG d   1       9.582   5.485  -1.493  0.00  0.00     0.037 H 
ATOM     17  H   LIG d   1      10.914   6.386  -2.064  0.00  0.00     0.037 H 
ATOM     18  H   LIG d   1      12.677   7.109  -0.414  0.00  0.00     0.034 H 
ATOM     19  H   LIG d   1      12.337   6.975   1.324  0.00  0.00     0.034 H 
ENDROOT
BRANCH  10  20
ATOM     20  O   LIG d   1      11.630   4.749  -0.025  0.00  0.00    -0.391 OA
ATOM     21  H   LIG d   1      11.644   4.364  -0.912  0.00  0.00     0.210 HD
ENDBRANCH  10  20
BRANCH   5  22
ATOM     22  O   LIG d   1       8.211  10.077  -1.068  0.00  0.00    -0.506 OA
ATOM     23  H   LIG d   1       7.752  10.899  -0.846  0.00  0.00     0.292 HD
ENDBRANCH   5  22
TORSDOF 2
ENDMDL
MODEL 10
REMARK VINA RESULT:      -4.7      9.008     10.930
REMARK  2 active torsions:
REMARK  status: ('A' for Active; 'I' for Inactive)
REMARK    1  A    between atoms: C_5  and  O_7 
REMARK    2  A    between atoms: C_11  and  O_14 
ROOT
ATOM      1  C   LIG d   1       9.847   5.541  -3.127  0.00  0.00    -0.058 A 
ATOM      2  C   LIG d   1       9.603   6.893  -2.964  0.00  0.00    -0.058 A 
ATOM      3  C   LIG d   1       9.984   7.541  -1.805  0.00  0.00    -0.031 A 
ATOM      4  C   LIG d   1      10.616   6.815  -0.793  0.00  0.00     0.062 A 
ATOM      5  C   LIG d   1      10.860   5.442  -0.958  0.00  0.00     0.128 A 
ATOM      6  C   LIG d   1      10.475   4.815  -2.134  0.00  0.00    -0.019 A 
ATOM      7  C   LIG d   1      11.022   7.483   0.454  0.00  0.00     0.169 C 
ATOM      8  O   LIG d   1      11.378   6.844   1.422  0.00  0.00    -0.292 OA
ATOM      9  C   LIG d   1      10.979   8.997   0.487  0.00  0.00     0.037 C 
ATOM     10  C   LIG d   1       9.678   9.434  -0.199  0.00  0.00     0.066 C 
ATOM     11  H   LIG d   1       8.830   8.959   0.294  0.00  0.00     0.060 H 
ATOM     12  C   LIG d   1       9.713   9.014  -1.666  0.00  0.00    -0.000 C 
ATOM     13  H   LIG d   1       9.544   5.047  -4.039  0.00  0.00     0.062 H 
ATOM     14  H   LIG d   1       9.112   7.448  -3.750  0.00  0.00     0.062 H 
ATOM     15  H   LIG d   1      10.662   3.760  -2.271  0.00  0.00     0.065 H 
ATOM     16  H   LIG d   1      11.000   9.311   1.436  0.00  0.00     0.037 H 
ATOM     17  H   LIG d   1      11.837   9.403  -0.049  0.00  0.00     0.037 H 
ATOM     18  H   LIG d   1      10.498   9.571  -2.179  0.00  0.00     0.034 H 
ATOM     19  H   LIG d   1       8.753   9.246  -2.127  0.00  0.00     0.034 H 
ENDROOT
BRANCH  10  20
ATOM     20  O   LIG d   1       9.547  10.854  -0.113  0.00  0.00    -0.391 OA
ATOM     21  H   LIG d   1      10.112  11.261   0.558  0.00  0.00     0.210 HD
ENDBRANCH  10  20
BRANCH   5  22
ATOM     22  O   LIG d   1      11.474   4.736   0.023  0.00  0.00    -0.506 OA
ATOM     23  H   LIG d   1      11.809   5.279   0.749  0.00  0.00     0.292 HD
ENDBRANCH   5  22
TORSDOF 2
ENDMDL
