MODEL 1
REMARK VINA RESULT:      -5.1      0.000      0.000
REMARK  2 active torsions:
REMARK  status: ('A' for Active; 'I' for Inactive)
REMARK    1  A    between atoms: C_1  and  C_2 
REMARK    2  A    between atoms: C_5  and  N_11 
REMARK       I    between atoms: N_11  and  C_12 
REMARK       I    between atoms: C_12  and  N_14 
ROOT
ATOM      1  C   LIG d   1       4.540   0.330  -2.856  0.00  0.00     0.025 C 
ATOM      2  H   LIG d   1       5.287   0.720  -3.547  0.00  0.00     0.050 H 
ATOM      3  C   LIG d   1       3.138   0.640  -3.391  0.00  0.00     0.001 C 
ATOM      4  C   LIG d   1       2.939  -0.116  -4.708  0.00  0.00     0.094 C 
ATOM      5  H   LIG d   1       1.918   0.029  -5.061  0.00  0.00     0.071 H 
ATOM      6  N   LIG d   1       3.183  -1.542  -4.485  0.00  0.00    -0.281 N 
ATOM      7  C   LIG d   1       4.032  -1.964  -3.537  0.00  0.00     0.301 C 
ATOM      8  O   LIG d   1       4.207  -3.160  -3.399  0.00  0.00    -0.253 OA
ATOM      9  N   LIG d   1       4.697  -1.121  -2.733  0.00  0.00    -0.297 N 
ATOM     10  H   LIG d   1       3.042   1.712  -3.565  0.00  0.00     0.032 H 
ATOM     11  H   LIG d   1       2.388   0.319  -2.667  0.00  0.00     0.032 H 
ATOM     12  H   LIG d   1       2.721  -2.195  -5.034  0.00  0.00     0.152 HD
ATOM     13  H   LIG d   1       5.294  -1.478  -2.057  0.00  0.00     0.150 HD
ENDROOT
BRANCH   4  14
ATOM     14  N   LIG d   1       3.881   0.391  -5.710  0.00  0.00    -0.281 N 
ATOM     15  C   LIG d   1       3.590   0.284  -7.022  0.00  0.00     0.298 C 
ATOM     16  O   LIG d   1       2.548  -0.234  -7.374  0.00  0.00    -0.253 OA
ATOM     17  N   LIG d   1       4.456   0.750  -7.943  0.00  0.00    -0.313 N 
ATOM     18  H   LIG d   1       5.288   1.163  -7.662  0.00  0.00     0.146 HD
ATOM     19  H   LIG d   1       4.250   0.670  -8.887  0.00  0.00     0.146 HD
ATOM     20  H   LIG d   1       4.712   0.803  -5.429  0.00  0.00     0.152 HD
ENDBRANCH   4  14
BRANCH   1  21
ATOM     21  C   LIG d   1       4.720   0.983  -1.484  0.00  0.00    -0.046 C 
ATOM     22  H   LIG d   1       5.657   0.645  -1.041  0.00  0.00     0.025 H 
ATOM     23  H   LIG d   1       4.743   2.067  -1.597  0.00  0.00     0.025 H 
ATOM     24  H   LIG d   1       3.890   0.702  -0.836  0.00  0.00     0.025 H 
ENDBRANCH   1  21
TORSDOF 2
ENDMDL
MODEL 2
REMARK VINA RESULT:      -4.9      2.773      3.517
REMARK  2 active torsions:
REMARK  status: ('A' for Active; 'I' for Inactive)
REMARK    1  A    between atoms: C_1  and  C_2 
REMARK    2  A    between atoms: C_5  and  N_11 
REMARK       I    between atoms: N_11  and  C_12 
REMARK       I    between atoms: C_12  and  N_14 
ROOT
ATOM      1  C   LIG d   1       4.168   0.241  -3.180  0.00  0.00     0.025 C 
ATOM      2  H   LIG d   1       3.566   0.030  -4.063  0.00  0.00     0.050 H 
ATOM      3  C   LIG d   1       4.233  -1.009  -2.296  0.00  0.00     0.001 C 
ATOM      4  C   LIG d   1       4.968  -2.112  -3.063  0.00  0.00     0.094 C 
ATOM      5  H   LIG d   1       5.094  -2.982  -2.418  0.00  0.00     0.071 H 
ATOM      6  N   LIG d   1       6.281  -1.616  -3.479  0.00  0.00    -0.281 N 
ATOM      7  C   LIG d   1       6.489  -0.314  -3.722  0.00  0.00     0.301 C 
ATOM      8  O   LIG d   1       7.596   0.045  -4.075  0.00  0.00    -0.253 OA
ATOM      9  N   LIG d   1       5.525   0.610  -3.590  0.00  0.00    -0.297 N 
ATOM     10  H   LIG d   1       3.223  -1.340  -2.055  0.00  0.00     0.032 H 
ATOM     11  H   LIG d   1       4.772  -0.782  -1.375  0.00  0.00     0.032 H 
ATOM     12  H   LIG d   1       7.015  -2.242  -3.581  0.00  0.00     0.152 HD
ATOM     13  H   LIG d   1       5.730   1.541  -3.770  0.00  0.00     0.150 HD
ENDROOT
BRANCH   4  14
ATOM     14  N   LIG d   1       4.189  -2.489  -4.245  0.00  0.00    -0.281 N 
ATOM     15  C   LIG d   1       4.648  -3.444  -5.079  0.00  0.00     0.298 C 
ATOM     16  O   LIG d   1       5.709  -3.992  -4.849  0.00  0.00    -0.253 OA
ATOM     17  N   LIG d   1       3.932  -3.789  -6.167  0.00  0.00    -0.313 N 
ATOM     18  H   LIG d   1       3.085  -3.352  -6.349  0.00  0.00     0.146 HD
ATOM     19  H   LIG d   1       4.263  -4.473  -6.768  0.00  0.00     0.146 HD
ATOM     20  H   LIG d   1       3.343  -2.051  -4.428  0.00  0.00     0.152 HD
ENDBRANCH   4  14
BRANCH   1  21
ATOM     21  C   LIG d   1       3.540   1.392  -2.394  0.00  0.00    -0.046 C 
ATOM     22  H   LIG d   1       3.685   1.226  -1.326  0.00  0.00     0.025 H 
ATOM     23  H   LIG d   1       4.012   2.331  -2.683  0.00  0.00     0.025 H 
ATOM     24  H   LIG d   1       2.473   1.441  -2.612  0.00  0.00     0.025 H 
ENDBRANCH   1  21
TORSDOF 2
ENDMDL
MODEL 3
REMARK VINA RESULT:      -4.6      2.342      3.091
REMARK  2 active torsions:
REMARK  status: ('A' for Active; 'I' for Inactive)
REMARK    1  A    between atoms: C_1  and  C_2 
REMARK    2  A    between atoms: C_5  and  N_11 
REMARK       I    between atoms: N_11  and  C_12 
REMARK       I    between atoms: C_12  and  N_14 
ROOT
ATOM      1  C   LIG d   1       3.722  -1.710  -3.683  0.00  0.00     0.025 C 
ATOM      2  H   LIG d   1       3.144  -2.531  -4.105  0.00  0.00     0.050 H 
ATOM      3  C   LIG d   1       5.071  -1.611  -4.403  0.00  0.00     0.001 C 
ATOM      4  C   LIG d   1       4.816  -1.246  -5.869  0.00  0.00     0.094 C 
ATOM      5  H   LIG d   1       5.768  -1.093  -6.377  0.00  0.00     0.071 H 
ATOM      6  N   LIG d   1       4.025  -0.016  -5.928  0.00  0.00    -0.281 N 
ATOM      7  C   LIG d   1       3.168   0.309  -4.949  0.00  0.00     0.301 C 
ATOM      8  O   LIG d   1       2.527   1.338  -5.051  0.00  0.00    -0.253 OA
ATOM      9  N   LIG d   1       2.990  -0.454  -3.860  0.00  0.00    -0.297 N 
ATOM     10  H   LIG d   1       5.586  -2.570  -4.348  0.00  0.00     0.032 H 
ATOM     11  H   LIG d   1       5.683  -0.840  -3.935  0.00  0.00     0.032 H 
ATOM     12  H   LIG d   1       4.122   0.576  -6.690  0.00  0.00     0.152 HD
ATOM     13  H   LIG d   1       2.364  -0.169  -3.177  0.00  0.00     0.150 HD
ENDROOT
BRANCH   4  14
ATOM     14  N   LIG d   1       4.082  -2.333  -6.524  0.00  0.00    -0.281 N 
ATOM     15  C   LIG d   1       3.906  -2.318  -7.860  0.00  0.00     0.298 C 
ATOM     16  O   LIG d   1       4.356  -1.402  -8.522  0.00  0.00    -0.253 OA
ATOM     17  N   LIG d   1       3.230  -3.317  -8.461  0.00  0.00    -0.313 N 
ATOM     18  H   LIG d   1       2.872  -4.047  -7.932  0.00  0.00     0.146 HD
ATOM     19  H   LIG d   1       3.100  -3.304  -9.422  0.00  0.00     0.146 HD
ATOM     20  H   LIG d   1       3.723  -3.063  -5.995  0.00  0.00     0.152 HD
ENDBRANCH   4  14
BRANCH   1  21
ATOM     21  C   LIG d   1       3.955  -1.961  -2.192  0.00  0.00    -0.046 C 
ATOM     22  H   LIG d   1       4.758  -2.688  -2.067  0.00  0.00     0.025 H 
ATOM     23  H   LIG d   1       4.231  -1.026  -1.704  0.00  0.00     0.025 H 
ATOM     24  H   LIG d   1       3.041  -2.350  -1.742  0.00  0.00     0.025 H 
ENDBRANCH   1  21
TORSDOF 2
ENDMDL
MODEL 4
REMARK VINA RESULT:      -4.6      2.499      3.089
REMARK  2 active torsions:
REMARK  status: ('A' for Active; 'I' for Inactive)
REMARK    1  A    between atoms: C_1  and  C_2 
REMARK    2  A    between atoms: C_5  and  N_11 
REMARK       I    between atoms: N_11  and  C_12 
REMARK       I    between atoms: C_12  and  N_14 
ROOT
ATOM      1  C   LIG d   1       7.178   0.997  -4.017  0.00  0.00     0.025 C 
ATOM      2  H   LIG d   1       6.756   1.118  -5.014  0.00  0.00     0.050 H 
ATOM      3  C   LIG d   1       6.091   1.245  -2.966  0.00  0.00     0.001 C 
ATOM      4  C   LIG d   1       5.018   0.161  -3.110  0.00  0.00     0.094 C 
ATOM      5  H   LIG d   1       4.277   0.275  -2.318  0.00  0.00     0.071 H 
ATOM      6  N   LIG d   1       5.648  -1.156  -3.007  0.00  0.00    -0.281 N 
ATOM      7  C   LIG d   1       6.919  -1.352  -3.385  0.00  0.00     0.301 C 
ATOM      8  O   LIG d   1       7.392  -2.469  -3.288  0.00  0.00    -0.253 OA
ATOM      9  N   LIG d   1       7.692  -0.366  -3.864  0.00  0.00    -0.297 N 
ATOM     10  H   LIG d   1       5.644   2.226  -3.126  0.00  0.00     0.032 H 
ATOM     11  H   LIG d   1       6.525   1.199  -1.967  0.00  0.00     0.032 H 
ATOM     12  H   LIG d   1       5.135  -1.903  -2.658  0.00  0.00     0.152 HD
ATOM     13  H   LIG d   1       8.609  -0.558  -4.115  0.00  0.00     0.150 HD
ENDROOT
BRANCH   4  14
ATOM     14  N   LIG d   1       4.363   0.290  -4.415  0.00  0.00    -0.281 N 
ATOM     15  C   LIG d   1       3.094  -0.134  -4.577  0.00  0.00     0.298 C 
ATOM     16  O   LIG d   1       2.493  -0.625  -3.641  0.00  0.00    -0.253 OA
ATOM     17  N   LIG d   1       2.493  -0.016  -5.777  0.00  0.00    -0.313 N 
ATOM     18  H   LIG d   1       2.973   0.376  -6.524  0.00  0.00     0.146 HD
ATOM     19  H   LIG d   1       1.581  -0.324  -5.895  0.00  0.00     0.146 HD
ATOM     20  H   LIG d   1       4.843   0.682  -5.161  0.00  0.00     0.152 HD
ENDBRANCH   4  14
BRANCH   1  21
ATOM     21  C   LIG d   1       8.318   1.999  -3.819  0.00  0.00    -0.046 C 
ATOM     22  H   LIG d   1       8.396   2.257  -2.763  0.00  0.00     0.025 H 
ATOM     23  H   LIG d   1       9.255   1.555  -4.155  0.00  0.00     0.025 H 
ATOM     24  H   LIG d   1       8.114   2.899  -4.398  0.00  0.00     0.025 H 
ENDBRANCH   1  21
TORSDOF 2
ENDMDL
MODEL 5
REMARK VINA RESULT:      -4.5      2.674      4.233
REMARK  2 active torsions:
REMARK  status: ('A' for Active; 'I' for Inactive)
REMARK    1  A    between atoms: C_1  and  C_2 
REMARK    2  A    between atoms: C_5  and  N_11 
REMARK       I    between atoms: N_11  and  C_12 
REMARK       I    between atoms: C_12  and  N_14 
ROOT
ATOM      1  C   LIG d   1       5.122  -2.510  -4.807  0.00  0.00     0.025 C 
ATOM      2  H   LIG d   1       6.172  -2.427  -5.083  0.00  0.00     0.050 H 
ATOM      3  C   LIG d   1       4.936  -2.045  -3.359  0.00  0.00     0.001 C 
ATOM      4  C   LIG d   1       5.283  -0.555  -3.276  0.00  0.00     0.094 C 
ATOM      5  H   LIG d   1       5.079  -0.189  -2.270  0.00  0.00     0.071 H 
ATOM      6  N   LIG d   1       4.468   0.183  -4.242  0.00  0.00    -0.281 N 
ATOM      7  C   LIG d   1       4.039  -0.392  -5.375  0.00  0.00     0.301 C 
ATOM      8  O   LIG d   1       3.372   0.269  -6.150  0.00  0.00    -0.253 OA
ATOM      9  N   LIG d   1       4.314  -1.666  -5.690  0.00  0.00    -0.297 N 
ATOM     10  H   LIG d   1       5.597  -2.613  -2.704  0.00  0.00     0.032 H 
ATOM     11  H   LIG d   1       3.900  -2.197  -3.052  0.00  0.00     0.032 H 
ATOM     12  H   LIG d   1       4.233   1.106  -4.059  0.00  0.00     0.152 HD
ATOM     13  H   LIG d   1       3.973  -2.036  -6.519  0.00  0.00     0.150 HD
ENDROOT
BRANCH   4  14
ATOM     14  N   LIG d   1       6.702  -0.366  -3.588  0.00  0.00    -0.281 N 
ATOM     15  C   LIG d   1       7.234   0.873  -3.582  0.00  0.00     0.298 C 
ATOM     16  O   LIG d   1       6.536   1.833  -3.319  0.00  0.00    -0.253 OA
ATOM     17  N   LIG d   1       8.540   1.047  -3.869  0.00  0.00    -0.313 N 
ATOM     18  H   LIG d   1       9.096   0.280  -4.078  0.00  0.00     0.146 HD
ATOM     19  H   LIG d   1       8.921   1.938  -3.869  0.00  0.00     0.146 HD
ATOM     20  H   LIG d   1       7.259  -1.132  -3.797  0.00  0.00     0.152 HD
ENDBRANCH   4  14
BRANCH   1  21
ATOM     21  C   LIG d   1       4.672  -3.966  -4.938  0.00  0.00    -0.046 C 
ATOM     22  H   LIG d   1       5.305  -4.601  -4.316  0.00  0.00     0.025 H 
ATOM     23  H   LIG d   1       3.635  -4.058  -4.612  0.00  0.00     0.025 H 
ATOM     24  H   LIG d   1       4.755  -4.280  -5.978  0.00  0.00     0.025 H 
ENDBRANCH   1  21
TORSDOF 2
ENDMDL
MODEL 6
REMARK VINA RESULT:      -4.5      2.881      6.100
REMARK  2 active torsions:
REMARK  status: ('A' for Active; 'I' for Inactive)
REMARK    1  A    between atoms: C_1  and  C_2 
REMARK    2  A    between atoms: C_5  and  N_11 
REMARK       I    between atoms: N_11  and  C_12 
REMARK       I    between atoms: C_12  and  N_14 
ROOT
ATOM      1  C   LIG d   1       3.714  -0.092 -10.270  0.00  0.00     0.025 C 
ATOM      2  H   LIG d   1       4.027  -0.969  -9.704  0.00  0.00     0.050 H 
ATOM      3  C   LIG d   1       2.456   0.506  -9.633  0.00  0.00     0.001 C 
ATOM      4  C   LIG d   1       2.810   1.008  -8.230  0.00  0.00     0.094 C 
ATOM      5  H   LIG d   1       1.946   1.509  -7.793  0.00  0.00     0.071 H 
ATOM      6  N   LIG d   1       3.928   1.948  -8.323  0.00  0.00    -0.281 N 
ATOM      7  C   LIG d   1       4.839   1.853  -9.302  0.00  0.00     0.301 C 
ATOM      8  O   LIG d   1       5.754   2.654  -9.329  0.00  0.00    -0.253 OA
ATOM      9  N   LIG d   1       4.782   0.909 -10.254  0.00  0.00    -0.297 N 
ATOM     10  H   LIG d   1       1.681  -0.258  -9.565  0.00  0.00     0.032 H 
ATOM     11  H   LIG d   1       2.095   1.338 -10.238  0.00  0.00     0.032 H 
ATOM     12  H   LIG d   1       4.011   2.656  -7.664  0.00  0.00     0.152 HD
ATOM     13  H   LIG d   1       5.463   0.889 -10.945  0.00  0.00     0.150 HD
ENDROOT
BRANCH   4  14
ATOM     14  N   LIG d   1       3.196  -0.128  -7.387  0.00  0.00    -0.281 N 
ATOM     15  C   LIG d   1       3.220   0.006  -6.046  0.00  0.00     0.298 C 
ATOM     16  O   LIG d   1       2.924   1.069  -5.535  0.00  0.00    -0.253 OA
ATOM     17  N   LIG d   1       3.575  -1.038  -5.271  0.00  0.00    -0.313 N 
ATOM     18  H   LIG d   1       3.812  -1.886  -5.679  0.00  0.00     0.146 HD
ATOM     19  H   LIG d   1       3.597  -0.941  -4.307  0.00  0.00     0.146 HD
ATOM     20  H   LIG d   1       3.432  -0.976  -7.795  0.00  0.00     0.152 HD
ENDBRANCH   4  14
BRANCH   1  21
ATOM     21  C   LIG d   1       3.413  -0.496 -11.715  0.00  0.00    -0.046 C 
ATOM     22  H   LIG d   1       2.357  -0.750 -11.809  0.00  0.00     0.025 H 
ATOM     23  H   LIG d   1       3.648   0.333 -12.382  0.00  0.00     0.025 H 
ATOM     24  H   LIG d   1       4.019  -1.362 -11.983  0.00  0.00     0.025 H 
ENDBRANCH   1  21
TORSDOF 2
ENDMDL
MODEL 7
REMARK VINA RESULT:      -4.4      2.493      3.381
REMARK  2 active torsions:
REMARK  status: ('A' for Active; 'I' for Inactive)
REMARK    1  A    between atoms: C_1  and  C_2 
REMARK    2  A    between atoms: C_5  and  N_11 
REMARK       I    between atoms: N_11  and  C_12 
REMARK       I    between atoms: C_12  and  N_14 
ROOT
ATOM      1  C   LIG d   1       6.827  -2.070  -4.609  0.00  0.00     0.025 C 
ATOM      2  H   LIG d   1       6.593  -1.249  -5.286  0.00  0.00     0.050 H 
ATOM      3  C   LIG d   1       6.369  -1.712  -3.192  0.00  0.00     0.001 C 
ATOM      4  C   LIG d   1       4.843  -1.578  -3.191  0.00  0.00     0.094 C 
ATOM      5  H   LIG d   1       4.493  -1.403  -2.174  0.00  0.00     0.071 H 
ATOM      6  N   LIG d   1       4.252  -2.814  -3.707  0.00  0.00    -0.281 N 
ATOM      7  C   LIG d   1       4.904  -3.582  -4.591  0.00  0.00     0.301 C 
ATOM      8  O   LIG d   1       4.364  -4.595  -4.996  0.00  0.00    -0.253 OA
ATOM      9  N   LIG d   1       6.129  -3.280  -5.047  0.00  0.00    -0.297 N 
ATOM     10  H   LIG d   1       6.820  -0.766  -2.889  0.00  0.00     0.032 H 
ATOM     11  H   LIG d   1       6.668  -2.497  -2.497  0.00  0.00     0.032 H 
ATOM     12  H   LIG d   1       3.371  -3.083  -3.402  0.00  0.00     0.152 HD
ATOM     13  H   LIG d   1       6.561  -3.874  -5.681  0.00  0.00     0.150 HD
ENDROOT
BRANCH   4  14
ATOM     14  N   LIG d   1       4.449  -0.454  -4.045  0.00  0.00    -0.281 N 
ATOM     15  C   LIG d   1       3.161  -0.061  -4.090  0.00  0.00     0.298 C 
ATOM     16  O   LIG d   1       2.325  -0.640  -3.423  0.00  0.00    -0.253 OA
ATOM     17  N   LIG d   1       2.799   0.973  -4.876  0.00  0.00    -0.313 N 
ATOM     18  H   LIG d   1       3.467   1.434  -5.408  0.00  0.00     0.146 HD
ATOM     19  H   LIG d   1       1.872   1.253  -4.912  0.00  0.00     0.146 HD
ATOM     20  H   LIG d   1       5.117   0.007  -4.577  0.00  0.00     0.152 HD
ENDBRANCH   4  14
BRANCH   1  21
ATOM     21  C   LIG d   1       8.336  -2.321  -4.611  0.00  0.00    -0.046 C 
ATOM     22  H   LIG d   1       8.863  -1.368  -4.674  0.00  0.00     0.025 H 
ATOM     23  H   LIG d   1       8.621  -2.833  -3.692  0.00  0.00     0.025 H 
ATOM     24  H   LIG d   1       8.601  -2.939  -5.469  0.00  0.00     0.025 H 
ENDBRANCH   1  21
TORSDOF 2
ENDMDL
MODEL 8
REMARK VINA RESULT:      -4.4     10.469     11.555
REMARK  2 active torsions:
REMARK  status: ('A' for Active; 'I' for Inactive)
REMARK    1  A    between atoms: C_1  and  C_2 
REMARK    2  A    between atoms: C_5  and  N_11 
REMARK       I    between atoms: N_11  and  C_12 
REMARK       I    between atoms: C_12  and  N_14 
ROOT
ATOM      1  C   LIG d   1      10.670   5.579  -1.311  0.00  0.00     0.025 C 
ATOM      2  H   LIG d   1       9.651   5.861  -1.571  0.00  0.00     0.050 H 
ATOM      3  C   LIG d   1      11.626   6.718  -1.680  0.00  0.00     0.001 C 
ATOM      4  C   LIG d   1      11.286   7.938  -0.818  0.00  0.00     0.094 C 
ATOM      5  H   LIG d   1      12.008   8.732  -1.010  0.00  0.00     0.071 H 
ATOM      6  N   LIG d   1      11.339   7.558   0.595  0.00  0.00    -0.281 N 
ATOM      7  C   LIG d   1      11.073   6.304   0.990  0.00  0.00     0.301 C 
ATOM      8  O   LIG d   1      11.121   6.043   2.177  0.00  0.00    -0.253 OA
ATOM      9  N   LIG d   1      10.757   5.326   0.128  0.00  0.00    -0.297 N 
ATOM     10  H   LIG d   1      11.507   6.969  -2.734  0.00  0.00     0.032 H 
ATOM     11  H   LIG d   1      12.656   6.412  -1.492  0.00  0.00     0.032 H 
ATOM     12  H   LIG d   1      11.571   8.226   1.259  0.00  0.00     0.152 HD
ATOM     13  H   LIG d   1      10.581   4.434   0.465  0.00  0.00     0.150 HD
ENDROOT
BRANCH   4  14
ATOM     14  N   LIG d   1       9.939   8.411  -1.148  0.00  0.00    -0.281 N 
ATOM     15  C   LIG d   1       9.541   9.638  -0.757  0.00  0.00     0.298 C 
ATOM     16  O   LIG d   1      10.300  10.352  -0.129  0.00  0.00    -0.253 OA
ATOM     17  N   LIG d   1       8.302  10.072  -1.060  0.00  0.00    -0.313 N 
ATOM     18  H   LIG d   1       7.697   9.502  -1.561  0.00  0.00     0.146 HD
ATOM     19  H   LIG d   1       8.014  10.953  -0.776  0.00  0.00     0.146 HD
ATOM     20  H   LIG d   1       9.335   7.841  -1.648  0.00  0.00     0.152 HD
ENDBRANCH   4  14
BRANCH   1  21
ATOM     21  C   LIG d   1      11.063   4.314  -2.078  0.00  0.00    -0.046 C 
ATOM     22  H   LIG d   1      12.006   4.482  -2.598  0.00  0.00     0.025 H 
ATOM     23  H   LIG d   1      11.177   3.485  -1.379  0.00  0.00     0.025 H 
ATOM     24  H   LIG d   1      10.286   4.073  -2.803  0.00  0.00     0.025 H 
ENDBRANCH   1  21
TORSDOF 2
ENDMDL
MODEL 9
REMARK VINA RESULT:      -4.2      3.214      4.301
REMARK  2 active torsions:
REMARK  status: ('A' for Active; 'I' for Inactive)
REMARK    1  A    between atoms: C_1  and  C_2 
REMARK    2  A    between atoms: C_5  and  N_11 
REMARK       I    between atoms: N_11  and  C_12 
REMARK       I    between atoms: C_12  and  N_14 
ROOT
ATOM      1  C   LIG d   1       6.580  -2.035  -4.241  0.00  0.00     0.025 C 
ATOM      2  H   LIG d   1       7.073  -2.998  -4.107  0.00  0.00     0.050 H 
ATOM      3  C   LIG d   1       5.846  -2.019  -5.586  0.00  0.00     0.001 C 
ATOM      4  C   LIG d   1       4.732  -3.070  -5.546  0.00  0.00     0.094 C 
ATOM      5  H   LIG d   1       4.148  -3.016  -6.466  0.00  0.00     0.071 H 
ATOM      6  N   LIG d   1       3.864  -2.806  -4.398  0.00  0.00    -0.281 N 
ATOM      7  C   LIG d   1       4.334  -2.218  -3.289  0.00  0.00     0.301 C 
ATOM      8  O   LIG d   1       3.573  -2.031  -2.358  0.00  0.00    -0.253 OA
ATOM      9  N   LIG d   1       5.611  -1.827  -3.163  0.00  0.00    -0.297 N 
ATOM     10  H   LIG d   1       6.546  -2.257  -6.387  0.00  0.00     0.032 H 
ATOM     11  H   LIG d   1       5.414  -1.033  -5.759  0.00  0.00     0.032 H 
ATOM     12  H   LIG d   1       2.929  -3.062  -4.440  0.00  0.00     0.152 HD
ATOM     13  H   LIG d   1       5.899  -1.399  -2.342  0.00  0.00     0.150 HD
ENDROOT
BRANCH   4  14
ATOM     14  N   LIG d   1       5.322  -4.405  -5.418  0.00  0.00    -0.281 N 
ATOM     15  C   LIG d   1       4.578  -5.498  -5.681  0.00  0.00     0.298 C 
ATOM     16  O   LIG d   1       3.418  -5.376  -6.023  0.00  0.00    -0.253 OA
ATOM     17  N   LIG d   1       5.121  -6.726  -5.562  0.00  0.00    -0.313 N 
ATOM     18  H   LIG d   1       6.047  -6.823  -5.289  0.00  0.00     0.146 HD
ATOM     19  H   LIG d   1       4.586  -7.513  -5.747  0.00  0.00     0.146 HD
ATOM     20  H   LIG d   1       6.248  -4.501  -5.145  0.00  0.00     0.152 HD
ENDBRANCH   4  14
BRANCH   1  21
ATOM     21  C   LIG d   1       7.624  -0.917  -4.214  0.00  0.00    -0.046 C 
ATOM     22  H   LIG d   1       8.619  -1.350  -4.111  0.00  0.00     0.025 H 
ATOM     23  H   LIG d   1       7.571  -0.347  -5.142  0.00  0.00     0.025 H 
ATOM     24  H   LIG d   1       7.427  -0.256  -3.370  0.00  0.00     0.025 H 
ENDBRANCH   1  21
TORSDOF 2
ENDMDL
MODEL 10
REMARK VINA RESULT:      -4.2     10.567     11.381
REMARK  2 active torsions:
REMARK  status: ('A' for Active; 'I' for Inactive)
REMARK    1  A    between atoms: C_1  and  C_2 
REMARK    2  A    between atoms: C_5  and  N_11 
REMARK       I    between atoms: N_11  and  C_12 
REMARK       I    between atoms: C_12  and  N_14 
ROOT
ATOM      1  C   LIG d   1       9.563   6.919  -3.752  0.00  0.00     0.025 C 
ATOM      2  H   LIG d   1       8.620   7.398  -4.014  0.00  0.00     0.050 H 
ATOM      3  C   LIG d   1      10.713   7.914  -3.940  0.00  0.00     0.001 C 
ATOM      4  C   LIG d   1      10.528   9.067  -2.949  0.00  0.00     0.094 C 
ATOM      5  H   LIG d   1      11.381   9.743  -3.014  0.00  0.00     0.071 H 
ATOM      6  N   LIG d   1      10.435   8.524  -1.593  0.00  0.00    -0.281 N 
ATOM      7  C   LIG d   1       9.945   7.297  -1.365  0.00  0.00     0.301 C 
ATOM      8  O   LIG d   1       9.880   6.897  -0.218  0.00  0.00    -0.253 OA
ATOM      9  N   LIG d   1       9.524   6.492  -2.351  0.00  0.00    -0.297 N 
ATOM     10  H   LIG d   1      10.698   8.301  -4.960  0.00  0.00     0.032 H 
ATOM     11  H   LIG d   1      11.665   7.418  -3.752  0.00  0.00     0.032 H 
ATOM     12  H   LIG d   1      10.735   9.063  -0.843  0.00  0.00     0.152 HD
ATOM     13  H   LIG d   1       9.184   5.609  -2.134  0.00  0.00     0.150 HD
ENDROOT
BRANCH   4  14
ATOM     14  N   LIG d   1       9.299   9.797  -3.269  0.00  0.00    -0.281 N 
ATOM     15  C   LIG d   1       9.002  10.937  -2.615  0.00  0.00     0.298 C 
ATOM     16  O   LIG d   1       9.754  11.360  -1.758  0.00  0.00    -0.253 OA
ATOM     17  N   LIG d   1       7.870  11.607  -2.910  0.00  0.00    -0.313 N 
ATOM     18  H   LIG d   1       7.271  11.270  -3.593  0.00  0.00     0.146 HD
ATOM     19  H   LIG d   1       7.654  12.426  -2.436  0.00  0.00     0.146 HD
ATOM     20  H   LIG d   1       8.699   9.459  -3.953  0.00  0.00     0.152 HD
ENDBRANCH   4  14
BRANCH   1  21
ATOM     21  C   LIG d   1       9.787   5.702  -4.652  0.00  0.00    -0.046 C 
ATOM     22  H   LIG d   1       9.936   6.033  -5.680  0.00  0.00     0.025 H 
ATOM     23  H   LIG d   1      10.668   5.157  -4.315  0.00  0.00     0.025 H 
ATOM     24  H   LIG d   1       8.915   5.050  -4.604  0.00  0.00     0.025 H 
ENDBRANCH   1  21
TORSDOF 2
ENDMDL
