MODEL 1
REMARK VINA RESULT:      -7.1      0.000      0.000
REMARK  10 active torsions:
REMARK  status: ('A' for Active; 'I' for Inactive)
REMARK    1  A    between atoms: C_1  and  C_2 
REMARK    2  A    between atoms: C_2  and  C_3 
REMARK    3  A    between atoms: C_2  and  C_4 
REMARK    4  A    between atoms: C_7  and  N_10 
REMARK       I    between atoms: N_10  and  C_11 
REMARK    5  A    between atoms: C_11  and  C_13 
REMARK    6  A    between atoms: C_13  and  O_14 
REMARK    7  A    between atoms: O_14  and  C_15 
REMARK    8  A    between atoms: C_17  and  O_28 
REMARK    9  A    between atoms: C_22  and  C_26 
REMARK   10  A    between atoms: C_22  and  C_27 
ROOT
ATOM      1  C   LIG d   1       9.842   2.693  -5.411  0.00  0.00     0.166 C 
ATOM      2  H   LIG d   1      10.499   2.741  -4.543  0.00  0.00     0.080 H 
ATOM      3  H   LIG d   1      10.338   2.143  -6.212  0.00  0.00     0.080 H 
ENDROOT
BRANCH   1   4
ATOM      4  C   LIG d   1       8.564   1.988  -5.034  0.00  0.00     0.255 C 
ATOM      5  N   LIG d   1       8.396   1.523  -3.780  0.00  0.00    -0.283 N 
ATOM      6  H   LIG d   1       9.062   1.708  -3.100  0.00  0.00     0.155 HD
ATOM      7  O   LIG d   1       7.688   1.839  -5.859  0.00  0.00    -0.272 OA
BRANCH   5   8
ATOM      8  C   LIG d   1       7.259   0.774  -3.460  0.00  0.00     0.034 A 
ATOM      9  C   LIG d   1       6.092   1.415  -3.062  0.00  0.00    -0.040 A 
ATOM     10  C   LIG d   1       4.970   0.672  -2.750  0.00  0.00    -0.057 A 
ATOM     11  H   LIG d   1       6.061   2.492  -3.000  0.00  0.00     0.064 H 
ATOM     12  C   LIG d   1       5.010  -0.708  -2.824  0.00  0.00    -0.045 A 
ATOM     13  H   LIG d   1       4.061   1.170  -2.444  0.00  0.00     0.062 H 
ATOM     14  C   LIG d   1       6.169  -1.349  -3.219  0.00  0.00    -0.057 A 
ATOM     15  C   LIG d   1       7.293  -0.613  -3.538  0.00  0.00    -0.040 A 
ATOM     16  H   LIG d   1       6.196  -2.427  -3.280  0.00  0.00     0.062 H 
ATOM     17  H   LIG d   1       8.198  -1.114  -3.846  0.00  0.00     0.064 H 
BRANCH  12  18
ATOM     18  C   LIG d   1       3.785  -1.515  -2.477  0.00  0.00    -0.021 C 
ATOM     19  H   LIG d   1       3.687  -1.579  -1.394  0.00  0.00     0.034 H 
BRANCH  18  20
ATOM     20  C   LIG d   1       3.918  -2.922  -3.062  0.00  0.00    -0.059 C 
ATOM     21  H   LIG d   1       4.835  -2.986  -3.648  0.00  0.00     0.024 H 
ATOM     22  H   LIG d   1       3.953  -3.650  -2.251  0.00  0.00     0.024 H 
ATOM     23  H   LIG d   1       3.062  -3.133  -3.702  0.00  0.00     0.024 H 
ENDBRANCH  18  20
BRANCH  18  24
ATOM     24  C   LIG d   1       2.545  -0.835  -3.062  0.00  0.00    -0.059 C 
ATOM     25  H   LIG d   1       2.373   0.111  -2.549  0.00  0.00     0.024 H 
ATOM     26  H   LIG d   1       2.700  -0.649  -4.125  0.00  0.00     0.024 H 
ATOM     27  H   LIG d   1       1.678  -1.483  -2.929  0.00  0.00     0.024 H 
ENDBRANCH  18  24
ENDBRANCH  12  18
ENDBRANCH   5   8
ENDBRANCH   1   4
BRANCH   1  28
ATOM     28  O   LIG d   1       9.542   4.016  -5.857  0.00  0.00    -0.482 OA
BRANCH  28  29
ATOM     29  C   LIG d   1       9.648   5.013  -4.941  0.00  0.00     0.128 A 
ATOM     30  C   LIG d   1       9.969   4.707  -3.625  0.00  0.00     0.023 A 
ATOM     31  C   LIG d   1      10.082   5.715  -2.683  0.00  0.00     0.139 A 
ATOM     32  H   LIG d   1      10.132   3.679  -3.337  0.00  0.00     0.069 H 
ATOM     33  C   LIG d   1       9.873   7.049  -3.075  0.00  0.00     0.101 A 
ATOM     34  O   LIG d   1      10.384   5.409  -1.400  0.00  0.00    -0.485 OA
ATOM     35  C   LIG d   1       9.543   7.353  -4.406  0.00  0.00     0.134 A 
ATOM     36  C   LIG d   1      10.010   8.116  -2.077  0.00  0.00     0.174 C 
ATOM     37  C   LIG d   1       9.439   6.330  -5.332  0.00  0.00     0.022 A 
ATOM     38  H   LIG d   1       9.192   6.556  -6.359  0.00  0.00     0.069 H 
ATOM     39  C   LIG d   1      10.084   7.680  -0.625  0.00  0.00     0.050 C 
ATOM     40  O   LIG d   1      10.060   9.285  -2.395  0.00  0.00    -0.292 OA
ATOM     41  C   LIG d   1      10.960   6.420  -0.573  0.00  0.00     0.112 C 
ATOM     42  H   LIG d   1      10.496   8.395  -0.059  0.00  0.00     0.038 H 
ATOM     43  H   LIG d   1       9.085   7.453  -0.253  0.00  0.00     0.038 H 
BRANCH  35  44
ATOM     44  O   LIG d   1       9.333   8.639  -4.782  0.00  0.00    -0.506 OA
ATOM     45  H   LIG d   1       9.289   9.262  -4.044  0.00  0.00     0.292 HD
ENDBRANCH  35  44
BRANCH  41  46
ATOM     46  C   LIG d   1      11.043   5.914   0.868  0.00  0.00    -0.025 C 
ATOM     47  H   LIG d   1      10.973   6.758   1.555  0.00  0.00     0.027 H 
ATOM     48  H   LIG d   1      10.222   5.222   1.059  0.00  0.00     0.027 H 
ATOM     49  H   LIG d   1      11.993   5.401   1.019  0.00  0.00     0.027 H 
ENDBRANCH  41  46
BRANCH  41  50
ATOM     50  C   LIG d   1      12.366   6.754  -1.078  0.00  0.00    -0.025 C 
ATOM     51  H   LIG d   1      12.450   7.830  -1.231  0.00  0.00     0.027 H 
ATOM     52  H   LIG d   1      13.102   6.432  -0.342  0.00  0.00     0.027 H 
ATOM     53  H   LIG d   1      12.545   6.237  -2.021  0.00  0.00     0.027 H 
ENDBRANCH  41  50
ENDBRANCH  28  29
ENDBRANCH   1  28
TORSDOF 10
ENDMDL
MODEL 2
REMARK VINA RESULT:      -6.9      1.057      2.432
REMARK  10 active torsions:
REMARK  status: ('A' for Active; 'I' for Inactive)
REMARK    1  A    between atoms: C_1  and  C_2 
REMARK    2  A    between atoms: C_2  and  C_3 
REMARK    3  A    between atoms: C_2  and  C_4 
REMARK    4  A    between atoms: C_7  and  N_10 
REMARK       I    between atoms: N_10  and  C_11 
REMARK    5  A    between atoms: C_11  and  C_13 
REMARK    6  A    between atoms: C_13  and  O_14 
REMARK    7  A    between atoms: O_14  and  C_15 
REMARK    8  A    between atoms: C_17  and  O_28 
REMARK    9  A    between atoms: C_22  and  C_26 
REMARK   10  A    between atoms: C_22  and  C_27 
ROOT
ATOM      1  C   LIG d   1       9.577   3.266  -5.395  0.00  0.00     0.166 C 
ATOM      2  H   LIG d   1      10.411   3.045  -4.729  0.00  0.00     0.080 H 
ATOM      3  H   LIG d   1       9.889   3.115  -6.429  0.00  0.00     0.080 H 
ENDROOT
BRANCH   1   4
ATOM      4  C   LIG d   1       8.425   2.348  -5.078  0.00  0.00     0.255 C 
ATOM      5  N   LIG d   1       8.224   1.931  -3.812  0.00  0.00    -0.283 N 
ATOM      6  H   LIG d   1       8.773   2.282  -3.093  0.00  0.00     0.155 HD
ATOM      7  O   LIG d   1       7.678   1.985  -5.962  0.00  0.00    -0.272 OA
BRANCH   5   8
ATOM      8  C   LIG d   1       7.223   0.994  -3.536  0.00  0.00     0.034 A 
ATOM      9  C   LIG d   1       5.987   1.415  -3.062  0.00  0.00    -0.040 A 
ATOM     10  C   LIG d   1       5.000   0.487  -2.794  0.00  0.00    -0.057 A 
ATOM     11  H   LIG d   1       5.797   2.466  -2.908  0.00  0.00     0.064 H 
ATOM     12  C   LIG d   1       5.244  -0.861  -2.986  0.00  0.00    -0.045 A 
ATOM     13  H   LIG d   1       4.037   0.814  -2.429  0.00  0.00     0.062 H 
ATOM     14  C   LIG d   1       6.473  -1.283  -3.458  0.00  0.00    -0.057 A 
ATOM     15  C   LIG d   1       7.463  -0.360  -3.733  0.00  0.00    -0.040 A 
ATOM     16  H   LIG d   1       6.660  -2.336  -3.611  0.00  0.00     0.062 H 
ATOM     17  H   LIG d   1       8.423  -0.691  -4.100  0.00  0.00     0.064 H 
BRANCH  12  18
ATOM     18  C   LIG d   1       4.166  -1.870  -2.687  0.00  0.00    -0.021 C 
ATOM     19  H   LIG d   1       4.273  -2.222  -1.662  0.00  0.00     0.034 H 
BRANCH  18  20
ATOM     20  C   LIG d   1       4.293  -3.053  -3.649  0.00  0.00    -0.059 C 
ATOM     21  H   LIG d   1       4.071  -2.722  -4.663  0.00  0.00     0.024 H 
ATOM     22  H   LIG d   1       5.309  -3.446  -3.609  0.00  0.00     0.024 H 
ATOM     23  H   LIG d   1       3.590  -3.834  -3.360  0.00  0.00     0.024 H 
ENDBRANCH  18  20
BRANCH  18  24
ATOM     24  C   LIG d   1       2.793  -1.217  -2.862  0.00  0.00    -0.059 C 
ATOM     25  H   LIG d   1       2.556  -1.148  -3.923  0.00  0.00     0.024 H 
ATOM     26  H   LIG d   1       2.037  -1.820  -2.359  0.00  0.00     0.024 H 
ATOM     27  H   LIG d   1       2.809  -0.217  -2.427  0.00  0.00     0.024 H 
ENDBRANCH  18  24
ENDBRANCH  12  18
ENDBRANCH   5   8
ENDBRANCH   1   4
BRANCH   1  28
ATOM     28  O   LIG d   1       9.169   4.623  -5.214  0.00  0.00    -0.482 OA
BRANCH  28  29
ATOM     29  C   LIG d   1       9.607   5.254  -4.094  0.00  0.00     0.128 A 
ATOM     30  C   LIG d   1       9.543   6.639  -4.016  0.00  0.00     0.023 A 
ATOM     31  C   LIG d   1       9.985   7.293  -2.880  0.00  0.00     0.139 A 
ATOM     32  H   LIG d   1       9.145   7.207  -4.844  0.00  0.00     0.069 H 
ATOM     33  C   LIG d   1      10.494   6.540  -1.806  0.00  0.00     0.101 A 
ATOM     34  O   LIG d   1       9.930   8.644  -2.814  0.00  0.00    -0.485 OA
ATOM     35  C   LIG d   1      10.562   5.140  -1.893  0.00  0.00     0.134 A 
ATOM     36  C   LIG d   1      10.946   7.237  -0.597  0.00  0.00     0.174 C 
ATOM     37  C   LIG d   1      10.111   4.506  -3.037  0.00  0.00     0.022 A 
ATOM     38  H   LIG d   1      10.155   3.430  -3.109  0.00  0.00     0.069 H 
ATOM     39  C   LIG d   1      11.102   8.744  -0.700  0.00  0.00     0.050 C 
ATOM     40  O   LIG d   1      11.184   6.640   0.432  0.00  0.00    -0.292 OA
ATOM     41  C   LIG d   1       9.919   9.266  -1.528  0.00  0.00     0.112 C 
ATOM     42  H   LIG d   1      11.086   9.166   0.206  0.00  0.00     0.038 H 
ATOM     43  H   LIG d   1      12.040   8.987  -1.198  0.00  0.00     0.038 H 
BRANCH  35  44
ATOM     44  O   LIG d   1      11.061   4.415  -0.862  0.00  0.00    -0.506 OA
ATOM     45  H   LIG d   1      11.450   4.950  -0.156  0.00  0.00     0.292 HD
ENDBRANCH  35  44
BRANCH  41  46
ATOM     46  C   LIG d   1      10.043  10.782  -1.696  0.00  0.00    -0.025 C 
ATOM     47  H   LIG d   1       9.151  11.266  -1.296  0.00  0.00     0.027 H 
ATOM     48  H   LIG d   1      10.921  11.138  -1.157  0.00  0.00     0.027 H 
ATOM     49  H   LIG d   1      10.143  11.024  -2.753  0.00  0.00     0.027 H 
ENDBRANCH  41  46
BRANCH  41  50
ATOM     50  C   LIG d   1       8.608   8.937  -0.812  0.00  0.00    -0.025 C 
ATOM     51  H   LIG d   1       8.685   9.226   0.236  0.00  0.00     0.027 H 
ATOM     52  H   LIG d   1       7.790   9.484  -1.282  0.00  0.00     0.027 H 
ATOM     53  H   LIG d   1       8.416   7.866  -0.880  0.00  0.00     0.027 H 
ENDBRANCH  41  50
ENDBRANCH  28  29
ENDBRANCH   1  28
TORSDOF 10
ENDMDL
MODEL 3
REMARK VINA RESULT:      -6.5      7.083     12.736
REMARK  10 active torsions:
REMARK  status: ('A' for Active; 'I' for Inactive)
REMARK    1  A    between atoms: C_1  and  C_2 
REMARK    2  A    between atoms: C_2  and  C_3 
REMARK    3  A    between atoms: C_2  and  C_4 
REMARK    4  A    between atoms: C_7  and  N_10 
REMARK       I    between atoms: N_10  and  C_11 
REMARK    5  A    between atoms: C_11  and  C_13 
REMARK    6  A    between atoms: C_13  and  O_14 
REMARK    7  A    between atoms: O_14  and  C_15 
REMARK    8  A    between atoms: C_17  and  O_28 
REMARK    9  A    between atoms: C_22  and  C_26 
REMARK   10  A    between atoms: C_22  and  C_27 
ROOT
ATOM      1  C   LIG d   1       7.540  -5.488  -5.876  0.00  0.00     0.166 C 
ATOM      2  H   LIG d   1       8.017  -5.074  -6.764  0.00  0.00     0.080 H 
ATOM      3  H   LIG d   1       8.282  -6.022  -5.281  0.00  0.00     0.080 H 
ENDROOT
BRANCH   1   4
ATOM      4  C   LIG d   1       6.951  -4.369  -5.056  0.00  0.00     0.255 C 
ATOM      5  N   LIG d   1       5.672  -3.990  -5.253  0.00  0.00    -0.283 N 
ATOM      6  H   LIG d   1       5.109  -4.485  -5.868  0.00  0.00     0.155 HD
ATOM      7  O   LIG d   1       7.627  -3.811  -4.217  0.00  0.00    -0.272 OA
BRANCH   5   8
ATOM      8  C   LIG d   1       5.159  -2.881  -4.571  0.00  0.00     0.034 A 
ATOM      9  C   LIG d   1       4.355  -3.063  -3.453  0.00  0.00    -0.040 A 
ATOM     10  C   LIG d   1       3.853  -1.967  -2.780  0.00  0.00    -0.057 A 
ATOM     11  H   LIG d   1       4.125  -4.060  -3.109  0.00  0.00     0.064 H 
ATOM     12  C   LIG d   1       4.142  -0.689  -3.223  0.00  0.00    -0.045 A 
ATOM     13  H   LIG d   1       3.230  -2.108  -1.908  0.00  0.00     0.062 H 
ATOM     14  C   LIG d   1       4.942  -0.504  -4.335  0.00  0.00    -0.057 A 
ATOM     15  C   LIG d   1       5.452  -1.596  -5.010  0.00  0.00    -0.040 A 
ATOM     16  H   LIG d   1       5.170   0.495  -4.677  0.00  0.00     0.062 H 
ATOM     17  H   LIG d   1       6.076  -1.451  -5.879  0.00  0.00     0.064 H 
BRANCH  12  18
ATOM     18  C   LIG d   1       3.587   0.504  -2.489  0.00  0.00    -0.021 C 
ATOM     19  H   LIG d   1       2.702   0.206  -1.928  0.00  0.00     0.034 H 
BRANCH  18  20
ATOM     20  C   LIG d   1       3.212   1.594  -3.495  0.00  0.00    -0.059 C 
ATOM     21  H   LIG d   1       2.244   1.360  -3.938  0.00  0.00     0.024 H 
ATOM     22  H   LIG d   1       3.154   2.556  -2.984  0.00  0.00     0.024 H 
ATOM     23  H   LIG d   1       3.968   1.643  -4.277  0.00  0.00     0.024 H 
ENDBRANCH  18  20
BRANCH  18  24
ATOM     24  C   LIG d   1       4.645   1.045  -1.523  0.00  0.00    -0.059 C 
ATOM     25  H   LIG d   1       5.219   1.830  -2.015  0.00  0.00     0.024 H 
ATOM     26  H   LIG d   1       4.154   1.454  -0.639  0.00  0.00     0.024 H 
ATOM     27  H   LIG d   1       5.313   0.237  -1.227  0.00  0.00     0.024 H 
ENDBRANCH  18  24
ENDBRANCH  12  18
ENDBRANCH   5   8
ENDBRANCH   1   4
BRANCH   1  28
ATOM     28  O   LIG d   1       6.503  -6.389  -6.267  0.00  0.00    -0.482 OA
BRANCH  28  29
ATOM     29  C   LIG d   1       6.337  -7.503  -5.510  0.00  0.00     0.128 A 
ATOM     30  C   LIG d   1       7.442  -8.111  -4.929  0.00  0.00     0.023 A 
ATOM     31  C   LIG d   1       7.285  -9.246  -4.153  0.00  0.00     0.139 A 
ATOM     32  H   LIG d   1       8.427  -7.696  -5.083  0.00  0.00     0.069 H 
ATOM     33  C   LIG d   1       5.995  -9.772  -3.957  0.00  0.00     0.101 A 
ATOM     34  O   LIG d   1       8.367  -9.840  -3.599  0.00  0.00    -0.485 OA
ATOM     35  C   LIG d   1       4.882  -9.157  -4.551  0.00  0.00     0.134 A 
ATOM     36  C   LIG d   1       5.832 -10.966  -3.121  0.00  0.00     0.174 C 
ATOM     37  C   LIG d   1       5.061  -8.020  -5.319  0.00  0.00     0.022 A 
ATOM     38  H   LIG d   1       4.209  -7.538  -5.775  0.00  0.00     0.069 H 
ATOM     39  C   LIG d   1       7.099 -11.721  -2.760  0.00  0.00     0.050 C 
ATOM     40  O   LIG d   1       4.741 -11.333  -2.737  0.00  0.00    -0.292 OA
ATOM     41  C   LIG d   1       8.180 -10.674  -2.455  0.00  0.00     0.112 C 
ATOM     42  H   LIG d   1       6.954 -12.295  -1.954  0.00  0.00     0.038 H 
ATOM     43  H   LIG d   1       7.411 -12.344  -3.598  0.00  0.00     0.038 H 
BRANCH  35  44
ATOM     44  O   LIG d   1       3.640  -9.669  -4.369  0.00  0.00    -0.506 OA
ATOM     45  H   LIG d   1       3.287 -10.130  -5.142  0.00  0.00     0.292 HD
ENDBRANCH  35  44
BRANCH  41  46
ATOM     46  C   LIG d   1       9.495 -11.380  -2.118  0.00  0.00    -0.025 C 
ATOM     47  H   LIG d   1       9.294 -12.422  -1.867  0.00  0.00     0.027 H 
ATOM     48  H   LIG d   1      10.163 -11.335  -2.978  0.00  0.00     0.027 H 
ATOM     49  H   LIG d   1       9.964 -10.886  -1.267  0.00  0.00     0.027 H 
ENDBRANCH  41  46
BRANCH  41  50
ATOM     50  C   LIG d   1       7.741  -9.818  -1.266  0.00  0.00    -0.025 C 
ATOM     51  H   LIG d   1       6.705 -10.048  -1.015  0.00  0.00     0.027 H 
ATOM     52  H   LIG d   1       8.379 -10.032  -0.409  0.00  0.00     0.027 H 
ATOM     53  H   LIG d   1       7.825  -8.763  -1.527  0.00  0.00     0.027 H 
ENDBRANCH  41  50
ENDBRANCH  28  29
ENDBRANCH   1  28
TORSDOF 10
ENDMDL
MODEL 4
REMARK VINA RESULT:      -6.5      8.538     13.019
REMARK  10 active torsions:
REMARK  status: ('A' for Active; 'I' for Inactive)
REMARK    1  A    between atoms: C_1  and  C_2 
REMARK    2  A    between atoms: C_2  and  C_3 
REMARK    3  A    between atoms: C_2  and  C_4 
REMARK    4  A    between atoms: C_7  and  N_10 
REMARK       I    between atoms: N_10  and  C_11 
REMARK    5  A    between atoms: C_11  and  C_13 
REMARK    6  A    between atoms: C_13  and  O_14 
REMARK    7  A    between atoms: O_14  and  C_15 
REMARK    8  A    between atoms: C_17  and  O_28 
REMARK    9  A    between atoms: C_22  and  C_26 
REMARK   10  A    between atoms: C_22  and  C_27 
ROOT
ATOM      1  C   LIG d   1       4.963  -7.066  -6.699  0.00  0.00     0.166 C 
ATOM      2  H   LIG d   1       4.756  -7.215  -7.758  0.00  0.00     0.080 H 
ATOM      3  H   LIG d   1       6.034  -7.161  -6.521  0.00  0.00     0.080 H 
ENDROOT
BRANCH   1   4
ATOM      4  C   LIG d   1       4.506  -5.690  -6.288  0.00  0.00     0.255 C 
ATOM      5  N   LIG d   1       5.414  -4.739  -5.990  0.00  0.00    -0.283 N 
ATOM      6  H   LIG d   1       6.360  -4.916  -6.113  0.00  0.00     0.155 HD
ATOM      7  O   LIG d   1       3.321  -5.437  -6.226  0.00  0.00    -0.272 OA
BRANCH   5   8
ATOM      8  C   LIG d   1       4.992  -3.497  -5.504  0.00  0.00     0.034 A 
ATOM      9  C   LIG d   1       4.817  -2.430  -6.376  0.00  0.00    -0.040 A 
ATOM     10  C   LIG d   1       4.396  -1.207  -5.893  0.00  0.00    -0.057 A 
ATOM     11  H   LIG d   1       5.006  -2.559  -7.431  0.00  0.00     0.064 H 
ATOM     12  C   LIG d   1       4.159  -1.040  -4.541  0.00  0.00    -0.045 A 
ATOM     13  H   LIG d   1       4.256  -0.378  -6.572  0.00  0.00     0.062 H 
ATOM     14  C   LIG d   1       4.332  -2.099  -3.670  0.00  0.00    -0.057 A 
ATOM     15  C   LIG d   1       4.747  -3.327  -4.147  0.00  0.00    -0.040 A 
ATOM     16  H   LIG d   1       4.142  -1.967  -2.615  0.00  0.00     0.062 H 
ATOM     17  H   LIG d   1       4.883  -4.154  -3.466  0.00  0.00     0.064 H 
BRANCH  12  18
ATOM     18  C   LIG d   1       3.705   0.298  -4.017  0.00  0.00    -0.021 C 
ATOM     19  H   LIG d   1       4.486   1.039  -4.189  0.00  0.00     0.034 H 
BRANCH  18  20
ATOM     20  C   LIG d   1       3.425   0.191  -2.517  0.00  0.00    -0.059 C 
ATOM     21  H   LIG d   1       2.381   0.437  -2.325  0.00  0.00     0.024 H 
ATOM     22  H   LIG d   1       3.627  -0.826  -2.182  0.00  0.00     0.024 H 
ATOM     23  H   LIG d   1       4.067   0.886  -1.977  0.00  0.00     0.024 H 
ENDBRANCH  18  20
BRANCH  18  24
ATOM     24  C   LIG d   1       2.428   0.724  -4.745  0.00  0.00    -0.059 C 
ATOM     25  H   LIG d   1       2.282   1.798  -4.624  0.00  0.00     0.024 H 
ATOM     26  H   LIG d   1       2.519   0.488  -5.806  0.00  0.00     0.024 H 
ATOM     27  H   LIG d   1       1.576   0.192  -4.325  0.00  0.00     0.024 H 
ENDBRANCH  18  24
ENDBRANCH  12  18
ENDBRANCH   5   8
ENDBRANCH   1   4
BRANCH   1  28
ATOM     28  O   LIG d   1       4.263  -8.048  -5.933  0.00  0.00    -0.482 OA
BRANCH  28  29
ATOM     29  C   LIG d   1       4.985  -8.748  -5.022  0.00  0.00     0.128 A 
ATOM     30  C   LIG d   1       6.370  -8.639  -5.011  0.00  0.00     0.023 A 
ATOM     31  C   LIG d   1       7.117  -9.347  -4.086  0.00  0.00     0.139 A 
ATOM     32  H   LIG d   1       6.864  -7.999  -5.727  0.00  0.00     0.069 H 
ATOM     33  C   LIG d   1       6.458 -10.171  -3.156  0.00  0.00     0.101 A 
ATOM     34  O   LIG d   1       8.466  -9.245  -4.088  0.00  0.00    -0.485 OA
ATOM     35  C   LIG d   1       5.059 -10.282  -3.174  0.00  0.00     0.134 A 
ATOM     36  C   LIG d   1       7.253 -10.906  -2.166  0.00  0.00     0.174 C 
ATOM     37  C   LIG d   1       4.331  -9.562  -4.105  0.00  0.00     0.022 A 
ATOM     38  H   LIG d   1       3.254  -9.638  -4.123  0.00  0.00     0.069 H 
ATOM     39  C   LIG d   1       8.753 -10.951  -2.398  0.00  0.00     0.050 C 
ATOM     40  O   LIG d   1       6.739 -11.450  -1.211  0.00  0.00    -0.292 OA
ATOM     41  C   LIG d   1       9.178  -9.561  -2.891  0.00  0.00     0.112 C 
ATOM     42  H   LIG d   1       9.238 -11.168  -1.551  0.00  0.00     0.038 H 
ATOM     43  H   LIG d   1       8.990 -11.702  -3.153  0.00  0.00     0.038 H 
BRANCH  35  44
ATOM     44  O   LIG d   1       4.424 -11.083  -2.283  0.00  0.00    -0.506 OA
ATOM     45  H   LIG d   1       3.612 -10.703  -1.920  0.00  0.00     0.292 HD
ENDBRANCH  35  44
BRANCH  41  46
ATOM     46  C   LIG d   1      10.682  -9.558  -3.176  0.00  0.00    -0.025 C 
ATOM     47  H   LIG d   1      10.874  -9.019  -4.105  0.00  0.00     0.027 H 
ATOM     48  H   LIG d   1      11.206  -9.067  -2.357  0.00  0.00     0.027 H 
ATOM     49  H   LIG d   1      11.035 -10.584  -3.272  0.00  0.00     0.027 H 
ENDBRANCH  41  46
BRANCH  41  50
ATOM     50  C   LIG d   1       8.860  -8.519  -1.817  0.00  0.00    -0.025 C 
ATOM     51  H   LIG d   1       8.147  -8.936  -1.106  0.00  0.00     0.027 H 
ATOM     52  H   LIG d   1       9.777  -8.244  -1.295  0.00  0.00     0.027 H 
ATOM     53  H   LIG d   1       8.430  -7.634  -2.285  0.00  0.00     0.027 H 
ENDBRANCH  41  50
ENDBRANCH  28  29
ENDBRANCH   1  28
TORSDOF 10
ENDMDL
MODEL 5
REMARK VINA RESULT:      -6.4      6.946     12.752
REMARK  10 active torsions:
REMARK  status: ('A' for Active; 'I' for Inactive)
REMARK    1  A    between atoms: C_1  and  C_2 
REMARK    2  A    between atoms: C_2  and  C_3 
REMARK    3  A    between atoms: C_2  and  C_4 
REMARK    4  A    between atoms: C_7  and  N_10 
REMARK       I    between atoms: N_10  and  C_11 
REMARK    5  A    between atoms: C_11  and  C_13 
REMARK    6  A    between atoms: C_13  and  O_14 
REMARK    7  A    between atoms: O_14  and  C_15 
REMARK    8  A    between atoms: C_17  and  O_28 
REMARK    9  A    between atoms: C_22  and  C_26 
REMARK   10  A    between atoms: C_22  and  C_27 
ROOT
ATOM      1  C   LIG d   1       8.866  -5.770  -5.651  0.00  0.00     0.166 C 
ATOM      2  H   LIG d   1       8.158  -6.289  -6.298  0.00  0.00     0.080 H 
ATOM      3  H   LIG d   1       9.598  -5.242  -6.263  0.00  0.00     0.080 H 
ENDROOT
BRANCH   1   4
ATOM      4  C   LIG d   1       8.125  -4.780  -4.790  0.00  0.00     0.255 C 
ATOM      5  N   LIG d   1       6.965  -4.246  -5.222  0.00  0.00    -0.283 N 
ATOM      6  H   LIG d   1       6.567  -4.555  -6.051  0.00  0.00     0.155 HD
ATOM      7  O   LIG d   1       8.572  -4.463  -3.707  0.00  0.00    -0.272 OA
BRANCH   5   8
ATOM      8  C   LIG d   1       6.334  -3.247  -4.473  0.00  0.00     0.034 A 
ATOM      9  C   LIG d   1       7.062  -2.155  -4.016  0.00  0.00    -0.040 A 
ATOM     10  C   LIG d   1       6.435  -1.169  -3.281  0.00  0.00    -0.057 A 
ATOM     11  H   LIG d   1       8.115  -2.077  -4.238  0.00  0.00     0.064 H 
ATOM     12  C   LIG d   1       5.086  -1.270  -2.991  0.00  0.00    -0.045 A 
ATOM     13  H   LIG d   1       7.000  -0.318  -2.928  0.00  0.00     0.062 H 
ATOM     14  C   LIG d   1       4.359  -2.355  -3.445  0.00  0.00    -0.057 A 
ATOM     15  C   LIG d   1       4.978  -3.343  -4.185  0.00  0.00    -0.040 A 
ATOM     16  H   LIG d   1       3.305  -2.430  -3.220  0.00  0.00     0.062 H 
ATOM     17  H   LIG d   1       4.410  -4.190  -4.538  0.00  0.00     0.064 H 
BRANCH  12  18
ATOM     18  C   LIG d   1       4.408  -0.194  -2.184  0.00  0.00    -0.021 C 
ATOM     19  H   LIG d   1       4.381  -0.489  -1.135  0.00  0.00     0.034 H 
BRANCH  18  20
ATOM     20  C   LIG d   1       2.979   0.003  -2.695  0.00  0.00    -0.059 C 
ATOM     21  H   LIG d   1       3.008   0.333  -3.733  0.00  0.00     0.024 H 
ATOM     22  H   LIG d   1       2.436  -0.940  -2.628  0.00  0.00     0.024 H 
ATOM     23  H   LIG d   1       2.476   0.756  -2.088  0.00  0.00     0.024 H 
ENDBRANCH  18  20
BRANCH  18  24
ATOM     24  C   LIG d   1       5.185   1.116  -2.326  0.00  0.00    -0.059 C 
ATOM     25  H   LIG d   1       4.839   1.650  -3.211  0.00  0.00     0.024 H 
ATOM     26  H   LIG d   1       5.021   1.734  -1.442  0.00  0.00     0.024 H 
ATOM     27  H   LIG d   1       6.249   0.899  -2.425  0.00  0.00     0.024 H 
ENDBRANCH  18  24
ENDBRANCH  12  18
ENDBRANCH   5   8
ENDBRANCH   1   4
BRANCH   1  28
ATOM     28  O   LIG d   1       9.535  -6.718  -4.818  0.00  0.00    -0.482 OA
BRANCH  28  29
ATOM     29  C   LIG d   1       8.756  -7.586  -4.124  0.00  0.00     0.128 A 
ATOM     30  C   LIG d   1       7.658  -8.170  -4.742  0.00  0.00     0.023 A 
ATOM     31  C   LIG d   1       6.858  -9.058  -4.045  0.00  0.00     0.139 A 
ATOM     32  H   LIG d   1       7.429  -7.931  -5.769  0.00  0.00     0.069 H 
ATOM     33  C   LIG d   1       7.172  -9.364  -2.708  0.00  0.00     0.101 A 
ATOM     34  O   LIG d   1       5.783  -9.615  -4.649  0.00  0.00    -0.485 OA
ATOM     35  C   LIG d   1       8.281  -8.767  -2.087  0.00  0.00     0.134 A 
ATOM     36  C   LIG d   1       6.330 -10.319  -1.979  0.00  0.00     0.174 C 
ATOM     37  C   LIG d   1       9.070  -7.885  -2.803  0.00  0.00     0.022 A 
ATOM     38  H   LIG d   1       9.927  -7.426  -2.334  0.00  0.00     0.069 H 
ATOM     39  C   LIG d   1       5.008 -10.691  -2.626  0.00  0.00     0.050 C 
ATOM     40  O   LIG d   1       6.672 -10.788  -0.913  0.00  0.00    -0.292 OA
ATOM     41  C   LIG d   1       5.266 -10.842  -4.132  0.00  0.00     0.112 C 
ATOM     42  H   LIG d   1       4.662 -11.554  -2.259  0.00  0.00     0.038 H 
ATOM     43  H   LIG d   1       4.275  -9.903  -2.452  0.00  0.00     0.038 H 
BRANCH  35  44
ATOM     44  O   LIG d   1       8.579  -9.056  -0.796  0.00  0.00    -0.506 OA
ATOM     45  H   LIG d   1       7.827  -9.381  -0.282  0.00  0.00     0.292 HD
ENDBRANCH  35  44
BRANCH  41  46
ATOM     46  C   LIG d   1       3.955 -11.183  -4.843  0.00  0.00    -0.025 C 
ATOM     47  H   LIG d   1       3.278 -11.673  -4.143  0.00  0.00     0.027 H 
ATOM     48  H   LIG d   1       3.494 -10.268  -5.215  0.00  0.00     0.027 H 
ATOM     49  H   LIG d   1       4.160 -11.852  -5.679  0.00  0.00     0.027 H 
ENDBRANCH  41  46
BRANCH  41  50
ATOM     50  C   LIG d   1       6.281 -11.962  -4.366  0.00  0.00    -0.025 C 
ATOM     51  H   LIG d   1       5.938 -12.597  -5.184  0.00  0.00     0.027 H 
ATOM     52  H   LIG d   1       7.248 -11.529  -4.622  0.00  0.00     0.027 H 
ATOM     53  H   LIG d   1       6.379 -12.560  -3.460  0.00  0.00     0.027 H 
ENDBRANCH  41  50
ENDBRANCH  28  29
ENDBRANCH   1  28
TORSDOF 10
ENDMDL
MODEL 6
REMARK VINA RESULT:      -6.3      7.624     12.632
REMARK  10 active torsions:
REMARK  status: ('A' for Active; 'I' for Inactive)
REMARK    1  A    between atoms: C_1  and  C_2 
REMARK    2  A    between atoms: C_2  and  C_3 
REMARK    3  A    between atoms: C_2  and  C_4 
REMARK    4  A    between atoms: C_7  and  N_10 
REMARK       I    between atoms: N_10  and  C_11 
REMARK    5  A    between atoms: C_11  and  C_13 
REMARK    6  A    between atoms: C_13  and  O_14 
REMARK    7  A    between atoms: O_14  and  C_15 
REMARK    8  A    between atoms: C_17  and  O_28 
REMARK    9  A    between atoms: C_22  and  C_26 
REMARK   10  A    between atoms: C_22  and  C_27 
ROOT
ATOM      1  C   LIG d   1       3.447   0.820 -10.062  0.00  0.00     0.166 C 
ATOM      2  H   LIG d   1       2.379   0.985 -10.206  0.00  0.00     0.080 H 
ATOM      3  H   LIG d   1       4.003   1.661 -10.477  0.00  0.00     0.080 H 
ENDROOT
BRANCH   1   4
ATOM      4  C   LIG d   1       3.741   0.701  -8.589  0.00  0.00     0.255 C 
ATOM      5  N   LIG d   1       3.001  -0.121  -7.818  0.00  0.00    -0.283 N 
ATOM      6  H   LIG d   1       2.331  -0.692  -8.222  0.00  0.00     0.155 HD
ATOM      7  O   LIG d   1       4.644   1.345  -8.097  0.00  0.00    -0.272 OA
BRANCH   5   8
ATOM      8  C   LIG d   1       3.202  -0.149  -6.433  0.00  0.00     0.034 A 
ATOM      9  C   LIG d   1       2.411   0.633  -5.600  0.00  0.00    -0.040 A 
ATOM     10  C   LIG d   1       2.610   0.600  -4.233  0.00  0.00    -0.057 A 
ATOM     11  H   LIG d   1       1.641   1.262  -6.019  0.00  0.00     0.064 H 
ATOM     12  C   LIG d   1       3.600  -0.202  -3.695  0.00  0.00    -0.045 A 
ATOM     13  H   LIG d   1       1.993   1.204  -3.584  0.00  0.00     0.062 H 
ATOM     14  C   LIG d   1       4.387  -0.981  -4.522  0.00  0.00    -0.057 A 
ATOM     15  C   LIG d   1       4.191  -0.957  -5.889  0.00  0.00    -0.040 A 
ATOM     16  H   LIG d   1       5.157  -1.610  -4.099  0.00  0.00     0.062 H 
ATOM     17  H   LIG d   1       4.808  -1.565  -6.534  0.00  0.00     0.064 H 
BRANCH  12  18
ATOM     18  C   LIG d   1       3.816  -0.231  -2.204  0.00  0.00    -0.021 C 
ATOM     19  H   LIG d   1       2.852  -0.181  -1.697  0.00  0.00     0.034 H 
BRANCH  18  20
ATOM     20  C   LIG d   1       4.674   0.965  -1.789  0.00  0.00    -0.059 C 
ATOM     21  H   LIG d   1       4.050   1.858  -1.736  0.00  0.00     0.024 H 
ATOM     22  H   LIG d   1       5.117   0.773  -0.812  0.00  0.00     0.024 H 
ATOM     23  H   LIG d   1       5.465   1.118  -2.523  0.00  0.00     0.024 H 
ENDBRANCH  18  20
BRANCH  18  24
ATOM     24  C   LIG d   1       4.529  -1.529  -1.817  0.00  0.00    -0.059 C 
ATOM     25  H   LIG d   1       4.302  -2.301  -2.553  0.00  0.00     0.024 H 
ATOM     26  H   LIG d   1       5.605  -1.358  -1.791  0.00  0.00     0.024 H 
ATOM     27  H   LIG d   1       4.188  -1.852  -0.834  0.00  0.00     0.024 H 
ENDBRANCH  18  24
ENDBRANCH  12  18
ENDBRANCH   5   8
ENDBRANCH   1   4
BRANCH   1  28
ATOM     28  O   LIG d   1       3.838  -0.383 -10.724  0.00  0.00    -0.482 OA
BRANCH  28  29
ATOM     29  C   LIG d   1       2.872  -1.314 -10.934  0.00  0.00     0.128 A 
ATOM     30  C   LIG d   1       1.872  -1.069 -11.866  0.00  0.00     0.023 A 
ATOM     31  C   LIG d   1       0.882  -2.010 -12.089  0.00  0.00     0.139 A 
ATOM     32  H   LIG d   1       1.868  -0.141 -12.419  0.00  0.00     0.069 H 
ATOM     33  C   LIG d   1       0.904  -3.216 -11.366  0.00  0.00     0.101 A 
ATOM     34  O   LIG d   1      -0.095  -1.761 -12.991  0.00  0.00    -0.485 OA
ATOM     35  C   LIG d   1       1.914  -3.456 -10.420  0.00  0.00     0.134 A 
ATOM     36  C   LIG d   1      -0.137  -4.218 -11.618  0.00  0.00     0.174 C 
ATOM     37  C   LIG d   1       2.896  -2.503 -10.216  0.00  0.00     0.022 A 
ATOM     38  H   LIG d   1       3.679  -2.683  -9.494  0.00  0.00     0.069 H 
ATOM     39  C   LIG d   1      -1.333  -3.763 -12.435  0.00  0.00     0.050 C 
ATOM     40  O   LIG d   1      -0.048  -5.352 -11.195  0.00  0.00    -0.292 OA
ATOM     41  C   LIG d   1      -0.799  -2.865 -13.560  0.00  0.00     0.112 C 
ATOM     42  H   LIG d   1      -1.812  -4.546 -12.832  0.00  0.00     0.038 H 
ATOM     43  H   LIG d   1      -2.021  -3.199 -11.805  0.00  0.00     0.038 H 
BRANCH  35  44
ATOM     44  O   LIG d   1       1.931  -4.615  -9.717  0.00  0.00    -0.506 OA
ATOM     45  H   LIG d   1       1.962  -5.410 -10.268  0.00  0.00     0.292 HD
ENDBRANCH  35  44
BRANCH  41  46
ATOM     46  C   LIG d   1      -1.969  -2.346 -14.399  0.00  0.00    -0.025 C 
ATOM     47  H   LIG d   1      -1.811  -1.293 -14.631  0.00  0.00     0.027 H 
ATOM     48  H   LIG d   1      -2.033  -2.917 -15.326  0.00  0.00     0.027 H 
ATOM     49  H   LIG d   1      -2.896  -2.460 -13.838  0.00  0.00     0.027 H 
ENDBRANCH  41  46
BRANCH  41  50
ATOM     50  C   LIG d   1       0.149  -3.671 -14.450  0.00  0.00    -0.025 C 
ATOM     51  H   LIG d   1       1.147  -3.671 -14.011  0.00  0.00     0.027 H 
ATOM     52  H   LIG d   1      -0.213  -4.696 -14.532  0.00  0.00     0.027 H 
ATOM     53  H   LIG d   1       0.189  -3.220 -15.442  0.00  0.00     0.027 H 
ENDBRANCH  41  50
ENDBRANCH  28  29
ENDBRANCH   1  28
TORSDOF 10
ENDMDL
MODEL 7
REMARK VINA RESULT:      -6.2      7.814     12.263
REMARK  10 active torsions:
REMARK  status: ('A' for Active; 'I' for Inactive)
REMARK    1  A    between atoms: C_1  and  C_2 
REMARK    2  A    between atoms: C_2  and  C_3 
REMARK    3  A    between atoms: C_2  and  C_4 
REMARK    4  A    between atoms: C_7  and  N_10 
REMARK       I    between atoms: N_10  and  C_11 
REMARK    5  A    between atoms: C_11  and  C_13 
REMARK    6  A    between atoms: C_13  and  O_14 
REMARK    7  A    between atoms: O_14  and  C_15 
REMARK    8  A    between atoms: C_17  and  O_28 
REMARK    9  A    between atoms: C_22  and  C_26 
REMARK   10  A    between atoms: C_22  and  C_27 
ROOT
ATOM      1  C   LIG d   1       4.960   0.762 -10.267  0.00  0.00     0.166 C 
ATOM      2  H   LIG d   1       5.536   1.641 -10.555  0.00  0.00     0.080 H 
ATOM      3  H   LIG d   1       5.437  -0.133 -10.669  0.00  0.00     0.080 H 
ENDROOT
BRANCH   1   4
ATOM      4  C   LIG d   1       4.903   0.669  -8.764  0.00  0.00     0.255 C 
ATOM      5  N   LIG d   1       4.103  -0.241  -8.174  0.00  0.00    -0.283 N 
ATOM      6  H   LIG d   1       3.622  -0.887  -8.715  0.00  0.00     0.155 HD
ATOM      7  O   LIG d   1       5.578   1.414  -8.085  0.00  0.00    -0.272 OA
BRANCH   5   8
ATOM      8  C   LIG d   1       3.966  -0.254  -6.782  0.00  0.00     0.034 A 
ATOM      9  C   LIG d   1       4.933  -0.865  -5.994  0.00  0.00    -0.040 A 
ATOM     10  C   LIG d   1       4.797  -0.873  -4.619  0.00  0.00    -0.057 A 
ATOM     11  H   LIG d   1       5.791  -1.331  -6.454  0.00  0.00     0.064 H 
ATOM     12  C   LIG d   1       3.696  -0.282  -4.028  0.00  0.00    -0.045 A 
ATOM     13  H   LIG d   1       5.551  -1.345  -4.005  0.00  0.00     0.062 H 
ATOM     14  C   LIG d   1       2.732   0.328  -4.810  0.00  0.00    -0.057 A 
ATOM     15  C   LIG d   1       2.864   0.344  -6.184  0.00  0.00    -0.040 A 
ATOM     16  H   LIG d   1       1.875   0.793  -4.345  0.00  0.00     0.062 H 
ATOM     17  H   LIG d   1       2.111   0.819  -6.794  0.00  0.00     0.064 H 
BRANCH  12  18
ATOM     18  C   LIG d   1       3.549  -0.297  -2.528  0.00  0.00    -0.021 C 
ATOM     19  H   LIG d   1       2.491  -0.321  -2.267  0.00  0.00     0.034 H 
BRANCH  18  20
ATOM     20  C   LIG d   1       4.191   0.961  -1.940  0.00  0.00    -0.059 C 
ATOM     21  H   LIG d   1       3.424   1.718  -1.780  0.00  0.00     0.024 H 
ATOM     22  H   LIG d   1       4.664   0.716  -0.988  0.00  0.00     0.024 H 
ATOM     23  H   LIG d   1       4.942   1.343  -2.630  0.00  0.00     0.024 H 
ENDBRANCH  18  20
BRANCH  18  24
ATOM     24  C   LIG d   1       4.243  -1.537  -1.961  0.00  0.00    -0.059 C 
ATOM     25  H   LIG d   1       3.775  -2.434  -2.368  0.00  0.00     0.024 H 
ATOM     26  H   LIG d   1       5.298  -1.521  -2.236  0.00  0.00     0.024 H 
ATOM     27  H   LIG d   1       4.150  -1.541  -0.875  0.00  0.00     0.024 H 
ENDBRANCH  18  24
ENDBRANCH  12  18
ENDBRANCH   5   8
ENDBRANCH   1   4
BRANCH   1  28
ATOM     28  O   LIG d   1       3.634   0.869 -10.788  0.00  0.00    -0.482 OA
BRANCH  28  29
ATOM     29  C   LIG d   1       3.221  -0.112 -11.630  0.00  0.00     0.128 A 
ATOM     30  C   LIG d   1       2.066  -0.827 -11.340  0.00  0.00     0.023 A 
ATOM     31  C   LIG d   1       1.635  -1.829 -12.192  0.00  0.00     0.139 A 
ATOM     32  H   LIG d   1       1.504  -0.600 -10.447  0.00  0.00     0.069 H 
ATOM     33  C   LIG d   1       2.375  -2.109 -13.354  0.00  0.00     0.101 A 
ATOM     34  O   LIG d   1       0.515  -2.529 -11.897  0.00  0.00    -0.485 OA
ATOM     35  C   LIG d   1       3.545  -1.387 -13.640  0.00  0.00     0.134 A 
ATOM     36  C   LIG d   1       1.904  -3.160 -14.263  0.00  0.00     0.174 C 
ATOM     37  C   LIG d   1       3.956  -0.387 -12.777  0.00  0.00     0.022 A 
ATOM     38  H   LIG d   1       4.851   0.177 -12.993  0.00  0.00     0.069 H 
ATOM     39  C   LIG d   1       0.808  -4.070 -13.738  0.00  0.00     0.050 C 
ATOM     40  O   LIG d   1       2.368  -3.297 -15.376  0.00  0.00    -0.292 OA
ATOM     41  C   LIG d   1      -0.178  -3.189 -12.957  0.00  0.00     0.112 C 
ATOM     42  H   LIG d   1       0.328  -4.520 -14.491  0.00  0.00     0.038 H 
ATOM     43  H   LIG d   1       1.236  -4.825 -13.078  0.00  0.00     0.038 H 
BRANCH  35  44
ATOM     44  O   LIG d   1       4.263  -1.663 -14.757  0.00  0.00    -0.506 OA
ATOM     45  H   LIG d   1       5.007  -1.063 -14.904  0.00  0.00     0.292 HD
ENDBRANCH  35  44
BRANCH  41  46
ATOM     46  C   LIG d   1      -1.291  -4.062 -12.373  0.00  0.00    -0.025 C 
ATOM     47  H   LIG d   1      -1.892  -3.470 -11.683  0.00  0.00     0.027 H 
ATOM     48  H   LIG d   1      -1.923  -4.433 -13.179  0.00  0.00     0.027 H 
ATOM     49  H   LIG d   1      -0.850  -4.904 -11.840  0.00  0.00     0.027 H 
ENDBRANCH  41  46
BRANCH  41  50
ATOM     50  C   LIG d   1      -0.786  -2.147 -13.897  0.00  0.00    -0.025 C 
ATOM     51  H   LIG d   1      -1.704  -2.542 -14.332  0.00  0.00     0.027 H 
ATOM     52  H   LIG d   1      -1.010  -1.239 -13.336  0.00  0.00     0.027 H 
ATOM     53  H   LIG d   1      -0.078  -1.917 -14.693  0.00  0.00     0.027 H 
ENDBRANCH  41  50
ENDBRANCH  28  29
ENDBRANCH   1  28
TORSDOF 10
ENDMDL
MODEL 8
REMARK VINA RESULT:      -6.2      7.408     12.343
REMARK  10 active torsions:
REMARK  status: ('A' for Active; 'I' for Inactive)
REMARK    1  A    between atoms: C_1  and  C_2 
REMARK    2  A    between atoms: C_2  and  C_3 
REMARK    3  A    between atoms: C_2  and  C_4 
REMARK    4  A    between atoms: C_7  and  N_10 
REMARK       I    between atoms: N_10  and  C_11 
REMARK    5  A    between atoms: C_11  and  C_13 
REMARK    6  A    between atoms: C_13  and  O_14 
REMARK    7  A    between atoms: O_14  and  C_15 
REMARK    8  A    between atoms: C_17  and  O_28 
REMARK    9  A    between atoms: C_22  and  C_26 
REMARK   10  A    between atoms: C_22  and  C_27 
ROOT
ATOM      1  C   LIG d   1       3.848   0.785 -10.300  0.00  0.00     0.166 C 
ATOM      2  H   LIG d   1       2.806   0.989 -10.543  0.00  0.00     0.080 H 
ATOM      3  H   LIG d   1       4.477   1.578 -10.706  0.00  0.00     0.080 H 
ENDROOT
BRANCH   1   4
ATOM      4  C   LIG d   1       4.013   0.730  -8.803  0.00  0.00     0.255 C 
ATOM      5  N   LIG d   1       3.422  -0.253  -8.095  0.00  0.00    -0.283 N 
ATOM      6  H   LIG d   1       2.956  -0.969  -8.554  0.00  0.00     0.155 HD
ATOM      7  O   LIG d   1       4.677   1.572  -8.235  0.00  0.00    -0.272 OA
BRANCH   5   8
ATOM      8  C   LIG d   1       3.483  -0.242  -6.697  0.00  0.00     0.034 A 
ATOM      9  C   LIG d   1       2.546   0.477  -5.966  0.00  0.00    -0.040 A 
ATOM     10  C   LIG d   1       2.607   0.483  -4.586  0.00  0.00    -0.057 A 
ATOM     11  H   LIG d   1       1.769   1.027  -6.475  0.00  0.00     0.064 H 
ATOM     12  C   LIG d   1       3.604  -0.217  -3.932  0.00  0.00    -0.045 A 
ATOM     13  H   LIG d   1       1.876   1.039  -4.016  0.00  0.00     0.062 H 
ATOM     14  C   LIG d   1       4.538  -0.933  -4.657  0.00  0.00    -0.057 A 
ATOM     15  C   LIG d   1       4.481  -0.948  -6.037  0.00  0.00    -0.040 A 
ATOM     16  H   LIG d   1       5.314  -1.482  -4.145  0.00  0.00     0.062 H 
ATOM     17  H   LIG d   1       5.211  -1.507  -6.603  0.00  0.00     0.064 H 
BRANCH  12  18
ATOM     18  C   LIG d   1       3.670  -0.203  -2.427  0.00  0.00    -0.021 C 
ATOM     19  H   LIG d   1       2.661  -0.132  -2.021  0.00  0.00     0.034 H 
BRANCH  18  20
ATOM     20  C   LIG d   1       4.492   1.001  -1.963  0.00  0.00    -0.059 C 
ATOM     21  H   LIG d   1       3.874   1.897  -1.998  0.00  0.00     0.024 H 
ATOM     22  H   LIG d   1       4.834   0.834  -0.941  0.00  0.00     0.024 H 
ATOM     23  H   LIG d   1       5.354   1.127  -2.618  0.00  0.00     0.024 H 
ENDBRANCH  18  20
BRANCH  18  24
ATOM     24  C   LIG d   1       4.330  -1.492  -1.934  0.00  0.00    -0.059 C 
ATOM     25  H   LIG d   1       3.702  -1.952  -1.170  0.00  0.00     0.024 H 
ATOM     26  H   LIG d   1       4.449  -2.182  -2.770  0.00  0.00     0.024 H 
ATOM     27  H   LIG d   1       5.307  -1.261  -1.510  0.00  0.00     0.024 H 
ENDBRANCH  18  24
ENDBRANCH  12  18
ENDBRANCH   5   8
ENDBRANCH   1   4
BRANCH   1  28
ATOM     28  O   LIG d   1       4.234  -0.468 -10.867  0.00  0.00    -0.482 OA
BRANCH  28  29
ATOM     29  C   LIG d   1       3.236  -1.306 -11.247  0.00  0.00     0.128 A 
ATOM     30  C   LIG d   1       3.483  -2.669 -11.347  0.00  0.00     0.023 A 
ATOM     31  C   LIG d   1       2.473  -3.533 -11.732  0.00  0.00     0.139 A 
ATOM     32  H   LIG d   1       4.466  -3.055 -11.121  0.00  0.00     0.069 H 
ATOM     33  C   LIG d   1       1.197  -3.016 -12.017  0.00  0.00     0.101 A 
ATOM     34  O   LIG d   1       2.723  -4.859 -11.837  0.00  0.00    -0.485 OA
ATOM     35  C   LIG d   1       0.954  -1.636 -11.920  0.00  0.00     0.134 A 
ATOM     36  C   LIG d   1       0.125  -3.938 -12.409  0.00  0.00     0.174 C 
ATOM     37  C   LIG d   1       1.977  -0.791 -11.529  0.00  0.00     0.022 A 
ATOM     38  H   LIG d   1       1.797   0.271 -11.447  0.00  0.00     0.069 H 
ATOM     39  C   LIG d   1       0.543  -5.354 -12.760  0.00  0.00     0.050 C 
ATOM     40  O   LIG d   1      -1.036  -3.587 -12.450  0.00  0.00    -0.292 OA
ATOM     41  C   LIG d   1       1.627  -5.771 -11.756  0.00  0.00     0.112 C 
ATOM     42  H   LIG d   1      -0.233  -5.982 -12.693  0.00  0.00     0.038 H 
ATOM     43  H   LIG d   1       0.945  -5.383 -13.773  0.00  0.00     0.038 H 
BRANCH  35  44
ATOM     44  O   LIG d   1      -0.275  -1.137 -12.203  0.00  0.00    -0.506 OA
ATOM     45  H   LIG d   1      -0.914  -1.803 -12.490  0.00  0.00     0.292 HD
ENDBRANCH  35  44
BRANCH  41  46
ATOM     46  C   LIG d   1       2.113  -7.183 -12.085  0.00  0.00    -0.025 C 
ATOM     47  H   LIG d   1       3.199  -7.226 -11.988  0.00  0.00     0.027 H 
ATOM     48  H   LIG d   1       1.659  -7.895 -11.395  0.00  0.00     0.027 H 
ATOM     49  H   LIG d   1       1.830  -7.436 -13.106  0.00  0.00     0.027 H 
ENDBRANCH  41  46
BRANCH  41  50
ATOM     50  C   LIG d   1       1.047  -5.747 -10.340  0.00  0.00    -0.025 C 
ATOM     51  H   LIG d   1       1.845  -5.924  -9.618  0.00  0.00     0.027 H 
ATOM     52  H   LIG d   1       0.593  -4.775 -10.149  0.00  0.00     0.027 H 
ATOM     53  H   LIG d   1       0.291  -6.526 -10.244  0.00  0.00     0.027 H 
ENDBRANCH  41  50
ENDBRANCH  28  29
ENDBRANCH   1  28
TORSDOF 10
ENDMDL
MODEL 9
REMARK VINA RESULT:      -6.2      3.023      8.559
REMARK  10 active torsions:
REMARK  status: ('A' for Active; 'I' for Inactive)
REMARK    1  A    between atoms: C_1  and  C_2 
REMARK    2  A    between atoms: C_2  and  C_3 
REMARK    3  A    between atoms: C_2  and  C_4 
REMARK    4  A    between atoms: C_7  and  N_10 
REMARK       I    between atoms: N_10  and  C_11 
REMARK    5  A    between atoms: C_11  and  C_13 
REMARK    6  A    between atoms: C_13  and  O_14 
REMARK    7  A    between atoms: O_14  and  C_15 
REMARK    8  A    between atoms: C_17  and  O_28 
REMARK    9  A    between atoms: C_22  and  C_26 
REMARK   10  A    between atoms: C_22  and  C_27 
ROOT
ATOM      1  C   LIG d   1       9.865  -0.688  -6.557  0.00  0.00     0.166 C 
ATOM      2  H   LIG d   1      10.534  -0.851  -7.401  0.00  0.00     0.080 H 
ATOM      3  H   LIG d   1       9.986  -1.497  -5.836  0.00  0.00     0.080 H 
ENDROOT
BRANCH   1   4
ATOM      4  C   LIG d   1      10.199   0.626  -5.899  0.00  0.00     0.255 C 
ATOM      5  N   LIG d   1      10.394   0.682  -4.566  0.00  0.00    -0.283 N 
ATOM      6  H   LIG d   1      10.396  -0.134  -4.041  0.00  0.00     0.155 HD
ATOM      7  O   LIG d   1      10.292   1.633  -6.568  0.00  0.00    -0.272 OA
BRANCH   5   8
ATOM      8  C   LIG d   1      10.595   1.917  -3.941  0.00  0.00     0.034 A 
ATOM      9  C   LIG d   1      11.885   2.369  -3.691  0.00  0.00    -0.040 A 
ATOM     10  C   LIG d   1      12.079   3.590  -3.077  0.00  0.00    -0.057 A 
ATOM     11  H   LIG d   1      12.734   1.768  -3.980  0.00  0.00     0.064 H 
ATOM     12  C   LIG d   1      10.993   4.359  -2.701  0.00  0.00    -0.045 A 
ATOM     13  H   LIG d   1      13.082   3.945  -2.886  0.00  0.00     0.062 H 
ATOM     14  C   LIG d   1       9.708   3.912  -2.948  0.00  0.00    -0.057 A 
ATOM     15  C   LIG d   1       9.506   2.694  -3.567  0.00  0.00    -0.040 A 
ATOM     16  H   LIG d   1       8.861   4.516  -2.657  0.00  0.00     0.062 H 
ATOM     17  H   LIG d   1       8.503   2.345  -3.758  0.00  0.00     0.064 H 
BRANCH  12  18
ATOM     18  C   LIG d   1      11.210   5.689  -2.026  0.00  0.00    -0.021 C 
ATOM     19  H   LIG d   1      11.995   6.236  -2.547  0.00  0.00     0.034 H 
BRANCH  18  20
ATOM     20  C   LIG d   1      11.626   5.461  -0.572  0.00  0.00    -0.059 C 
ATOM     21  H   LIG d   1      11.672   4.391  -0.371  0.00  0.00     0.024 H 
ATOM     22  H   LIG d   1      12.608   5.905  -0.401  0.00  0.00     0.024 H 
ATOM     23  H   LIG d   1      10.898   5.925   0.092  0.00  0.00     0.024 H 
ENDBRANCH  18  20
BRANCH  18  24
ATOM     24  C   LIG d   1       9.912   6.498  -2.064  0.00  0.00    -0.059 C 
ATOM     25  H   LIG d   1      10.147   7.557  -2.167  0.00  0.00     0.024 H 
ATOM     26  H   LIG d   1       9.308   6.176  -2.913  0.00  0.00     0.024 H 
ATOM     27  H   LIG d   1       9.356   6.337  -1.141  0.00  0.00     0.024 H 
ENDBRANCH  18  24
ENDBRANCH  12  18
ENDBRANCH   5   8
ENDBRANCH   1   4
BRANCH   1  28
ATOM     28  O   LIG d   1       8.513  -0.660  -7.018  0.00  0.00    -0.482 OA
BRANCH  28  29
ATOM     29  C   LIG d   1       7.551  -1.013  -6.128  0.00  0.00     0.128 A 
ATOM     30  C   LIG d   1       6.887  -0.029  -5.407  0.00  0.00     0.023 A 
ATOM     31  C   LIG d   1       5.903  -0.376  -4.498  0.00  0.00     0.139 A 
ATOM     32  H   LIG d   1       7.139   1.010  -5.557  0.00  0.00     0.069 H 
ATOM     33  C   LIG d   1       5.582  -1.734  -4.317  0.00  0.00     0.101 A 
ATOM     34  O   LIG d   1       5.267   0.586  -3.790  0.00  0.00    -0.485 OA
ATOM     35  C   LIG d   1       6.260  -2.725  -5.045  0.00  0.00     0.134 A 
ATOM     36  C   LIG d   1       4.526  -2.096  -3.364  0.00  0.00     0.174 C 
ATOM     37  C   LIG d   1       7.237  -2.355  -5.951  0.00  0.00     0.022 A 
ATOM     38  H   LIG d   1       7.760  -3.111  -6.519  0.00  0.00     0.069 H 
ATOM     39  C   LIG d   1       4.053  -1.000  -2.427  0.00  0.00     0.050 C 
ATOM     40  O   LIG d   1       4.056  -3.214  -3.327  0.00  0.00    -0.292 OA
ATOM     41  C   LIG d   1       3.979   0.297  -3.245  0.00  0.00     0.112 C 
ATOM     42  H   LIG d   1       3.148  -1.213  -2.058  0.00  0.00     0.038 H 
ATOM     43  H   LIG d   1       4.761  -0.882  -1.606  0.00  0.00     0.038 H 
BRANCH  35  44
ATOM     44  O   LIG d   1       5.956  -4.034  -4.864  0.00  0.00    -0.506 OA
ATOM     45  H   LIG d   1       6.317  -4.413  -4.051  0.00  0.00     0.292 HD
ENDBRANCH  35  44
BRANCH  41  46
ATOM     46  C   LIG d   1       3.539   1.449  -2.339  0.00  0.00    -0.025 C 
ATOM     47  H   LIG d   1       4.419   1.962  -1.950  0.00  0.00     0.027 H 
ATOM     48  H   LIG d   1       2.932   2.150  -2.911  0.00  0.00     0.027 H 
ATOM     49  H   LIG d   1       2.954   1.054  -1.509  0.00  0.00     0.027 H 
ENDBRANCH  41  46
BRANCH  41  50
ATOM     50  C   LIG d   1       2.970   0.127  -4.381  0.00  0.00    -0.025 C 
ATOM     51  H   LIG d   1       3.389   0.531  -5.303  0.00  0.00     0.027 H 
ATOM     52  H   LIG d   1       2.748  -0.931  -4.515  0.00  0.00     0.027 H 
ATOM     53  H   LIG d   1       2.052   0.662  -4.135  0.00  0.00     0.027 H 
ENDBRANCH  41  50
ENDBRANCH  28  29
ENDBRANCH   1  28
TORSDOF 10
ENDMDL
