MODEL 1
REMARK VINA RESULT:      -5.5      0.000      0.000
REMARK  2 active torsions:
REMARK  status: ('A' for Active; 'I' for Inactive)
REMARK    1  A    between atoms: C_3  and  C_7 
REMARK    2  A    between atoms: N_12  and  N_13 
ROOT
ATOM      1  C   LIG d   1       3.227   0.252  -3.509  0.00  0.00     0.070 C 
ATOM      2  H   LIG d   1       2.156   0.390  -3.355  0.00  0.00     0.057 H 
ATOM      3  C   LIG d   1       3.995   1.488  -2.995  0.00  0.00    -0.027 C 
ATOM      4  C   LIG d   1       4.449   1.050  -1.577  0.00  0.00    -0.034 C 
ATOM      5  C   LIG d   1       4.739  -0.456  -1.795  0.00  0.00     0.033 C 
ATOM      6  N   LIG d   1       3.697  -0.909  -2.740  0.00  0.00    -0.213 N 
ATOM      7  H   LIG d   1       4.856   1.698  -3.629  0.00  0.00     0.029 H 
ATOM      8  H   LIG d   1       3.337   2.355  -2.938  0.00  0.00     0.029 H 
ATOM      9  H   LIG d   1       5.351   1.582  -1.275  0.00  0.00     0.028 H 
ATOM     10  H   LIG d   1       3.650   1.193  -0.850  0.00  0.00     0.028 H 
ATOM     11  H   LIG d   1       5.730  -0.593  -2.227  0.00  0.00     0.048 H 
ATOM     12  H   LIG d   1       4.657  -0.998  -0.854  0.00  0.00     0.048 H 
ENDROOT
BRANCH   1  13
ATOM     13  C   LIG d   1       3.510   0.045  -4.975  0.00  0.00    -0.007 A 
ATOM     14  C   LIG d   1       2.535   0.314  -5.923  0.00  0.00    -0.054 A 
ATOM     15  C   LIG d   1       2.841   0.109  -7.260  0.00  0.00    -0.043 A 
ATOM     16  H   LIG d   1       1.561   0.674  -5.627  0.00  0.00     0.062 H 
ATOM     17  C   LIG d   1       4.099  -0.352  -7.600  0.00  0.00     0.028 A 
ATOM     18  H   LIG d   1       2.105   0.304  -8.025  0.00  0.00     0.063 H 
ATOM     19  N   LIG d   1       5.002  -0.596  -6.671  0.00  0.00    -0.263 NA
ATOM     20  H   LIG d   1       4.345  -0.513  -8.639  0.00  0.00     0.083 H 
ATOM     21  C   LIG d   1       4.746  -0.414  -5.391  0.00  0.00     0.033 A 
ATOM     22  H   LIG d   1       5.511  -0.625  -4.658  0.00  0.00     0.083 H 
ENDBRANCH   1  13
BRANCH   6  23
ATOM     23  N   LIG d   1       3.271  -2.120  -2.869  0.00  0.00     0.045 NA
ATOM     24  O   LIG d   1       4.052  -3.015  -3.138  0.00  0.00    -0.126 OA
ENDBRANCH   6  23
TORSDOF 2
ENDMDL
MODEL 2
REMARK VINA RESULT:      -5.3      2.699      3.660
REMARK  2 active torsions:
REMARK  status: ('A' for Active; 'I' for Inactive)
REMARK    1  A    between atoms: C_3  and  C_7 
REMARK    2  A    between atoms: N_12  and  N_13 
ROOT
ATOM      1  C   LIG d   1       5.385  -0.263  -2.684  0.00  0.00     0.070 C 
ATOM      2  H   LIG d   1       5.849  -0.034  -1.724  0.00  0.00     0.057 H 
ATOM      3  C   LIG d   1       5.227  -1.790  -2.840  0.00  0.00    -0.027 C 
ATOM      4  C   LIG d   1       3.756  -2.034  -2.411  0.00  0.00    -0.034 C 
ATOM      5  C   LIG d   1       3.060  -0.761  -2.952  0.00  0.00     0.033 C 
ATOM      6  N   LIG d   1       4.038   0.326  -2.741  0.00  0.00    -0.213 N 
ATOM      7  H   LIG d   1       5.383  -2.090  -3.876  0.00  0.00     0.029 H 
ATOM      8  H   LIG d   1       5.915  -2.319  -2.178  0.00  0.00     0.029 H 
ATOM      9  H   LIG d   1       3.355  -2.930  -2.885  0.00  0.00     0.028 H 
ATOM     10  H   LIG d   1       3.671  -2.095  -1.326  0.00  0.00     0.028 H 
ATOM     11  H   LIG d   1       2.839  -0.872  -4.014  0.00  0.00     0.048 H 
ATOM     12  H   LIG d   1       2.146  -0.561  -2.394  0.00  0.00     0.048 H 
ENDROOT
BRANCH   1  13
ATOM     13  C   LIG d   1       6.231   0.283  -3.805  0.00  0.00    -0.007 A 
ATOM     14  C   LIG d   1       7.215   1.224  -3.547  0.00  0.00    -0.054 A 
ATOM     15  C   LIG d   1       7.970   1.698  -4.610  0.00  0.00    -0.043 A 
ATOM     16  H   LIG d   1       7.391   1.579  -2.543  0.00  0.00     0.062 H 
ATOM     17  C   LIG d   1       7.717   1.219  -5.882  0.00  0.00     0.028 A 
ATOM     18  H   LIG d   1       8.742   2.434  -4.447  0.00  0.00     0.063 H 
ATOM     19  N   LIG d   1       6.772   0.323  -6.090  0.00  0.00    -0.263 NA
ATOM     20  H   LIG d   1       8.300   1.583  -6.714  0.00  0.00     0.083 H 
ATOM     21  C   LIG d   1       6.035  -0.149  -5.103  0.00  0.00     0.033 A 
ATOM     22  H   LIG d   1       5.270  -0.883  -5.312  0.00  0.00     0.083 H 
ENDBRANCH   1  13
BRANCH   6  23
ATOM     23  N   LIG d   1       3.761   1.579  -2.624  0.00  0.00     0.045 NA
ATOM     24  O   LIG d   1       3.414   2.220  -3.601  0.00  0.00    -0.126 OA
ENDBRANCH   6  23
TORSDOF 2
ENDMDL
MODEL 3
REMARK VINA RESULT:      -5.3      2.093      2.552
REMARK  2 active torsions:
REMARK  status: ('A' for Active; 'I' for Inactive)
REMARK    1  A    between atoms: C_3  and  C_7 
REMARK    2  A    between atoms: N_12  and  N_13 
ROOT
ATOM      1  C   LIG d   1       5.298  -0.779  -3.924  0.00  0.00     0.070 C 
ATOM      2  H   LIG d   1       6.333  -1.106  -4.027  0.00  0.00     0.057 H 
ATOM      3  C   LIG d   1       4.442  -1.920  -3.335  0.00  0.00    -0.027 C 
ATOM      4  C   LIG d   1       4.387  -1.572  -1.825  0.00  0.00    -0.034 C 
ATOM      5  C   LIG d   1       4.340  -0.024  -1.865  0.00  0.00     0.033 C 
ATOM      6  N   LIG d   1       5.223   0.353  -2.988  0.00  0.00    -0.213 N 
ATOM      7  H   LIG d   1       3.443  -1.916  -3.770  0.00  0.00     0.029 H 
ATOM      8  H   LIG d   1       4.926  -2.885  -3.491  0.00  0.00     0.029 H 
ATOM      9  H   LIG d   1       3.488  -1.978  -1.362  0.00  0.00     0.028 H 
ATOM     10  H   LIG d   1       5.282  -1.922  -1.310  0.00  0.00     0.028 H 
ATOM     11  H   LIG d   1       3.323   0.320  -2.049  0.00  0.00     0.048 H 
ATOM     12  H   LIG d   1       4.718   0.392  -0.931  0.00  0.00     0.048 H 
ENDROOT
BRANCH   1  13
ATOM     13  C   LIG d   1       4.753  -0.370  -5.268  0.00  0.00    -0.007 A 
ATOM     14  C   LIG d   1       3.395  -0.149  -5.437  0.00  0.00    -0.054 A 
ATOM     15  C   LIG d   1       2.939   0.227  -6.692  0.00  0.00    -0.043 A 
ATOM     16  H   LIG d   1       2.709  -0.267  -4.611  0.00  0.00     0.062 H 
ATOM     17  C   LIG d   1       3.847   0.369  -7.724  0.00  0.00     0.028 A 
ATOM     18  H   LIG d   1       1.887   0.403  -6.860  0.00  0.00     0.063 H 
ATOM     19  N   LIG d   1       5.132   0.152  -7.526  0.00  0.00    -0.263 NA
ATOM     20  H   LIG d   1       3.500   0.662  -8.703  0.00  0.00     0.083 H 
ATOM     21  C   LIG d   1       5.601  -0.208  -6.347  0.00  0.00     0.033 A 
ATOM     22  H   LIG d   1       6.661  -0.378  -6.223  0.00  0.00     0.083 H 
ENDBRANCH   1  13
BRANCH   6  23
ATOM     23  N   LIG d   1       5.827   1.484  -3.126  0.00  0.00     0.045 NA
ATOM     24  O   LIG d   1       7.034   1.514  -3.293  0.00  0.00    -0.126 OA
ENDBRANCH   6  23
TORSDOF 2
ENDMDL
MODEL 4
REMARK VINA RESULT:      -5.2      3.204      4.076
REMARK  2 active torsions:
REMARK  status: ('A' for Active; 'I' for Inactive)
REMARK    1  A    between atoms: C_3  and  C_7 
REMARK    2  A    between atoms: N_12  and  N_13 
ROOT
ATOM      1  C   LIG d   1       5.083  -1.266  -2.951  0.00  0.00     0.070 C 
ATOM      2  H   LIG d   1       5.578  -0.914  -2.045  0.00  0.00     0.057 H 
ATOM      3  C   LIG d   1       3.732  -1.919  -2.591  0.00  0.00    -0.027 C 
ATOM      4  C   LIG d   1       2.715  -0.774  -2.840  0.00  0.00    -0.034 C 
ATOM      5  C   LIG d   1       3.340  -0.064  -4.066  0.00  0.00     0.033 C 
ATOM      6  N   LIG d   1       4.799  -0.128  -3.838  0.00  0.00    -0.213 N 
ATOM      7  H   LIG d   1       3.528  -2.766  -3.245  0.00  0.00     0.029 H 
ATOM      8  H   LIG d   1       3.719  -2.226  -1.545  0.00  0.00     0.029 H 
ATOM      9  H   LIG d   1       1.729  -1.173  -3.080  0.00  0.00     0.028 H 
ATOM     10  H   LIG d   1       2.665  -0.102  -1.983  0.00  0.00     0.028 H 
ATOM     11  H   LIG d   1       3.076  -0.588  -4.984  0.00  0.00     0.048 H 
ATOM     12  H   LIG d   1       3.010   0.973  -4.114  0.00  0.00     0.048 H 
ENDROOT
BRANCH   1  13
ATOM     13  C   LIG d   1       5.962  -2.262  -3.661  0.00  0.00    -0.007 A 
ATOM     14  C   LIG d   1       5.412  -3.181  -4.542  0.00  0.00    -0.054 A 
ATOM     15  C   LIG d   1       6.259  -4.079  -5.174  0.00  0.00    -0.043 A 
ATOM     16  H   LIG d   1       4.349  -3.196  -4.731  0.00  0.00     0.062 H 
ATOM     17  C   LIG d   1       7.614  -4.027  -4.907  0.00  0.00     0.028 A 
ATOM     18  H   LIG d   1       5.864  -4.810  -5.863  0.00  0.00     0.063 H 
ATOM     19  N   LIG d   1       8.103  -3.139  -4.064  0.00  0.00    -0.263 NA
ATOM     20  H   LIG d   1       8.280  -4.723  -5.395  0.00  0.00     0.083 H 
ATOM     21  C   LIG d   1       7.327  -2.271  -3.445  0.00  0.00     0.033 A 
ATOM     22  H   LIG d   1       7.764  -1.559  -2.760  0.00  0.00     0.083 H 
ENDBRANCH   1  13
BRANCH   6  23
ATOM     23  N   LIG d   1       5.676   0.678  -4.333  0.00  0.00     0.045 NA
ATOM     24  O   LIG d   1       6.246   1.476  -3.610  0.00  0.00    -0.126 OA
ENDBRANCH   6  23
TORSDOF 2
ENDMDL
MODEL 5
REMARK VINA RESULT:      -4.8      2.358      2.963
REMARK  2 active torsions:
REMARK  status: ('A' for Active; 'I' for Inactive)
REMARK    1  A    between atoms: C_3  and  C_7 
REMARK    2  A    between atoms: N_12  and  N_13 
ROOT
ATOM      1  C   LIG d   1       4.973  -0.030  -4.009  0.00  0.00     0.070 C 
ATOM      2  H   LIG d   1       5.609   0.623  -4.609  0.00  0.00     0.057 H 
ATOM      3  C   LIG d   1       5.552  -0.163  -2.585  0.00  0.00    -0.027 C 
ATOM      4  C   LIG d   1       4.733   0.878  -1.777  0.00  0.00    -0.034 C 
ATOM      5  C   LIG d   1       3.343   0.768  -2.450  0.00  0.00     0.033 C 
ATOM      6  N   LIG d   1       3.631   0.558  -3.884  0.00  0.00    -0.213 N 
ATOM      7  H   LIG d   1       5.392  -1.168  -2.196  0.00  0.00     0.029 H 
ATOM      8  H   LIG d   1       6.613   0.090  -2.575  0.00  0.00     0.029 H 
ATOM      9  H   LIG d   1       4.680   0.600  -0.724  0.00  0.00     0.028 H 
ATOM     10  H   LIG d   1       5.147   1.879  -1.896  0.00  0.00     0.028 H 
ATOM     11  H   LIG d   1       2.790  -0.080  -2.045  0.00  0.00     0.048 H 
ATOM     12  H   LIG d   1       2.779   1.690  -2.309  0.00  0.00     0.048 H 
ENDROOT
BRANCH   1  13
ATOM     13  C   LIG d   1       4.879  -1.388  -4.654  0.00  0.00    -0.007 A 
ATOM     14  C   LIG d   1       5.137  -1.541  -6.007  0.00  0.00    -0.054 A 
ATOM     15  C   LIG d   1       5.039  -2.811  -6.558  0.00  0.00    -0.043 A 
ATOM     16  H   LIG d   1       5.407  -0.693  -6.619  0.00  0.00     0.062 H 
ATOM     17  C   LIG d   1       4.691  -3.872  -5.745  0.00  0.00     0.028 A 
ATOM     18  H   LIG d   1       5.228  -2.966  -7.610  0.00  0.00     0.063 H 
ATOM     19  N   LIG d   1       4.454  -3.689  -4.461  0.00  0.00    -0.263 NA
ATOM     20  H   LIG d   1       4.613  -4.863  -6.166  0.00  0.00     0.083 H 
ATOM     21  C   LIG d   1       4.536  -2.497  -3.904  0.00  0.00     0.033 A 
ATOM     22  H   LIG d   1       4.334  -2.386  -2.849  0.00  0.00     0.083 H 
ENDBRANCH   1  13
BRANCH   6  23
ATOM     23  N   LIG d   1       2.840   0.843  -4.862  0.00  0.00     0.045 NA
ATOM     24  O   LIG d   1       1.769   0.271  -4.966  0.00  0.00    -0.126 OA
ENDBRANCH   6  23
TORSDOF 2
ENDMDL
MODEL 6
REMARK VINA RESULT:      -4.8      2.833      3.800
REMARK  2 active torsions:
REMARK  status: ('A' for Active; 'I' for Inactive)
REMARK    1  A    between atoms: C_3  and  C_7 
REMARK    2  A    between atoms: N_12  and  N_13 
ROOT
ATOM      1  C   LIG d   1       5.439   0.522  -3.729  0.00  0.00     0.070 C 
ATOM      2  H   LIG d   1       5.751   1.494  -4.111  0.00  0.00     0.057 H 
ATOM      3  C   LIG d   1       5.176   0.614  -2.211  0.00  0.00    -0.027 C 
ATOM      4  C   LIG d   1       3.638   0.803  -2.135  0.00  0.00    -0.034 C 
ATOM      5  C   LIG d   1       3.158  -0.075  -3.317  0.00  0.00     0.033 C 
ATOM      6  N   LIG d   1       4.178   0.116  -4.369  0.00  0.00    -0.213 N 
ATOM      7  H   LIG d   1       5.478  -0.305  -1.711  0.00  0.00     0.029 H 
ATOM      8  H   LIG d   1       5.692   1.474  -1.782  0.00  0.00     0.029 H 
ATOM      9  H   LIG d   1       3.245   0.432  -1.188  0.00  0.00     0.028 H 
ATOM     10  H   LIG d   1       3.364   1.847  -2.287  0.00  0.00     0.028 H 
ATOM     11  H   LIG d   1       3.111  -1.122  -3.018  0.00  0.00     0.048 H 
ATOM     12  H   LIG d   1       2.184   0.262  -3.670  0.00  0.00     0.048 H 
ENDROOT
BRANCH   1  13
ATOM     13  C   LIG d   1       6.507  -0.504  -4.004  0.00  0.00    -0.007 A 
ATOM     14  C   LIG d   1       6.492  -1.725  -3.348  0.00  0.00    -0.054 A 
ATOM     15  C   LIG d   1       7.495  -2.640  -3.633  0.00  0.00    -0.043 A 
ATOM     16  H   LIG d   1       5.717  -1.959  -2.633  0.00  0.00     0.062 H 
ATOM     17  C   LIG d   1       8.469  -2.306  -4.555  0.00  0.00     0.028 A 
ATOM     18  H   LIG d   1       7.517  -3.599  -3.138  0.00  0.00     0.063 H 
ATOM     19  N   LIG d   1       8.451  -1.135  -5.160  0.00  0.00    -0.263 NA
ATOM     20  H   LIG d   1       9.252  -3.012  -4.782  0.00  0.00     0.083 H 
ATOM     21  C   LIG d   1       7.514  -0.241  -4.913  0.00  0.00     0.033 A 
ATOM     22  H   LIG d   1       7.532   0.708  -5.429  0.00  0.00     0.083 H 
ENDBRANCH   1  13
BRANCH   6  23
ATOM     23  N   LIG d   1       3.996  -0.046  -5.635  0.00  0.00     0.045 NA
ATOM     24  O   LIG d   1       3.221   0.676  -6.237  0.00  0.00    -0.126 OA
ENDBRANCH   6  23
TORSDOF 2
ENDMDL
MODEL 7
REMARK VINA RESULT:      -4.7      1.909      4.151
REMARK  2 active torsions:
REMARK  status: ('A' for Active; 'I' for Inactive)
REMARK    1  A    between atoms: C_3  and  C_7 
REMARK    2  A    between atoms: N_12  and  N_13 
ROOT
ATOM      1  C   LIG d   1       5.793  -1.460  -4.769  0.00  0.00     0.070 C 
ATOM      2  H   LIG d   1       6.656  -1.845  -4.224  0.00  0.00     0.057 H 
ATOM      3  C   LIG d   1       6.260  -0.742  -6.052  0.00  0.00    -0.027 C 
ATOM      4  C   LIG d   1       6.085  -1.830  -7.144  0.00  0.00    -0.034 C 
ATOM      5  C   LIG d   1       4.810  -2.560  -6.652  0.00  0.00     0.033 C 
ATOM      6  N   LIG d   1       4.925  -2.574  -5.180  0.00  0.00    -0.213 N 
ATOM      7  H   LIG d   1       5.629   0.121  -6.262  0.00  0.00     0.029 H 
ATOM      8  H   LIG d   1       7.306  -0.444  -5.969  0.00  0.00     0.029 H 
ATOM      9  H   LIG d   1       5.924  -1.379  -8.123  0.00  0.00     0.028 H 
ATOM     10  H   LIG d   1       6.940  -2.506  -7.162  0.00  0.00     0.028 H 
ATOM     11  H   LIG d   1       3.918  -2.015  -6.960  0.00  0.00     0.048 H 
ATOM     12  H   LIG d   1       4.783  -3.579  -7.039  0.00  0.00     0.048 H 
ENDROOT
BRANCH   1  13
ATOM     13  C   LIG d   1       5.022  -0.504  -3.897  0.00  0.00    -0.007 A 
ATOM     14  C   LIG d   1       5.311  -0.396  -2.546  0.00  0.00    -0.054 A 
ATOM     15  C   LIG d   1       4.576   0.498  -1.782  0.00  0.00    -0.043 A 
ATOM     16  H   LIG d   1       6.091  -0.994  -2.098  0.00  0.00     0.062 H 
ATOM     17  C   LIG d   1       3.586   1.247  -2.390  0.00  0.00     0.028 A 
ATOM     18  H   LIG d   1       4.771   0.604  -0.726  0.00  0.00     0.063 H 
ATOM     19  N   LIG d   1       3.339   1.120  -3.679  0.00  0.00    -0.263 NA
ATOM     20  H   LIG d   1       3.010   1.946  -1.802  0.00  0.00     0.083 H 
ATOM     21  C   LIG d   1       4.017   0.279  -4.435  0.00  0.00     0.033 A 
ATOM     22  H   LIG d   1       3.786   0.202  -5.487  0.00  0.00     0.083 H 
ENDBRANCH   1  13
BRANCH   6  23
ATOM     23  N   LIG d   1       4.360  -3.419  -4.386  0.00  0.00     0.045 NA
ATOM     24  O   LIG d   1       4.274  -4.591  -4.706  0.00  0.00    -0.126 OA
ENDBRANCH   6  23
TORSDOF 2
ENDMDL
MODEL 8
REMARK VINA RESULT:      -4.5      2.480      3.036
REMARK  2 active torsions:
REMARK  status: ('A' for Active; 'I' for Inactive)
REMARK    1  A    between atoms: C_3  and  C_7 
REMARK    2  A    between atoms: N_12  and  N_13 
ROOT
ATOM      1  C   LIG d   1       5.136  -0.918  -4.030  0.00  0.00     0.070 C 
ATOM      2  H   LIG d   1       6.001  -0.475  -3.536  0.00  0.00     0.057 H 
ATOM      3  C   LIG d   1       4.881  -2.335  -3.474  0.00  0.00    -0.027 C 
ATOM      4  C   LIG d   1       3.775  -2.099  -2.412  0.00  0.00    -0.034 C 
ATOM      5  C   LIG d   1       2.942  -0.974  -3.076  0.00  0.00     0.033 C 
ATOM      6  N   LIG d   1       3.935  -0.114  -3.752  0.00  0.00    -0.213 N 
ATOM      7  H   LIG d   1       4.526  -2.999  -4.261  0.00  0.00     0.029 H 
ATOM      8  H   LIG d   1       5.783  -2.734  -3.010  0.00  0.00     0.029 H 
ATOM      9  H   LIG d   1       3.175  -2.997  -2.267  0.00  0.00     0.028 H 
ATOM     10  H   LIG d   1       4.205  -1.761  -1.469  0.00  0.00     0.028 H 
ATOM     11  H   LIG d   1       2.247  -1.395  -3.802  0.00  0.00     0.048 H 
ATOM     12  H   LIG d   1       2.401  -0.405  -2.320  0.00  0.00     0.048 H 
ENDROOT
BRANCH   1  13
ATOM     13  C   LIG d   1       5.373  -0.985  -5.517  0.00  0.00    -0.007 A 
ATOM     14  C   LIG d   1       6.444  -0.315  -6.087  0.00  0.00    -0.054 A 
ATOM     15  C   LIG d   1       6.625  -0.405  -7.459  0.00  0.00    -0.043 A 
ATOM     16  H   LIG d   1       7.122   0.264  -5.477  0.00  0.00     0.062 H 
ATOM     17  C   LIG d   1       5.737  -1.156  -8.207  0.00  0.00     0.028 A 
ATOM     18  H   LIG d   1       7.446   0.107  -7.937  0.00  0.00     0.063 H 
ATOM     19  N   LIG d   1       4.730  -1.781  -7.630  0.00  0.00    -0.263 NA
ATOM     20  H   LIG d   1       5.871  -1.232  -9.275  0.00  0.00     0.083 H 
ATOM     21  C   LIG d   1       4.527  -1.716  -6.329  0.00  0.00     0.033 A 
ATOM     22  H   LIG d   1       3.691  -2.242  -5.892  0.00  0.00     0.083 H 
ENDBRANCH   1  13
BRANCH   6  23
ATOM     23  N   LIG d   1       3.779   1.131  -4.048  0.00  0.00     0.045 NA
ATOM     24  O   LIG d   1       3.668   1.959  -3.161  0.00  0.00    -0.126 OA
ENDBRANCH   6  23
TORSDOF 2
ENDMDL
MODEL 9
REMARK VINA RESULT:      -4.5      2.486      4.526
REMARK  2 active torsions:
REMARK  status: ('A' for Active; 'I' for Inactive)
REMARK    1  A    between atoms: C_3  and  C_7 
REMARK    2  A    between atoms: N_12  and  N_13 
ROOT
ATOM      1  C   LIG d   1       4.466  -1.223  -5.370  0.00  0.00     0.070 C 
ATOM      2  H   LIG d   1       3.522  -1.768  -5.408  0.00  0.00     0.057 H 
ATOM      3  C   LIG d   1       5.646  -2.216  -5.354  0.00  0.00    -0.027 C 
ATOM      4  C   LIG d   1       6.080  -2.267  -6.843  0.00  0.00    -0.034 C 
ATOM      5  C   LIG d   1       5.836  -0.803  -7.286  0.00  0.00     0.033 C 
ATOM      6  N   LIG d   1       4.609  -0.390  -6.574  0.00  0.00    -0.213 N 
ATOM      7  H   LIG d   1       6.456  -1.843  -4.728  0.00  0.00     0.029 H 
ATOM      8  H   LIG d   1       5.318  -3.199  -5.015  0.00  0.00     0.029 H 
ATOM      9  H   LIG d   1       7.133  -2.532  -6.934  0.00  0.00     0.028 H 
ATOM     10  H   LIG d   1       5.454  -2.956  -7.409  0.00  0.00     0.028 H 
ATOM     11  H   LIG d   1       6.676  -0.172  -6.994  0.00  0.00     0.048 H 
ATOM     12  H   LIG d   1       5.682  -0.753  -8.364  0.00  0.00     0.048 H 
ENDROOT
BRANCH   1  13
ATOM     13  C   LIG d   1       4.508  -0.355  -4.139  0.00  0.00    -0.007 A 
ATOM     14  C   LIG d   1       3.355  -0.115  -3.410  0.00  0.00    -0.054 A 
ATOM     15  C   LIG d   1       3.441   0.689  -2.283  0.00  0.00    -0.043 A 
ATOM     16  H   LIG d   1       2.410  -0.544  -3.711  0.00  0.00     0.062 H 
ATOM     17  C   LIG d   1       4.667   1.220  -1.927  0.00  0.00     0.028 A 
ATOM     18  H   LIG d   1       2.562   0.901  -1.694  0.00  0.00     0.063 H 
ATOM     19  N   LIG d   1       5.744   0.969  -2.645  0.00  0.00    -0.263 NA
ATOM     20  H   LIG d   1       4.743   1.847  -1.052  0.00  0.00     0.083 H 
ATOM     21  C   LIG d   1       5.699   0.210  -3.722  0.00  0.00     0.033 A 
ATOM     22  H   LIG d   1       6.603   0.028  -4.285  0.00  0.00     0.083 H 
ENDBRANCH   1  13
BRANCH   6  23
ATOM     23  N   LIG d   1       3.799   0.543  -6.944  0.00  0.00     0.045 NA
ATOM     24  O   LIG d   1       2.777   0.260  -7.543  0.00  0.00    -0.126 OA
ENDBRANCH   6  23
TORSDOF 2
ENDMDL
