MODEL 1
REMARK VINA RESULT:      -5.7      0.000      0.000
REMARK  3 active torsions:
REMARK  status: ('A' for Active; 'I' for Inactive)
REMARK    1  A    between atoms: CG1_1  and  CB_2 
REMARK    2  A    between atoms: CB_2  and  CG2_3 
REMARK    3  A    between atoms: CB_2  and  CA_4 
REMARK       I    between atoms: CA_4  and  C_6 
REMARK       I    between atoms: CA_4  and  N_32 
REMARK       I    between atoms: C_6  and  N_8 
REMARK       I    between atoms: CA_12  and  C_14 
ROOT
ATOM      1  CA  VAL d   1       3.602  -0.577  -6.624  0.00  0.00     0.056 C 
ATOM      2  HA  VAL d   1       3.597  -1.665  -6.586  0.00  0.00     0.095 H 
ATOM      3  C   VAL d   1       3.419  -0.024  -5.235  0.00  0.00     0.265 C 
ATOM      4  O   VAL d   1       2.908   1.065  -5.077  0.00  0.00    -0.269 OA
ATOM      5  H1  VAL d   1       1.618  -0.474  -7.166  0.00  0.00     0.200 HD
ATOM      6  H2  VAL d   1       2.488   0.895  -7.536  0.00  0.00     0.200 HD
ATOM      7  N   VAL d   1       2.512  -0.123  -7.507  0.00  0.00     0.228 N 
ATOM      8  H3  VAL d   1       2.674  -0.482  -8.454  0.00  0.00     0.200 HD
ATOM      9  N   PRO d   2       3.820  -0.741  -4.166  0.00  0.00    -0.289 N 
ATOM     10  CD  PRO d   2       4.353  -2.115  -4.204  0.00  0.00     0.016 C 
ATOM     11  CG  PRO d   2       4.078  -2.685  -2.790  0.00  0.00    -0.035 C 
ATOM     12  CB  PRO d   2       4.326  -1.440  -1.898  0.00  0.00    -0.028 C 
ATOM     13  CA  PRO d   2       3.801  -0.281  -2.770  0.00  0.00     0.066 C 
ATOM     14  HA  PRO d   2       2.782  -0.028  -2.476  0.00  0.00     0.056 H 
ATOM     15  C   PRO d   2       4.694   0.923  -2.611  0.00  0.00     0.062 C 
ATOM     16  O   PRO d   2       5.283   1.370  -3.568  0.00  0.00    -0.548 OA
ATOM     17  HD1 PRO d   2       5.424  -2.101  -4.405  0.00  0.00     0.046 H 
ATOM     18  HD2 PRO d   2       3.831  -2.703  -4.958  0.00  0.00     0.046 H 
ATOM     19  HG1 PRO d   2       3.048  -3.030  -2.702  0.00  0.00     0.028 H 
ATOM     20  HG2 PRO d   2       4.778  -3.485  -2.549  0.00  0.00     0.028 H 
ATOM     21  HB1 PRO d   2       3.759  -1.512  -0.970  0.00  0.00     0.029 H 
ATOM     22  HB2 PRO d   2       5.389  -1.319  -1.693  0.00  0.00     0.029 H 
ATOM     23  OXT PRO d   2       4.835   1.500  -1.407  0.00  0.00    -0.548 OA
ENDROOT
BRANCH   1  24
ATOM     24  CB  VAL d   1       4.937  -0.092  -7.194  0.00  0.00     0.005 C 
ATOM     25  HB  VAL d   1       5.433   0.547  -6.463  0.00  0.00     0.035 H 
BRANCH  24  26
ATOM     26  CG1 VAL d   1       5.826  -1.297  -7.505  0.00  0.00    -0.057 C 
ATOM     27 1HG1 VAL d   1       6.787  -0.951  -7.885  0.00  0.00     0.023 H 
ATOM     28 2HG1 VAL d   1       5.982  -1.878  -6.596  0.00  0.00     0.023 H 
ATOM     29 3HG1 VAL d   1       5.343  -1.921  -8.256  0.00  0.00     0.023 H 
ENDBRANCH  24  26
BRANCH  24  30
ATOM     30  CG2 VAL d   1       4.685   0.702  -8.478  0.00  0.00    -0.057 C 
ATOM     31 1HG2 VAL d   1       4.854   0.058  -9.342  0.00  0.00     0.023 H 
ATOM     32 2HG2 VAL d   1       3.656   1.060  -8.487  0.00  0.00     0.023 H 
ATOM     33 3HG2 VAL d   1       5.366   1.552  -8.519  0.00  0.00     0.023 H 
ENDBRANCH  24  30
ENDBRANCH   1  24
TORSDOF 6
ENDMDL
MODEL 2
REMARK VINA RESULT:      -5.1      2.009      4.824
REMARK  3 active torsions:
REMARK  status: ('A' for Active; 'I' for Inactive)
REMARK    1  A    between atoms: CG1_1  and  CB_2 
REMARK    2  A    between atoms: CB_2  and  CG2_3 
REMARK    3  A    between atoms: CB_2  and  CA_4 
REMARK       I    between atoms: CA_4  and  C_6 
REMARK       I    between atoms: CA_4  and  N_32 
REMARK       I    between atoms: C_6  and  N_8 
REMARK       I    between atoms: CA_12  and  C_14 
ROOT
ATOM      1  CA  VAL d   1       5.637  -1.167  -3.737  0.00  0.00     0.056 C 
ATOM      2  HA  VAL d   1       5.743  -2.251  -3.770  0.00  0.00     0.095 H 
ATOM      3  C   VAL d   1       5.485  -0.635  -5.138  0.00  0.00     0.265 C 
ATOM      4  O   VAL d   1       5.843   0.495  -5.400  0.00  0.00    -0.269 OA
ATOM      5  H1  VAL d   1       7.668  -0.859  -3.602  0.00  0.00     0.200 HD
ATOM      6  H2  VAL d   1       6.757   0.428  -3.073  0.00  0.00     0.200 HD
ATOM      7  N   VAL d   1       6.829  -0.588  -3.092  0.00  0.00     0.228 N 
ATOM      8  H3  VAL d   1       6.895  -0.937  -2.129  0.00  0.00     0.200 HD
ATOM      9  N   PRO d   2       4.953  -1.413  -6.101  0.00  0.00    -0.289 N 
ATOM     10  CD  PRO d   2       4.579  -2.831  -5.950  0.00  0.00     0.016 C 
ATOM     11  CG  PRO d   2       4.624  -3.407  -7.388  0.00  0.00    -0.035 C 
ATOM     12  CB  PRO d   2       4.080  -2.215  -8.219  0.00  0.00    -0.028 C 
ATOM     13  CA  PRO d   2       4.649  -0.988  -7.476  0.00  0.00     0.066 C 
ATOM     14  HA  PRO d   2       5.560  -0.645  -7.968  0.00  0.00     0.056 H 
ATOM     15  C   PRO d   2       3.627   0.119  -7.459  0.00  0.00     0.062 C 
ATOM     16  O   PRO d   2       3.198   0.530  -6.406  0.00  0.00    -0.548 OA
ATOM     17  HD1 PRO d   2       3.573  -2.916  -5.539  0.00  0.00     0.046 H 
ATOM     18  HD2 PRO d   2       5.296  -3.347  -5.312  0.00  0.00     0.046 H 
ATOM     19  HG1 PRO d   2       5.645  -3.653  -7.678  0.00  0.00     0.028 H 
ATOM     20  HG2 PRO d   2       3.973  -4.277  -7.480  0.00  0.00     0.028 H 
ATOM     21  HB1 PRO d   2       4.457  -2.254  -9.241  0.00  0.00     0.029 H 
ATOM     22  HB2 PRO d   2       2.991  -2.202  -8.209  0.00  0.00     0.029 H 
ATOM     23  OXT PRO d   2       3.193   0.649  -8.613  0.00  0.00    -0.548 OA
ENDROOT
BRANCH   1  24
ATOM     24  CB  VAL d   1       4.400  -0.800  -2.915  0.00  0.00     0.005 C 
ATOM     25  HB  VAL d   1       3.632  -0.395  -3.574  0.00  0.00     0.035 H 
BRANCH  24  26
ATOM     26  CG1 VAL d   1       3.863  -2.050  -2.214  0.00  0.00    -0.057 C 
ATOM     27 1HG1 VAL d   1       4.682  -2.564  -1.712  0.00  0.00     0.023 H 
ATOM     28 2HG1 VAL d   1       3.111  -1.760  -1.481  0.00  0.00     0.023 H 
ATOM     29 3HG1 VAL d   1       3.415  -2.715  -2.951  0.00  0.00     0.023 H 
ENDBRANCH  24  26
BRANCH  24  30
ATOM     30  CG2 VAL d   1       4.777   0.250  -1.867  0.00  0.00    -0.057 C 
ATOM     31 1HG2 VAL d   1       4.203   0.076  -0.956  0.00  0.00     0.023 H 
ATOM     32 2HG2 VAL d   1       5.842   0.176  -1.646  0.00  0.00     0.023 H 
ATOM     33 3HG2 VAL d   1       4.554   1.245  -2.253  0.00  0.00     0.023 H 
ENDBRANCH  24  30
ENDBRANCH   1  24
TORSDOF 6
ENDMDL
MODEL 3
REMARK VINA RESULT:      -5.0      2.413      4.281
REMARK  3 active torsions:
REMARK  status: ('A' for Active; 'I' for Inactive)
REMARK    1  A    between atoms: CG1_1  and  CB_2 
REMARK    2  A    between atoms: CB_2  and  CG2_3 
REMARK    3  A    between atoms: CB_2  and  CA_4 
REMARK       I    between atoms: CA_4  and  C_6 
REMARK       I    between atoms: CA_4  and  N_32 
REMARK       I    between atoms: C_6  and  N_8 
REMARK       I    between atoms: CA_12  and  C_14 
ROOT
ATOM      1  CA  VAL d   1       4.314  -1.235  -4.671  0.00  0.00     0.056 C 
ATOM      2  HA  VAL d   1       4.246  -1.393  -5.746  0.00  0.00     0.095 H 
ATOM      3  C   VAL d   1       5.722  -0.837  -4.310  0.00  0.00     0.265 C 
ATOM      4  O   VAL d   1       6.160  -1.088  -3.207  0.00  0.00    -0.269 OA
ATOM      5  H1  VAL d   1       4.545  -3.243  -4.277  0.00  0.00     0.200 HD
ATOM      6  H2  VAL d   1       4.019  -2.358  -2.970  0.00  0.00     0.200 HD
ATOM      7  N   VAL d   1       3.938  -2.481  -3.978  0.00  0.00     0.228 N 
ATOM      8  H3  VAL d   1       2.967  -2.716  -4.211  0.00  0.00     0.200 HD
ATOM      9  N   PRO d   2       6.496  -0.204  -5.213  0.00  0.00    -0.289 N 
ATOM     10  CD  PRO d   2       6.133   0.066  -6.617  0.00  0.00     0.016 C 
ATOM     11  CG  PRO d   2       7.487   0.216  -7.354  0.00  0.00    -0.035 C 
ATOM     12  CB  PRO d   2       8.344   0.946  -6.287  0.00  0.00    -0.028 C 
ATOM     13  CA  PRO d   2       7.841   0.334  -4.963  0.00  0.00     0.066 C 
ATOM     14  HA  PRO d   2       8.509  -0.468  -4.647  0.00  0.00     0.056 H 
ATOM     15  C   PRO d   2       7.780   1.399  -3.898  0.00  0.00     0.062 C 
ATOM     16  O   PRO d   2       6.723   1.680  -3.383  0.00  0.00    -0.548 OA
ATOM     17  HD1 PRO d   2       5.557   0.989  -6.689  0.00  0.00     0.046 H 
ATOM     18  HD2 PRO d   2       5.567  -0.769  -7.029  0.00  0.00     0.046 H 
ATOM     19  HG1 PRO d   2       7.910  -0.759  -7.596  0.00  0.00     0.028 H 
ATOM     20  HG2 PRO d   2       7.377   0.825  -8.252  0.00  0.00     0.028 H 
ATOM     21  HB1 PRO d   2       9.403   0.733  -6.431  0.00  0.00     0.029 H 
ATOM     22  HB2 PRO d   2       8.159   2.019  -6.312  0.00  0.00     0.029 H 
ATOM     23  OXT PRO d   2       8.900   2.036  -3.521  0.00  0.00    -0.548 OA
ENDROOT
BRANCH   1  24
ATOM     24  CB  VAL d   1       3.348  -0.124  -4.254  0.00  0.00     0.005 C 
ATOM     25  HB  VAL d   1       3.913   0.718  -3.854  0.00  0.00     0.035 H 
BRANCH  24  26
ATOM     26  CG1 VAL d   1       2.543   0.334  -5.472  0.00  0.00    -0.057 C 
ATOM     27 1HG1 VAL d   1       2.892   1.317  -5.789  0.00  0.00     0.023 H 
ATOM     28 2HG1 VAL d   1       2.677  -0.380  -6.285  0.00  0.00     0.023 H 
ATOM     29 3HG1 VAL d   1       1.487   0.392  -5.210  0.00  0.00     0.023 H 
ENDBRANCH  24  26
BRANCH  24  30
ATOM     30  CG2 VAL d   1       2.394  -0.654  -3.182  0.00  0.00    -0.057 C 
ATOM     31 1HG2 VAL d   1       1.365  -0.552  -3.529  0.00  0.00     0.023 H 
ATOM     32 2HG2 VAL d   1       2.610  -1.705  -2.991  0.00  0.00     0.023 H 
ATOM     33 3HG2 VAL d   1       2.526  -0.083  -2.263  0.00  0.00     0.023 H 
ENDBRANCH  24  30
ENDBRANCH   1  24
TORSDOF 6
ENDMDL
MODEL 4
REMARK VINA RESULT:      -4.9      2.722      3.913
REMARK  3 active torsions:
REMARK  status: ('A' for Active; 'I' for Inactive)
REMARK    1  A    between atoms: CG1_1  and  CB_2 
REMARK    2  A    between atoms: CB_2  and  CG2_3 
REMARK    3  A    between atoms: CB_2  and  CA_4 
REMARK       I    between atoms: CA_4  and  C_6 
REMARK       I    between atoms: CA_4  and  N_32 
REMARK       I    between atoms: C_6  and  N_8 
REMARK       I    between atoms: CA_12  and  C_14 
ROOT
ATOM      1  CA  VAL d   1       7.643  -0.325  -4.426  0.00  0.00     0.056 C 
ATOM      2  HA  VAL d   1       7.913   0.132  -3.474  0.00  0.00     0.095 H 
ATOM      3  C   VAL d   1       6.187  -0.710  -4.404  0.00  0.00     0.265 C 
ATOM      4  O   VAL d   1       5.793  -1.632  -5.088  0.00  0.00    -0.269 OA
ATOM      5  H1  VAL d   1       8.369  -2.171  -3.876  0.00  0.00     0.200 HD
ATOM      6  H2  VAL d   1       8.233  -1.966  -5.520  0.00  0.00     0.200 HD
ATOM      7  N   VAL d   1       8.487  -1.513  -4.644  0.00  0.00     0.228 N 
ATOM      8  H3  VAL d   1       9.471  -1.225  -4.689  0.00  0.00     0.200 HD
ATOM      9  N   PRO d   2       5.322  -0.033  -3.624  0.00  0.00    -0.289 N 
ATOM     10  CD  PRO d   2       5.680   1.030  -2.667  0.00  0.00     0.016 C 
ATOM     11  CG  PRO d   2       4.526   1.037  -1.633  0.00  0.00    -0.035 C 
ATOM     12  CB  PRO d   2       3.297   0.744  -2.534  0.00  0.00    -0.028 C 
ATOM     13  CA  PRO d   2       3.865  -0.230  -3.586  0.00  0.00     0.066 C 
ATOM     14  HA  PRO d   2       3.637  -1.258  -3.302  0.00  0.00     0.056 H 
ATOM     15  C   PRO d   2       3.269   0.071  -4.937  0.00  0.00     0.062 C 
ATOM     16  O   PRO d   2       3.985   0.407  -5.853  0.00  0.00    -0.548 OA
ATOM     17  HD1 PRO d   2       5.739   1.994  -3.174  0.00  0.00     0.046 H 
ATOM     18  HD2 PRO d   2       6.625   0.799  -2.178  0.00  0.00     0.046 H 
ATOM     19  HG1 PRO d   2       4.662   0.250  -0.891  0.00  0.00     0.028 H 
ATOM     20  HG2 PRO d   2       4.437   2.012  -1.153  0.00  0.00     0.028 H 
ATOM     21  HB1 PRO d   2       2.502   0.270  -1.960  0.00  0.00     0.029 H 
ATOM     22  HB2 PRO d   2       2.940   1.658  -3.007  0.00  0.00     0.029 H 
ATOM     23  OXT PRO d   2       1.945  -0.032  -5.125  0.00  0.00    -0.548 OA
ENDROOT
BRANCH   1  24
ATOM     24  CB  VAL d   1       7.889   0.674  -5.559  0.00  0.00     0.005 C 
ATOM     25  HB  VAL d   1       6.964   0.829  -6.114  0.00  0.00     0.035 H 
BRANCH  24  26
ATOM     26  CG1 VAL d   1       8.361   2.006  -4.970  0.00  0.00    -0.057 C 
ATOM     27 1HG1 VAL d   1       9.236   2.355  -5.518  0.00  0.00     0.023 H 
ATOM     28 2HG1 VAL d   1       7.562   2.742  -5.054  0.00  0.00     0.023 H 
ATOM     29 3HG1 VAL d   1       8.620   1.868  -3.921  0.00  0.00     0.023 H 
ENDBRANCH  24  26
BRANCH  24  30
ATOM     30  CG2 VAL d   1       8.963   0.123  -6.500  0.00  0.00    -0.057 C 
ATOM     31 1HG2 VAL d   1       8.596  -0.788  -6.975  0.00  0.00     0.023 H 
ATOM     32 2HG2 VAL d   1       9.190   0.866  -7.264  0.00  0.00     0.023 H 
ATOM     33 3HG2 VAL d   1       9.865  -0.101  -5.931  0.00  0.00     0.023 H 
ENDBRANCH  24  30
ENDBRANCH   1  24
TORSDOF 6
ENDMDL
MODEL 5
REMARK VINA RESULT:      -4.7      3.851      5.334
REMARK  3 active torsions:
REMARK  status: ('A' for Active; 'I' for Inactive)
REMARK    1  A    between atoms: CG1_1  and  CB_2 
REMARK    2  A    between atoms: CB_2  and  CG2_3 
REMARK    3  A    between atoms: CB_2  and  CA_4 
REMARK       I    between atoms: CA_4  and  C_6 
REMARK       I    between atoms: CA_4  and  N_32 
REMARK       I    between atoms: C_6  and  N_8 
REMARK       I    between atoms: CA_12  and  C_14 
ROOT
ATOM      1  CA  VAL d   1       4.775  -1.324  -4.549  0.00  0.00     0.056 C 
ATOM      2  HA  VAL d   1       5.741  -1.039  -4.134  0.00  0.00     0.095 H 
ATOM      3  C   VAL d   1       4.943  -2.539  -5.425  0.00  0.00     0.265 C 
ATOM      4  O   VAL d   1       4.178  -2.734  -6.345  0.00  0.00    -0.269 OA
ATOM      5  H1  VAL d   1       4.890   0.061  -6.068  0.00  0.00     0.200 HD
ATOM      6  H2  VAL d   1       3.342  -0.455  -5.745  0.00  0.00     0.200 HD
ATOM      7  N   VAL d   1       4.236  -0.197  -5.331  0.00  0.00     0.228 N 
ATOM      8  H3  VAL d   1       4.098   0.609  -4.710  0.00  0.00     0.200 HD
ATOM      9  N   PRO d   2       5.946  -3.407  -5.187  0.00  0.00    -0.289 N 
ATOM     10  CD  PRO d   2       7.007  -3.238  -4.177  0.00  0.00     0.016 C 
ATOM     11  CG  PRO d   2       8.185  -4.104  -4.692  0.00  0.00    -0.035 C 
ATOM     12  CB  PRO d   2       7.436  -5.320  -5.300  0.00  0.00    -0.028 C 
ATOM     13  CA  PRO d   2       6.161  -4.681  -5.889  0.00  0.00     0.066 C 
ATOM     14  HA  PRO d   2       6.297  -4.498  -6.955  0.00  0.00     0.056 H 
ATOM     15  C   PRO d   2       4.983  -5.596  -5.671  0.00  0.00     0.062 C 
ATOM     16  O   PRO d   2       4.044  -5.224  -5.007  0.00  0.00    -0.548 OA
ATOM     17  HD1 PRO d   2       6.668  -3.600  -3.206  0.00  0.00     0.046 H 
ATOM     18  HD2 PRO d   2       7.305  -2.193  -4.112  0.00  0.00     0.046 H 
ATOM     19  HG1 PRO d   2       8.753  -3.574  -5.456  0.00  0.00     0.028 H 
ATOM     20  HG2 PRO d   2       8.831  -4.412  -3.871  0.00  0.00     0.028 H 
ATOM     21  HB1 PRO d   2       8.031  -5.786  -6.084  0.00  0.00     0.029 H 
ATOM     22  HB2 PRO d   2       7.183  -6.043  -4.525  0.00  0.00     0.029 H 
ATOM     23  OXT PRO d   2       4.977  -6.822  -6.216  0.00  0.00    -0.548 OA
ENDROOT
BRANCH   1  24
ATOM     24  CB  VAL d   1       3.805  -1.647  -3.410  0.00  0.00     0.005 C 
ATOM     25  HB  VAL d   1       3.436  -2.666  -3.525  0.00  0.00     0.035 H 
BRANCH  24  26
ATOM     26  CG1 VAL d   1       4.532  -1.515  -2.070  0.00  0.00    -0.057 C 
ATOM     27 1HG1 VAL d   1       3.987  -0.823  -1.428  0.00  0.00     0.023 H 
ATOM     28 2HG1 VAL d   1       4.585  -2.492  -1.589  0.00  0.00     0.023 H 
ATOM     29 3HG1 VAL d   1       5.540  -1.137  -2.238  0.00  0.00     0.023 H 
ENDBRANCH  24  26
BRANCH  24  30
ATOM     30  CG2 VAL d   1       2.628  -0.671  -3.451  0.00  0.00    -0.057 C 
ATOM     31 1HG2 VAL d   1       2.203  -0.656  -4.455  0.00  0.00     0.023 H 
ATOM     32 2HG2 VAL d   1       1.867  -0.990  -2.738  0.00  0.00     0.023 H 
ATOM     33 3HG2 VAL d   1       2.975   0.329  -3.189  0.00  0.00     0.023 H 
ENDBRANCH  24  30
ENDBRANCH   1  24
TORSDOF 6
ENDMDL
MODEL 6
REMARK VINA RESULT:      -4.7      3.510      5.223
REMARK  3 active torsions:
REMARK  status: ('A' for Active; 'I' for Inactive)
REMARK    1  A    between atoms: CG1_1  and  CB_2 
REMARK    2  A    between atoms: CB_2  and  CG2_3 
REMARK    3  A    between atoms: CB_2  and  CA_4 
REMARK       I    between atoms: CA_4  and  C_6 
REMARK       I    between atoms: CA_4  and  N_32 
REMARK       I    between atoms: C_6  and  N_8 
REMARK       I    between atoms: CA_12  and  C_14 
ROOT
ATOM      1  CA  VAL d   1       4.811  -0.575  -4.067  0.00  0.00     0.056 C 
ATOM      2  HA  VAL d   1       4.948   0.503  -4.151  0.00  0.00     0.095 H 
ATOM      3  C   VAL d   1       5.940  -1.281  -4.771  0.00  0.00     0.265 C 
ATOM      4  O   VAL d   1       5.767  -2.388  -5.236  0.00  0.00    -0.269 OA
ATOM      5  H1  VAL d   1       3.489  -0.644  -5.644  0.00  0.00     0.200 HD
ATOM      6  H2  VAL d   1       3.383  -1.951  -4.620  0.00  0.00     0.200 HD
ATOM      7  N   VAL d   1       3.517  -0.943  -4.670  0.00  0.00     0.228 N 
ATOM      8  H3  VAL d   1       2.761  -0.478  -4.156  0.00  0.00     0.200 HD
ATOM      9  N   PRO d   2       7.142  -0.683  -4.886  0.00  0.00    -0.289 N 
ATOM     10  CD  PRO d   2       7.460   0.694  -4.467  0.00  0.00     0.016 C 
ATOM     11  CG  PRO d   2       8.681   1.099  -5.331  0.00  0.00    -0.035 C 
ATOM     12  CB  PRO d   2       9.472  -0.234  -5.397  0.00  0.00    -0.028 C 
ATOM     13  CA  PRO d   2       8.354  -1.296  -5.449  0.00  0.00     0.066 C 
ATOM     14  HA  PRO d   2       8.174  -1.595  -6.482  0.00  0.00     0.056 H 
ATOM     15  C   PRO d   2       8.752  -2.498  -4.631  0.00  0.00     0.062 C 
ATOM     16  O   PRO d   2       8.087  -2.827  -3.676  0.00  0.00    -0.548 OA
ATOM     17  HD1 PRO d   2       7.720   0.718  -3.408  0.00  0.00     0.046 H 
ATOM     18  HD2 PRO d   2       6.618   1.355  -4.667  0.00  0.00     0.046 H 
ATOM     19  HG1 PRO d   2       8.367   1.418  -6.324  0.00  0.00     0.028 H 
ATOM     20  HG2 PRO d   2       9.265   1.877  -4.839  0.00  0.00     0.028 H 
ATOM     21  HB1 PRO d   2      10.084  -0.274  -6.298  0.00  0.00     0.029 H 
ATOM     22  HB2 PRO d   2      10.086  -0.363  -4.507  0.00  0.00     0.029 H 
ATOM     23  OXT PRO d   2       9.845  -3.203  -4.962  0.00  0.00    -0.548 OA
ENDROOT
BRANCH   1  24
ATOM     24  CB  VAL d   1       4.802  -0.974  -2.590  0.00  0.00     0.005 C 
ATOM     25  HB  VAL d   1       5.779  -1.372  -2.315  0.00  0.00     0.035 H 
BRANCH  24  26
ATOM     26  CG1 VAL d   1       4.491   0.253  -1.732  0.00  0.00    -0.057 C 
ATOM     27 1HG1 VAL d   1       4.173  -0.068  -0.740  0.00  0.00     0.023 H 
ATOM     28 2HG1 VAL d   1       5.385   0.871  -1.645  0.00  0.00     0.023 H 
ATOM     29 3HG1 VAL d   1       3.694   0.831  -2.199  0.00  0.00     0.023 H 
ENDBRANCH  24  26
BRANCH  24  30
ATOM     30  CG2 VAL d   1       3.732  -2.043  -2.358  0.00  0.00    -0.057 C 
ATOM     31 1HG2 VAL d   1       2.930  -1.628  -1.746  0.00  0.00     0.023 H 
ATOM     32 2HG2 VAL d   1       3.327  -2.366  -3.317  0.00  0.00     0.023 H 
ATOM     33 3HG2 VAL d   1       4.176  -2.897  -1.845  0.00  0.00     0.023 H 
ENDBRANCH  24  30
ENDBRANCH   1  24
TORSDOF 6
ENDMDL
MODEL 7
REMARK VINA RESULT:      -4.6      2.056      2.739
REMARK  3 active torsions:
REMARK  status: ('A' for Active; 'I' for Inactive)
REMARK    1  A    between atoms: CG1_1  and  CB_2 
REMARK    2  A    between atoms: CB_2  and  CG2_3 
REMARK    3  A    between atoms: CB_2  and  CA_4 
REMARK       I    between atoms: CA_4  and  C_6 
REMARK       I    between atoms: CA_4  and  N_32 
REMARK       I    between atoms: C_6  and  N_8 
REMARK       I    between atoms: CA_12  and  C_14 
ROOT
ATOM      1  CA  VAL d   1       4.536  -0.979  -7.081  0.00  0.00     0.056 C 
ATOM      2  HA  VAL d   1       5.494  -0.941  -7.600  0.00  0.00     0.095 H 
ATOM      3  C   VAL d   1       4.766  -0.882  -5.595  0.00  0.00     0.265 C 
ATOM      4  O   VAL d   1       3.974  -1.381  -4.825  0.00  0.00    -0.269 OA
ATOM      5  H1  VAL d   1       4.449  -3.035  -7.157  0.00  0.00     0.200 HD
ATOM      6  H2  VAL d   1       2.972  -2.307  -6.920  0.00  0.00     0.200 HD
ATOM      7  N   VAL d   1       3.859  -2.245  -7.415  0.00  0.00     0.228 N 
ATOM      8  H3  VAL d   1       3.683  -2.276  -8.426  0.00  0.00     0.200 HD
ATOM      9  N   PRO d   2       5.853  -0.240  -5.122  0.00  0.00    -0.289 N 
ATOM     10  CD  PRO d   2       6.946   0.316  -5.941  0.00  0.00     0.016 C 
ATOM     11  CG  PRO d   2       8.168   0.365  -4.988  0.00  0.00    -0.035 C 
ATOM     12  CB  PRO d   2       7.500   0.757  -3.644  0.00  0.00    -0.028 C 
ATOM     13  CA  PRO d   2       6.144   0.023  -3.705  0.00  0.00     0.066 C 
ATOM     14  HA  PRO d   2       6.207  -0.919  -3.159  0.00  0.00     0.056 H 
ATOM     15  C   PRO d   2       5.065   0.890  -3.109  0.00  0.00     0.062 C 
ATOM     16  O   PRO d   2       4.132   1.248  -3.790  0.00  0.00    -0.548 OA
ATOM     17  HD1 PRO d   2       6.692   1.320  -6.282  0.00  0.00     0.046 H 
ATOM     18  HD2 PRO d   2       7.153  -0.334  -6.790  0.00  0.00     0.046 H 
ATOM     19  HG1 PRO d   2       8.646  -0.611  -4.917  0.00  0.00     0.028 H 
ATOM     20  HG2 PRO d   2       8.881   1.126  -5.307  0.00  0.00     0.028 H 
ATOM     21  HB1 PRO d   2       8.092   0.402  -2.801  0.00  0.00     0.029 H 
ATOM     22  HB2 PRO d   2       7.353   1.835  -3.586  0.00  0.00     0.029 H 
ATOM     23  OXT PRO d   2       5.139   1.264  -1.822  0.00  0.00    -0.548 OA
ENDROOT
BRANCH   1  24
ATOM     24  CB  VAL d   1       3.660   0.189  -7.539  0.00  0.00     0.005 C 
ATOM     25  HB  VAL d   1       3.391   0.801  -6.678  0.00  0.00     0.035 H 
BRANCH  24  26
ATOM     26  CG1 VAL d   1       4.432   1.040  -8.549  0.00  0.00    -0.057 C 
ATOM     27 1HG1 VAL d   1       5.116   0.405  -9.112  0.00  0.00     0.023 H 
ATOM     28 2HG1 VAL d   1       3.731   1.517  -9.233  0.00  0.00     0.023 H 
ATOM     29 3HG1 VAL d   1       5.001   1.805  -8.020  0.00  0.00     0.023 H 
ENDBRANCH  24  26
BRANCH  24  30
ATOM     30  CG2 VAL d   1       2.390  -0.355  -8.197  0.00  0.00    -0.057 C 
ATOM     31 1HG2 VAL d   1       2.660  -1.069  -8.975  0.00  0.00     0.023 H 
ATOM     32 2HG2 VAL d   1       1.776  -0.851  -7.445  0.00  0.00     0.023 H 
ATOM     33 3HG2 VAL d   1       1.828   0.469  -8.638  0.00  0.00     0.023 H 
ENDBRANCH  24  30
ENDBRANCH   1  24
TORSDOF 6
ENDMDL
MODEL 8
REMARK VINA RESULT:      -4.5      2.578      3.705
REMARK  3 active torsions:
REMARK  status: ('A' for Active; 'I' for Inactive)
REMARK    1  A    between atoms: CG1_1  and  CB_2 
REMARK    2  A    between atoms: CB_2  and  CG2_3 
REMARK    3  A    between atoms: CB_2  and  CA_4 
REMARK       I    between atoms: CA_4  and  C_6 
REMARK       I    between atoms: CA_4  and  N_32 
REMARK       I    between atoms: C_6  and  N_8 
REMARK       I    between atoms: CA_12  and  C_14 
ROOT
ATOM      1  CA  VAL d   1       6.431  -3.468  -4.849  0.00  0.00     0.056 C 
ATOM      2  HA  VAL d   1       6.660  -3.600  -3.792  0.00  0.00     0.095 H 
ATOM      3  C   VAL d   1       5.135  -2.713  -4.992  0.00  0.00     0.265 C 
ATOM      4  O   VAL d   1       4.444  -2.874  -5.977  0.00  0.00    -0.269 OA
ATOM      5  H1  VAL d   1       5.612  -5.349  -5.024  0.00  0.00     0.200 HD
ATOM      6  H2  VAL d   1       6.093  -4.688  -6.473  0.00  0.00     0.200 HD
ATOM      7  N   VAL d   1       6.329  -4.793  -5.488  0.00  0.00     0.228 N 
ATOM      8  H3  VAL d   1       7.231  -5.276  -5.408  0.00  0.00     0.200 HD
ATOM      9  N   PRO d   2       4.741  -1.861  -4.025  0.00  0.00    -0.289 N 
ATOM     10  CD  PRO d   2       5.422  -1.652  -2.735  0.00  0.00     0.016 C 
ATOM     11  CG  PRO d   2       4.321  -1.112  -1.788  0.00  0.00    -0.035 C 
ATOM     12  CB  PRO d   2       3.498  -0.213  -2.749  0.00  0.00    -0.028 C 
ATOM     13  CA  PRO d   2       3.561  -0.985  -4.083  0.00  0.00     0.066 C 
ATOM     14  HA  PRO d   2       2.659  -1.585  -4.208  0.00  0.00     0.056 H 
ATOM     15  C   PRO d   2       3.695  -0.015  -5.229  0.00  0.00     0.062 C 
ATOM     16  O   PRO d   2       4.670  -0.053  -5.943  0.00  0.00    -0.548 OA
ATOM     17  HD1 PRO d   2       6.222  -0.919  -2.842  0.00  0.00     0.046 H 
ATOM     18  HD2 PRO d   2       5.818  -2.594  -2.357  0.00  0.00     0.046 H 
ATOM     19  HG1 PRO d   2       3.711  -1.924  -1.395  0.00  0.00     0.028 H 
ATOM     20  HG2 PRO d   2       4.755  -0.524  -0.979  0.00  0.00     0.028 H 
ATOM     21  HB1 PRO d   2       2.467  -0.123  -2.404  0.00  0.00     0.029 H 
ATOM     22  HB2 PRO d   2       3.959   0.769  -2.848  0.00  0.00     0.029 H 
ATOM     23  OXT PRO d   2       2.731   0.890  -5.458  0.00  0.00    -0.548 OA
ENDROOT
BRANCH   1  24
ATOM     24  CB  VAL d   1       7.557  -2.679  -5.521  0.00  0.00     0.005 C 
ATOM     25  HB  VAL d   1       7.230  -1.653  -5.693  0.00  0.00     0.035 H 
BRANCH  24  26
ATOM     26  CG1 VAL d   1       8.789  -2.675  -4.613  0.00  0.00    -0.057 C 
ATOM     27 1HG1 VAL d   1       9.541  -3.351  -5.018  0.00  0.00     0.023 H 
ATOM     28 2HG1 VAL d   1       9.196  -1.665  -4.559  0.00  0.00     0.023 H 
ATOM     29 3HG1 VAL d   1       8.505  -3.006  -3.614  0.00  0.00     0.023 H 
ENDBRANCH  24  26
BRANCH  24  30
ATOM     30  CG2 VAL d   1       7.911  -3.333  -6.858  0.00  0.00    -0.057 C 
ATOM     31 1HG2 VAL d   1       7.143  -3.093  -7.594  0.00  0.00     0.023 H 
ATOM     32 2HG2 VAL d   1       8.874  -2.957  -7.202  0.00  0.00     0.023 H 
ATOM     33 3HG2 VAL d   1       7.967  -4.414  -6.730  0.00  0.00     0.023 H 
ENDBRANCH  24  30
ENDBRANCH   1  24
TORSDOF 6
ENDMDL
MODEL 9
REMARK VINA RESULT:      -4.4      2.199      2.615
REMARK  3 active torsions:
REMARK  status: ('A' for Active; 'I' for Inactive)
REMARK    1  A    between atoms: CG1_1  and  CB_2 
REMARK    2  A    between atoms: CB_2  and  CG2_3 
REMARK    3  A    between atoms: CB_2  and  CA_4 
REMARK       I    between atoms: CA_4  and  C_6 
REMARK       I    between atoms: CA_4  and  N_32 
REMARK       I    between atoms: C_6  and  N_8 
REMARK       I    between atoms: CA_12  and  C_14 
ROOT
ATOM      1  CA  VAL d   1       3.814  -0.143  -6.930  0.00  0.00     0.056 C 
ATOM      2  HA  VAL d   1       2.818  -0.082  -6.491  0.00  0.00     0.095 H 
ATOM      3  C   VAL d   1       4.842  -0.223  -5.831  0.00  0.00     0.265 C 
ATOM      4  O   VAL d   1       5.966   0.191  -6.021  0.00  0.00    -0.269 OA
ATOM      5  H1  VAL d   1       3.941   1.894  -7.203  0.00  0.00     0.200 HD
ATOM      6  H2  VAL d   1       4.980   1.020  -8.165  0.00  0.00     0.200 HD
ATOM      7  N   VAL d   1       4.044   1.050  -7.765  0.00  0.00     0.228 N 
ATOM      8  H3  VAL d   1       3.355   1.068  -8.525  0.00  0.00     0.200 HD
ATOM      9  N   PRO d   2       4.513  -0.753  -4.637  0.00  0.00    -0.289 N 
ATOM     10  CD  PRO d   2       3.164  -1.193  -4.235  0.00  0.00     0.016 C 
ATOM     11  CG  PRO d   2       3.170  -1.122  -2.687  0.00  0.00    -0.035 C 
ATOM     12  CB  PRO d   2       4.614  -1.585  -2.359  0.00  0.00    -0.028 C 
ATOM     13  CA  PRO d   2       5.439  -0.991  -3.520  0.00  0.00     0.066 C 
ATOM     14  HA  PRO d   2       5.893  -0.051  -3.208  0.00  0.00     0.056 H 
ATOM     15  C   PRO d   2       6.510  -1.966  -3.937  0.00  0.00     0.062 C 
ATOM     16  O   PRO d   2       6.517  -2.413  -5.060  0.00  0.00    -0.548 OA
ATOM     17  HD1 PRO d   2       2.983  -2.216  -4.567  0.00  0.00     0.046 H 
ATOM     18  HD2 PRO d   2       2.409  -0.521  -4.642  0.00  0.00     0.046 H 
ATOM     19  HG1 PRO d   2       2.998  -0.103  -2.342  0.00  0.00     0.028 H 
ATOM     20  HG2 PRO d   2       2.434  -1.806  -2.263  0.00  0.00     0.028 H 
ATOM     21  HB1 PRO d   2       4.943  -1.176  -1.404  0.00  0.00     0.029 H 
ATOM     22  HB2 PRO d   2       4.679  -2.673  -2.356  0.00  0.00     0.029 H 
ATOM     23  OXT PRO d   2       7.458  -2.336  -3.062  0.00  0.00    -0.548 OA
ENDROOT
BRANCH   1  24
ATOM     24  CB  VAL d   1       3.909  -1.391  -7.809  0.00  0.00     0.005 C 
ATOM     25  HB  VAL d   1       3.847  -2.282  -7.184  0.00  0.00     0.035 H 
BRANCH  24  26
ATOM     26  CG1 VAL d   1       2.757  -1.394  -8.817  0.00  0.00    -0.057 C 
ATOM     27 1HG1 VAL d   1       3.147  -1.194  -9.815  0.00  0.00     0.023 H 
ATOM     28 2HG1 VAL d   1       2.268  -2.368  -8.805  0.00  0.00     0.023 H 
ATOM     29 3HG1 VAL d   1       2.037  -0.622  -8.547  0.00  0.00     0.023 H 
ENDBRANCH  24  26
BRANCH  24  30
ATOM     30  CG2 VAL d   1       5.243  -1.385  -8.559  0.00  0.00    -0.057 C 
ATOM     31 1HG2 VAL d   1       5.903  -0.637  -8.119  0.00  0.00     0.023 H 
ATOM     32 2HG2 VAL d   1       5.706  -2.369  -8.483  0.00  0.00     0.023 H 
ATOM     33 3HG2 VAL d   1       5.069  -1.145  -9.608  0.00  0.00     0.023 H 
ENDBRANCH  24  30
ENDBRANCH   1  24
TORSDOF 6
ENDMDL
MODEL 10
REMARK VINA RESULT:      -4.4      2.779      4.884
REMARK  3 active torsions:
REMARK  status: ('A' for Active; 'I' for Inactive)
REMARK    1  A    between atoms: CG1_1  and  CB_2 
REMARK    2  A    between atoms: CB_2  and  CG2_3 
REMARK    3  A    between atoms: CB_2  and  CA_4 
REMARK       I    between atoms: CA_4  and  C_6 
REMARK       I    between atoms: CA_4  and  N_32 
REMARK       I    between atoms: C_6  and  N_8 
REMARK       I    between atoms: CA_12  and  C_14 
ROOT
ATOM      1  CA  VAL d   1       4.084  -0.308  -3.725  0.00  0.00     0.056 C 
ATOM      2  HA  VAL d   1       4.033   0.441  -4.514  0.00  0.00     0.095 H 
ATOM      3  C   VAL d   1       4.397  -1.653  -4.328  0.00  0.00     0.265 C 
ATOM      4  O   VAL d   1       4.027  -2.667  -3.775  0.00  0.00    -0.269 OA
ATOM      5  H1  VAL d   1       2.041  -0.559  -3.676  0.00  0.00     0.200 HD
ATOM      6  H2  VAL d   1       2.813  -1.062  -2.291  0.00  0.00     0.200 HD
ATOM      7  N   VAL d   1       2.791  -0.350  -3.018  0.00  0.00     0.228 N 
ATOM      8  H3  VAL d   1       2.612   0.564  -2.588  0.00  0.00     0.200 HD
ATOM      9  N   PRO d   2       5.089  -1.729  -5.482  0.00  0.00    -0.289 N 
ATOM     10  CD  PRO d   2       5.504  -0.583  -6.312  0.00  0.00     0.016 C 
ATOM     11  CG  PRO d   2       5.679  -1.168  -7.736  0.00  0.00    -0.035 C 
ATOM     12  CB  PRO d   2       6.273  -2.568  -7.428  0.00  0.00    -0.028 C 
ATOM     13  CA  PRO d   2       5.554  -2.968  -6.122  0.00  0.00     0.066 C 
ATOM     14  HA  PRO d   2       4.704  -3.611  -6.350  0.00  0.00     0.056 H 
ATOM     15  C   PRO d   2       6.514  -3.690  -5.211  0.00  0.00     0.062 C 
ATOM     16  O   PRO d   2       6.778  -3.230  -4.125  0.00  0.00    -0.548 OA
ATOM     17  HD1 PRO d   2       6.449  -0.176  -5.951  0.00  0.00     0.046 H 
ATOM     18  HD2 PRO d   2       4.733   0.186  -6.310  0.00  0.00     0.046 H 
ATOM     19  HG1 PRO d   2       4.718  -1.255  -8.243  0.00  0.00     0.028 H 
ATOM     20  HG2 PRO d   2       6.375  -0.568  -8.322  0.00  0.00     0.028 H 
ATOM     21  HB1 PRO d   2       6.040  -3.270  -8.227  0.00  0.00     0.029 H 
ATOM     22  HB2 PRO d   2       7.349  -2.504  -7.272  0.00  0.00     0.029 H 
ATOM     23  OXT PRO d   2       7.073  -4.844  -5.605  0.00  0.00    -0.548 OA
ENDROOT
BRANCH   1  24
ATOM     24  CB  VAL d   1       5.182   0.073  -2.729  0.00  0.00     0.005 C 
ATOM     25  HB  VAL d   1       5.695  -0.828  -2.392  0.00  0.00     0.035 H 
BRANCH  24  26
ATOM     26  CG1 VAL d   1       6.184   1.008  -3.408  0.00  0.00    -0.057 C 
ATOM     27 1HG1 VAL d   1       5.670   1.607  -4.160  0.00  0.00     0.023 H 
ATOM     28 2HG1 VAL d   1       6.630   1.665  -2.662  0.00  0.00     0.023 H 
ATOM     29 3HG1 VAL d   1       6.966   0.418  -3.887  0.00  0.00     0.023 H 
ENDBRANCH  24  26
BRANCH  24  30
ATOM     30  CG2 VAL d   1       4.556   0.782  -1.527  0.00  0.00    -0.057 C 
ATOM     31 1HG2 VAL d   1       5.333   1.020  -0.800  0.00  0.00     0.023 H 
ATOM     32 2HG2 VAL d   1       4.074   1.702  -1.858  0.00  0.00     0.023 H 
ATOM     33 3HG2 VAL d   1       3.814   0.130  -1.065  0.00  0.00     0.023 H 
ENDBRANCH  24  30
ENDBRANCH   1  24
TORSDOF 6
ENDMDL
