MODEL 1
REMARK VINA RESULT:      -5.9      0.000      0.000
REMARK  1 active torsions:
REMARK  status: ('A' for Active; 'I' for Inactive)
REMARK    1  A    between atoms: C_1  and  C_2 
ROOT
ATOM      1  C   LIG d   1       4.120   0.177  -2.644  0.00  0.00    -0.026 A 
ATOM      2  C   LIG d   1       3.429  -0.996  -2.424  0.00  0.00    -0.057 A 
ATOM      3  C   LIG d   1       4.002  -2.223  -2.730  0.00  0.00    -0.061 A 
ATOM      4  C   LIG d   1       5.262  -2.291  -3.255  0.00  0.00    -0.051 A 
ATOM      5  C   LIG d   1       5.980  -1.115  -3.487  0.00  0.00     0.017 A 
ATOM      6  C   LIG d   1       5.401   0.132  -3.184  0.00  0.00     0.053 A 
ATOM      7  N   LIG d   1       6.113   1.290  -3.419  0.00  0.00    -0.322 N 
ATOM      8  C   LIG d   1       7.351   1.248  -3.940  0.00  0.00     0.251 A 
ATOM      9  C   LIG d   1       7.975   0.027  -4.267  0.00  0.00     0.022 A 
ATOM     10  C   LIG d   1       7.332  -1.150  -4.049  0.00  0.00     0.055 A 
ATOM     11 CL   LIG d   1       8.089  -2.661  -4.446  0.00  0.00    -0.083 Cl
ATOM     12  O   LIG d   1       7.949   2.291  -4.134  0.00  0.00    -0.268 OA
ATOM     13  H   LIG d   1       2.433  -0.960  -2.009  0.00  0.00     0.062 H 
ATOM     14  H   LIG d   1       3.447  -3.132  -2.551  0.00  0.00     0.062 H 
ATOM     15  H   LIG d   1       5.700  -3.249  -3.490  0.00  0.00     0.062 H 
ATOM     16  H   LIG d   1       8.971   0.027  -4.685  0.00  0.00     0.069 H 
ATOM     17  H   LIG d   1       5.713   2.147  -3.205  0.00  0.00     0.169 HD
ENDROOT
BRANCH   1  18
ATOM     18  C   LIG d   1       3.485   1.502  -2.308  0.00  0.00    -0.038 C 
ATOM     19  H   LIG d   1       2.529   1.588  -2.823  0.00  0.00     0.028 H 
ATOM     20  H   LIG d   1       3.326   1.566  -1.232  0.00  0.00     0.028 H 
ATOM     21  H   LIG d   1       4.144   2.310  -2.627  0.00  0.00     0.028 H 
ENDBRANCH   1  18
TORSDOF 1
ENDMDL
MODEL 2
REMARK VINA RESULT:      -5.7      2.812      3.046
REMARK  1 active torsions:
REMARK  status: ('A' for Active; 'I' for Inactive)
REMARK    1  A    between atoms: C_1  and  C_2 
ROOT
ATOM      1  C   LIG d   1       3.909   0.310  -3.131  0.00  0.00    -0.026 A 
ATOM      2  C   LIG d   1       4.028  -0.383  -1.945  0.00  0.00    -0.057 A 
ATOM      3  C   LIG d   1       4.324  -1.739  -1.944  0.00  0.00    -0.061 A 
ATOM      4  C   LIG d   1       4.504  -2.413  -3.119  0.00  0.00    -0.051 A 
ATOM      5  C   LIG d   1       4.388  -1.731  -4.333  0.00  0.00     0.017 A 
ATOM      6  C   LIG d   1       4.082  -0.357  -4.340  0.00  0.00     0.053 A 
ATOM      7  N   LIG d   1       3.964   0.310  -5.541  0.00  0.00    -0.322 N 
ATOM      8  C   LIG d   1       4.131  -0.333  -6.709  0.00  0.00     0.251 A 
ATOM      9  C   LIG d   1       4.432  -1.709  -6.760  0.00  0.00     0.022 A 
ATOM     10  C   LIG d   1       4.573  -2.421  -5.612  0.00  0.00     0.055 A 
ATOM     11 CL   LIG d   1       4.946  -4.116  -5.660  0.00  0.00    -0.083 Cl
ATOM     12  O   LIG d   1       4.019   0.289  -7.751  0.00  0.00    -0.268 OA
ATOM     13  H   LIG d   1       3.890   0.135  -1.008  0.00  0.00     0.062 H 
ATOM     14  H   LIG d   1       4.414  -2.266  -1.006  0.00  0.00     0.062 H 
ATOM     15  H   LIG d   1       4.735  -3.467  -3.110  0.00  0.00     0.062 H 
ATOM     16  H   LIG d   1       4.560  -2.197  -7.715  0.00  0.00     0.069 H 
ATOM     17  H   LIG d   1       3.757   1.258  -5.543  0.00  0.00     0.169 HD
ENDROOT
BRANCH   1  18
ATOM     18  C   LIG d   1       3.587   1.782  -3.118  0.00  0.00    -0.038 C 
ATOM     19  H   LIG d   1       4.494   2.355  -3.306  0.00  0.00     0.028 H 
ATOM     20  H   LIG d   1       2.852   2.000  -3.893  0.00  0.00     0.028 H 
ATOM     21  H   LIG d   1       3.179   2.055  -2.144  0.00  0.00     0.028 H 
ENDBRANCH   1  18
TORSDOF 1
ENDMDL
MODEL 3
REMARK VINA RESULT:      -5.7      2.273      3.070
REMARK  1 active torsions:
REMARK  status: ('A' for Active; 'I' for Inactive)
REMARK    1  A    between atoms: C_1  and  C_2 
ROOT
ATOM      1  C   LIG d   1       4.457  -1.136  -2.579  0.00  0.00    -0.026 A 
ATOM      2  C   LIG d   1       3.798  -0.072  -2.001  0.00  0.00    -0.057 A 
ATOM      3  C   LIG d   1       4.320   1.212  -2.083  0.00  0.00    -0.061 A 
ATOM      4  C   LIG d   1       5.496   1.445  -2.738  0.00  0.00    -0.051 A 
ATOM      5  C   LIG d   1       6.181   0.381  -3.331  0.00  0.00     0.017 A 
ATOM      6  C   LIG d   1       5.659  -0.924  -3.246  0.00  0.00     0.053 A 
ATOM      7  N   LIG d   1       6.342  -1.971  -3.828  0.00  0.00    -0.322 N 
ATOM      8  C   LIG d   1       7.503  -1.767  -4.473  0.00  0.00     0.251 A 
ATOM      9  C   LIG d   1       8.073  -0.482  -4.583  0.00  0.00     0.022 A 
ATOM     10  C   LIG d   1       7.445   0.593  -4.041  0.00  0.00     0.055 A 
ATOM     11 CL   LIG d   1       8.135   2.181  -4.169  0.00  0.00    -0.083 Cl
ATOM     12  O   LIG d   1       8.078  -2.717  -4.976  0.00  0.00    -0.268 OA
ATOM     13  H   LIG d   1       2.867  -0.238  -1.481  0.00  0.00     0.062 H 
ATOM     14  H   LIG d   1       3.791   2.035  -1.625  0.00  0.00     0.062 H 
ATOM     15  H   LIG d   1       5.895   2.446  -2.798  0.00  0.00     0.062 H 
ATOM     16  H   LIG d   1       9.008  -0.352  -5.107  0.00  0.00     0.069 H 
ATOM     17  H   LIG d   1       5.977  -2.868  -3.772  0.00  0.00     0.169 HD
ENDROOT
BRANCH   1  18
ATOM     18  C   LIG d   1       3.880  -2.525  -2.482  0.00  0.00    -0.038 C 
ATOM     19  H   LIG d   1       4.673  -3.258  -2.622  0.00  0.00     0.028 H 
ATOM     20  H   LIG d   1       3.426  -2.662  -1.501  0.00  0.00     0.028 H 
ATOM     21  H   LIG d   1       3.122  -2.657  -3.255  0.00  0.00     0.028 H 
ENDBRANCH   1  18
TORSDOF 1
ENDMDL
MODEL 4
REMARK VINA RESULT:      -5.6      2.014      2.076
REMARK  1 active torsions:
REMARK  status: ('A' for Active; 'I' for Inactive)
REMARK    1  A    between atoms: C_1  and  C_2 
ROOT
ATOM      1  C   LIG d   1       3.275  -0.325  -4.197  0.00  0.00    -0.026 A 
ATOM      2  C   LIG d   1       2.838  -0.944  -3.045  0.00  0.00    -0.057 A 
ATOM      3  C   LIG d   1       3.671  -1.807  -2.346  0.00  0.00    -0.061 A 
ATOM      4  C   LIG d   1       4.940  -2.058  -2.786  0.00  0.00    -0.051 A 
ATOM      5  C   LIG d   1       5.403  -1.442  -3.951  0.00  0.00     0.017 A 
ATOM      6  C   LIG d   1       4.561  -0.571  -4.667  0.00  0.00     0.053 A 
ATOM      7  N   LIG d   1       5.022   0.031  -5.819  0.00  0.00    -0.322 N 
ATOM      8  C   LIG d   1       6.264  -0.206  -6.274  0.00  0.00     0.251 A 
ATOM      9  C   LIG d   1       7.147  -1.073  -5.599  0.00  0.00     0.022 A 
ATOM     10  C   LIG d   1       6.758  -1.689  -4.453  0.00  0.00     0.055 A 
ATOM     11 CL   LIG d   1       7.835  -2.759  -3.610  0.00  0.00    -0.083 Cl
ATOM     12  O   LIG d   1       6.638   0.344  -7.296  0.00  0.00    -0.268 OA
ATOM     13  H   LIG d   1       1.839  -0.755  -2.683  0.00  0.00     0.062 H 
ATOM     14  H   LIG d   1       3.312  -2.283  -1.445  0.00  0.00     0.062 H 
ATOM     15  H   LIG d   1       5.581  -2.730  -2.236  0.00  0.00     0.062 H 
ATOM     16  H   LIG d   1       8.139  -1.243  -5.992  0.00  0.00     0.069 H 
ATOM     17  H   LIG d   1       4.441   0.634  -6.308  0.00  0.00     0.169 HD
ENDROOT
BRANCH   1  18
ATOM     18  C   LIG d   1       2.360   0.609  -4.947  0.00  0.00    -0.038 C 
ATOM     19  H   LIG d   1       2.743   1.626  -4.878  0.00  0.00     0.028 H 
ATOM     20  H   LIG d   1       2.313   0.308  -5.994  0.00  0.00     0.028 H 
ATOM     21  H   LIG d   1       1.362   0.565  -4.511  0.00  0.00     0.028 H 
ENDBRANCH   1  18
TORSDOF 1
ENDMDL
MODEL 5
REMARK VINA RESULT:      -5.4      2.764      3.549
REMARK  1 active torsions:
REMARK  status: ('A' for Active; 'I' for Inactive)
REMARK    1  A    between atoms: C_1  and  C_2 
ROOT
ATOM      1  C   LIG d   1       3.686  -0.486  -3.139  0.00  0.00    -0.026 A 
ATOM      2  C   LIG d   1       4.218   0.697  -2.673  0.00  0.00    -0.057 A 
ATOM      3  C   LIG d   1       5.579   0.949  -2.774  0.00  0.00    -0.061 A 
ATOM      4  C   LIG d   1       6.417   0.029  -3.338  0.00  0.00    -0.051 A 
ATOM      5  C   LIG d   1       5.899  -1.178  -3.817  0.00  0.00     0.017 A 
ATOM      6  C   LIG d   1       4.520  -1.440  -3.712  0.00  0.00     0.053 A 
ATOM      7  N   LIG d   1       4.016  -2.635  -4.181  0.00  0.00    -0.322 N 
ATOM      8  C   LIG d   1       4.821  -3.557  -4.735  0.00  0.00     0.251 A 
ATOM      9  C   LIG d   1       6.209  -3.347  -4.860  0.00  0.00     0.022 A 
ATOM     10  C   LIG d   1       6.768  -2.187  -4.427  0.00  0.00     0.055 A 
ATOM     11 CL   LIG d   1       8.476  -1.915  -4.576  0.00  0.00    -0.083 Cl
ATOM     12  O   LIG d   1       4.340  -4.601  -5.139  0.00  0.00    -0.268 OA
ATOM     13  H   LIG d   1       3.569   1.435  -2.226  0.00  0.00     0.062 H 
ATOM     14  H   LIG d   1       5.979   1.881  -2.404  0.00  0.00     0.062 H 
ATOM     15  H   LIG d   1       7.474   0.233  -3.414  0.00  0.00     0.062 H 
ATOM     16  H   LIG d   1       6.830  -4.109  -5.308  0.00  0.00     0.069 H 
ATOM     17  H   LIG d   1       3.064  -2.811  -4.111  0.00  0.00     0.169 HD
ENDROOT
BRANCH   1  18
ATOM     18  C   LIG d   1       2.206  -0.747  -3.022  0.00  0.00    -0.038 C 
ATOM     19  H   LIG d   1       1.703   0.157  -2.682  0.00  0.00     0.028 H 
ATOM     20  H   LIG d   1       1.810  -1.039  -3.995  0.00  0.00     0.028 H 
ATOM     21  H   LIG d   1       2.035  -1.551  -2.305  0.00  0.00     0.028 H 
ENDBRANCH   1  18
TORSDOF 1
ENDMDL
MODEL 6
REMARK VINA RESULT:      -5.0      2.882      4.748
REMARK  1 active torsions:
REMARK  status: ('A' for Active; 'I' for Inactive)
REMARK    1  A    between atoms: C_1  and  C_2 
ROOT
ATOM      1  C   LIG d   1       7.615  -0.753  -5.272  0.00  0.00    -0.026 A 
ATOM      2  C   LIG d   1       8.298   0.443  -5.218  0.00  0.00    -0.057 A 
ATOM      3  C   LIG d   1       7.922   1.433  -4.320  0.00  0.00    -0.061 A 
ATOM      4  C   LIG d   1       6.867   1.239  -3.472  0.00  0.00    -0.051 A 
ATOM      5  C   LIG d   1       6.161   0.034  -3.511  0.00  0.00     0.017 A 
ATOM      6  C   LIG d   1       6.535  -0.970  -4.423  0.00  0.00     0.053 A 
ATOM      7  N   LIG d   1       5.831  -2.156  -4.459  0.00  0.00    -0.322 N 
ATOM      8  C   LIG d   1       4.787  -2.367  -3.639  0.00  0.00     0.251 A 
ATOM      9  C   LIG d   1       4.367  -1.393  -2.711  0.00  0.00     0.022 A 
ATOM     10  C   LIG d   1       5.025  -0.208  -2.617  0.00  0.00     0.055 A 
ATOM     11 CL   LIG d   1       4.519   1.000  -1.477  0.00  0.00    -0.083 Cl
ATOM     12  O   LIG d   1       4.189  -3.427  -3.700  0.00  0.00    -0.268 OA
ATOM     13  H   LIG d   1       9.134   0.612  -5.879  0.00  0.00     0.062 H 
ATOM     14  H   LIG d   1       8.467   2.364  -4.291  0.00  0.00     0.062 H 
ATOM     15  H   LIG d   1       6.582   2.013  -2.777  0.00  0.00     0.062 H 
ATOM     16  H   LIG d   1       3.524  -1.593  -2.067  0.00  0.00     0.069 H 
ATOM     17  H   LIG d   1       6.094  -2.848  -5.086  0.00  0.00     0.169 HD
ENDROOT
BRANCH   1  18
ATOM     18  C   LIG d   1       8.034  -1.819  -6.252  0.00  0.00    -0.038 C 
ATOM     19  H   LIG d   1       8.101  -1.388  -7.251  0.00  0.00     0.028 H 
ATOM     20  H   LIG d   1       9.006  -2.217  -5.962  0.00  0.00     0.028 H 
ATOM     21  H   LIG d   1       7.297  -2.622  -6.251  0.00  0.00     0.028 H 
ENDBRANCH   1  18
TORSDOF 1
ENDMDL
MODEL 7
REMARK VINA RESULT:      -5.0      3.270      3.751
REMARK  1 active torsions:
REMARK  status: ('A' for Active; 'I' for Inactive)
REMARK    1  A    between atoms: C_1  and  C_2 
ROOT
ATOM      1  C   LIG d   1       3.591  -1.298  -3.510  0.00  0.00    -0.026 A 
ATOM      2  C   LIG d   1       2.472  -0.493  -3.539  0.00  0.00    -0.057 A 
ATOM      3  C   LIG d   1       2.184   0.278  -4.658  0.00  0.00    -0.061 A 
ATOM      4  C   LIG d   1       3.004   0.252  -5.751  0.00  0.00    -0.051 A 
ATOM      5  C   LIG d   1       4.143  -0.557  -5.742  0.00  0.00     0.017 A 
ATOM      6  C   LIG d   1       4.443  -1.336  -4.609  0.00  0.00     0.053 A 
ATOM      7  N   LIG d   1       5.571  -2.128  -4.605  0.00  0.00    -0.322 N 
ATOM      8  C   LIG d   1       6.395  -2.166  -5.666  0.00  0.00     0.251 A 
ATOM      9  C   LIG d   1       6.145  -1.402  -6.824  0.00  0.00     0.022 A 
ATOM     10  C   LIG d   1       5.045  -0.609  -6.896  0.00  0.00     0.055 A 
ATOM     11 CL   LIG d   1       4.724   0.336  -8.317  0.00  0.00    -0.083 Cl
ATOM     12  O   LIG d   1       7.383  -2.878  -5.626  0.00  0.00    -0.268 OA
ATOM     13  H   LIG d   1       1.813  -0.461  -2.685  0.00  0.00     0.062 H 
ATOM     14  H   LIG d   1       1.303   0.903  -4.664  0.00  0.00     0.062 H 
ATOM     15  H   LIG d   1       2.772   0.853  -6.617  0.00  0.00     0.062 H 
ATOM     16  H   LIG d   1       6.827  -1.454  -7.659  0.00  0.00     0.069 H 
ATOM     17  H   LIG d   1       5.773  -2.667  -3.823  0.00  0.00     0.169 HD
ENDROOT
BRANCH   1  18
ATOM     18  C   LIG d   1       3.892  -2.128  -2.289  0.00  0.00    -0.038 C 
ATOM     19  H   LIG d   1       2.978  -2.607  -1.940  0.00  0.00     0.028 H 
ATOM     20  H   LIG d   1       4.628  -2.891  -2.542  0.00  0.00     0.028 H 
ATOM     21  H   LIG d   1       4.290  -1.486  -1.503  0.00  0.00     0.028 H 
ENDBRANCH   1  18
TORSDOF 1
ENDMDL
MODEL 8
REMARK VINA RESULT:      -5.0      2.164      2.582
REMARK  1 active torsions:
REMARK  status: ('A' for Active; 'I' for Inactive)
REMARK    1  A    between atoms: C_1  and  C_2 
ROOT
ATOM      1  C   LIG d   1       5.260  -0.066  -2.999  0.00  0.00    -0.026 A 
ATOM      2  C   LIG d   1       4.408  -0.534  -2.022  0.00  0.00    -0.057 A 
ATOM      3  C   LIG d   1       3.895  -1.823  -2.088  0.00  0.00    -0.061 A 
ATOM      4  C   LIG d   1       4.224  -2.651  -3.124  0.00  0.00    -0.051 A 
ATOM      5  C   LIG d   1       5.085  -2.197  -4.126  0.00  0.00     0.017 A 
ATOM      6  C   LIG d   1       5.604  -0.890  -4.066  0.00  0.00     0.053 A 
ATOM      7  N   LIG d   1       6.450  -0.446  -5.061  0.00  0.00    -0.322 N 
ATOM      8  C   LIG d   1       6.784  -1.240  -6.092  0.00  0.00     0.251 A 
ATOM      9  C   LIG d   1       6.288  -2.555  -6.204  0.00  0.00     0.022 A 
ATOM     10  C   LIG d   1       5.460  -3.057  -5.251  0.00  0.00     0.055 A 
ATOM     11 CL   LIG d   1       4.843  -4.675  -5.375  0.00  0.00    -0.083 Cl
ATOM     12  O   LIG d   1       7.534  -0.814  -6.953  0.00  0.00    -0.268 OA
ATOM     13  H   LIG d   1       4.139   0.106  -1.196  0.00  0.00     0.062 H 
ATOM     14  H   LIG d   1       3.229  -2.173  -1.313  0.00  0.00     0.062 H 
ATOM     15  H   LIG d   1       3.821  -3.651  -3.167  0.00  0.00     0.062 H 
ATOM     16  H   LIG d   1       6.575  -3.168  -7.045  0.00  0.00     0.069 H 
ATOM     17  H   LIG d   1       6.810   0.454  -5.015  0.00  0.00     0.169 HD
ENDROOT
BRANCH   1  18
ATOM     18  C   LIG d   1       5.810   1.334  -2.916  0.00  0.00    -0.038 C 
ATOM     19  H   LIG d   1       5.953   1.607  -1.871  0.00  0.00     0.028 H 
ATOM     20  H   LIG d   1       6.765   1.382  -3.439  0.00  0.00     0.028 H 
ATOM     21  H   LIG d   1       5.107   2.028  -3.379  0.00  0.00     0.028 H 
ENDBRANCH   1  18
TORSDOF 1
ENDMDL
MODEL 9
REMARK VINA RESULT:      -5.0      3.140      3.773
REMARK  1 active torsions:
REMARK  status: ('A' for Active; 'I' for Inactive)
REMARK    1  A    between atoms: C_1  and  C_2 
ROOT
ATOM      1  C   LIG d   1       4.013  -0.490  -6.473  0.00  0.00    -0.026 A 
ATOM      2  C   LIG d   1       2.761   0.082  -6.403  0.00  0.00    -0.057 A 
ATOM      3  C   LIG d   1       2.300   0.634  -5.216  0.00  0.00    -0.061 A 
ATOM      4  C   LIG d   1       3.080   0.621  -4.094  0.00  0.00    -0.051 A 
ATOM      5  C   LIG d   1       4.353   0.047  -4.141  0.00  0.00     0.017 A 
ATOM      6  C   LIG d   1       4.822  -0.519  -5.341  0.00  0.00     0.053 A 
ATOM      7  N   LIG d   1       6.077  -1.090  -5.381  0.00  0.00    -0.322 N 
ATOM      8  C   LIG d   1       6.860  -1.119  -4.289  0.00  0.00     0.251 A 
ATOM      9  C   LIG d   1       6.437  -0.571  -3.061  0.00  0.00     0.022 A 
ATOM     10  C   LIG d   1       5.216   0.015  -2.958  0.00  0.00     0.055 A 
ATOM     11 CL   LIG d   1       4.682   0.695  -1.452  0.00  0.00    -0.083 Cl
ATOM     12  O   LIG d   1       7.963  -1.631  -4.362  0.00  0.00    -0.268 OA
ATOM     13  H   LIG d   1       2.133   0.101  -7.281  0.00  0.00     0.062 H 
ATOM     14  H   LIG d   1       1.316   1.078  -5.179  0.00  0.00     0.062 H 
ATOM     15  H   LIG d   1       2.714   1.054  -3.175  0.00  0.00     0.062 H 
ATOM     16  H   LIG d   1       7.089  -0.611  -2.201  0.00  0.00     0.069 H 
ATOM     17  H   LIG d   1       6.400  -1.475  -6.211  0.00  0.00     0.169 HD
ENDROOT
BRANCH   1  18
ATOM     18  C   LIG d   1       4.501  -1.087  -7.768  0.00  0.00    -0.038 C 
ATOM     19  H   LIG d   1       3.747  -1.768  -8.160  0.00  0.00     0.028 H 
ATOM     20  H   LIG d   1       4.682  -0.290  -8.489  0.00  0.00     0.028 H 
ATOM     21  H   LIG d   1       5.427  -1.633  -7.589  0.00  0.00     0.028 H 
ENDBRANCH   1  18
TORSDOF 1
ENDMDL
MODEL 10
REMARK VINA RESULT:      -4.8      3.243      3.542
REMARK  1 active torsions:
REMARK  status: ('A' for Active; 'I' for Inactive)
REMARK    1  A    between atoms: C_1  and  C_2 
ROOT
ATOM      1  C   LIG d   1       3.914  -1.036  -3.502  0.00  0.00    -0.026 A 
ATOM      2  C   LIG d   1       4.919  -1.455  -2.657  0.00  0.00    -0.057 A 
ATOM      3  C   LIG d   1       6.200  -1.685  -3.140  0.00  0.00    -0.061 A 
ATOM      4  C   LIG d   1       6.489  -1.499  -4.463  0.00  0.00    -0.051 A 
ATOM      5  C   LIG d   1       5.484  -1.076  -5.338  0.00  0.00     0.017 A 
ATOM      6  C   LIG d   1       4.183  -0.847  -4.854  0.00  0.00     0.053 A 
ATOM      7  N   LIG d   1       3.195  -0.433  -5.722  0.00  0.00    -0.322 N 
ATOM      8  C   LIG d   1       3.454  -0.250  -7.028  0.00  0.00     0.251 A 
ATOM      9  C   LIG d   1       4.738  -0.469  -7.566  0.00  0.00     0.022 A 
ATOM     10  C   LIG d   1       5.758  -0.867  -6.762  0.00  0.00     0.055 A 
ATOM     11 CL   LIG d   1       7.345  -1.140  -7.411  0.00  0.00    -0.083 Cl
ATOM     12  O   LIG d   1       2.555   0.116  -7.766  0.00  0.00    -0.268 OA
ATOM     13  H   LIG d   1       4.709  -1.605  -1.609  0.00  0.00     0.062 H 
ATOM     14  H   LIG d   1       6.976  -2.013  -2.464  0.00  0.00     0.062 H 
ATOM     15  H   LIG d   1       7.487  -1.679  -4.830  0.00  0.00     0.062 H 
ATOM     16  H   LIG d   1       4.913  -0.314  -8.620  0.00  0.00     0.069 H 
ATOM     17  H   LIG d   1       2.300  -0.272  -5.385  0.00  0.00     0.169 HD
ENDROOT
BRANCH   1  18
ATOM     18  C   LIG d   1       2.527  -0.792  -2.964  0.00  0.00    -0.038 C 
ATOM     19  H   LIG d   1       2.062  -1.744  -2.714  0.00  0.00     0.028 H 
ATOM     20  H   LIG d   1       2.589  -0.170  -2.071  0.00  0.00     0.028 H 
ATOM     21  H   LIG d   1       1.930  -0.283  -3.721  0.00  0.00     0.028 H 
ENDBRANCH   1  18
TORSDOF 1
ENDMDL
