MODEL 1
REMARK VINA RESULT:      -5.6      0.000      0.000
REMARK  9 active torsions:
REMARK  status: ('A' for Active; 'I' for Inactive)
REMARK    1  A    between atoms: C_1  and  C_2 
REMARK    2  A    between atoms: C_2  and  C_3 
REMARK    3  A    between atoms: C_2  and  O_4 
REMARK    4  A    between atoms: O_4  and  C_5 
REMARK    5  A    between atoms: C_8  and  C_11 
REMARK    6  A    between atoms: C_11  and  C_12 
REMARK    7  A    between atoms: C_12  and  C_14 
REMARK    8  A    between atoms: C_17  and  O_21 
REMARK    9  A    between atoms: C_19  and  O_20 
ROOT
ATOM      1  C   LIG d   1       4.889  -0.795  -7.962  0.00  0.00     0.121 A 
ATOM      2  C   LIG d   1       4.111  -1.775  -7.362  0.00  0.00    -0.020 A 
ATOM      3  C   LIG d   1       4.663  -2.605  -6.405  0.00  0.00    -0.055 A 
ATOM      4  C   LIG d   1       5.990  -2.458  -6.045  0.00  0.00    -0.040 A 
ATOM      5  C   LIG d   1       6.767  -1.480  -6.637  0.00  0.00    -0.055 A 
ATOM      6  C   LIG d   1       6.220  -0.652  -7.598  0.00  0.00    -0.020 A 
ATOM      7  H   LIG d   1       3.075  -1.889  -7.642  0.00  0.00     0.065 H 
ATOM      8  H   LIG d   1       4.059  -3.368  -5.938  0.00  0.00     0.062 H 
ATOM      9  H   LIG d   1       7.801  -1.365  -6.351  0.00  0.00     0.062 H 
ATOM     10  H   LIG d   1       6.828   0.111  -8.064  0.00  0.00     0.065 H 
ENDROOT
BRANCH   4  11
ATOM     11  C   LIG d   1       6.590  -3.365  -5.001  0.00  0.00     0.036 C 
ATOM     12  H   LIG d   1       7.402  -3.814  -5.375  0.00  0.00     0.039 H 
ATOM     13  H   LIG d   1       5.859  -4.120  -4.712  0.00  0.00     0.039 H 
BRANCH  11  14
ATOM     14  C   LIG d   1       6.978  -2.552  -3.793  0.00  0.00     0.171 C 
ATOM     15  O   LIG d   1       8.042  -2.748  -3.246  0.00  0.00    -0.292 OA
BRANCH  14  16
ATOM     16  C   LIG d   1       6.066  -1.528  -3.276  0.00  0.00     0.059 A 
ATOM     17  C   LIG d   1       6.470  -0.182  -3.228  0.00  0.00     0.131 A 
ATOM     18  C   LIG d   1       5.597   0.777  -2.742  0.00  0.00     0.022 A 
ATOM     19  C   LIG d   1       4.338   0.404  -2.295  0.00  0.00     0.120 A 
ATOM     20  H   LIG d   1       5.898   1.814  -2.706  0.00  0.00     0.069 H 
ATOM     21  C   LIG d   1       3.943  -0.931  -2.338  0.00  0.00    -0.019 A 
ATOM     22  C   LIG d   1       4.790  -1.887  -2.820  0.00  0.00    -0.044 A 
ATOM     23  H   LIG d   1       2.961  -1.212  -1.987  0.00  0.00     0.065 H 
ATOM     24  H   LIG d   1       4.477  -2.920  -2.849  0.00  0.00     0.063 H 
BRANCH  17  25
ATOM     25  O   LIG d   1       7.703   0.176  -3.661  0.00  0.00    -0.506 OA
ATOM     26  H   LIG d   1       8.191  -0.538  -4.095  0.00  0.00     0.292 HD
ENDBRANCH  17  25
BRANCH  19  27
ATOM     27  O   LIG d   1       3.487   1.344  -1.814  0.00  0.00    -0.507 OA
ATOM     28  H   LIG d   1       2.959   1.048  -1.058  0.00  0.00     0.292 HD
ENDBRANCH  19  27
ENDBRANCH  14  16
ENDBRANCH  11  14
ENDBRANCH   4  11
BRANCH   1  29
ATOM     29  O   LIG d   1       4.348   0.022  -8.903  0.00  0.00    -0.489 OA
BRANCH  29  30
ATOM     30  C   LIG d   1       3.016   0.486  -8.672  0.00  0.00     0.095 C 
ATOM     31  H   LIG d   1       2.657   0.099  -7.718  0.00  0.00     0.073 H 
BRANCH  30  32
ATOM     32  C   LIG d   1       3.007   2.016  -8.638  0.00  0.00    -0.028 C 
ATOM     33  H   LIG d   1       3.375   2.361  -7.672  0.00  0.00     0.026 H 
ATOM     34  H   LIG d   1       3.650   2.400  -9.431  0.00  0.00     0.026 H 
ATOM     35  H   LIG d   1       1.989   2.376  -8.790  0.00  0.00     0.026 H 
ENDBRANCH  30  32
BRANCH  30  36
ATOM     36  C   LIG d   1       2.102  -0.006  -9.797  0.00  0.00    -0.028 C 
ATOM     37  H   LIG d   1       1.097  -0.161  -9.405  0.00  0.00     0.026 H 
ATOM     38  H   LIG d   1       2.071   0.739 -10.592  0.00  0.00     0.026 H 
ATOM     39  H   LIG d   1       2.487  -0.945 -10.193  0.00  0.00     0.026 H 
ENDBRANCH  30  36
ENDBRANCH  29  30
ENDBRANCH   1  29
TORSDOF 9
ENDMDL
MODEL 2
REMARK VINA RESULT:      -5.3      3.207      5.035
REMARK  9 active torsions:
REMARK  status: ('A' for Active; 'I' for Inactive)
REMARK    1  A    between atoms: C_1  and  C_2 
REMARK    2  A    between atoms: C_2  and  C_3 
REMARK    3  A    between atoms: C_2  and  O_4 
REMARK    4  A    between atoms: O_4  and  C_5 
REMARK    5  A    between atoms: C_8  and  C_11 
REMARK    6  A    between atoms: C_11  and  C_12 
REMARK    7  A    between atoms: C_12  and  C_14 
REMARK    8  A    between atoms: C_17  and  O_21 
REMARK    9  A    between atoms: C_19  and  O_20 
ROOT
ATOM      1  C   LIG d   1       5.032  -6.676  -5.585  0.00  0.00     0.121 A 
ATOM      2  C   LIG d   1       4.302  -5.497  -5.552  0.00  0.00    -0.020 A 
ATOM      3  C   LIG d   1       4.955  -4.283  -5.463  0.00  0.00    -0.055 A 
ATOM      4  C   LIG d   1       6.337  -4.244  -5.407  0.00  0.00    -0.040 A 
ATOM      5  C   LIG d   1       7.067  -5.417  -5.445  0.00  0.00    -0.055 A 
ATOM      6  C   LIG d   1       6.417  -6.633  -5.529  0.00  0.00    -0.020 A 
ATOM      7  H   LIG d   1       3.224  -5.527  -5.597  0.00  0.00     0.065 H 
ATOM      8  H   LIG d   1       4.389  -3.365  -5.437  0.00  0.00     0.062 H 
ATOM      9  H   LIG d   1       8.145  -5.383  -5.405  0.00  0.00     0.062 H 
ATOM     10  H   LIG d   1       6.988  -7.550  -5.554  0.00  0.00     0.065 H 
ENDROOT
BRANCH   4  11
ATOM     11  C   LIG d   1       7.048  -2.919  -5.310  0.00  0.00     0.036 C 
ATOM     12  H   LIG d   1       6.540  -2.228  -5.825  0.00  0.00     0.039 H 
ATOM     13  H   LIG d   1       8.051  -3.013  -5.723  0.00  0.00     0.039 H 
BRANCH  11  14
ATOM     14  C   LIG d   1       7.137  -2.501  -3.864  0.00  0.00     0.171 C 
ATOM     15  O   LIG d   1       7.977  -2.994  -3.141  0.00  0.00    -0.292 OA
BRANCH  14  16
ATOM     16  C   LIG d   1       6.206  -1.504  -3.331  0.00  0.00     0.059 A 
ATOM     17  C   LIG d   1       6.575  -0.148  -3.281  0.00  0.00     0.131 A 
ATOM     18  C   LIG d   1       5.684   0.785  -2.779  0.00  0.00     0.022 A 
ATOM     19  C   LIG d   1       4.440   0.379  -2.320  0.00  0.00     0.120 A 
ATOM     20  H   LIG d   1       5.959   1.830  -2.741  0.00  0.00     0.069 H 
ATOM     21  C   LIG d   1       4.080  -0.966  -2.366  0.00  0.00    -0.019 A 
ATOM     22  C   LIG d   1       4.944  -1.897  -2.862  0.00  0.00    -0.044 A 
ATOM     23  H   LIG d   1       3.109  -1.274  -2.005  0.00  0.00     0.065 H 
ATOM     24  H   LIG d   1       4.658  -2.938  -2.893  0.00  0.00     0.063 H 
BRANCH  17  25
ATOM     25  O   LIG d   1       7.794   0.244  -3.727  0.00  0.00    -0.506 OA
ATOM     26  H   LIG d   1       7.788   0.599  -4.627  0.00  0.00     0.292 HD
ENDBRANCH  17  25
BRANCH  19  27
ATOM     27  O   LIG d   1       3.571   1.294  -1.824  0.00  0.00    -0.507 OA
ATOM     28  H   LIG d   1       2.678   0.950  -1.677  0.00  0.00     0.292 HD
ENDBRANCH  19  27
ENDBRANCH  14  16
ENDBRANCH  11  14
ENDBRANCH   4  11
BRANCH   1  29
ATOM     29  O   LIG d   1       4.391  -7.871  -5.673  0.00  0.00    -0.489 OA
BRANCH  29  30
ATOM     30  C   LIG d   1       4.921  -8.827  -6.593  0.00  0.00     0.095 C 
ATOM     31  H   LIG d   1       5.997  -8.677  -6.693  0.00  0.00     0.073 H 
BRANCH  30  32
ATOM     32  C   LIG d   1       4.649 -10.240  -6.075  0.00  0.00    -0.028 C 
ATOM     33  H   LIG d   1       3.630 -10.531  -6.329  0.00  0.00     0.026 H 
ATOM     34  H   LIG d   1       5.351 -10.937  -6.534  0.00  0.00     0.026 H 
ATOM     35  H   LIG d   1       4.774 -10.260  -4.992  0.00  0.00     0.026 H 
ENDBRANCH  30  32
BRANCH  30  36
ATOM     36  C   LIG d   1       4.253  -8.646  -7.958  0.00  0.00    -0.028 C 
ATOM     37  H   LIG d   1       4.795  -9.224  -8.707  0.00  0.00     0.026 H 
ATOM     38  H   LIG d   1       3.222  -8.994  -7.908  0.00  0.00     0.026 H 
ATOM     39  H   LIG d   1       4.268  -7.592  -8.233  0.00  0.00     0.026 H 
ENDBRANCH  30  36
ENDBRANCH  29  30
ENDBRANCH   1  29
TORSDOF 9
ENDMDL
MODEL 3
REMARK VINA RESULT:      -5.3      1.885      3.237
REMARK  9 active torsions:
REMARK  status: ('A' for Active; 'I' for Inactive)
REMARK    1  A    between atoms: C_1  and  C_2 
REMARK    2  A    between atoms: C_2  and  C_3 
REMARK    3  A    between atoms: C_2  and  O_4 
REMARK    4  A    between atoms: O_4  and  C_5 
REMARK    5  A    between atoms: C_8  and  C_11 
REMARK    6  A    between atoms: C_11  and  C_12 
REMARK    7  A    between atoms: C_12  and  C_14 
REMARK    8  A    between atoms: C_17  and  O_21 
REMARK    9  A    between atoms: C_19  and  O_20 
ROOT
ATOM      1  C   LIG d   1       3.267  -0.005  -7.503  0.00  0.00     0.121 A 
ATOM      2  C   LIG d   1       4.083  -1.126  -7.528  0.00  0.00    -0.020 A 
ATOM      3  C   LIG d   1       4.417  -1.763  -6.349  0.00  0.00    -0.055 A 
ATOM      4  C   LIG d   1       3.937  -1.283  -5.144  0.00  0.00    -0.040 A 
ATOM      5  C   LIG d   1       3.119  -0.169  -5.116  0.00  0.00    -0.055 A 
ATOM      6  C   LIG d   1       2.788   0.473  -6.292  0.00  0.00    -0.020 A 
ATOM      7  H   LIG d   1       4.457  -1.502  -8.469  0.00  0.00     0.065 H 
ATOM      8  H   LIG d   1       5.052  -2.636  -6.367  0.00  0.00     0.062 H 
ATOM      9  H   LIG d   1       2.743   0.200  -4.174  0.00  0.00     0.062 H 
ATOM     10  H   LIG d   1       2.152   1.347  -6.270  0.00  0.00     0.065 H 
ENDROOT
BRANCH   4  11
ATOM     11  C   LIG d   1       4.303  -1.980  -3.858  0.00  0.00     0.036 C 
ATOM     12  H   LIG d   1       4.854  -2.789  -4.062  0.00  0.00     0.039 H 
ATOM     13  H   LIG d   1       3.394  -2.282  -3.338  0.00  0.00     0.039 H 
BRANCH  11  14
ATOM     14  C   LIG d   1       5.094  -1.041  -2.985  0.00  0.00     0.171 C 
ATOM     15  O   LIG d   1       4.735  -0.824  -1.846  0.00  0.00    -0.292 OA
BRANCH  14  16
ATOM     16  C   LIG d   1       6.293  -0.385  -3.512  0.00  0.00     0.059 A 
ATOM     17  C   LIG d   1       6.437   1.010  -3.410  0.00  0.00     0.131 A 
ATOM     18  C   LIG d   1       7.577   1.618  -3.909  0.00  0.00     0.022 A 
ATOM     19  C   LIG d   1       8.563   0.851  -4.513  0.00  0.00     0.120 A 
ATOM     20  H   LIG d   1       7.698   2.689  -3.831  0.00  0.00     0.069 H 
ATOM     21  C   LIG d   1       8.414  -0.530  -4.617  0.00  0.00    -0.019 A 
ATOM     22  C   LIG d   1       7.298  -1.144  -4.126  0.00  0.00    -0.044 A 
ATOM     23  H   LIG d   1       9.186  -1.118  -5.090  0.00  0.00     0.065 H 
ATOM     24  H   LIG d   1       7.190  -2.215  -4.212  0.00  0.00     0.063 H 
BRANCH  17  25
ATOM     25  O   LIG d   1       5.469   1.756  -2.824  0.00  0.00    -0.506 OA
ATOM     26  H   LIG d   1       5.027   1.315  -2.084  0.00  0.00     0.292 HD
ENDBRANCH  17  25
BRANCH  19  27
ATOM     27  O   LIG d   1       9.676   1.449  -5.005  0.00  0.00    -0.507 OA
ATOM     28  H   LIG d   1       9.908   2.277  -4.562  0.00  0.00     0.292 HD
ENDBRANCH  19  27
ENDBRANCH  14  16
ENDBRANCH  11  14
ENDBRANCH   4  11
BRANCH   1  29
ATOM     29  O   LIG d   1       2.937   0.623  -8.662  0.00  0.00    -0.489 OA
BRANCH  29  30
ATOM     30  C   LIG d   1       4.004   1.215  -9.406  0.00  0.00     0.095 C 
ATOM     31  H   LIG d   1       4.957   0.821  -9.052  0.00  0.00     0.073 H 
BRANCH  30  32
ATOM     32  C   LIG d   1       3.835   0.886 -10.891  0.00  0.00    -0.028 C 
ATOM     33  H   LIG d   1       3.288  -0.050 -10.996  0.00  0.00     0.026 H 
ATOM     34  H   LIG d   1       3.282   1.688 -11.380  0.00  0.00     0.026 H 
ATOM     35  H   LIG d   1       4.817   0.788 -11.354  0.00  0.00     0.026 H 
ENDBRANCH  30  32
BRANCH  30  36
ATOM     36  C   LIG d   1       3.979   2.733  -9.214  0.00  0.00    -0.028 C 
ATOM     37  H   LIG d   1       3.036   3.131  -9.590  0.00  0.00     0.026 H 
ATOM     38  H   LIG d   1       4.075   2.968  -8.154  0.00  0.00     0.026 H 
ATOM     39  H   LIG d   1       4.807   3.183  -9.762  0.00  0.00     0.026 H 
ENDBRANCH  30  36
ENDBRANCH  29  30
ENDBRANCH   1  29
TORSDOF 9
ENDMDL
MODEL 4
REMARK VINA RESULT:      -5.2      2.427      6.767
REMARK  9 active torsions:
REMARK  status: ('A' for Active; 'I' for Inactive)
REMARK    1  A    between atoms: C_1  and  C_2 
REMARK    2  A    between atoms: C_2  and  C_3 
REMARK    3  A    between atoms: C_2  and  O_4 
REMARK    4  A    between atoms: O_4  and  C_5 
REMARK    5  A    between atoms: C_8  and  C_11 
REMARK    6  A    between atoms: C_11  and  C_12 
REMARK    7  A    between atoms: C_12  and  C_14 
REMARK    8  A    between atoms: C_17  and  O_21 
REMARK    9  A    between atoms: C_19  and  O_20 
ROOT
ATOM      1  C   LIG d   1       3.779  -0.356  -5.371  0.00  0.00     0.121 A 
ATOM      2  C   LIG d   1       2.825   0.325  -6.113  0.00  0.00    -0.020 A 
ATOM      3  C   LIG d   1       3.129   0.774  -7.383  0.00  0.00    -0.055 A 
ATOM      4  C   LIG d   1       4.385   0.543  -7.915  0.00  0.00    -0.040 A 
ATOM      5  C   LIG d   1       5.336  -0.140  -7.180  0.00  0.00    -0.055 A 
ATOM      6  C   LIG d   1       5.037  -0.585  -5.908  0.00  0.00    -0.020 A 
ATOM      7  H   LIG d   1       1.844   0.505  -5.698  0.00  0.00     0.065 H 
ATOM      8  H   LIG d   1       2.388   1.304  -7.962  0.00  0.00     0.062 H 
ATOM      9  H   LIG d   1       6.314  -0.322  -7.600  0.00  0.00     0.062 H 
ATOM     10  H   LIG d   1       5.782  -1.116  -5.332  0.00  0.00     0.065 H 
ENDROOT
BRANCH   4  11
ATOM     11  C   LIG d   1       4.715   1.033  -9.302  0.00  0.00     0.036 C 
ATOM     12  H   LIG d   1       5.636   1.422  -9.309  0.00  0.00     0.039 H 
ATOM     13  H   LIG d   1       3.997   1.798  -9.597  0.00  0.00     0.039 H 
BRANCH  11  14
ATOM     14  C   LIG d   1       4.650  -0.119 -10.271  0.00  0.00     0.171 C 
ATOM     15  O   LIG d   1       5.553  -0.300 -11.060  0.00  0.00    -0.292 OA
BRANCH  14  16
ATOM     16  C   LIG d   1       3.493  -1.018 -10.263  0.00  0.00     0.059 A 
ATOM     17  C   LIG d   1       3.638  -2.352  -9.840  0.00  0.00     0.131 A 
ATOM     18  C   LIG d   1       2.536  -3.190  -9.832  0.00  0.00     0.022 A 
ATOM     19  C   LIG d   1       1.301  -2.715 -10.252  0.00  0.00     0.120 A 
ATOM     20  H   LIG d   1       2.637  -4.214  -9.505  0.00  0.00     0.069 H 
ATOM     21  C   LIG d   1       1.163  -1.395 -10.675  0.00  0.00    -0.019 A 
ATOM     22  C   LIG d   1       2.238  -0.556 -10.683  0.00  0.00    -0.044 A 
ATOM     23  H   LIG d   1       0.198  -1.035 -11.001  0.00  0.00     0.065 H 
ATOM     24  H   LIG d   1       2.123   0.466 -11.015  0.00  0.00     0.063 H 
BRANCH  17  25
ATOM     25  O   LIG d   1       4.847  -2.812  -9.436  0.00  0.00    -0.506 OA
ATOM     26  H   LIG d   1       5.436  -2.124  -9.095  0.00  0.00     0.292 HD
ENDBRANCH  17  25
BRANCH  19  27
ATOM     27  O   LIG d   1       0.224  -3.539 -10.249  0.00  0.00    -0.507 OA
ATOM     28  H   LIG d   1      -0.615  -3.090 -10.079  0.00  0.00     0.292 HD
ENDBRANCH  19  27
ENDBRANCH  14  16
ENDBRANCH  11  14
ENDBRANCH   4  11
BRANCH   1  29
ATOM     29  O   LIG d   1       3.481  -0.798  -4.121  0.00  0.00    -0.489 OA
BRANCH  29  30
ATOM     30  C   LIG d   1       4.287  -0.305  -3.048  0.00  0.00     0.095 C 
ATOM     31  H   LIG d   1       5.288  -0.083  -3.418  0.00  0.00     0.073 H 
BRANCH  30  32
ATOM     32  C   LIG d   1       3.658   0.968  -2.480  0.00  0.00    -0.028 C 
ATOM     33  H   LIG d   1       2.575   0.916  -2.582  0.00  0.00     0.026 H 
ATOM     34  H   LIG d   1       3.920   1.064  -1.426  0.00  0.00     0.026 H 
ATOM     35  H   LIG d   1       4.034   1.834  -3.027  0.00  0.00     0.026 H 
ENDBRANCH  30  32
BRANCH  30  36
ATOM     36  C   LIG d   1       4.376  -1.366  -1.948  0.00  0.00    -0.028 C 
ATOM     37  H   LIG d   1       5.346  -1.297  -1.455  0.00  0.00     0.026 H 
ATOM     38  H   LIG d   1       3.585  -1.199  -1.218  0.00  0.00     0.026 H 
ATOM     39  H   LIG d   1       4.261  -2.356  -2.388  0.00  0.00     0.026 H 
ENDBRANCH  30  36
ENDBRANCH  29  30
ENDBRANCH   1  29
TORSDOF 9
ENDMDL
MODEL 5
REMARK VINA RESULT:      -5.2      4.606      6.379
REMARK  9 active torsions:
REMARK  status: ('A' for Active; 'I' for Inactive)
REMARK    1  A    between atoms: C_1  and  C_2 
REMARK    2  A    between atoms: C_2  and  C_3 
REMARK    3  A    between atoms: C_2  and  O_4 
REMARK    4  A    between atoms: O_4  and  C_5 
REMARK    5  A    between atoms: C_8  and  C_11 
REMARK    6  A    between atoms: C_11  and  C_12 
REMARK    7  A    between atoms: C_12  and  C_14 
REMARK    8  A    between atoms: C_17  and  O_21 
REMARK    9  A    between atoms: C_19  and  O_20 
ROOT
ATOM      1  C   LIG d   1       6.424  -0.215  -4.322  0.00  0.00     0.121 A 
ATOM      2  C   LIG d   1       6.886  -0.254  -5.630  0.00  0.00    -0.020 A 
ATOM      3  C   LIG d   1       7.729   0.737  -6.093  0.00  0.00    -0.055 A 
ATOM      4  C   LIG d   1       8.113   1.767  -5.254  0.00  0.00    -0.040 A 
ATOM      5  C   LIG d   1       7.658   1.806  -3.949  0.00  0.00    -0.055 A 
ATOM      6  C   LIG d   1       6.811   0.820  -3.484  0.00  0.00    -0.020 A 
ATOM      7  H   LIG d   1       6.587  -1.059  -6.285  0.00  0.00     0.065 H 
ATOM      8  H   LIG d   1       8.089   0.708  -7.111  0.00  0.00     0.062 H 
ATOM      9  H   LIG d   1       7.963   2.609  -3.296  0.00  0.00     0.062 H 
ATOM     10  H   LIG d   1       6.452   0.852  -2.465  0.00  0.00     0.065 H 
ENDROOT
BRANCH   4  11
ATOM     11  C   LIG d   1       9.033   2.847  -5.763  0.00  0.00     0.036 C 
ATOM     12  H   LIG d   1       8.509   3.683  -5.925  0.00  0.00     0.039 H 
ATOM     13  H   LIG d   1       9.495   2.522  -6.694  0.00  0.00     0.039 H 
BRANCH  11  14
ATOM     14  C   LIG d   1      10.104   3.118  -4.738  0.00  0.00     0.171 C 
ATOM     15  O   LIG d   1      11.038   2.352  -4.619  0.00  0.00    -0.292 OA
BRANCH  14  16
ATOM     16  C   LIG d   1      10.016   4.303  -3.881  0.00  0.00     0.059 A 
ATOM     17  C   LIG d   1      10.415   4.232  -2.535  0.00  0.00     0.131 A 
ATOM     18  C   LIG d   1      10.331   5.361  -1.737  0.00  0.00     0.022 A 
ATOM     19  C   LIG d   1       9.846   6.548  -2.265  0.00  0.00     0.120 A 
ATOM     20  H   LIG d   1      10.640   5.316  -0.702  0.00  0.00     0.069 H 
ATOM     21  C   LIG d   1       9.447   6.613  -3.598  0.00  0.00    -0.019 A 
ATOM     22  C   LIG d   1       9.528   5.511  -4.398  0.00  0.00    -0.044 A 
ATOM     23  H   LIG d   1       9.069   7.541  -4.000  0.00  0.00     0.065 H 
ATOM     24  H   LIG d   1       9.215   5.569  -5.430  0.00  0.00     0.063 H 
BRANCH  17  25
ATOM     25  O   LIG d   1      10.884   3.068  -2.022  0.00  0.00    -0.506 OA
ATOM     26  H   LIG d   1      11.812   2.892  -2.231  0.00  0.00     0.292 HD
ENDBRANCH  17  25
BRANCH  19  27
ATOM     27  O   LIG d   1       9.760   7.651  -1.481  0.00  0.00    -0.507 OA
ATOM     28  H   LIG d   1       9.129   7.568  -0.752  0.00  0.00     0.292 HD
ENDBRANCH  19  27
ENDBRANCH  14  16
ENDBRANCH  11  14
ENDBRANCH   4  11
BRANCH   1  29
ATOM     29  O   LIG d   1       5.595  -1.189  -3.864  0.00  0.00    -0.489 OA
BRANCH  29  30
ATOM     30  C   LIG d   1       4.439  -0.769  -3.136  0.00  0.00     0.095 C 
ATOM     31  H   LIG d   1       4.703   0.064  -2.484  0.00  0.00     0.073 H 
BRANCH  30  32
ATOM     32  C   LIG d   1       3.351  -0.325  -4.116  0.00  0.00    -0.028 C 
ATOM     33  H   LIG d   1       2.391  -0.291  -3.602  0.00  0.00     0.026 H 
ATOM     34  H   LIG d   1       3.592   0.666  -4.502  0.00  0.00     0.026 H 
ATOM     35  H   LIG d   1       3.296  -1.033  -4.943  0.00  0.00     0.026 H 
ENDBRANCH  30  32
BRANCH  30  36
ATOM     36  C   LIG d   1       3.919  -1.933  -2.289  0.00  0.00    -0.028 C 
ATOM     37  H   LIG d   1       4.755  -2.412  -1.778  0.00  0.00     0.026 H 
ATOM     38  H   LIG d   1       3.210  -1.558  -1.552  0.00  0.00     0.026 H 
ATOM     39  H   LIG d   1       3.423  -2.659  -2.934  0.00  0.00     0.026 H 
ENDBRANCH  30  36
ENDBRANCH  29  30
ENDBRANCH   1  29
TORSDOF 9
ENDMDL
MODEL 6
REMARK VINA RESULT:      -5.2      3.199      6.508
REMARK  9 active torsions:
REMARK  status: ('A' for Active; 'I' for Inactive)
REMARK    1  A    between atoms: C_1  and  C_2 
REMARK    2  A    between atoms: C_2  and  C_3 
REMARK    3  A    between atoms: C_2  and  O_4 
REMARK    4  A    between atoms: O_4  and  C_5 
REMARK    5  A    between atoms: C_8  and  C_11 
REMARK    6  A    between atoms: C_11  and  C_12 
REMARK    7  A    between atoms: C_12  and  C_14 
REMARK    8  A    between atoms: C_17  and  O_21 
REMARK    9  A    between atoms: C_19  and  O_20 
ROOT
ATOM      1  C   LIG d   1       9.449  -4.896  -3.278  0.00  0.00     0.121 A 
ATOM      2  C   LIG d   1       9.046  -3.592  -3.025  0.00  0.00    -0.020 A 
ATOM      3  C   LIG d   1       8.006  -3.039  -3.745  0.00  0.00    -0.055 A 
ATOM      4  C   LIG d   1       7.366  -3.784  -4.719  0.00  0.00    -0.040 A 
ATOM      5  C   LIG d   1       7.762  -5.084  -4.971  0.00  0.00    -0.055 A 
ATOM      6  C   LIG d   1       8.805  -5.640  -4.256  0.00  0.00    -0.020 A 
ATOM      7  H   LIG d   1       9.545  -3.011  -2.264  0.00  0.00     0.065 H 
ATOM      8  H   LIG d   1       7.692  -2.025  -3.549  0.00  0.00     0.062 H 
ATOM      9  H   LIG d   1       7.257  -5.665  -5.728  0.00  0.00     0.062 H 
ATOM     10  H   LIG d   1       9.117  -6.655  -4.455  0.00  0.00     0.065 H 
ENDROOT
BRANCH   4  11
ATOM     11  C   LIG d   1       6.232  -3.178  -5.504  0.00  0.00     0.036 C 
ATOM     12  H   LIG d   1       6.086  -3.704  -6.342  0.00  0.00     0.039 H 
ATOM     13  H   LIG d   1       6.477  -2.148  -5.762  0.00  0.00     0.039 H 
BRANCH  11  14
ATOM     14  C   LIG d   1       4.976  -3.202  -4.672  0.00  0.00     0.171 C 
ATOM     15  O   LIG d   1       4.323  -4.220  -4.587  0.00  0.00    -0.292 OA
BRANCH  14  16
ATOM     16  C   LIG d   1       4.540  -1.993  -3.969  0.00  0.00     0.059 A 
ATOM     17  C   LIG d   1       3.896  -0.959  -4.673  0.00  0.00     0.131 A 
ATOM     18  C   LIG d   1       3.485   0.176  -3.995  0.00  0.00     0.022 A 
ATOM     19  C   LIG d   1       3.720   0.294  -2.633  0.00  0.00     0.120 A 
ATOM     20  H   LIG d   1       2.986   0.973  -4.528  0.00  0.00     0.069 H 
ATOM     21  C   LIG d   1       4.363  -0.729  -1.940  0.00  0.00    -0.019 A 
ATOM     22  C   LIG d   1       4.769  -1.857  -2.592  0.00  0.00    -0.044 A 
ATOM     23  H   LIG d   1       4.542  -0.629  -0.880  0.00  0.00     0.065 H 
ATOM     24  H   LIG d   1       5.268  -2.645  -2.048  0.00  0.00     0.063 H 
BRANCH  17  25
ATOM     25  O   LIG d   1       3.674  -1.076  -6.005  0.00  0.00    -0.506 OA
ATOM     26  H   LIG d   1       2.963  -0.510  -6.336  0.00  0.00     0.292 HD
ENDBRANCH  17  25
BRANCH  19  27
ATOM     27  O   LIG d   1       3.321   1.409  -1.973  0.00  0.00    -0.507 OA
ATOM     28  H   LIG d   1       2.443   1.338  -1.573  0.00  0.00     0.292 HD
ENDBRANCH  19  27
ENDBRANCH  14  16
ENDBRANCH  11  14
ENDBRANCH   4  11
BRANCH   1  29
ATOM     29  O   LIG d   1      10.472  -5.442  -2.570  0.00  0.00    -0.489 OA
BRANCH  29  30
ATOM     30  C   LIG d   1      11.239  -6.459  -3.217  0.00  0.00     0.095 C 
ATOM     31  H   LIG d   1      10.650  -6.905  -4.019  0.00  0.00     0.073 H 
BRANCH  30  32
ATOM     32  C   LIG d   1      12.514  -5.845  -3.799  0.00  0.00    -0.028 C 
ATOM     33  H   LIG d   1      13.106  -5.407  -2.997  0.00  0.00     0.026 H 
ATOM     34  H   LIG d   1      13.095  -6.621  -4.298  0.00  0.00     0.026 H 
ATOM     35  H   LIG d   1      12.247  -5.072  -4.520  0.00  0.00     0.026 H 
ENDBRANCH  30  32
BRANCH  30  36
ATOM     36  C   LIG d   1      11.612  -7.541  -2.200  0.00  0.00    -0.028 C 
ATOM     37  H   LIG d   1      11.886  -7.070  -1.255  0.00  0.00     0.026 H 
ATOM     38  H   LIG d   1      10.761  -8.202  -2.043  0.00  0.00     0.026 H 
ATOM     39  H   LIG d   1      12.457  -8.118  -2.576  0.00  0.00     0.026 H 
ENDBRANCH  30  36
ENDBRANCH  29  30
ENDBRANCH   1  29
TORSDOF 9
ENDMDL
MODEL 7
REMARK VINA RESULT:      -5.1      1.554      2.036
REMARK  9 active torsions:
REMARK  status: ('A' for Active; 'I' for Inactive)
REMARK    1  A    between atoms: C_1  and  C_2 
REMARK    2  A    between atoms: C_2  and  C_3 
REMARK    3  A    between atoms: C_2  and  O_4 
REMARK    4  A    between atoms: O_4  and  C_5 
REMARK    5  A    between atoms: C_8  and  C_11 
REMARK    6  A    between atoms: C_11  and  C_12 
REMARK    7  A    between atoms: C_12  and  C_14 
REMARK    8  A    between atoms: C_17  and  O_21 
REMARK    9  A    between atoms: C_19  and  O_20 
ROOT
ATOM      1  C   LIG d   1       5.926   0.115  -8.833  0.00  0.00     0.121 A 
ATOM      2  C   LIG d   1       5.700  -1.233  -8.592  0.00  0.00    -0.020 A 
ATOM      3  C   LIG d   1       6.276  -1.843  -7.494  0.00  0.00    -0.055 A 
ATOM      4  C   LIG d   1       7.076  -1.110  -6.636  0.00  0.00    -0.040 A 
ATOM      5  C   LIG d   1       7.298   0.234  -6.872  0.00  0.00    -0.055 A 
ATOM      6  C   LIG d   1       6.729   0.846  -7.971  0.00  0.00    -0.020 A 
ATOM      7  H   LIG d   1       5.074  -1.805  -9.260  0.00  0.00     0.065 H 
ATOM      8  H   LIG d   1       6.101  -2.891  -7.305  0.00  0.00     0.062 H 
ATOM      9  H   LIG d   1       7.920   0.804  -6.198  0.00  0.00     0.062 H 
ATOM     10  H   LIG d   1       6.906   1.896  -8.157  0.00  0.00     0.065 H 
ENDROOT
BRANCH   4  11
ATOM     11  C   LIG d   1       7.703  -1.778  -5.440  0.00  0.00     0.036 C 
ATOM     12  H   LIG d   1       8.287  -1.123  -4.960  0.00  0.00     0.039 H 
ATOM     13  H   LIG d   1       8.303  -2.625  -5.769  0.00  0.00     0.039 H 
BRANCH  11  14
ATOM     14  C   LIG d   1       6.620  -2.260  -4.509  0.00  0.00     0.171 C 
ATOM     15  O   LIG d   1       6.478  -3.448  -4.309  0.00  0.00    -0.292 OA
BRANCH  14  16
ATOM     16  C   LIG d   1       5.736  -1.296  -3.851  0.00  0.00     0.059 A 
ATOM     17  C   LIG d   1       4.342  -1.472  -3.892  0.00  0.00     0.131 A 
ATOM     18  C   LIG d   1       3.517  -0.556  -3.262  0.00  0.00     0.022 A 
ATOM     19  C   LIG d   1       4.069   0.534  -2.604  0.00  0.00     0.120 A 
ATOM     20  H   LIG d   1       2.445  -0.687  -3.286  0.00  0.00     0.069 H 
ATOM     21  C   LIG d   1       5.450   0.709  -2.570  0.00  0.00    -0.019 A 
ATOM     22  C   LIG d   1       6.276  -0.188  -3.182  0.00  0.00    -0.044 A 
ATOM     23  H   LIG d   1       5.870   1.561  -2.057  0.00  0.00     0.065 H 
ATOM     24  H   LIG d   1       7.346  -0.044  -3.152  0.00  0.00     0.063 H 
BRANCH  17  25
ATOM     25  O   LIG d   1       3.808  -2.536  -4.540  0.00  0.00    -0.506 OA
ATOM     26  H   LIG d   1       4.024  -2.572  -5.483  0.00  0.00     0.292 HD
ENDBRANCH  17  25
BRANCH  19  27
ATOM     27  O   LIG d   1       3.259   1.434  -1.992  0.00  0.00    -0.507 OA
ATOM     28  H   LIG d   1       2.694   1.052  -1.306  0.00  0.00     0.292 HD
ENDBRANCH  19  27
ENDBRANCH  14  16
ENDBRANCH  11  14
ENDBRANCH   4  11
BRANCH   1  29
ATOM     29  O   LIG d   1       5.360   0.716  -9.912  0.00  0.00    -0.489 OA
BRANCH  29  30
ATOM     30  C   LIG d   1       3.942   0.894  -9.888  0.00  0.00     0.095 C 
ATOM     31  H   LIG d   1       3.531   0.416  -8.998  0.00  0.00     0.073 H 
BRANCH  30  32
ATOM     32  C   LIG d   1       3.615   2.389  -9.862  0.00  0.00    -0.028 C 
ATOM     33  H   LIG d   1       2.702   2.571 -10.427  0.00  0.00     0.026 H 
ATOM     34  H   LIG d   1       3.475   2.712  -8.830  0.00  0.00     0.026 H 
ATOM     35  H   LIG d   1       4.438   2.948 -10.309  0.00  0.00     0.026 H 
ENDBRANCH  30  32
BRANCH  30  36
ATOM     36  C   LIG d   1       3.327   0.259 -11.137  0.00  0.00    -0.028 C 
ATOM     37  H   LIG d   1       3.212   1.018 -11.911  0.00  0.00     0.026 H 
ATOM     38  H   LIG d   1       3.978  -0.535 -11.500  0.00  0.00     0.026 H 
ATOM     39  H   LIG d   1       2.350  -0.157 -10.890  0.00  0.00     0.026 H 
ENDBRANCH  30  36
ENDBRANCH  29  30
ENDBRANCH   1  29
TORSDOF 9
ENDMDL
MODEL 8
REMARK VINA RESULT:      -5.1     13.476     15.613
REMARK  9 active torsions:
REMARK  status: ('A' for Active; 'I' for Inactive)
REMARK    1  A    between atoms: C_1  and  C_2 
REMARK    2  A    between atoms: C_2  and  C_3 
REMARK    3  A    between atoms: C_2  and  O_4 
REMARK    4  A    between atoms: O_4  and  C_5 
REMARK    5  A    between atoms: C_8  and  C_11 
REMARK    6  A    between atoms: C_11  and  C_12 
REMARK    7  A    between atoms: C_12  and  C_14 
REMARK    8  A    between atoms: C_17  and  O_21 
REMARK    9  A    between atoms: C_19  and  O_20 
ROOT
ATOM      1  C   LIG d   1      -0.472   9.183 -15.660  0.00  0.00     0.121 A 
ATOM      2  C   LIG d   1      -1.533   9.966 -16.091  0.00  0.00    -0.020 A 
ATOM      3  C   LIG d   1      -2.828   9.612 -15.768  0.00  0.00    -0.055 A 
ATOM      4  C   LIG d   1      -3.068   8.476 -15.015  0.00  0.00    -0.040 A 
ATOM      5  C   LIG d   1      -2.012   7.697 -14.580  0.00  0.00    -0.055 A 
ATOM      6  C   LIG d   1      -0.716   8.045 -14.905  0.00  0.00    -0.020 A 
ATOM      7  H   LIG d   1      -1.347  10.853 -16.677  0.00  0.00     0.065 H 
ATOM      8  H   LIG d   1      -3.655  10.221 -16.103  0.00  0.00     0.062 H 
ATOM      9  H   LIG d   1      -2.202   6.814 -13.989  0.00  0.00     0.062 H 
ATOM     10  H   LIG d   1       0.109   7.433 -14.569  0.00  0.00     0.065 H 
ENDROOT
BRANCH   4  11
ATOM     11  C   LIG d   1      -4.482   8.091 -14.664  0.00  0.00     0.036 C 
ATOM     12  H   LIG d   1      -5.119   8.725 -15.102  0.00  0.00     0.039 H 
ATOM     13  H   LIG d   1      -4.613   8.135 -13.583  0.00  0.00     0.039 H 
BRANCH  11  14
ATOM     14  C   LIG d   1      -4.756   6.690 -15.147  0.00  0.00     0.171 C 
ATOM     15  O   LIG d   1      -4.736   6.443 -16.335  0.00  0.00    -0.292 OA
BRANCH  14  16
ATOM     16  C   LIG d   1      -5.052   5.628 -14.183  0.00  0.00     0.059 A 
ATOM     17  C   LIG d   1      -4.103   4.621 -13.928  0.00  0.00     0.131 A 
ATOM     18  C   LIG d   1      -4.393   3.625 -13.011  0.00  0.00     0.022 A 
ATOM     19  C   LIG d   1      -5.618   3.619 -12.359  0.00  0.00     0.120 A 
ATOM     20  H   LIG d   1      -3.669   2.851 -12.806  0.00  0.00     0.069 H 
ATOM     21  C   LIG d   1      -6.557   4.615 -12.618  0.00  0.00    -0.019 A 
ATOM     22  C   LIG d   1      -6.284   5.606 -13.515  0.00  0.00    -0.044 A 
ATOM     23  H   LIG d   1      -7.508   4.601 -12.107  0.00  0.00     0.065 H 
ATOM     24  H   LIG d   1      -7.018   6.373 -13.712  0.00  0.00     0.063 H 
BRANCH  17  25
ATOM     25  O   LIG d   1      -2.910   4.629 -14.571  0.00  0.00    -0.506 OA
ATOM     26  H   LIG d   1      -2.937   5.045 -15.445  0.00  0.00     0.292 HD
ENDBRANCH  17  25
BRANCH  19  27
ATOM     27  O   LIG d   1      -5.902   2.640 -11.465  0.00  0.00    -0.507 OA
ATOM     28  H   LIG d   1      -5.338   1.858 -11.544  0.00  0.00     0.292 HD
ENDBRANCH  19  27
ENDBRANCH  14  16
ENDBRANCH  11  14
ENDBRANCH   4  11
BRANCH   1  29
ATOM     29  O   LIG d   1       0.803   9.530 -15.976  0.00  0.00    -0.489 OA
BRANCH  29  30
ATOM     30  C   LIG d   1       0.977  10.444 -17.062  0.00  0.00     0.095 C 
ATOM     31  H   LIG d   1       0.018  10.899 -17.311  0.00  0.00     0.073 H 
BRANCH  30  32
ATOM     32  C   LIG d   1       1.970  11.535 -16.656  0.00  0.00    -0.028 C 
ATOM     33  H   LIG d   1       2.300  12.074 -17.544  0.00  0.00     0.026 H 
ATOM     34  H   LIG d   1       1.487  12.229 -15.968  0.00  0.00     0.026 H 
ATOM     35  H   LIG d   1       2.830  11.078 -16.167  0.00  0.00     0.026 H 
ENDBRANCH  30  32
BRANCH  30  36
ATOM     36  C   LIG d   1       1.515   9.691 -18.281  0.00  0.00    -0.028 C 
ATOM     37  H   LIG d   1       0.802   8.920 -18.574  0.00  0.00     0.026 H 
ATOM     38  H   LIG d   1       1.655  10.388 -19.106  0.00  0.00     0.026 H 
ATOM     39  H   LIG d   1       2.468   9.228 -18.030  0.00  0.00     0.026 H 
ENDBRANCH  30  36
ENDBRANCH  29  30
ENDBRANCH   1  29
TORSDOF 9
ENDMDL
MODEL 9
REMARK VINA RESULT:      -5.0      2.757      5.010
REMARK  9 active torsions:
REMARK  status: ('A' for Active; 'I' for Inactive)
REMARK    1  A    between atoms: C_1  and  C_2 
REMARK    2  A    between atoms: C_2  and  C_3 
REMARK    3  A    between atoms: C_2  and  O_4 
REMARK    4  A    between atoms: O_4  and  C_5 
REMARK    5  A    between atoms: C_8  and  C_11 
REMARK    6  A    between atoms: C_11  and  C_12 
REMARK    7  A    between atoms: C_12  and  C_14 
REMARK    8  A    between atoms: C_17  and  O_21 
REMARK    9  A    between atoms: C_19  and  O_20 
ROOT
ATOM      1  C   LIG d   1       8.281   0.987  -4.400  0.00  0.00     0.121 A 
ATOM      2  C   LIG d   1       8.241  -0.400  -4.403  0.00  0.00    -0.020 A 
ATOM      3  C   LIG d   1       7.204  -1.062  -3.774  0.00  0.00    -0.055 A 
ATOM      4  C   LIG d   1       6.206  -0.342  -3.143  0.00  0.00    -0.040 A 
ATOM      5  C   LIG d   1       6.240   1.040  -3.143  0.00  0.00    -0.055 A 
ATOM      6  C   LIG d   1       7.277   1.705  -3.766  0.00  0.00    -0.020 A 
ATOM      7  H   LIG d   1       9.019  -0.962  -4.897  0.00  0.00     0.065 H 
ATOM      8  H   LIG d   1       7.172  -2.141  -3.776  0.00  0.00     0.062 H 
ATOM      9  H   LIG d   1       5.457   1.599  -2.654  0.00  0.00     0.062 H 
ATOM     10  H   LIG d   1       7.306   2.786  -3.763  0.00  0.00     0.065 H 
ENDROOT
BRANCH   4  11
ATOM     11  C   LIG d   1       5.076  -1.066  -2.458  0.00  0.00     0.036 C 
ATOM     12  H   LIG d   1       4.507  -0.408  -1.964  0.00  0.00     0.039 H 
ATOM     13  H   LIG d   1       5.484  -1.792  -1.754  0.00  0.00     0.039 H 
BRANCH  11  14
ATOM     14  C   LIG d   1       4.239  -1.780  -3.488  0.00  0.00     0.171 C 
ATOM     15  O   LIG d   1       3.918  -2.937  -3.313  0.00  0.00    -0.292 OA
BRANCH  14  16
ATOM     16  C   LIG d   1       3.818  -1.079  -4.703  0.00  0.00     0.059 A 
ATOM     17  C   LIG d   1       4.293  -1.495  -5.959  0.00  0.00     0.131 A 
ATOM     18  C   LIG d   1       3.884  -0.827  -7.101  0.00  0.00     0.022 A 
ATOM     19  C   LIG d   1       3.018   0.253  -6.999  0.00  0.00     0.120 A 
ATOM     20  H   LIG d   1       4.241  -1.143  -8.070  0.00  0.00     0.069 H 
ATOM     21  C   LIG d   1       2.553   0.665  -5.752  0.00  0.00    -0.019 A 
ATOM     22  C   LIG d   1       2.944   0.013  -4.619  0.00  0.00    -0.044 A 
ATOM     23  H   LIG d   1       1.881   1.507  -5.683  0.00  0.00     0.065 H 
ATOM     24  H   LIG d   1       2.580   0.340  -3.656  0.00  0.00     0.063 H 
BRANCH  17  25
ATOM     25  O   LIG d   1       5.143  -2.547  -6.053  0.00  0.00    -0.506 OA
ATOM     26  H   LIG d   1       4.954  -3.263  -5.431  0.00  0.00     0.292 HD
ENDBRANCH  17  25
BRANCH  19  27
ATOM     27  O   LIG d   1       2.622   0.909  -8.118  0.00  0.00    -0.507 OA
ATOM     28  H   LIG d   1       2.471   0.333  -8.880  0.00  0.00     0.292 HD
ENDBRANCH  19  27
ENDBRANCH  14  16
ENDBRANCH  11  14
ENDBRANCH   4  11
BRANCH   1  29
ATOM     29  O   LIG d   1       9.299   1.640  -5.019  0.00  0.00    -0.489 OA
BRANCH  29  30
ATOM     30  C   LIG d   1       8.948   2.561  -6.053  0.00  0.00     0.095 C 
ATOM     31  H   LIG d   1       7.865   2.683  -6.078  0.00  0.00     0.073 H 
BRANCH  30  32
ATOM     32  C   LIG d   1       9.608   3.914  -5.779  0.00  0.00    -0.028 C 
ATOM     33  H   LIG d   1       9.713   4.463  -6.713  0.00  0.00     0.026 H 
ATOM     34  H   LIG d   1       8.989   4.486  -5.087  0.00  0.00     0.026 H 
ATOM     35  H   LIG d   1      10.592   3.754  -5.337  0.00  0.00     0.026 H 
ENDBRANCH  30  32
BRANCH  30  36
ATOM     36  C   LIG d   1       9.430   2.022  -7.402  0.00  0.00    -0.028 C 
ATOM     37  H   LIG d   1      10.146   1.217  -7.235  0.00  0.00     0.026 H 
ATOM     38  H   LIG d   1       8.580   1.641  -7.967  0.00  0.00     0.026 H 
ATOM     39  H   LIG d   1       9.910   2.824  -7.963  0.00  0.00     0.026 H 
ENDBRANCH  30  36
ENDBRANCH  29  30
ENDBRANCH   1  29
TORSDOF 9
ENDMDL
MODEL 10
REMARK VINA RESULT:      -4.8      3.682      7.154
REMARK  9 active torsions:
REMARK  status: ('A' for Active; 'I' for Inactive)
REMARK    1  A    between atoms: C_1  and  C_2 
REMARK    2  A    between atoms: C_2  and  C_3 
REMARK    3  A    between atoms: C_2  and  O_4 
REMARK    4  A    between atoms: O_4  and  C_5 
REMARK    5  A    between atoms: C_8  and  C_11 
REMARK    6  A    between atoms: C_11  and  C_12 
REMARK    7  A    between atoms: C_12  and  C_14 
REMARK    8  A    between atoms: C_17  and  O_21 
REMARK    9  A    between atoms: C_19  and  O_20 
ROOT
ATOM      1  C   LIG d   1      10.142  -6.052  -2.886  0.00  0.00     0.121 A 
ATOM      2  C   LIG d   1       9.785  -5.042  -2.004  0.00  0.00    -0.020 A 
ATOM      3  C   LIG d   1       9.159  -3.904  -2.473  0.00  0.00    -0.055 A 
ATOM      4  C   LIG d   1       8.888  -3.771  -3.823  0.00  0.00    -0.040 A 
ATOM      5  C   LIG d   1       9.238  -4.778  -4.704  0.00  0.00    -0.055 A 
ATOM      6  C   LIG d   1       9.869  -5.914  -4.239  0.00  0.00    -0.020 A 
ATOM      7  H   LIG d   1       9.996  -5.146  -0.950  0.00  0.00     0.065 H 
ATOM      8  H   LIG d   1       8.881  -3.118  -1.788  0.00  0.00     0.062 H 
ATOM      9  H   LIG d   1       9.021  -4.673  -5.756  0.00  0.00     0.062 H 
ATOM     10  H   LIG d   1      10.146  -6.699  -4.928  0.00  0.00     0.065 H 
ENDROOT
BRANCH   4  11
ATOM     11  C   LIG d   1       8.205  -2.529  -4.333  0.00  0.00     0.036 C 
ATOM     12  H   LIG d   1       8.448  -2.383  -5.292  0.00  0.00     0.039 H 
ATOM     13  H   LIG d   1       8.525  -1.670  -3.744  0.00  0.00     0.039 H 
BRANCH  11  14
ATOM     14  C   LIG d   1       6.711  -2.692  -4.214  0.00  0.00     0.171 C 
ATOM     15  O   LIG d   1       6.172  -3.683  -4.658  0.00  0.00    -0.292 OA
BRANCH  14  16
ATOM     16  C   LIG d   1       5.910  -1.650  -3.567  0.00  0.00     0.059 A 
ATOM     17  C   LIG d   1       4.622  -1.945  -3.086  0.00  0.00     0.131 A 
ATOM     18  C   LIG d   1       3.877  -0.953  -2.472  0.00  0.00     0.022 A 
ATOM     19  C   LIG d   1       4.399   0.326  -2.345  0.00  0.00     0.120 A 
ATOM     20  H   LIG d   1       2.888  -1.173  -2.097  0.00  0.00     0.069 H 
ATOM     21  C   LIG d   1       5.673   0.617  -2.827  0.00  0.00    -0.019 A 
ATOM     22  C   LIG d   1       6.421  -0.352  -3.430  0.00  0.00    -0.044 A 
ATOM     23  H   LIG d   1       6.070   1.616  -2.724  0.00  0.00     0.065 H 
ATOM     24  H   LIG d   1       7.408  -0.118  -3.802  0.00  0.00     0.063 H 
BRANCH  17  25
ATOM     25  O   LIG d   1       4.115  -3.196  -3.218  0.00  0.00    -0.506 OA
ATOM     26  H   LIG d   1       3.149  -3.234  -3.177  0.00  0.00     0.292 HD
ENDBRANCH  17  25
BRANCH  19  27
ATOM     27  O   LIG d   1       3.665   1.298  -1.748  0.00  0.00    -0.507 OA
ATOM     28  H   LIG d   1       3.377   2.000  -2.349  0.00  0.00     0.292 HD
ENDBRANCH  19  27
ENDBRANCH  14  16
ENDBRANCH  11  14
ENDBRANCH   4  11
BRANCH   1  29
ATOM     29  O   LIG d   1      10.758  -7.172  -2.426  0.00  0.00    -0.489 OA
BRANCH  29  30
ATOM     30  C   LIG d   1      10.045  -7.958  -1.468  0.00  0.00     0.095 C 
ATOM     31  H   LIG d   1       9.653  -7.309  -0.685  0.00  0.00     0.073 H 
BRANCH  30  32
ATOM     32  C   LIG d   1       8.888  -8.680  -2.161  0.00  0.00    -0.028 C 
ATOM     33  H   LIG d   1       9.190  -9.697  -2.408  0.00  0.00     0.026 H 
ATOM     34  H   LIG d   1       8.026  -8.709  -1.493  0.00  0.00     0.026 H 
ATOM     35  H   LIG d   1       8.622  -8.147  -3.074  0.00  0.00     0.026 H 
ENDBRANCH  30  32
BRANCH  30  36
ATOM     36  C   LIG d   1      10.992  -8.988  -0.848  0.00  0.00    -0.028 C 
ATOM     37  H   LIG d   1      10.533  -9.410   0.046  0.00  0.00     0.026 H 
ATOM     38  H   LIG d   1      11.186  -9.784  -1.567  0.00  0.00     0.026 H 
ATOM     39  H   LIG d   1      11.931  -8.504  -0.580  0.00  0.00     0.026 H 
ENDBRANCH  30  36
ENDBRANCH  29  30
ENDBRANCH   1  29
TORSDOF 9
ENDMDL
