MODEL 1
REMARK VINA RESULT:      -5.5      0.000      0.000
REMARK  16 active torsions:
REMARK  status: ('A' for Active; 'I' for Inactive)
REMARK    1  A    between atoms: C_1  and  C_2 
REMARK    2  A    between atoms: C_2  and  C_3 
REMARK    3  A    between atoms: C_3  and  C_4 
REMARK    4  A    between atoms: C_13  and  O_15 
REMARK    5  A    between atoms: O_15  and  C_16 
REMARK    6  A    between atoms: C_16  and  C_18 
REMARK    7  A    between atoms: C_18  and  C_20 
REMARK    8  A    between atoms: C_18  and  N_24 
REMARK    9  A    between atoms: C_20  and  C_21 
REMARK   10  A    between atoms: C_21  and  S_22 
REMARK   11  A    between atoms: S_22  and  C_23 
REMARK       I    between atoms: N_24  and  C_25 
REMARK   12  A    between atoms: C_25  and  O_27 
REMARK   13  A    between atoms: O_27  and  C_28 
REMARK   14  A    between atoms: C_28  and  C_29 
REMARK   15  A    between atoms: C_28  and  C_30 
REMARK   16  A    between atoms: C_28  and  C_31 
ROOT
ATOM      1  C   LIG d   1       7.726  -2.628  -4.485  0.00  0.00     0.124 C 
ATOM      2  H   LIG d   1       8.322  -1.936  -5.080  0.00  0.00     0.062 H 
ENDROOT
BRANCH   1   3
ATOM      3  C   LIG d   1       6.774  -3.372  -5.387  0.00  0.00     0.333 C 
ATOM      4  O   LIG d   1       5.946  -4.113  -4.912  0.00  0.00    -0.248 OA
BRANCH   3   5
ATOM      5  O   LIG d   1       6.847  -3.212  -6.719  0.00  0.00    -0.423 OA
BRANCH   5   6
ATOM      6  C   LIG d   1       5.781  -2.632  -7.329  0.00  0.00     0.153 A 
ATOM      7  C   LIG d   1       4.909  -3.413  -8.087  0.00  0.00     0.084 A 
ATOM      8  C   LIG d   1       3.833  -2.845  -8.705  0.00  0.00    -0.029 A 
ATOM      9 CL   LIG d   1       5.195  -5.118  -8.245  0.00  0.00    -0.080 Cl
ATOM     10  C   LIG d   1       3.603  -1.471  -8.578  0.00  0.00     0.022 A 
ATOM     11  H   LIG d   1       3.161  -3.454  -9.292  0.00  0.00     0.064 H 
ATOM     12  C   LIG d   1       2.456  -0.834  -9.230  0.00  0.00    -0.030 A 
ATOM     13  C   LIG d   1       4.479  -0.677  -7.813  0.00  0.00     0.143 A 
ATOM     14  C   LIG d   1       2.287   0.504  -9.068  0.00  0.00     0.027 A 
ATOM     15  C   LIG d   1       3.205   1.238  -8.289  0.00  0.00     0.338 A 
ATOM     16  H   LIG d   1       1.452   1.005  -9.536  0.00  0.00     0.069 H 
ATOM     17  O   LIG d   1       3.042   2.437  -8.151  0.00  0.00    -0.245 OA
ATOM     18  O   LIG d   1       4.253   0.648  -7.692  0.00  0.00    -0.422 OA
ATOM     19  C   LIG d   1       5.564  -1.272  -7.187  0.00  0.00     0.025 A 
ATOM     20  H   LIG d   1       6.242  -0.674  -6.595  0.00  0.00     0.069 H 
BRANCH  12  21
ATOM     21  C   LIG d   1       1.490  -1.641 -10.059  0.00  0.00    -0.027 C 
ATOM     22  H   LIG d   1       1.865  -2.658 -10.167  0.00  0.00     0.031 H 
ATOM     23  H   LIG d   1       0.518  -1.662  -9.565  0.00  0.00     0.031 H 
BRANCH  21  24
ATOM     24  C   LIG d   1       1.345  -1.000 -11.441  0.00  0.00    -0.052 C 
ATOM     25  H   LIG d   1       0.433  -1.363 -11.915  0.00  0.00     0.027 H 
ATOM     26  H   LIG d   1       1.293   0.084 -11.334  0.00  0.00     0.027 H 
BRANCH  24  27
ATOM     27  C   LIG d   1       2.552  -1.370 -12.303  0.00  0.00    -0.065 C 
ATOM     28  H   LIG d   1       2.220  -1.600 -13.316  0.00  0.00     0.023 H 
ATOM     29  H   LIG d   1       3.250  -0.532 -12.332  0.00  0.00     0.023 H 
ATOM     30  H   LIG d   1       3.049  -2.242 -11.877  0.00  0.00     0.023 H 
ENDBRANCH  24  27
ENDBRANCH  21  24
ENDBRANCH  12  21
ENDBRANCH   5   6
ENDBRANCH   3   5
ENDBRANCH   1   3
BRANCH   1  31
ATOM     31  C   LIG d   1       8.651  -3.626  -3.786  0.00  0.00    -0.015 C 
ATOM     32  H   LIG d   1       8.878  -3.269  -2.782  0.00  0.00     0.030 H 
ATOM     33  H   LIG d   1       8.159  -4.596  -3.723  0.00  0.00     0.030 H 
BRANCH  31  34
ATOM     34  C   LIG d   1       9.950  -3.764  -4.584  0.00  0.00    -0.004 C 
ATOM     35  H   LIG d   1      10.732  -4.163  -3.938  0.00  0.00     0.038 H 
ATOM     36  H   LIG d   1       9.790  -4.443  -5.422  0.00  0.00     0.038 H 
BRANCH  34  37
ATOM     37  S   LIG d   1      10.452  -2.138  -5.209  0.00  0.00    -0.164 SA
BRANCH  37  38
ATOM     38  C   LIG d   1      12.066  -1.848  -4.433  0.00  0.00    -0.018 C 
ATOM     39  H   LIG d   1      12.313  -0.788  -4.492  0.00  0.00     0.034 H 
ATOM     40  H   LIG d   1      12.027  -2.155  -3.388  0.00  0.00     0.034 H 
ATOM     41  H   LIG d   1      12.828  -2.428  -4.952  0.00  0.00     0.034 H 
ENDBRANCH  37  38
ENDBRANCH  34  37
ENDBRANCH  31  34
ENDBRANCH   1  31
BRANCH   1  42
ATOM     42  N   LIG d   1       6.965  -1.881  -3.481  0.00  0.00    -0.268 N 
ATOM     43  C   LIG d   1       6.820  -0.546  -3.601  0.00  0.00     0.401 C 
ATOM     44  O   LIG d   1       7.321   0.037  -4.541  0.00  0.00    -0.226 OA
ATOM     45  H   LIG d   1       6.565  -2.347  -2.731  0.00  0.00     0.153 HD
BRANCH  43  46
ATOM     46  O   LIG d   1       6.121   0.140  -2.678  0.00  0.00    -0.445 OA
BRANCH  46  47
ATOM     47  C   LIG d   1       4.680  -0.038  -2.675  0.00  0.00     0.107 C 
BRANCH  47  48
ATOM     48  C   LIG d   1       4.327  -1.323  -1.924  0.00  0.00    -0.025 C 
ATOM     49  H   LIG d   1       3.311  -1.249  -1.535  0.00  0.00     0.027 H 
ATOM     50  H   LIG d   1       4.394  -2.173  -2.603  0.00  0.00     0.027 H 
ATOM     51  H   LIG d   1       5.023  -1.463  -1.096  0.00  0.00     0.027 H 
ENDBRANCH  47  48
BRANCH  47  52
ATOM     52  C   LIG d   1       4.020   1.155  -1.982  0.00  0.00    -0.025 C 
ATOM     53  H   LIG d   1       3.740   1.899  -2.727  0.00  0.00     0.027 H 
ATOM     54  H   LIG d   1       3.129   0.820  -1.450  0.00  0.00     0.027 H 
ATOM     55  H   LIG d   1       4.720   1.597  -1.273  0.00  0.00     0.027 H 
ENDBRANCH  47  52
BRANCH  47  56
ATOM     56  C   LIG d   1       4.175  -0.134  -4.116  0.00  0.00    -0.025 C 
ATOM     57  H   LIG d   1       4.642  -0.988  -4.608  0.00  0.00     0.027 H 
ATOM     58  H   LIG d   1       3.092  -0.264  -4.113  0.00  0.00     0.027 H 
ATOM     59  H   LIG d   1       4.430   0.779  -4.652  0.00  0.00     0.027 H 
ENDBRANCH  47  56
ENDBRANCH  46  47
ENDBRANCH  43  46
ENDBRANCH   1  42
TORSDOF 16
ENDMDL
MODEL 2
REMARK VINA RESULT:      -5.4      3.671      6.622
REMARK  16 active torsions:
REMARK  status: ('A' for Active; 'I' for Inactive)
REMARK    1  A    between atoms: C_1  and  C_2 
REMARK    2  A    between atoms: C_2  and  C_3 
REMARK    3  A    between atoms: C_3  and  C_4 
REMARK    4  A    between atoms: C_13  and  O_15 
REMARK    5  A    between atoms: O_15  and  C_16 
REMARK    6  A    between atoms: C_16  and  C_18 
REMARK    7  A    between atoms: C_18  and  C_20 
REMARK    8  A    between atoms: C_18  and  N_24 
REMARK    9  A    between atoms: C_20  and  C_21 
REMARK   10  A    between atoms: C_21  and  S_22 
REMARK   11  A    between atoms: S_22  and  C_23 
REMARK       I    between atoms: N_24  and  C_25 
REMARK   12  A    between atoms: C_25  and  O_27 
REMARK   13  A    between atoms: O_27  and  C_28 
REMARK   14  A    between atoms: C_28  and  C_29 
REMARK   15  A    between atoms: C_28  and  C_30 
REMARK   16  A    between atoms: C_28  and  C_31 
ROOT
ATOM      1  C   LIG d   1       8.576   1.651  -7.898  0.00  0.00     0.124 C 
ATOM      2  H   LIG d   1       8.707   1.674  -8.981  0.00  0.00     0.062 H 
ENDROOT
BRANCH   1   3
ATOM      3  C   LIG d   1       9.197   0.396  -7.344  0.00  0.00     0.333 C 
ATOM      4  O   LIG d   1       9.554  -0.483  -8.093  0.00  0.00    -0.248 OA
BRANCH   3   5
ATOM      5  O   LIG d   1       9.354   0.252  -6.018  0.00  0.00    -0.423 OA
BRANCH   5   6
ATOM      6  C   LIG d   1       8.285  -0.205  -5.317  0.00  0.00     0.153 A 
ATOM      7  C   LIG d   1       7.789   0.541  -4.248  0.00  0.00     0.084 A 
ATOM      8  C   LIG d   1       6.713   0.095  -3.534  0.00  0.00    -0.029 A 
ATOM      9 CL   LIG d   1       8.542   2.046  -3.824  0.00  0.00    -0.080 Cl
ATOM     10  C   LIG d   1       6.106  -1.118  -3.877  0.00  0.00     0.022 A 
ATOM     11  H   LIG d   1       6.333   0.676  -2.707  0.00  0.00     0.064 H 
ATOM     12  C   LIG d   1       4.952  -1.621  -3.128  0.00  0.00    -0.030 A 
ATOM     13  C   LIG d   1       6.602  -1.875  -4.954  0.00  0.00     0.143 A 
ATOM     14  C   LIG d   1       4.406  -2.805  -3.510  0.00  0.00     0.027 A 
ATOM     15  C   LIG d   1       4.956  -3.512  -4.599  0.00  0.00     0.338 A 
ATOM     16  H   LIG d   1       3.555  -3.205  -2.979  0.00  0.00     0.069 H 
ATOM     17  O   LIG d   1       4.458  -4.573  -4.931  0.00  0.00    -0.245 OA
ATOM     18  O   LIG d   1       6.013  -3.045  -5.282  0.00  0.00    -0.422 OA
ATOM     19  C   LIG d   1       7.692  -1.405  -5.672  0.00  0.00     0.025 A 
ATOM     20  H   LIG d   1       8.079  -1.975  -6.503  0.00  0.00     0.069 H 
BRANCH  12  21
ATOM     21  C   LIG d   1       4.384  -0.847  -1.967  0.00  0.00    -0.027 C 
ATOM     22  H   LIG d   1       4.034  -1.540  -1.203  0.00  0.00     0.031 H 
ATOM     23  H   LIG d   1       5.157  -0.203  -1.547  0.00  0.00     0.031 H 
BRANCH  21  24
ATOM     24  C   LIG d   1       3.213   0.013  -2.451  0.00  0.00    -0.052 C 
ATOM     25  H   LIG d   1       2.967  -0.255  -3.478  0.00  0.00     0.027 H 
ATOM     26  H   LIG d   1       2.348  -0.161  -1.812  0.00  0.00     0.027 H 
BRANCH  24  27
ATOM     27  C   LIG d   1       3.605   1.490  -2.387  0.00  0.00    -0.065 C 
ATOM     28  H   LIG d   1       2.863   2.086  -2.919  0.00  0.00     0.023 H 
ATOM     29  H   LIG d   1       3.650   1.810  -1.346  0.00  0.00     0.023 H 
ATOM     30  H   LIG d   1       4.582   1.627  -2.852  0.00  0.00     0.023 H 
ENDBRANCH  24  27
ENDBRANCH  21  24
ENDBRANCH  12  21
ENDBRANCH   5   6
ENDBRANCH   3   5
ENDBRANCH   1   3
BRANCH   1  31
ATOM     31  C   LIG d   1       9.254   2.874  -7.278  0.00  0.00    -0.015 C 
ATOM     32  H   LIG d   1       8.516   3.661  -7.126  0.00  0.00     0.030 H 
ATOM     33  H   LIG d   1       9.693   2.599  -6.318  0.00  0.00     0.030 H 
BRANCH  31  34
ATOM     34  C   LIG d   1      10.354   3.379  -8.214  0.00  0.00    -0.004 C 
ATOM     35  H   LIG d   1      10.551   4.431  -8.009  0.00  0.00     0.038 H 
ATOM     36  H   LIG d   1      11.264   2.800  -8.050  0.00  0.00     0.038 H 
BRANCH  34  37
ATOM     37  S   LIG d   1       9.818   3.187  -9.935  0.00  0.00    -0.164 SA
BRANCH  37  38
ATOM     38  C   LIG d   1       9.963   4.858 -10.629  0.00  0.00    -0.018 C 
ATOM     39  H   LIG d   1      10.377   4.799 -11.635  0.00  0.00     0.034 H 
ATOM     40  H   LIG d   1       8.977   5.321 -10.668  0.00  0.00     0.034 H 
ATOM     41  H   LIG d   1      10.621   5.456  -9.999  0.00  0.00     0.034 H 
ENDBRANCH  37  38
ENDBRANCH  34  37
ENDBRANCH  31  34
ENDBRANCH   1  31
BRANCH   1  42
ATOM     42  N   LIG d   1       7.146   1.672  -7.579  0.00  0.00    -0.268 N 
ATOM     43  C   LIG d   1       6.233   1.590  -8.567  0.00  0.00     0.401 C 
ATOM     44  O   LIG d   1       6.596   1.502  -9.723  0.00  0.00    -0.226 OA
ATOM     45  H   LIG d   1       6.857   1.742  -6.656  0.00  0.00     0.153 HD
BRANCH  43  46
ATOM     46  O   LIG d   1       4.920   1.609  -8.273  0.00  0.00    -0.445 OA
BRANCH  46  47
ATOM     47  C   LIG d   1       4.185   0.371  -8.459  0.00  0.00     0.107 C 
BRANCH  47  48
ATOM     48  C   LIG d   1       3.676   0.292  -9.900  0.00  0.00    -0.025 C 
ATOM     49  H   LIG d   1       2.659   0.680  -9.948  0.00  0.00     0.027 H 
ATOM     50  H   LIG d   1       4.322   0.885 -10.548  0.00  0.00     0.027 H 
ATOM     51  H   LIG d   1       3.684  -0.747 -10.231  0.00  0.00     0.027 H 
ENDBRANCH  47  48
BRANCH  47  52
ATOM     52  C   LIG d   1       5.107  -0.817  -8.178  0.00  0.00    -0.025 C 
ATOM     53  H   LIG d   1       6.111  -0.591  -8.536  0.00  0.00     0.027 H 
ATOM     54  H   LIG d   1       5.138  -1.008  -7.105  0.00  0.00     0.027 H 
ATOM     55  H   LIG d   1       4.728  -1.701  -8.692  0.00  0.00     0.027 H 
ENDBRANCH  47  52
BRANCH  47  56
ATOM     56  C   LIG d   1       2.997   0.334  -7.496  0.00  0.00    -0.025 C 
ATOM     57  H   LIG d   1       2.780  -0.700  -7.228  0.00  0.00     0.027 H 
ATOM     58  H   LIG d   1       3.242   0.900  -6.596  0.00  0.00     0.027 H 
ATOM     59  H   LIG d   1       2.125   0.776  -7.977  0.00  0.00     0.027 H 
ENDBRANCH  47  56
ENDBRANCH  46  47
ENDBRANCH  43  46
ENDBRANCH   1  42
TORSDOF 16
ENDMDL
MODEL 3
REMARK VINA RESULT:      -5.4      1.232      1.697
REMARK  16 active torsions:
REMARK  status: ('A' for Active; 'I' for Inactive)
REMARK    1  A    between atoms: C_1  and  C_2 
REMARK    2  A    between atoms: C_2  and  C_3 
REMARK    3  A    between atoms: C_3  and  C_4 
REMARK    4  A    between atoms: C_13  and  O_15 
REMARK    5  A    between atoms: O_15  and  C_16 
REMARK    6  A    between atoms: C_16  and  C_18 
REMARK    7  A    between atoms: C_18  and  C_20 
REMARK    8  A    between atoms: C_18  and  N_24 
REMARK    9  A    between atoms: C_20  and  C_21 
REMARK   10  A    between atoms: C_21  and  S_22 
REMARK   11  A    between atoms: S_22  and  C_23 
REMARK       I    between atoms: N_24  and  C_25 
REMARK   12  A    between atoms: C_25  and  O_27 
REMARK   13  A    between atoms: O_27  and  C_28 
REMARK   14  A    between atoms: C_28  and  C_29 
REMARK   15  A    between atoms: C_28  and  C_30 
REMARK   16  A    between atoms: C_28  and  C_31 
ROOT
ATOM      1  C   LIG d   1       6.744  -3.292  -4.984  0.00  0.00     0.124 C 
ATOM      2  H   LIG d   1       7.173  -2.694  -5.788  0.00  0.00     0.062 H 
ENDROOT
BRANCH   1   3
ATOM      3  C   LIG d   1       5.475  -3.945  -5.468  0.00  0.00     0.333 C 
ATOM      4  O   LIG d   1       4.601  -4.225  -4.682  0.00  0.00    -0.248 OA
BRANCH   3   5
ATOM      5  O   LIG d   1       5.315  -4.218  -6.774  0.00  0.00    -0.423 OA
BRANCH   5   6
ATOM      6  C   LIG d   1       4.569  -3.345  -7.498  0.00  0.00     0.153 A 
ATOM      7  C   LIG d   1       3.704  -3.824  -8.481  0.00  0.00     0.084 A 
ATOM      8  C   LIG d   1       2.947  -2.959  -9.217  0.00  0.00    -0.029 A 
ATOM      9 CL   LIG d   1       3.589  -5.532  -8.770  0.00  0.00    -0.080 Cl
ATOM     10  C   LIG d   1       3.039  -1.582  -8.985  0.00  0.00     0.022 A 
ATOM     11  H   LIG d   1       2.279  -3.336  -9.978  0.00  0.00     0.064 H 
ATOM     12  C   LIG d   1       2.239  -0.631  -9.759  0.00  0.00    -0.030 A 
ATOM     13  C   LIG d   1       3.910  -1.092  -7.994  0.00  0.00     0.143 A 
ATOM     14  C   LIG d   1       2.373   0.693  -9.486  0.00  0.00     0.027 A 
ATOM     15  C   LIG d   1       3.267   1.114  -8.479  0.00  0.00     0.338 A 
ATOM     16  H   LIG d   1       1.799   1.421 -10.039  0.00  0.00     0.069 H 
ATOM     17  O   LIG d   1       3.378   2.304  -8.244  0.00  0.00    -0.245 OA
ATOM     18  O   LIG d   1       3.996   0.237  -7.772  0.00  0.00    -0.422 OA
ATOM     19  C   LIG d   1       4.668  -1.986  -7.251  0.00  0.00     0.025 A 
ATOM     20  H   LIG d   1       5.337  -1.622  -6.486  0.00  0.00     0.069 H 
BRANCH  12  21
ATOM     21  C   LIG d   1       1.292  -1.107 -10.830  0.00  0.00    -0.027 C 
ATOM     22  H   LIG d   1       0.897  -2.085 -10.559  0.00  0.00     0.031 H 
ATOM     23  H   LIG d   1       0.470  -0.398 -10.930  0.00  0.00     0.031 H 
BRANCH  21  24
ATOM     24  C   LIG d   1       2.039  -1.210 -12.162  0.00  0.00    -0.052 C 
ATOM     25  H   LIG d   1       2.055  -0.234 -12.646  0.00  0.00     0.027 H 
ATOM     26  H   LIG d   1       3.061  -1.542 -11.980  0.00  0.00     0.027 H 
BRANCH  24  27
ATOM     27  C   LIG d   1       1.330  -2.218 -13.068  0.00  0.00    -0.065 C 
ATOM     28  H   LIG d   1       0.685  -1.687 -13.769  0.00  0.00     0.023 H 
ATOM     29  H   LIG d   1       2.072  -2.795 -13.621  0.00  0.00     0.023 H 
ATOM     30  H   LIG d   1       0.726  -2.892 -12.458  0.00  0.00     0.023 H 
ENDBRANCH  24  27
ENDBRANCH  21  24
ENDBRANCH  12  21
ENDBRANCH   5   6
ENDBRANCH   3   5
ENDBRANCH   1   3
BRANCH   1  31
ATOM     31  C   LIG d   1       7.744  -4.371  -4.562  0.00  0.00    -0.015 C 
ATOM     32  H   LIG d   1       7.373  -4.883  -3.675  0.00  0.00     0.030 H 
ATOM     33  H   LIG d   1       7.866  -5.090  -5.372  0.00  0.00     0.030 H 
BRANCH  31  34
ATOM     34  C   LIG d   1       9.094  -3.722  -4.251  0.00  0.00    -0.004 C 
ATOM     35  H   LIG d   1       9.833  -4.049  -4.983  0.00  0.00     0.038 H 
ATOM     36  H   LIG d   1       8.994  -2.636  -4.296  0.00  0.00     0.038 H 
BRANCH  34  37
ATOM     37  S   LIG d   1       9.631  -4.211  -2.589  0.00  0.00    -0.164 SA
BRANCH  37  38
ATOM     38  C   LIG d   1       9.663  -6.024  -2.654  0.00  0.00    -0.018 C 
ATOM     39  H   LIG d   1      10.299  -6.405  -1.856  0.00  0.00     0.034 H 
ATOM     40  H   LIG d   1       8.651  -6.409  -2.529  0.00  0.00     0.034 H 
ATOM     41  H   LIG d   1      10.057  -6.346  -3.618  0.00  0.00     0.034 H 
ENDBRANCH  37  38
ENDBRANCH  34  37
ENDBRANCH  31  34
ENDBRANCH   1  31
BRANCH   1  42
ATOM     42  N   LIG d   1       6.444  -2.430  -3.839  0.00  0.00    -0.268 N 
ATOM     43  C   LIG d   1       6.483  -1.090  -3.975  0.00  0.00     0.401 C 
ATOM     44  O   LIG d   1       6.769  -0.597  -5.049  0.00  0.00    -0.226 OA
ATOM     45  H   LIG d   1       6.216  -2.824  -2.982  0.00  0.00     0.153 HD
BRANCH  43  46
ATOM     46  O   LIG d   1       6.208  -0.298  -2.923  0.00  0.00    -0.445 OA
BRANCH  46  47
ATOM     47  C   LIG d   1       4.810  -0.138  -2.566  0.00  0.00     0.107 C 
BRANCH  47  48
ATOM     48  C   LIG d   1       3.996   0.179  -3.821  0.00  0.00    -0.025 C 
ATOM     49  H   LIG d   1       4.338   1.122  -4.247  0.00  0.00     0.027 H 
ATOM     50  H   LIG d   1       4.127  -0.619  -4.552  0.00  0.00     0.027 H 
ATOM     51  H   LIG d   1       2.941   0.261  -3.558  0.00  0.00     0.027 H 
ENDBRANCH  47  48
BRANCH  47  52
ATOM     52  C   LIG d   1       4.293  -1.434  -1.937  0.00  0.00    -0.025 C 
ATOM     53  H   LIG d   1       4.827  -1.624  -1.006  0.00  0.00     0.027 H 
ATOM     54  H   LIG d   1       3.226  -1.338  -1.731  0.00  0.00     0.027 H 
ATOM     55  H   LIG d   1       4.456  -2.263  -2.626  0.00  0.00     0.027 H 
ENDBRANCH  47  52
BRANCH  47  56
ATOM     56  C   LIG d   1       4.668   1.008  -1.562  0.00  0.00    -0.025 C 
ATOM     57  H   LIG d   1       5.072   1.922  -1.996  0.00  0.00     0.027 H 
ATOM     58  H   LIG d   1       3.613   1.153  -1.324  0.00  0.00     0.027 H 
ATOM     59  H   LIG d   1       5.215   0.764  -0.652  0.00  0.00     0.027 H 
ENDBRANCH  47  56
ENDBRANCH  46  47
ENDBRANCH  43  46
ENDBRANCH   1  42
TORSDOF 16
ENDMDL
MODEL 4
REMARK VINA RESULT:      -5.3      3.693      6.876
REMARK  16 active torsions:
REMARK  status: ('A' for Active; 'I' for Inactive)
REMARK    1  A    between atoms: C_1  and  C_2 
REMARK    2  A    between atoms: C_2  and  C_3 
REMARK    3  A    between atoms: C_3  and  C_4 
REMARK    4  A    between atoms: C_13  and  O_15 
REMARK    5  A    between atoms: O_15  and  C_16 
REMARK    6  A    between atoms: C_16  and  C_18 
REMARK    7  A    between atoms: C_18  and  C_20 
REMARK    8  A    between atoms: C_18  and  N_24 
REMARK    9  A    between atoms: C_20  and  C_21 
REMARK   10  A    between atoms: C_21  and  S_22 
REMARK   11  A    between atoms: S_22  and  C_23 
REMARK       I    between atoms: N_24  and  C_25 
REMARK   12  A    between atoms: C_25  and  O_27 
REMARK   13  A    between atoms: O_27  and  C_28 
REMARK   14  A    between atoms: C_28  and  C_29 
REMARK   15  A    between atoms: C_28  and  C_30 
REMARK   16  A    between atoms: C_28  and  C_31 
ROOT
ATOM      1  C   LIG d   1       3.969  -0.347  -5.458  0.00  0.00     0.124 C 
ATOM      2  H   LIG d   1       4.604   0.536  -5.538  0.00  0.00     0.062 H 
ENDROOT
BRANCH   1   3
ATOM      3  C   LIG d   1       4.823  -1.586  -5.526  0.00  0.00     0.333 C 
ATOM      4  O   LIG d   1       4.392  -2.590  -6.042  0.00  0.00    -0.248 OA
BRANCH   3   5
ATOM      5  O   LIG d   1       6.063  -1.576  -5.010  0.00  0.00    -0.423 OA
BRANCH   5   6
ATOM      6  C   LIG d   1       6.825  -0.479  -5.258  0.00  0.00     0.153 A 
ATOM      7  C   LIG d   1       7.186  -0.169  -6.568  0.00  0.00     0.084 A 
ATOM      8  C   LIG d   1       7.950   0.931  -6.833  0.00  0.00    -0.029 A 
ATOM      9 CL   LIG d   1       6.659  -1.188  -7.871  0.00  0.00    -0.080 Cl
ATOM     10  C   LIG d   1       8.374   1.752  -5.783  0.00  0.00     0.022 A 
ATOM     11  H   LIG d   1       8.226   1.166  -7.850  0.00  0.00     0.064 H 
ATOM     12  C   LIG d   1       9.195   2.938  -6.037  0.00  0.00    -0.030 A 
ATOM     13  C   LIG d   1       8.013   1.444  -4.458  0.00  0.00     0.143 A 
ATOM     14  C   LIG d   1       9.575   3.695  -4.975  0.00  0.00     0.027 A 
ATOM     15  C   LIG d   1       9.178   3.328  -3.673  0.00  0.00     0.338 A 
ATOM     16  H   LIG d   1      10.181   4.576  -5.128  0.00  0.00     0.069 H 
ATOM     17  O   LIG d   1       9.525   4.014  -2.729  0.00  0.00    -0.245 OA
ATOM     18  O   LIG d   1       8.424   2.240  -3.447  0.00  0.00    -0.422 OA
ATOM     19  C   LIG d   1       7.231   0.326  -4.207  0.00  0.00     0.025 A 
ATOM     20  H   LIG d   1       6.945   0.082  -3.195  0.00  0.00     0.069 H 
BRANCH  12  21
ATOM     21  C   LIG d   1       9.607   3.309  -7.438  0.00  0.00    -0.027 C 
ATOM     22  H   LIG d   1      10.304   2.566  -7.821  0.00  0.00     0.031 H 
ATOM     23  H   LIG d   1       8.725   3.345  -8.079  0.00  0.00     0.031 H 
BRANCH  21  24
ATOM     24  C   LIG d   1      10.281   4.683  -7.425  0.00  0.00    -0.052 C 
ATOM     25  H   LIG d   1      10.251   5.093  -6.415  0.00  0.00     0.027 H 
ATOM     26  H   LIG d   1      11.319   4.581  -7.744  0.00  0.00     0.027 H 
BRANCH  24  27
ATOM     27  C   LIG d   1       9.544   5.622  -8.380  0.00  0.00    -0.065 C 
ATOM     28  H   LIG d   1      10.151   5.784  -9.272  0.00  0.00     0.023 H 
ATOM     29  H   LIG d   1       8.591   5.177  -8.665  0.00  0.00     0.023 H 
ATOM     30  H   LIG d   1       9.366   6.578  -7.885  0.00  0.00     0.023 H 
ENDBRANCH  24  27
ENDBRANCH  21  24
ENDBRANCH  12  21
ENDBRANCH   5   6
ENDBRANCH   3   5
ENDBRANCH   1   3
BRANCH   1  31
ATOM     31  C   LIG d   1       3.219  -0.315  -4.125  0.00  0.00    -0.015 C 
ATOM     32  H   LIG d   1       2.146  -0.366  -4.311  0.00  0.00     0.030 H 
ATOM     33  H   LIG d   1       3.522  -1.167  -3.517  0.00  0.00     0.030 H 
BRANCH  31  34
ATOM     34  C   LIG d   1       3.547   0.983  -3.384  0.00  0.00    -0.004 C 
ATOM     35  H   LIG d   1       4.166   1.617  -4.019  0.00  0.00     0.038 H 
ATOM     36  H   LIG d   1       2.621   1.506  -3.141  0.00  0.00     0.038 H 
BRANCH  34  37
ATOM     37  S   LIG d   1       4.443   0.597  -1.856  0.00  0.00    -0.164 SA
BRANCH  37  38
ATOM     38  C   LIG d   1       4.467  -1.217  -1.808  0.00  0.00    -0.018 C 
ATOM     39  H   LIG d   1       4.516  -1.607  -2.824  0.00  0.00     0.034 H 
ATOM     40  H   LIG d   1       5.338  -1.554  -1.246  0.00  0.00     0.034 H 
ATOM     41  H   LIG d   1       3.560  -1.579  -1.323  0.00  0.00     0.034 H 
ENDBRANCH  37  38
ENDBRANCH  34  37
ENDBRANCH  31  34
ENDBRANCH   1  31
BRANCH   1  42
ATOM     42  N   LIG d   1       3.004  -0.356  -6.561  0.00  0.00    -0.268 N 
ATOM     43  C   LIG d   1       3.198   0.437  -7.633  0.00  0.00     0.401 C 
ATOM     44  O   LIG d   1       4.171   1.162  -7.684  0.00  0.00    -0.226 OA
ATOM     45  H   LIG d   1       2.228  -0.936  -6.520  0.00  0.00     0.153 HD
BRANCH  43  46
ATOM     46  O   LIG d   1       2.312   0.428  -8.646  0.00  0.00    -0.445 OA
BRANCH  46  47
ATOM     47  C   LIG d   1       2.633  -0.399  -9.795  0.00  0.00     0.107 C 
BRANCH  47  48
ATOM     48  C   LIG d   1       1.341  -0.804 -10.509  0.00  0.00    -0.025 C 
ATOM     49  H   LIG d   1       1.579  -1.463 -11.343  0.00  0.00     0.027 H 
ATOM     50  H   LIG d   1       0.686  -1.323  -9.809  0.00  0.00     0.027 H 
ATOM     51  H   LIG d   1       0.839   0.088 -10.884  0.00  0.00     0.027 H 
ENDBRANCH  47  48
BRANCH  47  52
ATOM     52  C   LIG d   1       3.522   0.390 -10.759  0.00  0.00    -0.025 C 
ATOM     53  H   LIG d   1       2.952   0.648 -11.650  0.00  0.00     0.027 H 
ATOM     54  H   LIG d   1       3.868   1.302 -10.271  0.00  0.00     0.027 H 
ATOM     55  H   LIG d   1       4.382  -0.219 -11.040  0.00  0.00     0.027 H 
ENDBRANCH  47  52
BRANCH  47  56
ATOM     56  C   LIG d   1       3.373  -1.654  -9.329  0.00  0.00    -0.025 C 
ATOM     57  H   LIG d   1       4.448  -1.495  -9.418  0.00  0.00     0.027 H 
ATOM     58  H   LIG d   1       3.121  -1.860  -8.288  0.00  0.00     0.027 H 
ATOM     59  H   LIG d   1       3.078  -2.501  -9.948  0.00  0.00     0.027 H 
ENDBRANCH  47  56
ENDBRANCH  46  47
ENDBRANCH  43  46
ENDBRANCH   1  42
TORSDOF 16
ENDMDL
MODEL 5
REMARK VINA RESULT:      -5.2      5.775      7.733
REMARK  16 active torsions:
REMARK  status: ('A' for Active; 'I' for Inactive)
REMARK    1  A    between atoms: C_1  and  C_2 
REMARK    2  A    between atoms: C_2  and  C_3 
REMARK    3  A    between atoms: C_3  and  C_4 
REMARK    4  A    between atoms: C_13  and  O_15 
REMARK    5  A    between atoms: O_15  and  C_16 
REMARK    6  A    between atoms: C_16  and  C_18 
REMARK    7  A    between atoms: C_18  and  C_20 
REMARK    8  A    between atoms: C_18  and  N_24 
REMARK    9  A    between atoms: C_20  and  C_21 
REMARK   10  A    between atoms: C_21  and  S_22 
REMARK   11  A    between atoms: S_22  and  C_23 
REMARK       I    between atoms: N_24  and  C_25 
REMARK   12  A    between atoms: C_25  and  O_27 
REMARK   13  A    between atoms: O_27  and  C_28 
REMARK   14  A    between atoms: C_28  and  C_29 
REMARK   15  A    between atoms: C_28  and  C_30 
REMARK   16  A    between atoms: C_28  and  C_31 
ROOT
ATOM      1  C   LIG d   1      10.615   4.434  -3.716  0.00  0.00     0.124 C 
ATOM      2  H   LIG d   1       9.786   4.883  -4.263  0.00  0.00     0.062 H 
ENDROOT
BRANCH   1   3
ATOM      3  C   LIG d   1      10.669   2.957  -4.012  0.00  0.00     0.333 C 
ATOM      4  O   LIG d   1      11.395   2.238  -3.368  0.00  0.00    -0.248 OA
BRANCH   3   5
ATOM      5  O   LIG d   1       9.910   2.440  -4.992  0.00  0.00    -0.423 OA
BRANCH   5   6
ATOM      6  C   LIG d   1       8.940   1.564  -4.624  0.00  0.00     0.153 A 
ATOM      7  C   LIG d   1       9.014   0.236  -5.042  0.00  0.00     0.084 A 
ATOM      8  C   LIG d   1       8.047  -0.658  -4.679  0.00  0.00    -0.029 A 
ATOM      9 CL   LIG d   1      10.343  -0.285  -6.029  0.00  0.00    -0.080 Cl
ATOM     10  C   LIG d   1       6.976  -0.238  -3.883  0.00  0.00     0.022 A 
ATOM     11  H   LIG d   1       8.109  -1.685  -5.006  0.00  0.00     0.064 H 
ATOM     12  C   LIG d   1       5.924  -1.174  -3.478  0.00  0.00    -0.030 A 
ATOM     13  C   LIG d   1       6.896   1.102  -3.458  0.00  0.00     0.143 A 
ATOM     14  C   LIG d   1       4.910  -0.705  -2.705  0.00  0.00     0.027 A 
ATOM     15  C   LIG d   1       4.893   0.650  -2.316  0.00  0.00     0.338 A 
ATOM     16  H   LIG d   1       4.119  -1.369  -2.390  0.00  0.00     0.069 H 
ATOM     17  O   LIG d   1       3.979   1.058  -1.623  0.00  0.00    -0.245 OA
ATOM     18  O   LIG d   1       5.861   1.503  -2.689  0.00  0.00    -0.422 OA
ATOM     19  C   LIG d   1       7.890   1.994  -3.831  0.00  0.00     0.025 A 
ATOM     20  H   LIG d   1       7.842   3.024  -3.508  0.00  0.00     0.069 H 
BRANCH  12  21
ATOM     21  C   LIG d   1       5.966  -2.618  -3.908  0.00  0.00    -0.027 C 
ATOM     22  H   LIG d   1       6.844  -2.788  -4.528  0.00  0.00     0.031 H 
ATOM     23  H   LIG d   1       6.013  -3.258  -3.027  0.00  0.00     0.031 H 
BRANCH  21  24
ATOM     24  C   LIG d   1       4.704  -2.947  -4.709  0.00  0.00    -0.052 C 
ATOM     25  H   LIG d   1       4.573  -4.028  -4.752  0.00  0.00     0.027 H 
ATOM     26  H   LIG d   1       3.838  -2.495  -4.225  0.00  0.00     0.027 H 
BRANCH  24  27
ATOM     27  C   LIG d   1       4.841  -2.392  -6.128  0.00  0.00    -0.065 C 
ATOM     28  H   LIG d   1       4.748  -1.306  -6.104  0.00  0.00     0.023 H 
ATOM     29  H   LIG d   1       5.816  -2.665  -6.533  0.00  0.00     0.023 H 
ATOM     30  H   LIG d   1       4.055  -2.810  -6.759  0.00  0.00     0.023 H 
ENDBRANCH  24  27
ENDBRANCH  21  24
ENDBRANCH  12  21
ENDBRANCH   5   6
ENDBRANCH   3   5
ENDBRANCH   1   3
BRANCH   1  31
ATOM     31  C   LIG d   1      11.928   5.089  -4.151  0.00  0.00    -0.015 C 
ATOM     32  H   LIG d   1      12.088   5.999  -3.573  0.00  0.00     0.030 H 
ATOM     33  H   LIG d   1      12.754   4.400  -3.978  0.00  0.00     0.030 H 
BRANCH  31  34
ATOM     34  C   LIG d   1      11.857   5.436  -5.639  0.00  0.00    -0.004 C 
ATOM     35  H   LIG d   1      12.577   6.223  -5.864  0.00  0.00     0.038 H 
ATOM     36  H   LIG d   1      12.091   4.549  -6.230  0.00  0.00     0.038 H 
BRANCH  34  37
ATOM     37  S   LIG d   1      10.186   6.010  -6.048  0.00  0.00    -0.164 SA
BRANCH  37  38
ATOM     38  C   LIG d   1      10.459   7.311  -7.283  0.00  0.00    -0.018 C 
ATOM     39  H   LIG d   1       9.778   8.140  -7.094  0.00  0.00     0.034 H 
ATOM     40  H   LIG d   1      11.488   7.664  -7.218  0.00  0.00     0.034 H 
ATOM     41  H   LIG d   1      10.276   6.910  -8.279  0.00  0.00     0.034 H 
ENDBRANCH  37  38
ENDBRANCH  34  37
ENDBRANCH  31  34
ENDBRANCH   1  31
BRANCH   1  42
ATOM     42  N   LIG d   1      10.421   4.638  -2.278  0.00  0.00    -0.268 N 
ATOM     43  C   LIG d   1      10.141   5.868  -1.804  0.00  0.00     0.401 C 
ATOM     44  O   LIG d   1      10.052   6.808  -2.569  0.00  0.00    -0.226 OA
ATOM     45  H   LIG d   1      10.492   3.887  -1.668  0.00  0.00     0.153 HD
BRANCH  43  46
ATOM     46  O   LIG d   1       9.962   6.056  -0.484  0.00  0.00    -0.445 OA
BRANCH  46  47
ATOM     47  C   LIG d   1      11.135   6.398   0.299  0.00  0.00     0.107 C 
BRANCH  47  48
ATOM     48  C   LIG d   1      11.249   7.920   0.409  0.00  0.00    -0.025 C 
ATOM     49  H   LIG d   1      12.214   8.182   0.843  0.00  0.00     0.027 H 
ATOM     50  H   LIG d   1      11.164   8.364  -0.583  0.00  0.00     0.027 H 
ATOM     51  H   LIG d   1      10.450   8.299   1.046  0.00  0.00     0.027 H 
ENDBRANCH  47  48
BRANCH  47  52
ATOM     52  C   LIG d   1      11.010   5.794   1.699  0.00  0.00    -0.025 C 
ATOM     53  H   LIG d   1      10.597   6.538   2.380  0.00  0.00     0.027 H 
ATOM     54  H   LIG d   1      10.349   4.927   1.663  0.00  0.00     0.027 H 
ATOM     55  H   LIG d   1      11.994   5.484   2.051  0.00  0.00     0.027 H 
ENDBRANCH  47  52
BRANCH  47  56
ATOM     56  C   LIG d   1      12.386   5.841  -0.386  0.00  0.00    -0.025 C 
ATOM     57  H   LIG d   1      12.305   4.757  -0.461  0.00  0.00     0.027 H 
ATOM     58  H   LIG d   1      12.473   6.270  -1.385  0.00  0.00     0.027 H 
ATOM     59  H   LIG d   1      13.267   6.102   0.199  0.00  0.00     0.027 H 
ENDBRANCH  47  56
ENDBRANCH  46  47
ENDBRANCH  43  46
ENDBRANCH   1  42
TORSDOF 16
ENDMDL
MODEL 6
REMARK VINA RESULT:      -5.2      2.394      3.621
REMARK  16 active torsions:
REMARK  status: ('A' for Active; 'I' for Inactive)
REMARK    1  A    between atoms: C_1  and  C_2 
REMARK    2  A    between atoms: C_2  and  C_3 
REMARK    3  A    between atoms: C_3  and  C_4 
REMARK    4  A    between atoms: C_13  and  O_15 
REMARK    5  A    between atoms: O_15  and  C_16 
REMARK    6  A    between atoms: C_16  and  C_18 
REMARK    7  A    between atoms: C_18  and  C_20 
REMARK    8  A    between atoms: C_18  and  N_24 
REMARK    9  A    between atoms: C_20  and  C_21 
REMARK   10  A    between atoms: C_21  and  S_22 
REMARK   11  A    between atoms: S_22  and  C_23 
REMARK       I    between atoms: N_24  and  C_25 
REMARK   12  A    between atoms: C_25  and  O_27 
REMARK   13  A    between atoms: O_27  and  C_28 
REMARK   14  A    between atoms: C_28  and  C_29 
REMARK   15  A    between atoms: C_28  and  C_30 
REMARK   16  A    between atoms: C_28  and  C_31 
ROOT
ATOM      1  C   LIG d   1       7.464   0.647  -6.268  0.00  0.00     0.124 C 
ATOM      2  H   LIG d   1       7.620   1.668  -5.917  0.00  0.00     0.062 H 
ENDROOT
BRANCH   1   3
ATOM      3  C   LIG d   1       6.470   0.654  -7.400  0.00  0.00     0.333 C 
ATOM      4  O   LIG d   1       6.857   0.632  -8.545  0.00  0.00    -0.248 OA
BRANCH   3   5
ATOM      5  O   LIG d   1       5.153   0.685  -7.138  0.00  0.00    -0.423 OA
BRANCH   5   6
ATOM      6  C   LIG d   1       4.342  -0.017  -7.971  0.00  0.00     0.153 A 
ATOM      7  C   LIG d   1       3.556   0.659  -8.903  0.00  0.00     0.084 A 
ATOM      8  C   LIG d   1       2.737  -0.033  -9.748  0.00  0.00    -0.029 A 
ATOM      9 CL   LIG d   1       3.622   2.392  -8.991  0.00  0.00    -0.080 Cl
ATOM     10  C   LIG d   1       2.684  -1.429  -9.678  0.00  0.00     0.022 A 
ATOM     11  H   LIG d   1       2.130   0.497 -10.468  0.00  0.00     0.064 H 
ATOM     12  C   LIG d   1       1.814  -2.197 -10.571  0.00  0.00    -0.030 A 
ATOM     13  C   LIG d   1       3.475  -2.117  -8.739  0.00  0.00     0.143 A 
ATOM     14  C   LIG d   1       1.807  -3.550 -10.454  0.00  0.00     0.027 A 
ATOM     15  C   LIG d   1       2.625  -4.175  -9.489  0.00  0.00     0.338 A 
ATOM     16  H   LIG d   1       1.177  -4.146 -11.096  0.00  0.00     0.069 H 
ATOM     17  O   LIG d   1       2.610  -5.388  -9.394  0.00  0.00    -0.245 OA
ATOM     18  O   LIG d   1       3.421  -3.465  -8.674  0.00  0.00    -0.422 OA
ATOM     19  C   LIG d   1       4.306  -1.399  -7.892  0.00  0.00     0.025 A 
ATOM     20  H   LIG d   1       4.920  -1.916  -7.170  0.00  0.00     0.069 H 
BRANCH  12  21
ATOM     21  C   LIG d   1       0.949  -1.505 -11.593  0.00  0.00    -0.027 C 
ATOM     22  H   LIG d   1      -0.100  -1.683 -11.362  0.00  0.00     0.031 H 
ATOM     23  H   LIG d   1       1.150  -0.434 -11.573  0.00  0.00     0.031 H 
BRANCH  21  24
ATOM     24  C   LIG d   1       1.265  -2.057 -12.986  0.00  0.00    -0.052 C 
ATOM     25  H   LIG d   1       1.207  -3.145 -12.967  0.00  0.00     0.027 H 
ATOM     26  H   LIG d   1       0.542  -1.667 -13.702  0.00  0.00     0.027 H 
BRANCH  24  27
ATOM     27  C   LIG d   1       2.673  -1.626 -13.397  0.00  0.00    -0.065 C 
ATOM     28  H   LIG d   1       2.645  -1.196 -14.398  0.00  0.00     0.023 H 
ATOM     29  H   LIG d   1       3.047  -0.882 -12.692  0.00  0.00     0.023 H 
ATOM     30  H   LIG d   1       3.334  -2.494 -13.393  0.00  0.00     0.023 H 
ENDBRANCH  24  27
ENDBRANCH  21  24
ENDBRANCH  12  21
ENDBRANCH   5   6
ENDBRANCH   3   5
ENDBRANCH   1   3
BRANCH   1  31
ATOM     31  C   LIG d   1       8.793   0.069  -6.760  0.00  0.00    -0.015 C 
ATOM     32  H   LIG d   1       8.860   0.181  -7.842  0.00  0.00     0.030 H 
ATOM     33  H   LIG d   1       9.618   0.603  -6.289  0.00  0.00     0.030 H 
BRANCH  31  34
ATOM     34  C   LIG d   1       8.872  -1.414  -6.394  0.00  0.00    -0.004 C 
ATOM     35  H   LIG d   1       7.988  -1.695  -5.821  0.00  0.00     0.038 H 
ATOM     36  H   LIG d   1       8.918  -2.011  -7.306  0.00  0.00     0.038 H 
BRANCH  34  37
ATOM     37  S   LIG d   1      10.358  -1.715  -5.400  0.00  0.00    -0.164 SA
BRANCH  37  38
ATOM     38  C   LIG d   1      11.045  -0.058  -5.126  0.00  0.00    -0.018 C 
ATOM     39  H   LIG d   1      10.381   0.688  -5.565  0.00  0.00     0.034 H 
ATOM     40  H   LIG d   1      11.139   0.124  -4.056  0.00  0.00     0.034 H 
ATOM     41  H   LIG d   1      12.026   0.010  -5.593  0.00  0.00     0.034 H 
ENDBRANCH  37  38
ENDBRANCH  34  37
ENDBRANCH  31  34
ENDBRANCH   1  31
BRANCH   1  42
ATOM     42  N   LIG d   1       6.951  -0.175  -5.171  0.00  0.00    -0.268 N 
ATOM     43  C   LIG d   1       6.645   0.394  -3.988  0.00  0.00     0.401 C 
ATOM     44  O   LIG d   1       6.797   1.589  -3.832  0.00  0.00    -0.226 OA
ATOM     45  H   LIG d   1       6.829  -1.129  -5.296  0.00  0.00     0.153 HD
BRANCH  43  46
ATOM     46  O   LIG d   1       6.173  -0.362  -2.980  0.00  0.00    -0.445 OA
BRANCH  46  47
ATOM     47  C   LIG d   1       4.757  -0.250  -2.679  0.00  0.00     0.107 C 
BRANCH  47  48
ATOM     48  C   LIG d   1       3.983   0.036  -3.967  0.00  0.00    -0.025 C 
ATOM     49  H   LIG d   1       3.681  -0.905  -4.427  0.00  0.00     0.027 H 
ATOM     50  H   LIG d   1       3.097   0.629  -3.736  0.00  0.00     0.027 H 
ATOM     51  H   LIG d   1       4.620   0.589  -4.658  0.00  0.00     0.027 H 
ENDBRANCH  47  48
BRANCH  47  52
ATOM     52  C   LIG d   1       4.260  -1.562  -2.067  0.00  0.00    -0.025 C 
ATOM     53  H   LIG d   1       3.316  -1.388  -1.553  0.00  0.00     0.027 H 
ATOM     54  H   LIG d   1       4.113  -2.299  -2.857  0.00  0.00     0.027 H 
ATOM     55  H   LIG d   1       4.999  -1.935  -1.357  0.00  0.00     0.027 H 
ENDBRANCH  47  52
BRANCH  47  56
ATOM     56  C   LIG d   1       4.535   0.892  -1.685  0.00  0.00    -0.025 C 
ATOM     57  H   LIG d   1       5.333   0.887  -0.943  0.00  0.00     0.027 H 
ATOM     58  H   LIG d   1       4.540   1.843  -2.219  0.00  0.00     0.027 H 
ATOM     59  H   LIG d   1       3.574   0.760  -1.189  0.00  0.00     0.027 H 
ENDBRANCH  47  56
ENDBRANCH  46  47
ENDBRANCH  43  46
ENDBRANCH   1  42
TORSDOF 16
ENDMDL
MODEL 7
REMARK VINA RESULT:      -5.2      4.979      8.311
REMARK  16 active torsions:
REMARK  status: ('A' for Active; 'I' for Inactive)
REMARK    1  A    between atoms: C_1  and  C_2 
REMARK    2  A    between atoms: C_2  and  C_3 
REMARK    3  A    between atoms: C_3  and  C_4 
REMARK    4  A    between atoms: C_13  and  O_15 
REMARK    5  A    between atoms: O_15  and  C_16 
REMARK    6  A    between atoms: C_16  and  C_18 
REMARK    7  A    between atoms: C_18  and  C_20 
REMARK    8  A    between atoms: C_18  and  N_24 
REMARK    9  A    between atoms: C_20  and  C_21 
REMARK   10  A    between atoms: C_21  and  S_22 
REMARK   11  A    between atoms: S_22  and  C_23 
REMARK       I    between atoms: N_24  and  C_25 
REMARK   12  A    between atoms: C_25  and  O_27 
REMARK   13  A    between atoms: O_27  and  C_28 
REMARK   14  A    between atoms: C_28  and  C_29 
REMARK   15  A    between atoms: C_28  and  C_30 
REMARK   16  A    between atoms: C_28  and  C_31 
ROOT
ATOM      1  C   LIG d   1       6.134  -3.940  -5.681  0.00  0.00     0.124 C 
ATOM      2  H   LIG d   1       5.182  -4.467  -5.604  0.00  0.00     0.062 H 
ENDROOT
BRANCH   1   3
ATOM      3  C   LIG d   1       7.262  -4.904  -5.418  0.00  0.00     0.333 C 
ATOM      4  O   LIG d   1       8.121  -4.625  -4.616  0.00  0.00    -0.248 OA
BRANCH   3   5
ATOM      5  O   LIG d   1       7.313  -6.074  -6.077  0.00  0.00    -0.423 OA
BRANCH   5   6
ATOM      6  C   LIG d   1       6.977  -7.189  -5.379  0.00  0.00     0.153 A 
ATOM      7  C   LIG d   1       7.978  -7.983  -4.821  0.00  0.00     0.084 A 
ATOM      8  C   LIG d   1       7.656  -9.107  -4.115  0.00  0.00    -0.029 A 
ATOM      9 CL   LIG d   1       9.644  -7.539  -5.022  0.00  0.00    -0.080 Cl
ATOM     10  C   LIG d   1       6.313  -9.465  -3.952  0.00  0.00     0.022 A 
ATOM     11  H   LIG d   1       8.435  -9.719  -3.685  0.00  0.00     0.064 H 
ATOM     12  C   LIG d   1       5.938 -10.665  -3.201  0.00  0.00    -0.030 A 
ATOM     13  C   LIG d   1       5.298  -8.668  -4.514  0.00  0.00     0.143 A 
ATOM     14  C   LIG d   1       4.618 -10.959  -3.078  0.00  0.00     0.027 A 
ATOM     15  C   LIG d   1       3.653 -10.115  -3.668  0.00  0.00     0.338 A 
ATOM     16  H   LIG d   1       4.307 -11.837  -2.531  0.00  0.00     0.069 H 
ATOM     17  O   LIG d   1       2.473 -10.390  -3.551  0.00  0.00    -0.245 OA
ATOM     18  O   LIG d   1       4.004  -9.016  -4.354  0.00  0.00    -0.422 OA
ATOM     19  C   LIG d   1       5.643  -7.526  -5.222  0.00  0.00     0.025 A 
ATOM     20  H   LIG d   1       4.873  -6.904  -5.655  0.00  0.00     0.069 H 
BRANCH  12  21
ATOM     21  C   LIG d   1       6.988 -11.551  -2.581  0.00  0.00    -0.027 C 
ATOM     22  H   LIG d   1       6.717 -12.595  -2.728  0.00  0.00     0.031 H 
ATOM     23  H   LIG d   1       7.952 -11.356  -3.052  0.00  0.00     0.031 H 
BRANCH  21  24
ATOM     24  C   LIG d   1       7.085 -11.254  -1.083  0.00  0.00    -0.052 C 
ATOM     25  H   LIG d   1       7.085 -10.176  -0.925  0.00  0.00     0.027 H 
ATOM     26  H   LIG d   1       6.231 -11.697  -0.570  0.00  0.00     0.027 H 
BRANCH  24  27
ATOM     27  C   LIG d   1       8.379 -11.852  -0.528  0.00  0.00    -0.065 C 
ATOM     28  H   LIG d   1       9.033 -12.134  -1.353  0.00  0.00     0.023 H 
ATOM     29  H   LIG d   1       8.882 -11.114   0.098  0.00  0.00     0.023 H 
ATOM     30  H   LIG d   1       8.144 -12.735   0.068  0.00  0.00     0.023 H 
ENDBRANCH  24  27
ENDBRANCH  21  24
ENDBRANCH  12  21
ENDBRANCH   5   6
ENDBRANCH   3   5
ENDBRANCH   1   3
BRANCH   1  31
ATOM     31  C   LIG d   1       6.280  -3.355  -7.087  0.00  0.00    -0.015 C 
ATOM     32  H   LIG d   1       6.612  -2.319  -7.016  0.00  0.00     0.030 H 
ATOM     33  H   LIG d   1       7.014  -3.933  -7.648  0.00  0.00     0.030 H 
BRANCH  31  34
ATOM     34  C   LIG d   1       4.931  -3.410  -7.806  0.00  0.00    -0.004 C 
ATOM     35  H   LIG d   1       4.400  -2.470  -7.656  0.00  0.00     0.038 H 
ATOM     36  H   LIG d   1       5.095  -3.568  -8.873  0.00  0.00     0.038 H 
BRANCH  34  37
ATOM     37  S   LIG d   1       3.944  -4.775  -7.137  0.00  0.00    -0.164 SA
BRANCH  37  38
ATOM     38  C   LIG d   1       4.192  -6.121  -8.328  0.00  0.00    -0.018 C 
ATOM     39  H   LIG d   1       3.912  -5.780  -9.325  0.00  0.00     0.034 H 
ATOM     40  H   LIG d   1       5.241  -6.419  -8.327  0.00  0.00     0.034 H 
ATOM     41  H   LIG d   1       3.573  -6.973  -8.048  0.00  0.00     0.034 H 
ENDBRANCH  37  38
ENDBRANCH  34  37
ENDBRANCH  31  34
ENDBRANCH   1  31
BRANCH   1  42
ATOM     42  N   LIG d   1       6.176  -2.858  -4.695  0.00  0.00    -0.268 N 
ATOM     43  C   LIG d   1       5.171  -2.716  -3.807  0.00  0.00     0.401 C 
ATOM     44  O   LIG d   1       4.231  -3.485  -3.827  0.00  0.00    -0.226 OA
ATOM     45  H   LIG d   1       6.927  -2.245  -4.679  0.00  0.00     0.153 HD
BRANCH  43  46
ATOM     46  O   LIG d   1       5.210  -1.722  -2.901  0.00  0.00    -0.445 OA
BRANCH  46  47
ATOM     47  C   LIG d   1       4.283  -0.621  -3.089  0.00  0.00     0.107 C 
BRANCH  47  48
ATOM     48  C   LIG d   1       4.415  -0.082  -4.515  0.00  0.00    -0.025 C 
ATOM     49  H   LIG d   1       3.649   0.674  -4.690  0.00  0.00     0.027 H 
ATOM     50  H   LIG d   1       5.401   0.364  -4.646  0.00  0.00     0.027 H 
ATOM     51  H   LIG d   1       4.288  -0.898  -5.226  0.00  0.00     0.027 H 
ENDBRANCH  47  48
BRANCH  47  52
ATOM     52  C   LIG d   1       2.852  -1.114  -2.862  0.00  0.00    -0.025 C 
ATOM     53  H   LIG d   1       2.652  -1.165  -1.792  0.00  0.00     0.027 H 
ATOM     54  H   LIG d   1       2.151  -0.422  -3.330  0.00  0.00     0.027 H 
ATOM     55  H   LIG d   1       2.734  -2.104  -3.303  0.00  0.00     0.027 H 
ENDBRANCH  47  52
BRANCH  47  56
ATOM     56  C   LIG d   1       4.604   0.492  -2.090  0.00  0.00    -0.025 C 
ATOM     57  H   LIG d   1       4.772   0.058  -1.105  0.00  0.00     0.027 H 
ATOM     58  H   LIG d   1       5.502   1.021  -2.412  0.00  0.00     0.027 H 
ATOM     59  H   LIG d   1       3.769   1.190  -2.044  0.00  0.00     0.027 H 
ENDBRANCH  47  56
ENDBRANCH  46  47
ENDBRANCH  43  46
ENDBRANCH   1  42
TORSDOF 16
ENDMDL
MODEL 8
REMARK VINA RESULT:      -5.1      5.927      7.980
REMARK  16 active torsions:
REMARK  status: ('A' for Active; 'I' for Inactive)
REMARK    1  A    between atoms: C_1  and  C_2 
REMARK    2  A    between atoms: C_2  and  C_3 
REMARK    3  A    between atoms: C_3  and  C_4 
REMARK    4  A    between atoms: C_13  and  O_15 
REMARK    5  A    between atoms: O_15  and  C_16 
REMARK    6  A    between atoms: C_16  and  C_18 
REMARK    7  A    between atoms: C_18  and  C_20 
REMARK    8  A    between atoms: C_18  and  N_24 
REMARK    9  A    between atoms: C_20  and  C_21 
REMARK   10  A    between atoms: C_21  and  S_22 
REMARK   11  A    between atoms: S_22  and  C_23 
REMARK       I    between atoms: N_24  and  C_25 
REMARK   12  A    between atoms: C_25  and  O_27 
REMARK   13  A    between atoms: O_27  and  C_28 
REMARK   14  A    between atoms: C_28  and  C_29 
REMARK   15  A    between atoms: C_28  and  C_30 
REMARK   16  A    between atoms: C_28  and  C_31 
ROOT
ATOM      1  C   LIG d   1      10.728   4.435  -4.073  0.00  0.00     0.124 C 
ATOM      2  H   LIG d   1      11.766   4.770  -4.051  0.00  0.00     0.062 H 
ENDROOT
BRANCH   1   3
ATOM      3  C   LIG d   1      10.688   2.941  -4.260  0.00  0.00     0.333 C 
ATOM      4  O   LIG d   1      11.383   2.227  -3.576  0.00  0.00    -0.248 OA
BRANCH   3   5
ATOM      5  O   LIG d   1       9.880   2.401  -5.188  0.00  0.00    -0.423 OA
BRANCH   5   6
ATOM      6  C   LIG d   1       8.931   1.535  -4.749  0.00  0.00     0.153 A 
ATOM      7  C   LIG d   1       9.005   0.189  -5.106  0.00  0.00     0.084 A 
ATOM      8  C   LIG d   1       8.058  -0.695  -4.672  0.00  0.00    -0.029 A 
ATOM      9 CL   LIG d   1      10.309  -0.367  -6.108  0.00  0.00    -0.080 Cl
ATOM     10  C   LIG d   1       7.007  -0.247  -3.865  0.00  0.00     0.022 A 
ATOM     11  H   LIG d   1       8.120  -1.736  -4.952  0.00  0.00     0.064 H 
ATOM     12  C   LIG d   1       5.977  -1.172  -3.385  0.00  0.00    -0.030 A 
ATOM     13  C   LIG d   1       6.927   1.111  -3.501  0.00  0.00     0.143 A 
ATOM     14  C   LIG d   1       4.983  -0.676  -2.604  0.00  0.00     0.027 A 
ATOM     15  C   LIG d   1       4.964   0.697  -2.279  0.00  0.00     0.338 A 
ATOM     16  H   LIG d   1       4.207  -1.330  -2.235  0.00  0.00     0.069 H 
ATOM     17  O   LIG d   1       4.066   1.129  -1.579  0.00  0.00    -0.245 OA
ATOM     18  O   LIG d   1       5.911   1.539  -2.722  0.00  0.00    -0.422 OA
ATOM     19  C   LIG d   1       7.900   1.993  -3.946  0.00  0.00     0.025 A 
ATOM     20  H   LIG d   1       7.851   3.036  -3.671  0.00  0.00     0.069 H 
BRANCH  12  21
ATOM     21  C   LIG d   1       6.020  -2.634  -3.747  0.00  0.00    -0.027 C 
ATOM     22  H   LIG d   1       6.851  -2.816  -4.427  0.00  0.00     0.031 H 
ATOM     23  H   LIG d   1       6.153  -3.228  -2.843  0.00  0.00     0.031 H 
BRANCH  21  24
ATOM     24  C   LIG d   1       4.708  -3.029  -4.428  0.00  0.00    -0.052 C 
ATOM     25  H   LIG d   1       3.964  -3.272  -3.669  0.00  0.00     0.027 H 
ATOM     26  H   LIG d   1       4.349  -2.197  -5.034  0.00  0.00     0.027 H 
BRANCH  24  27
ATOM     27  C   LIG d   1       4.944  -4.247  -5.322  0.00  0.00    -0.065 C 
ATOM     28  H   LIG d   1       3.989  -4.609  -5.704  0.00  0.00     0.023 H 
ATOM     29  H   LIG d   1       5.586  -3.966  -6.157  0.00  0.00     0.023 H 
ATOM     30  H   LIG d   1       5.425  -5.036  -4.742  0.00  0.00     0.023 H 
ENDBRANCH  24  27
ENDBRANCH  21  24
ENDBRANCH  12  21
ENDBRANCH   5   6
ENDBRANCH   3   5
ENDBRANCH   1   3
BRANCH   1  31
ATOM     31  C   LIG d   1      10.046   4.803  -2.754  0.00  0.00    -0.015 C 
ATOM     32  H   LIG d   1       9.403   5.670  -2.907  0.00  0.00     0.030 H 
ATOM     33  H   LIG d   1       9.445   3.963  -2.408  0.00  0.00     0.030 H 
BRANCH  31  34
ATOM     34  C   LIG d   1      11.109   5.135  -1.704  0.00  0.00    -0.004 C 
ATOM     35  H   LIG d   1      11.336   4.242  -1.122  0.00  0.00     0.038 H 
ATOM     36  H   LIG d   1      12.015   5.484  -2.202  0.00  0.00     0.038 H 
BRANCH  34  37
ATOM     37  S   LIG d   1      10.487   6.434  -0.603  0.00  0.00    -0.164 SA
BRANCH  37  38
ATOM     38  C   LIG d   1      11.109   5.957   1.034  0.00  0.00    -0.018 C 
ATOM     39  H   LIG d   1      11.624   4.999   0.961  0.00  0.00     0.034 H 
ATOM     40  H   LIG d   1      11.802   6.716   1.394  0.00  0.00     0.034 H 
ATOM     41  H   LIG d   1      10.274   5.868   1.727  0.00  0.00     0.034 H 
ENDBRANCH  37  38
ENDBRANCH  34  37
ENDBRANCH  31  34
ENDBRANCH   1  31
BRANCH   1  42
ATOM     42  N   LIG d   1      10.028   5.086  -5.183  0.00  0.00    -0.268 N 
ATOM     43  C   LIG d   1      10.720   5.813  -6.083  0.00  0.00     0.401 C 
ATOM     44  O   LIG d   1      11.924   5.929  -5.972  0.00  0.00    -0.226 OA
ATOM     45  H   LIG d   1       9.067   4.993  -5.271  0.00  0.00     0.153 HD
BRANCH  43  46
ATOM     46  O   LIG d   1      10.076   6.411  -7.102  0.00  0.00    -0.445 OA
BRANCH  46  47
ATOM     47  C   LIG d   1       9.889   7.847  -7.012  0.00  0.00     0.107 C 
BRANCH  47  48
ATOM     48  C   LIG d   1       8.887   8.298  -8.077  0.00  0.00    -0.025 C 
ATOM     49  H   LIG d   1       8.079   7.569  -8.148  0.00  0.00     0.027 H 
ATOM     50  H   LIG d   1       8.477   9.270  -7.803  0.00  0.00     0.027 H 
ATOM     51  H   LIG d   1       9.391   8.375  -9.041  0.00  0.00     0.027 H 
ENDBRANCH  47  48
BRANCH  47  52
ATOM     52  C   LIG d   1       9.354   8.206  -5.625  0.00  0.00    -0.025 C 
ATOM     53  H   LIG d   1       9.438   9.281  -5.470  0.00  0.00     0.027 H 
ATOM     54  H   LIG d   1       8.307   7.910  -5.550  0.00  0.00     0.027 H 
ATOM     55  H   LIG d   1       9.933   7.682  -4.865  0.00  0.00     0.027 H 
ENDBRANCH  47  52
BRANCH  47  56
ATOM     56  C   LIG d   1      11.228   8.552  -7.241  0.00  0.00    -0.025 C 
ATOM     57  H   LIG d   1      11.494   8.491  -8.296  0.00  0.00     0.027 H 
ATOM     58  H   LIG d   1      11.141   9.599  -6.947  0.00  0.00     0.027 H 
ATOM     59  H   LIG d   1      11.999   8.069  -6.641  0.00  0.00     0.027 H 
ENDBRANCH  47  56
ENDBRANCH  46  47
ENDBRANCH  43  46
ENDBRANCH   1  42
TORSDOF 16
ENDMDL
MODEL 9
REMARK VINA RESULT:      -5.1      4.117      7.512
REMARK  16 active torsions:
REMARK  status: ('A' for Active; 'I' for Inactive)
REMARK    1  A    between atoms: C_1  and  C_2 
REMARK    2  A    between atoms: C_2  and  C_3 
REMARK    3  A    between atoms: C_3  and  C_4 
REMARK    4  A    between atoms: C_13  and  O_15 
REMARK    5  A    between atoms: O_15  and  C_16 
REMARK    6  A    between atoms: C_16  and  C_18 
REMARK    7  A    between atoms: C_18  and  C_20 
REMARK    8  A    between atoms: C_18  and  N_24 
REMARK    9  A    between atoms: C_20  and  C_21 
REMARK   10  A    between atoms: C_21  and  S_22 
REMARK   11  A    between atoms: S_22  and  C_23 
REMARK       I    between atoms: N_24  and  C_25 
REMARK   12  A    between atoms: C_25  and  O_27 
REMARK   13  A    between atoms: O_27  and  C_28 
REMARK   14  A    between atoms: C_28  and  C_29 
REMARK   15  A    between atoms: C_28  and  C_30 
REMARK   16  A    between atoms: C_28  and  C_31 
ROOT
ATOM      1  C   LIG d   1       5.471  -2.072  -4.634  0.00  0.00     0.124 C 
ATOM      2  H   LIG d   1       5.866  -1.194  -4.121  0.00  0.00     0.062 H 
ENDROOT
BRANCH   1   3
ATOM      3  C   LIG d   1       6.578  -3.073  -4.840  0.00  0.00     0.333 C 
ATOM      4  O   LIG d   1       7.486  -3.143  -4.045  0.00  0.00    -0.248 OA
BRANCH   3   5
ATOM      5  O   LIG d   1       6.558  -3.887  -5.908  0.00  0.00    -0.423 OA
BRANCH   5   6
ATOM      6  C   LIG d   1       6.418  -5.216  -5.668  0.00  0.00     0.153 A 
ATOM      7  C   LIG d   1       5.191  -5.835  -5.902  0.00  0.00     0.084 A 
ATOM      8  C   LIG d   1       5.035  -7.171  -5.666  0.00  0.00    -0.029 A 
ATOM      9 CL   LIG d   1       3.854  -4.902  -6.498  0.00  0.00    -0.080 Cl
ATOM     10  C   LIG d   1       6.112  -7.923  -5.185  0.00  0.00     0.022 A 
ATOM     11  H   LIG d   1       4.082  -7.645  -5.848  0.00  0.00     0.064 H 
ATOM     12  C   LIG d   1       5.973  -9.358  -4.923  0.00  0.00    -0.030 A 
ATOM     13  C   LIG d   1       7.353  -7.304  -4.947  0.00  0.00     0.143 A 
ATOM     14  C   LIG d   1       7.056 -10.033  -4.458  0.00  0.00     0.027 A 
ATOM     15  C   LIG d   1       8.270  -9.348  -4.241  0.00  0.00     0.338 A 
ATOM     16  H   LIG d   1       6.988 -11.091  -4.253  0.00  0.00     0.069 H 
ATOM     17  O   LIG d   1       9.233  -9.964  -3.823  0.00  0.00    -0.245 OA
ATOM     18  O   LIG d   1       8.391  -8.033  -4.484  0.00  0.00    -0.422 OA
ATOM     19  C   LIG d   1       7.496  -5.947  -5.198  0.00  0.00     0.025 A 
ATOM     20  H   LIG d   1       8.445  -5.461  -5.023  0.00  0.00     0.069 H 
BRANCH  12  21
ATOM     21  C   LIG d   1       4.665 -10.066  -5.162  0.00  0.00    -0.027 C 
ATOM     22  H   LIG d   1       3.882  -9.331  -5.348  0.00  0.00     0.031 H 
ATOM     23  H   LIG d   1       4.760 -10.722  -6.027  0.00  0.00     0.031 H 
BRANCH  21  24
ATOM     24  C   LIG d   1       4.302 -10.897  -3.930  0.00  0.00    -0.052 C 
ATOM     25  H   LIG d   1       3.923 -11.869  -4.246  0.00  0.00     0.027 H 
ATOM     26  H   LIG d   1       5.190 -11.037  -3.313  0.00  0.00     0.027 H 
BRANCH  24  27
ATOM     27  C   LIG d   1       3.229 -10.168  -3.121  0.00  0.00    -0.065 C 
ATOM     28  H   LIG d   1       2.759  -9.405  -3.743  0.00  0.00     0.023 H 
ATOM     29  H   LIG d   1       2.474 -10.882  -2.790  0.00  0.00     0.023 H 
ATOM     30  H   LIG d   1       3.687  -9.695  -2.251  0.00  0.00     0.023 H 
ENDBRANCH  24  27
ENDBRANCH  21  24
ENDBRANCH  12  21
ENDBRANCH   5   6
ENDBRANCH   3   5
ENDBRANCH   1   3
BRANCH   1  31
ATOM     31  C   LIG d   1       4.365  -2.702  -3.784  0.00  0.00    -0.015 C 
ATOM     32  H   LIG d   1       3.719  -3.307  -4.420  0.00  0.00     0.030 H 
ATOM     33  H   LIG d   1       4.812  -3.334  -3.017  0.00  0.00     0.030 H 
BRANCH  31  34
ATOM     34  C   LIG d   1       3.540  -1.599  -3.119  0.00  0.00    -0.004 C 
ATOM     35  H   LIG d   1       2.956  -1.075  -3.876  0.00  0.00     0.038 H 
ATOM     36  H   LIG d   1       2.868  -2.042  -2.384  0.00  0.00     0.038 H 
BRANCH  34  37
ATOM     37  S   LIG d   1       4.650  -0.427  -2.294  0.00  0.00    -0.164 SA
BRANCH  37  38
ATOM     38  C   LIG d   1       3.777   1.160  -2.409  0.00  0.00    -0.018 C 
ATOM     39  H   LIG d   1       3.771   1.642  -1.432  0.00  0.00     0.034 H 
ATOM     40  H   LIG d   1       4.284   1.802  -3.129  0.00  0.00     0.034 H 
ATOM     41  H   LIG d   1       2.752   0.987  -2.736  0.00  0.00     0.034 H 
ENDBRANCH  37  38
ENDBRANCH  34  37
ENDBRANCH  31  34
ENDBRANCH   1  31
BRANCH   1  42
ATOM     42  N   LIG d   1       4.922  -1.675  -5.932  0.00  0.00    -0.268 N 
ATOM     43  C   LIG d   1       5.115  -0.422  -6.391  0.00  0.00     0.401 C 
ATOM     44  O   LIG d   1       5.742   0.378  -5.726  0.00  0.00    -0.226 OA
ATOM     45  H   LIG d   1       4.422  -2.314  -6.463  0.00  0.00     0.153 HD
BRANCH  43  46
ATOM     46  O   LIG d   1       4.611  -0.057  -7.584  0.00  0.00    -0.445 OA
BRANCH  46  47
ATOM     47  C   LIG d   1       3.222   0.361  -7.613  0.00  0.00     0.107 C 
BRANCH  47  48
ATOM     48  C   LIG d   1       3.123   1.757  -8.233  0.00  0.00    -0.025 C 
ATOM     49  H   LIG d   1       3.611   1.757  -9.207  0.00  0.00     0.027 H 
ATOM     50  H   LIG d   1       2.074   2.029  -8.351  0.00  0.00     0.027 H 
ATOM     51  H   LIG d   1       3.615   2.479  -7.581  0.00  0.00     0.027 H 
ENDBRANCH  47  48
BRANCH  47  52
ATOM     52  C   LIG d   1       2.408  -0.627  -8.451  0.00  0.00    -0.025 C 
ATOM     53  H   LIG d   1       2.844  -1.621  -8.365  0.00  0.00     0.027 H 
ATOM     54  H   LIG d   1       1.379  -0.648  -8.091  0.00  0.00     0.027 H 
ATOM     55  H   LIG d   1       2.420  -0.314  -9.495  0.00  0.00     0.027 H 
ENDBRANCH  47  52
BRANCH  47  56
ATOM     56  C   LIG d   1       2.670   0.396  -6.187  0.00  0.00    -0.025 C 
ATOM     57  H   LIG d   1       1.673  -0.046  -6.173  0.00  0.00     0.027 H 
ATOM     58  H   LIG d   1       3.328  -0.172  -5.529  0.00  0.00     0.027 H 
ATOM     59  H   LIG d   1       2.615   1.428  -5.843  0.00  0.00     0.027 H 
ENDBRANCH  47  56
ENDBRANCH  46  47
ENDBRANCH  43  46
ENDBRANCH   1  42
TORSDOF 16
ENDMDL
MODEL 10
REMARK VINA RESULT:      -5.1      3.227      6.471
REMARK  16 active torsions:
REMARK  status: ('A' for Active; 'I' for Inactive)
REMARK    1  A    between atoms: C_1  and  C_2 
REMARK    2  A    between atoms: C_2  and  C_3 
REMARK    3  A    between atoms: C_3  and  C_4 
REMARK    4  A    between atoms: C_13  and  O_15 
REMARK    5  A    between atoms: O_15  and  C_16 
REMARK    6  A    between atoms: C_16  and  C_18 
REMARK    7  A    between atoms: C_18  and  C_20 
REMARK    8  A    between atoms: C_18  and  N_24 
REMARK    9  A    between atoms: C_20  and  C_21 
REMARK   10  A    between atoms: C_21  and  S_22 
REMARK   11  A    between atoms: S_22  and  C_23 
REMARK       I    between atoms: N_24  and  C_25 
REMARK   12  A    between atoms: C_25  and  O_27 
REMARK   13  A    between atoms: O_27  and  C_28 
REMARK   14  A    between atoms: C_28  and  C_29 
REMARK   15  A    between atoms: C_28  and  C_30 
REMARK   16  A    between atoms: C_28  and  C_31 
ROOT
ATOM      1  C   LIG d   1       3.967  -0.818  -7.576  0.00  0.00     0.124 C 
ATOM      2  H   LIG d   1       3.520  -1.768  -7.280  0.00  0.00     0.062 H 
ENDROOT
BRANCH   1   3
ATOM      3  C   LIG d   1       5.260  -1.078  -8.305  0.00  0.00     0.333 C 
ATOM      4  O   LIG d   1       6.131  -0.241  -8.309  0.00  0.00    -0.248 OA
BRANCH   3   5
ATOM      5  O   LIG d   1       5.445  -2.241  -8.952  0.00  0.00    -0.423 OA
BRANCH   5   6
ATOM      6  C   LIG d   1       5.586  -3.355  -8.189  0.00  0.00     0.153 A 
ATOM      7  C   LIG d   1       4.564  -4.303  -8.154  0.00  0.00     0.084 A 
ATOM      8  C   LIG d   1       4.692  -5.430  -7.392  0.00  0.00    -0.029 A 
ATOM      9 CL   LIG d   1       3.121  -4.050  -9.085  0.00  0.00    -0.080 Cl
ATOM     10  C   LIG d   1       5.855  -5.633  -6.642  0.00  0.00     0.022 A 
ATOM     11  H   LIG d   1       3.897  -6.160  -7.368  0.00  0.00     0.064 H 
ATOM     12  C   LIG d   1       6.019  -6.832  -5.816  0.00  0.00    -0.030 A 
ATOM     13  C   LIG d   1       6.890  -4.680  -6.673  0.00  0.00     0.143 A 
ATOM     14  C   LIG d   1       7.171  -6.972  -5.110  0.00  0.00     0.027 A 
ATOM     15  C   LIG d   1       8.167  -5.977  -5.188  0.00  0.00     0.338 A 
ATOM     16  H   LIG d   1       7.324  -7.843  -4.491  0.00  0.00     0.069 H 
ATOM     17  O   LIG d   1       9.196  -6.114  -4.551  0.00  0.00    -0.245 OA
ATOM     18  O   LIG d   1       8.011  -4.881  -5.948  0.00  0.00    -0.422 OA
ATOM     19  C   LIG d   1       6.746  -3.545  -7.457  0.00  0.00     0.025 A 
ATOM     20  H   LIG d   1       7.535  -2.808  -7.492  0.00  0.00     0.069 H 
BRANCH  12  21
ATOM     21  C   LIG d   1       4.939  -7.881  -5.749  0.00  0.00    -0.027 C 
ATOM     22  H   LIG d   1       4.056  -7.464  -5.268  0.00  0.00     0.031 H 
ATOM     23  H   LIG d   1       4.685  -8.205  -6.759  0.00  0.00     0.031 H 
BRANCH  21  24
ATOM     24  C   LIG d   1       5.442  -9.080  -4.942  0.00  0.00    -0.052 C 
ATOM     25  H   LIG d   1       5.757  -9.870  -5.623  0.00  0.00     0.027 H 
ATOM     26  H   LIG d   1       6.287  -8.773  -4.326  0.00  0.00     0.027 H 
BRANCH  24  27
ATOM     27  C   LIG d   1       4.318  -9.597  -4.043  0.00  0.00    -0.065 C 
ATOM     28  H   LIG d   1       3.417  -9.751  -4.639  0.00  0.00     0.023 H 
ATOM     29  H   LIG d   1       4.619 -10.542  -3.590  0.00  0.00     0.023 H 
ATOM     30  H   LIG d   1       4.114  -8.866  -3.259  0.00  0.00     0.023 H 
ENDBRANCH  24  27
ENDBRANCH  21  24
ENDBRANCH  12  21
ENDBRANCH   5   6
ENDBRANCH   3   5
ENDBRANCH   1   3
BRANCH   1  31
ATOM     31  C   LIG d   1       3.004  -0.067  -8.497  0.00  0.00    -0.015 C 
ATOM     32  H   LIG d   1       3.322  -0.190  -9.533  0.00  0.00     0.030 H 
ATOM     33  H   LIG d   1       1.998  -0.468  -8.377  0.00  0.00     0.030 H 
BRANCH  31  34
ATOM     34  C   LIG d   1       3.006   1.420  -8.136  0.00  0.00    -0.004 C 
ATOM     35  H   LIG d   1       1.980   1.767  -8.021  0.00  0.00     0.038 H 
ATOM     36  H   LIG d   1       3.546   1.565  -7.199  0.00  0.00     0.038 H 
BRANCH  34  37
ATOM     37  S   LIG d   1       3.820   2.361  -9.454  0.00  0.00    -0.164 SA
BRANCH  37  38
ATOM     38  C   LIG d   1       3.886   1.200 -10.847  0.00  0.00    -0.018 C 
ATOM     39  H   LIG d   1       3.690   0.190 -10.487  0.00  0.00     0.034 H 
ATOM     40  H   LIG d   1       3.133   1.475 -11.585  0.00  0.00     0.034 H 
ATOM     41  H   LIG d   1       4.874   1.237 -11.304  0.00  0.00     0.034 H 
ENDBRANCH  37  38
ENDBRANCH  34  37
ENDBRANCH  31  34
ENDBRANCH   1  31
BRANCH   1  42
ATOM     42  N   LIG d   1       4.232  -0.010  -6.383  0.00  0.00    -0.268 N 
ATOM     43  C   LIG d   1       4.549  -0.610  -5.219  0.00  0.00     0.401 C 
ATOM     44  O   LIG d   1       4.612  -1.822  -5.158  0.00  0.00    -0.226 OA
ATOM     45  H   LIG d   1       4.182   0.957  -6.432  0.00  0.00     0.153 HD
BRANCH  43  46
ATOM     46  O   LIG d   1       4.792   0.132  -4.123  0.00  0.00    -0.445 OA
BRANCH  46  47
ATOM     47  C   LIG d   1       3.852   0.014  -3.024  0.00  0.00     0.107 C 
BRANCH  47  48
ATOM     48  C   LIG d   1       4.360  -1.031  -2.028  0.00  0.00    -0.025 C 
ATOM     49  H   LIG d   1       3.672  -1.876  -2.007  0.00  0.00     0.027 H 
ATOM     50  H   LIG d   1       5.349  -1.374  -2.333  0.00  0.00     0.027 H 
ATOM     51  H   LIG d   1       4.419  -0.586  -1.034  0.00  0.00     0.027 H 
ENDBRANCH  47  48
BRANCH  47  52
ATOM     52  C   LIG d   1       3.717   1.366  -2.320  0.00  0.00    -0.025 C 
ATOM     53  H   LIG d   1       4.115   1.290  -1.309  0.00  0.00     0.027 H 
ATOM     54  H   LIG d   1       4.274   2.122  -2.874  0.00  0.00     0.027 H 
ATOM     55  H   LIG d   1       2.665   1.650  -2.277  0.00  0.00     0.027 H 
ENDBRANCH  47  52
BRANCH  47  56
ATOM     56  C   LIG d   1       2.487  -0.418  -3.565  0.00  0.00    -0.025 C 
ATOM     57  H   LIG d   1       2.626  -1.018  -4.463  0.00  0.00     0.027 H 
ATOM     58  H   LIG d   1       1.968  -1.009  -2.809  0.00  0.00     0.027 H 
ATOM     59  H   LIG d   1       1.895   0.465  -3.804  0.00  0.00     0.027 H 
ENDBRANCH  47  56
ENDBRANCH  46  47
ENDBRANCH  43  46
ENDBRANCH   1  42
TORSDOF 16
ENDMDL
