MODEL 1
REMARK VINA RESULT:      -6.0      0.000      0.000
REMARK  12 active torsions:
REMARK  status: ('A' for Active; 'I' for Inactive)
REMARK    1  A    between atoms: C_1  and  C_2 
REMARK    2  A    between atoms: C_2  and  O_4 
REMARK    3  A    between atoms: O_4  and  C_5 
REMARK    4  A    between atoms: C_9  and  C_29 
REMARK    5  A    between atoms: C_9  and  C_30 
REMARK    6  A    between atoms: C_12  and  C_28 
REMARK    7  A    between atoms: C_15  and  O_18 
REMARK    8  A    between atoms: C_19  and  O_27 
REMARK    9  A    between atoms: C_21  and  C_24 
REMARK   10  A    between atoms: C_21  and  C_25 
REMARK   11  A    between atoms: C_30  and  O_32 
REMARK   12  A    between atoms: O_32  and  C_33 
ROOT
ATOM      1  C   LIG d   1       5.633  -4.084  -7.178  0.00  0.00     0.112 C 
ATOM      2  H   LIG d   1       6.364  -4.416  -6.438  0.00  0.00     0.074 H 
ATOM      3  C   LIG d   1       6.029  -4.623  -8.555  0.00  0.00    -0.014 C 
ATOM      4  C   LIG d   1       5.015  -4.191  -9.607  0.00  0.00    -0.034 C 
ATOM      5  C   LIG d   1       4.867  -2.668  -9.673  0.00  0.00     0.069 C 
ATOM      6  C   LIG d   1       4.645  -2.085  -8.295  0.00  0.00    -0.010 C 
ATOM      7  H   LIG d   1       3.627  -2.409  -7.971  0.00  0.00     0.032 H 
ATOM      8  C   LIG d   1       5.607  -2.558  -7.224  0.00  0.00     0.030 C 
ATOM      9  C   LIG d   1       5.181  -1.994  -5.874  0.00  0.00    -0.056 C 
ATOM     10  C   LIG d   1       4.444  -0.927  -5.785  0.00  0.00    -0.013 C 
ATOM     11  C   LIG d   1       3.933  -0.148  -6.980  0.00  0.00     0.079 C 
ATOM     12  H   LIG d   1       4.106   0.914  -6.809  0.00  0.00     0.064 H 
ATOM     13  C   LIG d   1       4.631  -0.556  -8.278  0.00  0.00    -0.018 C 
ATOM     14  C   LIG d   1       4.022  -0.347  -4.450  0.00  0.00     0.088 C 
ATOM     15  H   LIG d   1       4.044   0.741  -4.515  0.00  0.00     0.065 H 
ATOM     16  C   LIG d   1       4.946  -0.797  -3.326  0.00  0.00     0.016 C 
ATOM     17  C   LIG d   1       5.044  -2.323  -3.371  0.00  0.00    -0.038 C 
ATOM     18  C   LIG d   1       5.689  -2.758  -4.676  0.00  0.00    -0.030 C 
ATOM     19  H   LIG d   1       7.027  -4.298  -8.829  0.00  0.00     0.030 H 
ATOM     20  H   LIG d   1       6.034  -5.721  -8.506  0.00  0.00     0.030 H 
ATOM     21  H   LIG d   1       5.340  -4.555 -10.587  0.00  0.00     0.028 H 
ATOM     22  H   LIG d   1       4.043  -4.635  -9.382  0.00  0.00     0.028 H 
ATOM     23  H   LIG d   1       5.627  -0.131  -8.311  0.00  0.00     0.030 H 
ATOM     24  H   LIG d   1       4.050  -0.170  -9.120  0.00  0.00     0.030 H 
ATOM     25  H   LIG d   1       5.647  -2.676  -2.529  0.00  0.00     0.028 H 
ATOM     26  H   LIG d   1       4.043  -2.759  -3.292  0.00  0.00     0.028 H 
ATOM     27  H   LIG d   1       5.476  -3.824  -4.819  0.00  0.00     0.031 H 
ATOM     28  H   LIG d   1       6.771  -2.646  -4.601  0.00  0.00     0.031 H 
ENDROOT
BRANCH   5  29
ATOM     29  C   LIG d   1       6.046  -2.045 -10.414  0.00  0.00    -0.049 C 
ATOM     30  H   LIG d   1       6.392  -1.165  -9.874  0.00  0.00     0.024 H 
ATOM     31  H   LIG d   1       6.857  -2.772 -10.480  0.00  0.00     0.024 H 
ATOM     32  H   LIG d   1       5.734  -1.757 -11.417  0.00  0.00     0.024 H 
ENDBRANCH   5  29
BRANCH   5  33
ATOM     33  C   LIG d   1       3.616  -2.394 -10.505  0.00  0.00     0.313 C 
ATOM     34  O   LIG d   1       3.721  -1.998 -11.641  0.00  0.00    -0.250 OA
BRANCH  33  35
ATOM     35  O   LIG d   1       2.399  -2.594  -9.974  0.00  0.00    -0.468 OA
BRANCH  35  36
ATOM     36  C   LIG d   1       1.409  -1.597 -10.229  0.00  0.00     0.082 C 
ATOM     37  H   LIG d   1       0.445  -1.935  -9.846  0.00  0.00     0.066 H 
ATOM     38  H   LIG d   1       1.690  -0.669  -9.732  0.00  0.00     0.066 H 
ATOM     39  H   LIG d   1       1.332  -1.426 -11.302  0.00  0.00     0.066 H 
ENDBRANCH  35  36
ENDBRANCH  33  35
ENDBRANCH   5  33
BRANCH   8  40
ATOM     40  C   LIG d   1       7.033  -2.057  -7.462  0.00  0.00    -0.052 C 
ATOM     41  H   LIG d   1       7.688  -2.439  -6.679  0.00  0.00     0.024 H 
ATOM     42  H   LIG d   1       7.384  -2.407  -8.432  0.00  0.00     0.024 H 
ATOM     43  H   LIG d   1       7.043  -0.967  -7.443  0.00  0.00     0.024 H 
ENDBRANCH   8  40
BRANCH   1  44
ATOM     44  O   LIG d   1       4.340  -4.577  -6.824  0.00  0.00    -0.461 OA
BRANCH  44  45
ATOM     45  C   LIG d   1       4.295  -5.719  -6.118  0.00  0.00     0.304 C 
ATOM     46  O   LIG d   1       3.978  -5.695  -4.952  0.00  0.00    -0.251 OA
BRANCH  45  47
ATOM     47  C   LIG d   1       4.639  -7.028  -6.780  0.00  0.00     0.033 C 
ATOM     48  H   LIG d   1       4.026  -7.822  -6.354  0.00  0.00     0.034 H 
ATOM     49  H   LIG d   1       4.448  -6.955  -7.850  0.00  0.00     0.034 H 
ATOM     50  H   LIG d   1       5.692  -7.254  -6.613  0.00  0.00     0.034 H 
ENDBRANCH  45  47
ENDBRANCH  44  45
ENDBRANCH   1  44
BRANCH  11  51
ATOM     51  O   LIG d   1       2.530  -0.374  -7.121  0.00  0.00    -0.387 OA
ATOM     52  H   LIG d   1       2.060  -0.467  -6.281  0.00  0.00     0.210 HD
ENDBRANCH  11  51
BRANCH  14  53
ATOM     53  O   LIG d   1       2.689  -0.768  -4.156  0.00  0.00    -0.387 OA
ATOM     54  H   LIG d   1       2.628  -1.669  -3.810  0.00  0.00     0.210 HD
ENDBRANCH  14  53
BRANCH  16  55
ATOM     55  C   LIG d   1       6.327  -0.159  -3.492  0.00  0.00    -0.053 C 
ATOM     56  H   LIG d   1       6.869  -0.668  -4.289  0.00  0.00     0.024 H 
ATOM     57  H   LIG d   1       6.212   0.895  -3.746  0.00  0.00     0.024 H 
ATOM     58  H   LIG d   1       6.882  -0.249  -2.559  0.00  0.00     0.024 H 
ENDBRANCH  16  55
BRANCH  16  59
ATOM     59  C   LIG d   1       4.359  -0.369  -2.000  0.00  0.00    -0.082 C 
ATOM     60  C   LIG d   1       4.474   0.875  -1.604  0.00  0.00    -0.102 C 
ATOM     61  H   LIG d   1       4.055   1.181  -0.657  0.00  0.00     0.053 H 
ATOM     62  H   LIG d   1       4.986   1.595  -2.225  0.00  0.00     0.053 H 
ATOM     63  H   LIG d   1       3.846  -1.088  -1.379  0.00  0.00     0.057 H 
ENDBRANCH  16  59
TORSDOF 12
ENDMDL
MODEL 2
REMARK VINA RESULT:      -5.7      2.746      5.021
REMARK  12 active torsions:
REMARK  status: ('A' for Active; 'I' for Inactive)
REMARK    1  A    between atoms: C_1  and  C_2 
REMARK    2  A    between atoms: C_2  and  O_4 
REMARK    3  A    between atoms: O_4  and  C_5 
REMARK    4  A    between atoms: C_9  and  C_29 
REMARK    5  A    between atoms: C_9  and  C_30 
REMARK    6  A    between atoms: C_12  and  C_28 
REMARK    7  A    between atoms: C_15  and  O_18 
REMARK    8  A    between atoms: C_19  and  O_27 
REMARK    9  A    between atoms: C_21  and  C_24 
REMARK   10  A    between atoms: C_21  and  C_25 
REMARK   11  A    between atoms: C_30  and  O_32 
REMARK   12  A    between atoms: O_32  and  C_33 
ROOT
ATOM      1  C   LIG d   1       4.128  -0.745  -4.724  0.00  0.00     0.112 C 
ATOM      2  H   LIG d   1       3.977  -1.395  -3.859  0.00  0.00     0.074 H 
ATOM      3  C   LIG d   1       2.767  -0.309  -5.271  0.00  0.00    -0.014 C 
ATOM      4  C   LIG d   1       2.946   0.616  -6.468  0.00  0.00    -0.034 C 
ATOM      5  C   LIG d   1       3.765  -0.040  -7.585  0.00  0.00     0.069 C 
ATOM      6  C   LIG d   1       5.044  -0.637  -7.040  0.00  0.00    -0.010 C 
ATOM      7  H   LIG d   1       5.694   0.221  -6.742  0.00  0.00     0.032 H 
ATOM      8  C   LIG d   1       4.886  -1.506  -5.809  0.00  0.00     0.030 C 
ATOM      9  C   LIG d   1       6.261  -1.922  -5.302  0.00  0.00    -0.056 C 
ATOM     10  C   LIG d   1       7.299  -1.931  -6.084  0.00  0.00    -0.013 C 
ATOM     11  C   LIG d   1       7.264  -1.534  -7.546  0.00  0.00     0.079 C 
ATOM     12  H   LIG d   1       7.801  -2.281  -8.129  0.00  0.00     0.064 H 
ATOM     13  C   LIG d   1       5.836  -1.429  -8.082  0.00  0.00    -0.018 C 
ATOM     14  C   LIG d   1       8.672  -2.355  -5.598  0.00  0.00     0.088 C 
ATOM     15  H   LIG d   1       9.168  -2.917  -6.390  0.00  0.00     0.065 H 
ATOM     16  C   LIG d   1       8.581  -3.224  -4.351  0.00  0.00     0.016 C 
ATOM     17  C   LIG d   1       7.724  -2.489  -3.319  0.00  0.00    -0.038 C 
ATOM     18  C   LIG d   1       6.308  -2.327  -3.849  0.00  0.00    -0.030 C 
ATOM     19  H   LIG d   1       2.160  -1.167  -5.538  0.00  0.00     0.030 H 
ATOM     20  H   LIG d   1       2.238   0.243  -4.480  0.00  0.00     0.030 H 
ATOM     21  H   LIG d   1       1.962   0.883  -6.866  0.00  0.00     0.028 H 
ATOM     22  H   LIG d   1       3.447   1.533  -6.150  0.00  0.00     0.028 H 
ATOM     23  H   LIG d   1       5.429  -2.419  -8.246  0.00  0.00     0.030 H 
ATOM     24  H   LIG d   1       5.861  -0.890  -9.033  0.00  0.00     0.030 H 
ATOM     25  H   LIG d   1       7.702  -3.063  -2.387  0.00  0.00     0.028 H 
ATOM     26  H   LIG d   1       8.155  -1.505  -3.114  0.00  0.00     0.028 H 
ATOM     27  H   LIG d   1       5.811  -1.555  -3.250  0.00  0.00     0.031 H 
ATOM     28  H   LIG d   1       5.759  -3.258  -3.709  0.00  0.00     0.031 H 
ENDROOT
BRANCH   5  29
ATOM     29  C   LIG d   1       2.911  -1.038  -8.361  0.00  0.00    -0.049 C 
ATOM     30  H   LIG d   1       2.990  -0.833  -9.428  0.00  0.00     0.024 H 
ATOM     31  H   LIG d   1       3.262  -2.051  -8.159  0.00  0.00     0.024 H 
ATOM     32  H   LIG d   1       1.871  -0.945  -8.049  0.00  0.00     0.024 H 
ENDBRANCH   5  29
BRANCH   5  33
ATOM     33  C   LIG d   1       4.143   1.078  -8.553  0.00  0.00     0.313 C 
ATOM     34  O   LIG d   1       5.130   1.744  -8.351  0.00  0.00    -0.250 OA
BRANCH  33  35
ATOM     35  O   LIG d   1       3.380   1.320  -9.632  0.00  0.00    -0.468 OA
BRANCH  35  36
ATOM     36  C   LIG d   1       4.019   1.252 -10.907  0.00  0.00     0.082 C 
ATOM     37  H   LIG d   1       4.976   1.774 -10.863  0.00  0.00     0.066 H 
ATOM     38  H   LIG d   1       4.187   0.210 -11.176  0.00  0.00     0.066 H 
ATOM     39  H   LIG d   1       3.384   1.724 -11.658  0.00  0.00     0.066 H 
ENDBRANCH  35  36
ENDBRANCH  33  35
ENDBRANCH   5  33
BRANCH   8  40
ATOM     40  C   LIG d   1       4.133  -2.803  -6.107  0.00  0.00    -0.052 C 
ATOM     41  H   LIG d   1       3.685  -2.744  -7.099  0.00  0.00     0.024 H 
ATOM     42  H   LIG d   1       4.826  -3.643  -6.071  0.00  0.00     0.024 H 
ATOM     43  H   LIG d   1       3.349  -2.948  -5.363  0.00  0.00     0.024 H 
ENDBRANCH   8  40
BRANCH   1  44
ATOM     44  O   LIG d   1       4.876   0.405  -4.329  0.00  0.00    -0.461 OA
BRANCH  44  45
ATOM     45  C   LIG d   1       4.472   1.044  -3.219  0.00  0.00     0.304 C 
ATOM     46  O   LIG d   1       4.010   2.158  -3.297  0.00  0.00    -0.251 OA
BRANCH  45  47
ATOM     47  C   LIG d   1       4.595   0.372  -1.875  0.00  0.00     0.033 C 
ATOM     48  H   LIG d   1       4.039   0.943  -1.132  0.00  0.00     0.034 H 
ATOM     49  H   LIG d   1       4.190  -0.637  -1.936  0.00  0.00     0.034 H 
ATOM     50  H   LIG d   1       5.645   0.326  -1.587  0.00  0.00     0.034 H 
ENDBRANCH  45  47
ENDBRANCH  44  45
ENDBRANCH   1  44
BRANCH  11  51
ATOM     51  O   LIG d   1       7.909  -0.269  -7.703  0.00  0.00    -0.387 OA
ATOM     52  H   LIG d   1       8.613  -0.105  -7.061  0.00  0.00     0.210 HD
ENDBRANCH  11  51
BRANCH  14  53
ATOM     53  O   LIG d   1       9.444  -1.190  -5.302  0.00  0.00    -0.387 OA
ATOM     54  H   LIG d   1       9.329  -0.470  -5.937  0.00  0.00     0.210 HD
ENDBRANCH  14  53
BRANCH  16  55
ATOM     55  C   LIG d   1       7.969  -4.582  -4.699  0.00  0.00    -0.053 C 
ATOM     56  H   LIG d   1       7.128  -4.438  -5.379  0.00  0.00     0.024 H 
ATOM     57  H   LIG d   1       8.721  -5.208  -5.178  0.00  0.00     0.024 H 
ATOM     58  H   LIG d   1       7.620  -5.067  -3.787  0.00  0.00     0.024 H 
ENDBRANCH  16  55
BRANCH  16  59
ATOM     59  C   LIG d   1       9.970  -3.436  -3.792  0.00  0.00    -0.082 C 
ATOM     60  C   LIG d   1      10.141  -4.182  -2.730  0.00  0.00    -0.102 C 
ATOM     61  H   LIG d   1      11.133  -4.334  -2.330  0.00  0.00     0.053 H 
ATOM     62  H   LIG d   1       9.291  -4.647  -2.253  0.00  0.00     0.053 H 
ATOM     63  H   LIG d   1      10.821  -2.972  -4.269  0.00  0.00     0.057 H 
ENDBRANCH  16  59
TORSDOF 12
ENDMDL
MODEL 3
REMARK VINA RESULT:      -5.6      2.042      5.766
REMARK  12 active torsions:
REMARK  status: ('A' for Active; 'I' for Inactive)
REMARK    1  A    between atoms: C_1  and  C_2 
REMARK    2  A    between atoms: C_2  and  O_4 
REMARK    3  A    between atoms: O_4  and  C_5 
REMARK    4  A    between atoms: C_9  and  C_29 
REMARK    5  A    between atoms: C_9  and  C_30 
REMARK    6  A    between atoms: C_12  and  C_28 
REMARK    7  A    between atoms: C_15  and  O_18 
REMARK    8  A    between atoms: C_19  and  O_27 
REMARK    9  A    between atoms: C_21  and  C_24 
REMARK   10  A    between atoms: C_21  and  C_25 
REMARK   11  A    between atoms: C_30  and  O_32 
REMARK   12  A    between atoms: O_32  and  C_33 
ROOT
ATOM      1  C   LIG d   1       5.360  -0.848  -4.574  0.00  0.00     0.112 C 
ATOM      2  H   LIG d   1       4.887   0.135  -4.518  0.00  0.00     0.074 H 
ATOM      3  C   LIG d   1       6.521  -0.906  -3.578  0.00  0.00    -0.014 C 
ATOM      4  C   LIG d   1       7.191  -2.273  -3.620  0.00  0.00    -0.034 C 
ATOM      5  C   LIG d   1       7.697  -2.625  -5.023  0.00  0.00     0.069 C 
ATOM      6  C   LIG d   1       6.615  -2.410  -6.058  0.00  0.00    -0.010 C 
ATOM      7  H   LIG d   1       5.843  -3.197  -5.881  0.00  0.00     0.032 H 
ATOM      8  C   LIG d   1       5.896  -1.078  -5.985  0.00  0.00     0.030 C 
ATOM      9  C   LIG d   1       4.755  -1.061  -6.994  0.00  0.00    -0.056 C 
ATOM     10  C   LIG d   1       4.753  -1.844  -8.031  0.00  0.00    -0.013 C 
ATOM     11  C   LIG d   1       5.851  -2.841  -8.343  0.00  0.00     0.079 C 
ATOM     12  H   LIG d   1       6.122  -2.752  -9.394  0.00  0.00     0.064 H 
ATOM     13  C   LIG d   1       7.102  -2.608  -7.494  0.00  0.00    -0.018 C 
ATOM     14  C   LIG d   1       3.632  -1.830  -9.051  0.00  0.00     0.088 C 
ATOM     15  H   LIG d   1       4.057  -1.969 -10.046  0.00  0.00     0.065 H 
ATOM     16  C   LIG d   1       2.861  -0.518  -9.019  0.00  0.00     0.016 C 
ATOM     17  C   LIG d   1       2.430  -0.253  -7.575  0.00  0.00    -0.038 C 
ATOM     18  C   LIG d   1       3.658  -0.067  -6.698  0.00  0.00    -0.030 C 
ATOM     19  H   LIG d   1       7.243  -0.120  -3.774  0.00  0.00     0.030 H 
ATOM     20  H   LIG d   1       6.117  -0.746  -2.568  0.00  0.00     0.030 H 
ATOM     21  H   LIG d   1       8.040  -2.278  -2.929  0.00  0.00     0.028 H 
ATOM     22  H   LIG d   1       6.481  -3.037  -3.295  0.00  0.00     0.028 H 
ATOM     23  H   LIG d   1       7.648  -1.750  -7.869  0.00  0.00     0.030 H 
ATOM     24  H   LIG d   1       7.738  -3.494  -7.563  0.00  0.00     0.030 H 
ATOM     25  H   LIG d   1       1.814   0.650  -7.537  0.00  0.00     0.028 H 
ATOM     26  H   LIG d   1       1.839  -1.096  -7.206  0.00  0.00     0.028 H 
ATOM     27  H   LIG d   1       3.348  -0.183  -5.654  0.00  0.00     0.031 H 
ATOM     28  H   LIG d   1       4.040   0.947  -6.818  0.00  0.00     0.031 H 
ENDROOT
BRANCH   5  29
ATOM     29  C   LIG d   1       8.989  -1.875  -5.330  0.00  0.00    -0.049 C 
ATOM     30  H   LIG d   1       9.833  -2.413  -4.899  0.00  0.00     0.024 H 
ATOM     31  H   LIG d   1       9.118  -1.802  -6.410  0.00  0.00     0.024 H 
ATOM     32  H   LIG d   1       8.939  -0.875  -4.901  0.00  0.00     0.024 H 
ENDBRANCH   5  29
BRANCH   5  33
ATOM     33  C   LIG d   1       8.034  -4.113  -4.997  0.00  0.00     0.313 C 
ATOM     34  O   LIG d   1       9.183  -4.471  -4.903  0.00  0.00    -0.250 OA
BRANCH  33  35
ATOM     35  O   LIG d   1       7.051  -5.026  -5.079  0.00  0.00    -0.468 OA
BRANCH  35  36
ATOM     36  C   LIG d   1       7.309  -6.187  -5.871  0.00  0.00     0.082 C 
ATOM     37  H   LIG d   1       6.795  -7.045  -5.437  0.00  0.00     0.066 H 
ATOM     38  H   LIG d   1       6.949  -6.023  -6.886  0.00  0.00     0.066 H 
ATOM     39  H   LIG d   1       8.382  -6.381  -5.892  0.00  0.00     0.066 H 
ENDBRANCH  35  36
ENDBRANCH  33  35
ENDBRANCH   5  33
BRANCH   8  40
ATOM     40  C   LIG d   1       6.807   0.094  -6.354  0.00  0.00    -0.052 C 
ATOM     41  H   LIG d   1       6.289   0.750  -7.054  0.00  0.00     0.024 H 
ATOM     42  H   LIG d   1       7.063   0.653  -5.454  0.00  0.00     0.024 H 
ATOM     43  H   LIG d   1       7.718  -0.285  -6.817  0.00  0.00     0.024 H 
ENDBRANCH   8  40
BRANCH   1  44
ATOM     44  O   LIG d   1       4.402  -1.856  -4.252  0.00  0.00    -0.461 OA
BRANCH  44  45
ATOM     45  C   LIG d   1       3.640  -1.649  -3.165  0.00  0.00     0.304 C 
ATOM     46  O   LIG d   1       3.579  -2.492  -2.301  0.00  0.00    -0.251 OA
BRANCH  45  47
ATOM     47  C   LIG d   1       2.863  -0.366  -3.023  0.00  0.00     0.033 C 
ATOM     48  H   LIG d   1       1.806  -0.561  -3.204  0.00  0.00     0.034 H 
ATOM     49  H   LIG d   1       2.993   0.028  -2.015  0.00  0.00     0.034 H 
ATOM     50  H   LIG d   1       3.227   0.361  -3.748  0.00  0.00     0.034 H 
ENDBRANCH  45  47
ENDBRANCH  44  45
ENDBRANCH   1  44
BRANCH  11  51
ATOM     51  O   LIG d   1       5.367  -4.162  -8.096  0.00  0.00    -0.387 OA
ATOM     52  H   LIG d   1       4.704  -4.463  -8.732  0.00  0.00     0.210 HD
ENDBRANCH  11  51
BRANCH  14  53
ATOM     53  O   LIG d   1       2.734  -2.907  -8.775  0.00  0.00    -0.387 OA
ATOM     54  H   LIG d   1       2.191  -2.774  -7.987  0.00  0.00     0.210 HD
ENDBRANCH  14  53
BRANCH  16  55
ATOM     55  C   LIG d   1       3.738   0.622  -9.542  0.00  0.00    -0.053 C 
ATOM     56  H   LIG d   1       3.454   1.553  -9.052  0.00  0.00     0.024 H 
ATOM     57  H   LIG d   1       4.784   0.402  -9.328  0.00  0.00     0.024 H 
ATOM     58  H   LIG d   1       3.600   0.721 -10.619  0.00  0.00     0.024 H 
ENDBRANCH  16  55
BRANCH  16  59
ATOM     59  C   LIG d   1       1.635  -0.640  -9.895  0.00  0.00    -0.082 C 
ATOM     60  C   LIG d   1       1.767  -0.753 -11.193  0.00  0.00    -0.102 C 
ATOM     61  H   LIG d   1       0.891  -0.842 -11.819  0.00  0.00     0.053 H 
ATOM     62  H   LIG d   1       2.751  -0.760 -11.638  0.00  0.00     0.053 H 
ATOM     63  H   LIG d   1       0.651  -0.635  -9.451  0.00  0.00     0.057 H 
ENDBRANCH  16  59
TORSDOF 12
ENDMDL
MODEL 4
REMARK VINA RESULT:      -5.6      2.727      6.556
REMARK  12 active torsions:
REMARK  status: ('A' for Active; 'I' for Inactive)
REMARK    1  A    between atoms: C_1  and  C_2 
REMARK    2  A    between atoms: C_2  and  O_4 
REMARK    3  A    between atoms: O_4  and  C_5 
REMARK    4  A    between atoms: C_9  and  C_29 
REMARK    5  A    between atoms: C_9  and  C_30 
REMARK    6  A    between atoms: C_12  and  C_28 
REMARK    7  A    between atoms: C_15  and  O_18 
REMARK    8  A    between atoms: C_19  and  O_27 
REMARK    9  A    between atoms: C_21  and  C_24 
REMARK   10  A    between atoms: C_21  and  C_25 
REMARK   11  A    between atoms: C_30  and  O_32 
REMARK   12  A    between atoms: O_32  and  C_33 
ROOT
ATOM      1  C   LIG d   1       7.202  -0.643  -6.891  0.00  0.00     0.112 C 
ATOM      2  H   LIG d   1       7.520  -1.233  -7.753  0.00  0.00     0.074 H 
ATOM      3  C   LIG d   1       8.168  -0.884  -5.728  0.00  0.00    -0.014 C 
ATOM      4  C   LIG d   1       7.759  -0.058  -4.516  0.00  0.00    -0.034 C 
ATOM      5  C   LIG d   1       6.325  -0.362  -4.068  0.00  0.00     0.069 C 
ATOM      6  C   LIG d   1       5.368  -0.299  -5.237  0.00  0.00    -0.010 C 
ATOM      7  H   LIG d   1       5.300   0.774  -5.537  0.00  0.00     0.032 H 
ATOM      8  C   LIG d   1       5.795  -1.065  -6.473  0.00  0.00     0.030 C 
ATOM      9  C   LIG d   1       4.806  -0.801  -7.601  0.00  0.00    -0.056 C 
ATOM     10  C   LIG d   1       3.591  -0.407  -7.361  0.00  0.00    -0.013 C 
ATOM     11  C   LIG d   1       3.037  -0.165  -5.972  0.00  0.00     0.079 C 
ATOM     12  H   LIG d   1       2.059  -0.638  -5.893  0.00  0.00     0.064 H 
ATOM     13  C   LIG d   1       3.945  -0.733  -4.880  0.00  0.00    -0.018 C 
ATOM     14  C   LIG d   1       2.591  -0.153  -8.471  0.00  0.00     0.088 C 
ATOM     15  H   LIG d   1       1.607  -0.492  -8.145  0.00  0.00     0.065 H 
ATOM     16  C   LIG d   1       2.973  -0.887  -9.749  0.00  0.00     0.016 C 
ATOM     17  C   LIG d   1       4.423  -0.535 -10.086  0.00  0.00    -0.038 C 
ATOM     18  C   LIG d   1       5.343  -1.045  -8.990  0.00  0.00    -0.030 C 
ATOM     19  H   LIG d   1       8.216  -1.938  -5.474  0.00  0.00     0.030 H 
ATOM     20  H   LIG d   1       9.172  -0.568  -6.043  0.00  0.00     0.030 H 
ATOM     21  H   LIG d   1       8.439  -0.277  -3.687  0.00  0.00     0.028 H 
ATOM     22  H   LIG d   1       7.840   1.005  -4.754  0.00  0.00     0.028 H 
ATOM     23  H   LIG d   1       3.839  -1.810  -4.834  0.00  0.00     0.030 H 
ATOM     24  H   LIG d   1       3.645  -0.303  -3.921  0.00  0.00     0.030 H 
ATOM     25  H   LIG d   1       4.699  -0.996 -11.040  0.00  0.00     0.028 H 
ATOM     26  H   LIG d   1       4.527   0.550 -10.179  0.00  0.00     0.028 H 
ATOM     27  H   LIG d   1       6.306  -0.532  -9.092  0.00  0.00     0.031 H 
ATOM     28  H   LIG d   1       5.522  -2.111  -9.132  0.00  0.00     0.031 H 
ENDROOT
BRANCH   5  29
ATOM     29  C   LIG d   1       6.270  -1.683  -3.307  0.00  0.00    -0.049 C 
ATOM     30  H   LIG d   1       5.341  -2.201  -3.543  0.00  0.00     0.024 H 
ATOM     31  H   LIG d   1       7.117  -2.306  -3.599  0.00  0.00     0.024 H 
ATOM     32  H   LIG d   1       6.316  -1.487  -2.237  0.00  0.00     0.024 H 
ENDBRANCH   5  29
BRANCH   5  33
ATOM     33  C   LIG d   1       5.940   0.741  -3.085  0.00  0.00     0.313 C 
ATOM     34  O   LIG d   1       6.371   1.859  -3.233  0.00  0.00    -0.250 OA
BRANCH  33  35
ATOM     35  O   LIG d   1       5.120   0.467  -2.057  0.00  0.00    -0.468 OA
BRANCH  35  36
ATOM     36  C   LIG d   1       3.891   1.194  -1.997  0.00  0.00     0.082 C 
ATOM     37  H   LIG d   1       3.632   1.386  -0.955  0.00  0.00     0.066 H 
ATOM     38  H   LIG d   1       4.002   2.142  -2.523  0.00  0.00     0.066 H 
ATOM     39  H   LIG d   1       3.099   0.609  -2.465  0.00  0.00     0.066 H 
ENDBRANCH  35  36
ENDBRANCH  33  35
ENDBRANCH   5  33
BRANCH   8  40
ATOM     40  C   LIG d   1       5.791  -2.578  -6.250  0.00  0.00    -0.052 C 
ATOM     41  H   LIG d   1       6.589  -2.846  -5.557  0.00  0.00     0.024 H 
ATOM     42  H   LIG d   1       4.831  -2.881  -5.832  0.00  0.00     0.024 H 
ATOM     43  H   LIG d   1       5.950  -3.087  -7.201  0.00  0.00     0.024 H 
ENDBRANCH   8  40
BRANCH   1  44
ATOM     44  O   LIG d   1       7.206   0.743  -7.237  0.00  0.00    -0.461 OA
BRANCH  44  45
ATOM     45  C   LIG d   1       8.236   1.184  -7.978  0.00  0.00     0.304 C 
ATOM     46  O   LIG d   1       8.524   0.622  -9.008  0.00  0.00    -0.251 OA
BRANCH  45  47
ATOM     47  C   LIG d   1       9.033   2.380  -7.524  0.00  0.00     0.033 C 
ATOM     48  H   LIG d   1       9.689   2.706  -8.331  0.00  0.00     0.034 H 
ATOM     49  H   LIG d   1       8.353   3.189  -7.258  0.00  0.00     0.034 H 
ATOM     50  H   LIG d   1       9.634   2.109  -6.656  0.00  0.00     0.034 H 
ENDBRANCH  45  47
ENDBRANCH  44  45
ENDBRANCH   1  44
BRANCH  11  51
ATOM     51  O   LIG d   1       2.892   1.241  -5.764  0.00  0.00    -0.387 OA
ATOM     52  H   LIG d   1       2.923   1.764  -6.577  0.00  0.00     0.210 HD
ENDBRANCH  11  51
BRANCH  14  53
ATOM     53  O   LIG d   1       2.533   1.250  -8.737  0.00  0.00    -0.387 OA
ATOM     54  H   LIG d   1       1.658   1.564  -9.005  0.00  0.00     0.210 HD
ENDBRANCH  14  53
BRANCH  16  55
ATOM     55  C   LIG d   1       2.810  -2.397  -9.557  0.00  0.00    -0.053 C 
ATOM     56  H   LIG d   1       2.163  -2.586  -8.701  0.00  0.00     0.024 H 
ATOM     57  H   LIG d   1       2.365  -2.830 -10.453  0.00  0.00     0.024 H 
ATOM     58  H   LIG d   1       3.787  -2.847  -9.382  0.00  0.00     0.024 H 
ENDBRANCH  16  55
BRANCH  16  59
ATOM     59  C   LIG d   1       2.070  -0.431 -10.872  0.00  0.00    -0.082 C 
ATOM     60  C   LIG d   1       1.145  -1.235 -11.337  0.00  0.00    -0.102 C 
ATOM     61  H   LIG d   1       0.500  -0.909 -12.139  0.00  0.00     0.053 H 
ATOM     62  H   LIG d   1       1.027  -2.223 -10.917  0.00  0.00     0.053 H 
ATOM     63  H   LIG d   1       2.187   0.557 -11.293  0.00  0.00     0.057 H 
ENDBRANCH  16  59
TORSDOF 12
ENDMDL
MODEL 5
REMARK VINA RESULT:      -5.5      2.738      4.858
REMARK  12 active torsions:
REMARK  status: ('A' for Active; 'I' for Inactive)
REMARK    1  A    between atoms: C_1  and  C_2 
REMARK    2  A    between atoms: C_2  and  O_4 
REMARK    3  A    between atoms: O_4  and  C_5 
REMARK    4  A    between atoms: C_9  and  C_29 
REMARK    5  A    between atoms: C_9  and  C_30 
REMARK    6  A    between atoms: C_12  and  C_28 
REMARK    7  A    between atoms: C_15  and  O_18 
REMARK    8  A    between atoms: C_19  and  O_27 
REMARK    9  A    between atoms: C_21  and  C_24 
REMARK   10  A    between atoms: C_21  and  C_25 
REMARK   11  A    between atoms: C_30  and  O_32 
REMARK   12  A    between atoms: O_32  and  C_33 
ROOT
ATOM      1  C   LIG d   1       5.144  -3.191  -7.210  0.00  0.00     0.112 C 
ATOM      2  H   LIG d   1       4.064  -3.076  -7.095  0.00  0.00     0.074 H 
ATOM      3  C   LIG d   1       5.429  -4.306  -8.219  0.00  0.00    -0.014 C 
ATOM      4  C   LIG d   1       6.929  -4.477  -8.415  0.00  0.00    -0.034 C 
ATOM      5  C   LIG d   1       7.652  -4.775  -7.097  0.00  0.00     0.069 C 
ATOM      6  C   LIG d   1       7.256  -3.785  -6.025  0.00  0.00    -0.010 C 
ATOM      7  H   LIG d   1       7.696  -2.802  -6.320  0.00  0.00     0.032 H 
ATOM      8  C   LIG d   1       5.766  -3.557  -5.865  0.00  0.00     0.030 C 
ATOM      9  C   LIG d   1       5.529  -2.446  -4.851  0.00  0.00    -0.056 C 
ATOM     10  C   LIG d   1       6.422  -2.138  -3.959  0.00  0.00    -0.013 C 
ATOM     11  C   LIG d   1       7.767  -2.824  -3.833  0.00  0.00     0.079 C 
ATOM     12  H   LIG d   1       7.946  -3.063  -2.785  0.00  0.00     0.064 H 
ATOM     13  C   LIG d   1       7.835  -4.115  -4.649  0.00  0.00    -0.018 C 
ATOM     14  C   LIG d   1       6.195  -1.043  -2.934  0.00  0.00     0.088 C 
ATOM     15  H   LIG d   1       6.629  -1.355  -1.983  0.00  0.00     0.065 H 
ATOM     16  C   LIG d   1       4.713  -0.759  -2.737  0.00  0.00     0.016 C 
ATOM     17  C   LIG d   1       4.089  -0.504  -4.110  0.00  0.00    -0.038 C 
ATOM     18  C   LIG d   1       4.189  -1.759  -4.961  0.00  0.00    -0.030 C 
ATOM     19  H   LIG d   1       4.975  -5.241  -7.905  0.00  0.00     0.030 H 
ATOM     20  H   LIG d   1       4.981  -4.023  -9.182  0.00  0.00     0.030 H 
ATOM     21  H   LIG d   1       7.109  -5.304  -9.109  0.00  0.00     0.028 H 
ATOM     22  H   LIG d   1       7.346  -3.567  -8.852  0.00  0.00     0.028 H 
ATOM     23  H   LIG d   1       7.285  -4.900  -4.145  0.00  0.00     0.030 H 
ATOM     24  H   LIG d   1       8.883  -4.414  -4.738  0.00  0.00     0.030 H 
ATOM     25  H   LIG d   1       3.037  -0.227  -3.988  0.00  0.00     0.028 H 
ATOM     26  H   LIG d   1       4.612   0.319  -4.606  0.00  0.00     0.028 H 
ATOM     27  H   LIG d   1       4.023  -1.473  -6.005  0.00  0.00     0.031 H 
ATOM     28  H   LIG d   1       3.397  -2.453  -4.679  0.00  0.00     0.031 H 
ENDROOT
BRANCH   5  29
ATOM     29  C   LIG d   1       7.443  -6.230  -6.688  0.00  0.00    -0.049 C 
ATOM     30  H   LIG d   1       8.408  -6.696  -6.492  0.00  0.00     0.024 H 
ATOM     31  H   LIG d   1       6.831  -6.269  -5.786  0.00  0.00     0.024 H 
ATOM     32  H   LIG d   1       6.938  -6.764  -7.493  0.00  0.00     0.024 H 
ENDBRANCH   5  29
BRANCH   5  33
ATOM     33  C   LIG d   1       9.143  -4.595  -7.375  0.00  0.00     0.313 C 
ATOM     34  O   LIG d   1       9.551  -3.553  -7.829  0.00  0.00    -0.250 OA
BRANCH  33  35
ATOM     35  O   LIG d   1      10.000  -5.595  -7.113  0.00  0.00    -0.468 OA
BRANCH  35  36
ATOM     36  C   LIG d   1      11.076  -5.309  -6.217  0.00  0.00     0.082 C 
ATOM     37  H   LIG d   1      12.022  -5.360  -6.756  0.00  0.00     0.066 H 
ATOM     38  H   LIG d   1      10.948  -4.310  -5.802  0.00  0.00     0.066 H 
ATOM     39  H   LIG d   1      11.079  -6.041  -5.409  0.00  0.00     0.066 H 
ENDBRANCH  35  36
ENDBRANCH  33  35
ENDBRANCH   5  33
BRANCH   8  40
ATOM     40  C   LIG d   1       5.046  -4.792  -5.319  0.00  0.00    -0.052 C 
ATOM     41  H   LIG d   1       5.536  -5.692  -5.690  0.00  0.00     0.024 H 
ATOM     42  H   LIG d   1       5.080  -4.781  -4.230  0.00  0.00     0.024 H 
ATOM     43  H   LIG d   1       4.006  -4.782  -5.650  0.00  0.00     0.024 H 
ENDBRANCH   8  40
BRANCH   1  44
ATOM     44  O   LIG d   1       5.704  -1.965  -7.682  0.00  0.00    -0.461 OA
BRANCH  44  45
ATOM     45  C   LIG d   1       5.008  -1.295  -8.615  0.00  0.00     0.304 C 
ATOM     46  O   LIG d   1       5.571  -0.858  -9.591  0.00  0.00    -0.251 OA
BRANCH  45  47
ATOM     47  C   LIG d   1       3.525  -1.089  -8.445  0.00  0.00     0.033 C 
ATOM     48  H   LIG d   1       2.989  -1.698  -9.173  0.00  0.00     0.034 H 
ATOM     49  H   LIG d   1       3.231  -1.383  -7.438  0.00  0.00     0.034 H 
ATOM     50  H   LIG d   1       3.283  -0.038  -8.604  0.00  0.00     0.034 H 
ENDBRANCH  45  47
ENDBRANCH  44  45
ENDBRANCH   1  44
BRANCH  11  51
ATOM     51  O   LIG d   1       8.789  -1.937  -4.289  0.00  0.00    -0.387 OA
ATOM     52  H   LIG d   1       9.683  -2.201  -4.031  0.00  0.00     0.210 HD
ENDBRANCH  11  51
BRANCH  14  53
ATOM     53  O   LIG d   1       6.847   0.151  -3.372  0.00  0.00    -0.387 OA
ATOM     54  H   LIG d   1       6.773   0.889  -2.753  0.00  0.00     0.210 HD
ENDBRANCH  14  53
BRANCH  16  55
ATOM     55  C   LIG d   1       4.037  -1.944  -2.044  0.00  0.00    -0.053 C 
ATOM     56  H   LIG d   1       3.163  -1.592  -1.495  0.00  0.00     0.024 H 
ATOM     57  H   LIG d   1       3.728  -2.674  -2.791  0.00  0.00     0.024 H 
ATOM     58  H   LIG d   1       4.739  -2.407  -1.351  0.00  0.00     0.024 H 
ENDBRANCH  16  55
BRANCH  16  59
ATOM     59  C   LIG d   1       4.555   0.474  -1.875  0.00  0.00    -0.082 C 
ATOM     60  C   LIG d   1       3.735   1.428  -2.242  0.00  0.00    -0.102 C 
ATOM     61  H   LIG d   1       3.622   2.308  -1.626  0.00  0.00     0.053 H 
ATOM     62  H   LIG d   1       3.172   1.334  -3.158  0.00  0.00     0.053 H 
ATOM     63  H   LIG d   1       5.117   0.568  -0.958  0.00  0.00     0.057 H 
ENDBRANCH  16  59
TORSDOF 12
ENDMDL
MODEL 6
REMARK VINA RESULT:      -5.5      4.213      6.330
REMARK  12 active torsions:
REMARK  status: ('A' for Active; 'I' for Inactive)
REMARK    1  A    between atoms: C_1  and  C_2 
REMARK    2  A    between atoms: C_2  and  O_4 
REMARK    3  A    between atoms: O_4  and  C_5 
REMARK    4  A    between atoms: C_9  and  C_29 
REMARK    5  A    between atoms: C_9  and  C_30 
REMARK    6  A    between atoms: C_12  and  C_28 
REMARK    7  A    between atoms: C_15  and  O_18 
REMARK    8  A    between atoms: C_19  and  O_27 
REMARK    9  A    between atoms: C_21  and  C_24 
REMARK   10  A    between atoms: C_21  and  C_25 
REMARK   11  A    between atoms: C_30  and  O_32 
REMARK   12  A    between atoms: O_32  and  C_33 
ROOT
ATOM      1  C   LIG d   1       7.347   0.437  -7.875  0.00  0.00     0.112 C 
ATOM      2  H   LIG d   1       6.746  -0.447  -8.095  0.00  0.00     0.074 H 
ATOM      3  C   LIG d   1       8.401   0.617  -8.970  0.00  0.00    -0.014 C 
ATOM      4  C   LIG d   1       9.244   1.856  -8.699  0.00  0.00    -0.034 C 
ATOM      5  C   LIG d   1       9.929   1.800  -7.329  0.00  0.00     0.069 C 
ATOM      6  C   LIG d   1       8.936   1.451  -6.242  0.00  0.00    -0.010 C 
ATOM      7  H   LIG d   1       8.260   2.333  -6.133  0.00  0.00     0.032 H 
ATOM      8  C   LIG d   1       8.046   0.259  -6.529  0.00  0.00     0.030 C 
ATOM      9  C   LIG d   1       7.018   0.114  -5.413  0.00  0.00    -0.056 C 
ATOM     10  C   LIG d   1       7.222   0.615  -4.232  0.00  0.00    -0.013 C 
ATOM     11  C   LIG d   1       8.466   1.387  -3.841  0.00  0.00     0.079 C 
ATOM     12  H   LIG d   1       8.825   1.016  -2.882  0.00  0.00     0.064 H 
ATOM     13  C   LIG d   1       9.585   1.240  -4.873  0.00  0.00    -0.018 C 
ATOM     14  C   LIG d   1       6.215   0.468  -3.108  0.00  0.00     0.088 C 
ATOM     15  H   LIG d   1       6.751   0.315  -2.171  0.00  0.00     0.065 H 
ATOM     16  C   LIG d   1       5.279  -0.710  -3.344  0.00  0.00     0.016 C 
ATOM     17  C   LIG d   1       4.677  -0.567  -4.743  0.00  0.00    -0.038 C 
ATOM     18  C   LIG d   1       5.777  -0.659  -5.788  0.00  0.00    -0.030 C 
ATOM     19  H   LIG d   1       9.030  -0.262  -9.054  0.00  0.00     0.030 H 
ATOM     20  H   LIG d   1       7.881   0.752  -9.929  0.00  0.00     0.030 H 
ATOM     21  H   LIG d   1      10.014   1.942  -9.472  0.00  0.00     0.028 H 
ATOM     22  H   LIG d   1       8.612   2.746  -8.745  0.00  0.00     0.028 H 
ATOM     23  H   LIG d   1      10.048   0.266  -4.780  0.00  0.00     0.030 H 
ATOM     24  H   LIG d   1      10.335   2.012  -4.683  0.00  0.00     0.030 H 
ATOM     25  H   LIG d   1       3.947  -1.365  -4.910  0.00  0.00     0.028 H 
ATOM     26  H   LIG d   1       4.167   0.397  -4.829  0.00  0.00     0.028 H 
ATOM     27  H   LIG d   1       5.382  -0.260  -6.729  0.00  0.00     0.031 H 
ATOM     28  H   LIG d   1       6.032  -1.705  -5.955  0.00  0.00     0.031 H 
ENDROOT
BRANCH   5  29
ATOM     29  C   LIG d   1      11.136   0.868  -7.371  0.00  0.00    -0.049 C 
ATOM     30  H   LIG d   1      10.925   0.028  -8.031  0.00  0.00     0.024 H 
ATOM     31  H   LIG d   1      12.003   1.415  -7.745  0.00  0.00     0.024 H 
ATOM     32  H   LIG d   1      11.345   0.499  -6.368  0.00  0.00     0.024 H 
ENDBRANCH   5  29
BRANCH   5  33
ATOM     33  C   LIG d   1      10.454   3.206  -7.053  0.00  0.00     0.313 C 
ATOM     34  O   LIG d   1      11.643   3.418  -7.052  0.00  0.00    -0.250 OA
BRANCH  33  35
ATOM     35  O   LIG d   1       9.593   4.209  -6.812  0.00  0.00    -0.468 OA
BRANCH  35  36
ATOM     36  C   LIG d   1       9.927   5.110  -5.755  0.00  0.00     0.082 C 
ATOM     37  H   LIG d   1      10.794   4.730  -5.213  0.00  0.00     0.066 H 
ATOM     38  H   LIG d   1      10.160   6.089  -6.171  0.00  0.00     0.066 H 
ATOM     39  H   LIG d   1       9.083   5.197  -5.070  0.00  0.00     0.066 H 
ENDBRANCH  35  36
ENDBRANCH  33  35
ENDBRANCH   5  33
BRANCH   8  40
ATOM     40  C   LIG d   1       8.827  -1.055  -6.560  0.00  0.00    -0.052 C 
ATOM     41  H   LIG d   1       8.932  -1.440  -5.545  0.00  0.00     0.024 H 
ATOM     42  H   LIG d   1       8.292  -1.782  -7.171  0.00  0.00     0.024 H 
ATOM     43  H   LIG d   1       9.816  -0.881  -6.986  0.00  0.00     0.024 H 
ENDBRANCH   8  40
BRANCH   1  44
ATOM     44  O   LIG d   1       6.502   1.588  -7.830  0.00  0.00    -0.461 OA
BRANCH  44  45
ATOM     45  C   LIG d   1       5.567   1.696  -8.789  0.00  0.00     0.304 C 
ATOM     46  O   LIG d   1       5.421   2.742  -9.375  0.00  0.00    -0.251 OA
BRANCH  45  47
ATOM     47  C   LIG d   1       4.702   0.511  -9.134  0.00  0.00     0.033 C 
ATOM     48  H   LIG d   1       4.167   0.182  -8.243  0.00  0.00     0.034 H 
ATOM     49  H   LIG d   1       3.986   0.797  -9.903  0.00  0.00     0.034 H 
ATOM     50  H   LIG d   1       5.328  -0.301  -9.503  0.00  0.00     0.034 H 
ENDBRANCH  45  47
ENDBRANCH  44  45
ENDBRANCH   1  44
BRANCH  11  51
ATOM     51  O   LIG d   1       8.137   2.771  -3.712  0.00  0.00    -0.387 OA
ATOM     52  H   LIG d   1       8.823   3.370  -4.037  0.00  0.00     0.210 HD
ENDBRANCH  11  51
BRANCH  14  53
ATOM     53  O   LIG d   1       5.443   1.667  -3.011  0.00  0.00    -0.387 OA
ATOM     54  H   LIG d   1       5.140   1.868  -2.115  0.00  0.00     0.210 HD
ENDBRANCH  14  53
BRANCH  16  55
ATOM     55  C   LIG d   1       6.048  -2.027  -3.215  0.00  0.00    -0.053 C 
ATOM     56  H   LIG d   1       7.015  -1.933  -3.710  0.00  0.00     0.024 H 
ATOM     57  H   LIG d   1       6.199  -2.256  -2.160  0.00  0.00     0.024 H 
ATOM     58  H   LIG d   1       5.476  -2.828  -3.683  0.00  0.00     0.024 H 
ENDBRANCH  16  55
BRANCH  16  59
ATOM     59  C   LIG d   1       4.173  -0.679  -2.314  0.00  0.00    -0.082 C 
ATOM     60  C   LIG d   1       2.933  -0.888  -2.679  0.00  0.00    -0.102 C 
ATOM     61  H   LIG d   1       2.142  -0.867  -1.944  0.00  0.00     0.053 H 
ATOM     62  H   LIG d   1       2.700  -1.084  -3.716  0.00  0.00     0.053 H 
ATOM     63  H   LIG d   1       4.405  -0.484  -1.278  0.00  0.00     0.057 H 
ENDBRANCH  16  59
TORSDOF 12
ENDMDL
MODEL 7
REMARK VINA RESULT:      -5.4      2.875      5.360
REMARK  12 active torsions:
REMARK  status: ('A' for Active; 'I' for Inactive)
REMARK    1  A    between atoms: C_1  and  C_2 
REMARK    2  A    between atoms: C_2  and  O_4 
REMARK    3  A    between atoms: O_4  and  C_5 
REMARK    4  A    between atoms: C_9  and  C_29 
REMARK    5  A    between atoms: C_9  and  C_30 
REMARK    6  A    between atoms: C_12  and  C_28 
REMARK    7  A    between atoms: C_15  and  O_18 
REMARK    8  A    between atoms: C_19  and  O_27 
REMARK    9  A    between atoms: C_21  and  C_24 
REMARK   10  A    between atoms: C_21  and  C_25 
REMARK   11  A    between atoms: C_30  and  O_32 
REMARK   12  A    between atoms: O_32  and  C_33 
ROOT
ATOM      1  C   LIG d   1       5.686  -0.886  -3.446  0.00  0.00     0.112 C 
ATOM      2  H   LIG d   1       6.163  -0.447  -2.567  0.00  0.00     0.074 H 
ATOM      3  C   LIG d   1       4.950  -2.164  -3.037  0.00  0.00    -0.014 C 
ATOM      4  C   LIG d   1       4.259  -2.789  -4.241  0.00  0.00    -0.034 C 
ATOM      5  C   LIG d   1       5.243  -3.100  -5.374  0.00  0.00     0.069 C 
ATOM      6  C   LIG d   1       6.107  -1.899  -5.685  0.00  0.00    -0.010 C 
ATOM      7  H   LIG d   1       5.439  -1.138  -6.155  0.00  0.00     0.032 H 
ATOM      8  C   LIG d   1       6.749  -1.229  -4.488  0.00  0.00     0.030 C 
ATOM      9  C   LIG d   1       7.474   0.033  -4.940  0.00  0.00    -0.056 C 
ATOM     10  C   LIG d   1       7.865   0.188  -6.170  0.00  0.00    -0.013 C 
ATOM     11  C   LIG d   1       7.645  -0.836  -7.265  0.00  0.00     0.079 C 
ATOM     12  H   LIG d   1       8.575  -0.970  -7.816  0.00  0.00     0.064 H 
ATOM     13  C   LIG d   1       7.205  -2.191  -6.710  0.00  0.00    -0.018 C 
ATOM     14  C   LIG d   1       8.598   1.431  -6.633  0.00  0.00     0.088 C 
ATOM     15  H   LIG d   1       9.365   1.142  -7.352  0.00  0.00     0.065 H 
ATOM     16  C   LIG d   1       9.257   2.159  -5.469  0.00  0.00     0.016 C 
ATOM     17  C   LIG d   1       8.197   2.393  -4.391  0.00  0.00    -0.038 C 
ATOM     18  C   LIG d   1       7.705   1.058  -3.857  0.00  0.00    -0.030 C 
ATOM     19  H   LIG d   1       5.629  -2.873  -2.575  0.00  0.00     0.030 H 
ATOM     20  H   LIG d   1       4.185  -1.898  -2.294  0.00  0.00     0.030 H 
ATOM     21  H   LIG d   1       3.773  -3.720  -3.933  0.00  0.00     0.028 H 
ATOM     22  H   LIG d   1       3.489  -2.109  -4.614  0.00  0.00     0.028 H 
ATOM     23  H   LIG d   1       8.053  -2.704  -6.274  0.00  0.00     0.030 H 
ATOM     24  H   LIG d   1       6.809  -2.791  -7.533  0.00  0.00     0.030 H 
ATOM     25  H   LIG d   1       8.629   2.977  -3.573  0.00  0.00     0.028 H 
ATOM     26  H   LIG d   1       7.357   2.952  -4.815  0.00  0.00     0.028 H 
ATOM     27  H   LIG d   1       6.761   1.233  -3.328  0.00  0.00     0.031 H 
ATOM     28  H   LIG d   1       8.422   0.670  -3.132  0.00  0.00     0.031 H 
ENDROOT
BRANCH   5  29
ATOM     29  C   LIG d   1       6.043  -4.360  -5.058  0.00  0.00    -0.049 C 
ATOM     30  H   LIG d   1       6.047  -5.016  -5.928  0.00  0.00     0.024 H 
ATOM     31  H   LIG d   1       7.067  -4.085  -4.805  0.00  0.00     0.024 H 
ATOM     32  H   LIG d   1       5.586  -4.878  -4.215  0.00  0.00     0.024 H 
ENDBRANCH   5  29
BRANCH   5  33
ATOM     33  C   LIG d   1       4.395  -3.402  -6.608  0.00  0.00     0.313 C 
ATOM     34  O   LIG d   1       3.974  -4.519  -6.794  0.00  0.00    -0.250 OA
BRANCH  33  35
ATOM     35  O   LIG d   1       4.117  -2.425  -7.487  0.00  0.00    -0.468 OA
BRANCH  35  36
ATOM     36  C   LIG d   1       3.794  -2.824  -8.819  0.00  0.00     0.082 C 
ATOM     37  H   LIG d   1       4.708  -3.098  -9.349  0.00  0.00     0.066 H 
ATOM     38  H   LIG d   1       3.122  -3.681  -8.790  0.00  0.00     0.066 H 
ATOM     39  H   LIG d   1       3.308  -1.998  -9.339  0.00  0.00     0.066 H 
ENDBRANCH  35  36
ENDBRANCH  33  35
ENDBRANCH   5  33
BRANCH   8  40
ATOM     40  C   LIG d   1       7.808  -2.112  -3.825  0.00  0.00    -0.052 C 
ATOM     41  H   LIG d   1       7.722  -3.130  -4.206  0.00  0.00     0.024 H 
ATOM     42  H   LIG d   1       8.800  -1.722  -4.051  0.00  0.00     0.024 H 
ATOM     43  H   LIG d   1       7.655  -2.115  -2.745  0.00  0.00     0.024 H 
ENDBRANCH   8  40
BRANCH   1  44
ATOM     44  O   LIG d   1       4.755   0.047  -3.997  0.00  0.00    -0.461 OA
BRANCH  44  45
ATOM     45  C   LIG d   1       4.229   0.952  -3.156  0.00  0.00     0.304 C 
ATOM     46  O   LIG d   1       3.474   1.798  -3.574  0.00  0.00    -0.251 OA
BRANCH  45  47
ATOM     47  C   LIG d   1       4.579   0.912  -1.691  0.00  0.00     0.033 C 
ATOM     48  H   LIG d   1       5.631   1.167  -1.563  0.00  0.00     0.034 H 
ATOM     49  H   LIG d   1       3.962   1.630  -1.151  0.00  0.00     0.034 H 
ATOM     50  H   LIG d   1       4.398  -0.089  -1.301  0.00  0.00     0.034 H 
ENDBRANCH  45  47
ENDBRANCH  44  45
ENDBRANCH   1  44
BRANCH  11  51
ATOM     51  O   LIG d   1       6.639  -0.356  -8.159  0.00  0.00    -0.387 OA
ATOM     52  H   LIG d   1       6.613  -0.820  -9.007  0.00  0.00     0.210 HD
ENDBRANCH  11  51
BRANCH  14  53
ATOM     53  O   LIG d   1       7.671   2.311  -7.271  0.00  0.00    -0.387 OA
ATOM     54  H   LIG d   1       7.299   2.984  -6.685  0.00  0.00     0.210 HD
ENDBRANCH  14  53
BRANCH  16  55
ATOM     55  C   LIG d   1      10.419   1.330  -4.919  0.00  0.00    -0.053 C 
ATOM     56  H   LIG d   1      10.857   1.843  -4.062  0.00  0.00     0.024 H 
ATOM     57  H   LIG d   1      10.052   0.352  -4.609  0.00  0.00     0.024 H 
ATOM     58  H   LIG d   1      11.175   1.206  -5.693  0.00  0.00     0.024 H 
ENDBRANCH  16  55
BRANCH  16  59
ATOM     59  C   LIG d   1       9.785   3.491  -5.952  0.00  0.00    -0.082 C 
ATOM     60  C   LIG d   1       9.581   4.573  -5.243  0.00  0.00    -0.102 C 
ATOM     61  H   LIG d   1       9.958   5.524  -5.587  0.00  0.00     0.053 H 
ATOM     62  H   LIG d   1       9.036   4.514  -4.312  0.00  0.00     0.053 H 
ATOM     63  H   LIG d   1      10.330   3.551  -6.883  0.00  0.00     0.057 H 
ENDBRANCH  16  59
TORSDOF 12
ENDMDL
MODEL 8
REMARK VINA RESULT:      -5.4      2.675      4.678
REMARK  12 active torsions:
REMARK  status: ('A' for Active; 'I' for Inactive)
REMARK    1  A    between atoms: C_1  and  C_2 
REMARK    2  A    between atoms: C_2  and  O_4 
REMARK    3  A    between atoms: O_4  and  C_5 
REMARK    4  A    between atoms: C_9  and  C_29 
REMARK    5  A    between atoms: C_9  and  C_30 
REMARK    6  A    between atoms: C_12  and  C_28 
REMARK    7  A    between atoms: C_15  and  O_18 
REMARK    8  A    between atoms: C_19  and  O_27 
REMARK    9  A    between atoms: C_21  and  C_24 
REMARK   10  A    between atoms: C_21  and  C_25 
REMARK   11  A    between atoms: C_30  and  O_32 
REMARK   12  A    between atoms: O_32  and  C_33 
ROOT
ATOM      1  C   LIG d   1       4.419  -0.541  -8.288  0.00  0.00     0.112 C 
ATOM      2  H   LIG d   1       3.367  -0.485  -8.000  0.00  0.00     0.074 H 
ATOM      3  C   LIG d   1       4.521  -0.985  -9.749  0.00  0.00    -0.014 C 
ATOM      4  C   LIG d   1       5.978  -1.055 -10.184  0.00  0.00    -0.034 C 
ATOM      5  C   LIG d   1       6.800  -1.998  -9.299  0.00  0.00     0.069 C 
ATOM      6  C   LIG d   1       6.584  -1.692  -7.834  0.00  0.00    -0.010 C 
ATOM      7  H   LIG d   1       7.067  -0.704  -7.640  0.00  0.00     0.032 H 
ATOM      8  C   LIG d   1       5.138  -1.555  -7.402  0.00  0.00     0.030 C 
ATOM      9  C   LIG d   1       5.084  -1.118  -5.943  0.00  0.00    -0.056 C 
ATOM     10  C   LIG d   1       6.079  -1.325  -5.134  0.00  0.00    -0.013 C 
ATOM     11  C   LIG d   1       7.374  -2.000  -5.538  0.00  0.00     0.079 C 
ATOM     12  H   LIG d   1       7.635  -2.745  -4.788  0.00  0.00     0.064 H 
ATOM     13  C   LIG d   1       7.266  -2.691  -6.898  0.00  0.00    -0.018 C 
ATOM     14  C   LIG d   1       6.035  -0.908  -3.677  0.00  0.00     0.088 C 
ATOM     15  H   LIG d   1       6.533  -1.670  -3.077  0.00  0.00     0.065 H 
ATOM     16  C   LIG d   1       4.605  -0.741  -3.185  0.00  0.00     0.016 C 
ATOM     17  C   LIG d   1       3.873   0.192  -4.151  0.00  0.00    -0.038 C 
ATOM     18  C   LIG d   1       3.796  -0.451  -5.526  0.00  0.00    -0.030 C 
ATOM     19  H   LIG d   1       4.030  -1.941  -9.900  0.00  0.00     0.030 H 
ATOM     20  H   LIG d   1       4.005  -0.241 -10.372  0.00  0.00     0.030 H 
ATOM     21  H   LIG d   1       6.027  -1.412 -11.218  0.00  0.00     0.028 H 
ATOM     22  H   LIG d   1       6.419  -0.056 -10.146  0.00  0.00     0.028 H 
ATOM     23  H   LIG d   1       6.709  -3.614  -6.800  0.00  0.00     0.030 H 
ATOM     24  H   LIG d   1       8.275  -2.918  -7.253  0.00  0.00     0.030 H 
ATOM     25  H   LIG d   1       2.861   0.383  -3.780  0.00  0.00     0.028 H 
ATOM     26  H   LIG d   1       4.407   1.144  -4.220  0.00  0.00     0.028 H 
ATOM     27  H   LIG d   1       3.552   0.333  -6.252  0.00  0.00     0.031 H 
ATOM     28  H   LIG d   1       2.984  -1.178  -5.542  0.00  0.00     0.031 H 
ENDROOT
BRANCH   5  29
ATOM     29  C   LIG d   1       6.521  -3.453  -9.664  0.00  0.00    -0.049 C 
ATOM     30  H   LIG d   1       5.578  -3.519 -10.206  0.00  0.00     0.024 H 
ATOM     31  H   LIG d   1       7.328  -3.831 -10.293  0.00  0.00     0.024 H 
ATOM     32  H   LIG d   1       6.460  -4.050  -8.755  0.00  0.00     0.024 H 
ENDBRANCH   5  29
BRANCH   5  33
ATOM     33  C   LIG d   1       8.266  -1.725  -9.625  0.00  0.00     0.313 C 
ATOM     34  O   LIG d   1       8.924  -2.560 -10.199  0.00  0.00    -0.250 OA
BRANCH  33  35
ATOM     35  O   LIG d   1       8.825  -0.555  -9.275  0.00  0.00    -0.468 OA
BRANCH  35  36
ATOM     36  C   LIG d   1      10.130  -0.607  -8.696  0.00  0.00     0.082 C 
ATOM     37  H   LIG d   1      10.436   0.396  -8.397  0.00  0.00     0.066 H 
ATOM     38  H   LIG d   1      10.114  -1.257  -7.822  0.00  0.00     0.066 H 
ATOM     39  H   LIG d   1      10.837  -0.998  -9.428  0.00  0.00     0.066 H 
ENDBRANCH  35  36
ENDBRANCH  33  35
ENDBRANCH   5  33
BRANCH   8  40
ATOM     40  C   LIG d   1       4.382  -2.883  -7.475  0.00  0.00    -0.052 C 
ATOM     41  H   LIG d   1       3.443  -2.798  -6.928  0.00  0.00     0.024 H 
ATOM     42  H   LIG d   1       4.175  -3.126  -8.517  0.00  0.00     0.024 H 
ATOM     43  H   LIG d   1       4.990  -3.673  -7.032  0.00  0.00     0.024 H 
ENDBRANCH   8  40
BRANCH   1  44
ATOM     44  O   LIG d   1       5.023   0.745  -8.136  0.00  0.00    -0.461 OA
BRANCH  44  45
ATOM     45  C   LIG d   1       4.415   1.779  -8.740  0.00  0.00     0.304 C 
ATOM     46  O   LIG d   1       5.044   2.504  -9.474  0.00  0.00    -0.251 OA
BRANCH  45  47
ATOM     47  C   LIG d   1       2.949   2.035  -8.501  0.00  0.00     0.033 C 
ATOM     48  H   LIG d   1       2.554   1.276  -7.827  0.00  0.00     0.034 H 
ATOM     49  H   LIG d   1       2.821   3.021  -8.054  0.00  0.00     0.034 H 
ATOM     50  H   LIG d   1       2.414   1.994  -9.450  0.00  0.00     0.034 H 
ENDBRANCH  45  47
ENDBRANCH  44  45
ENDBRANCH   1  44
BRANCH  11  51
ATOM     51  O   LIG d   1       8.413  -1.020  -5.601  0.00  0.00    -0.387 OA
ATOM     52  H   LIG d   1       9.180  -1.226  -5.050  0.00  0.00     0.210 HD
ENDBRANCH  11  51
BRANCH  14  53
ATOM     53  O   LIG d   1       6.730   0.331  -3.524  0.00  0.00    -0.387 OA
ATOM     54  H   LIG d   1       7.576   0.253  -3.063  0.00  0.00     0.210 HD
ENDBRANCH  14  53
BRANCH  16  55
ATOM     55  C   LIG d   1       3.910  -2.103  -3.113  0.00  0.00    -0.053 C 
ATOM     56  H   LIG d   1       3.143  -2.079  -2.339  0.00  0.00     0.024 H 
ATOM     57  H   LIG d   1       3.450  -2.327  -4.075  0.00  0.00     0.024 H 
ATOM     58  H   LIG d   1       4.644  -2.872  -2.873  0.00  0.00     0.024 H 
ENDBRANCH  16  55
BRANCH  16  59
ATOM     59  C   LIG d   1       4.623  -0.123  -1.805  0.00  0.00    -0.082 C 
ATOM     60  C   LIG d   1       4.334   1.145  -1.652  0.00  0.00    -0.102 C 
ATOM     61  H   LIG d   1       4.347   1.587  -0.667  0.00  0.00     0.053 H 
ATOM     62  H   LIG d   1       4.081   1.749  -2.511  0.00  0.00     0.053 H 
ATOM     63  H   LIG d   1       4.876  -0.726  -0.946  0.00  0.00     0.057 H 
ENDBRANCH  16  59
TORSDOF 12
ENDMDL
MODEL 9
REMARK VINA RESULT:      -5.3      2.917      6.401
REMARK  12 active torsions:
REMARK  status: ('A' for Active; 'I' for Inactive)
REMARK    1  A    between atoms: C_1  and  C_2 
REMARK    2  A    between atoms: C_2  and  O_4 
REMARK    3  A    between atoms: O_4  and  C_5 
REMARK    4  A    between atoms: C_9  and  C_29 
REMARK    5  A    between atoms: C_9  and  C_30 
REMARK    6  A    between atoms: C_12  and  C_28 
REMARK    7  A    between atoms: C_15  and  O_18 
REMARK    8  A    between atoms: C_19  and  O_27 
REMARK    9  A    between atoms: C_21  and  C_24 
REMARK   10  A    between atoms: C_21  and  C_25 
REMARK   11  A    between atoms: C_30  and  O_32 
REMARK   12  A    between atoms: O_32  and  C_33 
ROOT
ATOM      1  C   LIG d   1       7.413  -0.482  -4.433  0.00  0.00     0.112 C 
ATOM      2  H   LIG d   1       8.491  -0.632  -4.348  0.00  0.00     0.074 H 
ATOM      3  C   LIG d   1       6.983   0.642  -3.487  0.00  0.00    -0.014 C 
ATOM      4  C   LIG d   1       5.483   0.886  -3.599  0.00  0.00    -0.034 C 
ATOM      5  C   LIG d   1       4.670  -0.377  -3.302  0.00  0.00     0.069 C 
ATOM      6  C   LIG d   1       5.187  -1.554  -4.099  0.00  0.00    -0.010 C 
ATOM      7  H   LIG d   1       4.931  -1.353  -5.167  0.00  0.00     0.032 H 
ATOM      8  C   LIG d   1       6.686  -1.769  -4.049  0.00  0.00     0.030 C 
ATOM      9  C   LIG d   1       7.068  -2.898  -4.998  0.00  0.00    -0.056 C 
ATOM     10  C   LIG d   1       6.206  -3.797  -5.367  0.00  0.00    -0.013 C 
ATOM     11  C   LIG d   1       4.761  -3.823  -4.914  0.00  0.00     0.079 C 
ATOM     12  H   LIG d   1       4.503  -4.836  -4.608  0.00  0.00     0.064 H 
ATOM     13  C   LIG d   1       4.506  -2.876  -3.740  0.00  0.00    -0.018 C 
ATOM     14  C   LIG d   1       6.575  -4.934  -6.300  0.00  0.00     0.088 C 
ATOM     15  H   LIG d   1       6.059  -5.838  -5.976  0.00  0.00     0.065 H 
ATOM     16  C   LIG d   1       8.076  -5.191  -6.304  0.00  0.00     0.016 C 
ATOM     17  C   LIG d   1       8.787  -3.866  -6.581  0.00  0.00    -0.038 C 
ATOM     18  C   LIG d   1       8.508  -2.888  -5.451  0.00  0.00    -0.030 C 
ATOM     19  H   LIG d   1       7.258   0.416  -2.463  0.00  0.00     0.030 H 
ATOM     20  H   LIG d   1       7.509   1.561  -3.783  0.00  0.00     0.030 H 
ATOM     21  H   LIG d   1       5.194   1.666  -2.887  0.00  0.00     0.028 H 
ATOM     22  H   LIG d   1       5.244   1.236  -4.605  0.00  0.00     0.028 H 
ATOM     23  H   LIG d   1       4.896  -3.308  -2.826  0.00  0.00     0.030 H 
ATOM     24  H   LIG d   1       3.427  -2.734  -3.637  0.00  0.00     0.030 H 
ATOM     25  H   LIG d   1       9.865  -4.038  -6.658  0.00  0.00     0.028 H 
ATOM     26  H   LIG d   1       8.430  -3.446  -7.526  0.00  0.00     0.028 H 
ATOM     27  H   LIG d   1       8.761  -1.882  -5.805  0.00  0.00     0.031 H 
ATOM     28  H   LIG d   1       9.160  -3.113  -4.607  0.00  0.00     0.031 H 
ENDROOT
BRANCH   5  29
ATOM     29  C   LIG d   1       4.614  -0.638  -1.799  0.00  0.00    -0.049 C 
ATOM     30  H   LIG d   1       5.362  -1.383  -1.531  0.00  0.00     0.024 H 
ATOM     31  H   LIG d   1       4.817   0.289  -1.263  0.00  0.00     0.024 H 
ATOM     32  H   LIG d   1       3.623  -1.004  -1.532  0.00  0.00     0.024 H 
ENDBRANCH   5  29
BRANCH   5  33
ATOM     33  C   LIG d   1       3.243  -0.088  -3.763  0.00  0.00     0.313 C 
ATOM     34  O   LIG d   1       2.312  -0.646  -3.233  0.00  0.00    -0.250 OA
BRANCH  33  35
ATOM     35  O   LIG d   1       3.024   0.789  -4.756  0.00  0.00    -0.468 OA
BRANCH  35  36
ATOM     36  C   LIG d   1       2.778   0.247  -6.055  0.00  0.00     0.082 C 
ATOM     37  H   LIG d   1       3.702   0.255  -6.634  0.00  0.00     0.066 H 
ATOM     38  H   LIG d   1       2.417  -0.776  -5.961  0.00  0.00     0.066 H 
ATOM     39  H   LIG d   1       2.027   0.852  -6.565  0.00  0.00     0.066 H 
ENDBRANCH  35  36
ENDBRANCH  33  35
ENDBRANCH   5  33
BRANCH   8  40
ATOM     40  C   LIG d   1       7.165  -2.200  -2.662  0.00  0.00    -0.052 C 
ATOM     41  H   LIG d   1       8.160  -2.638  -2.741  0.00  0.00     0.024 H 
ATOM     42  H   LIG d   1       7.201  -1.332  -2.004  0.00  0.00     0.024 H 
ATOM     43  H   LIG d   1       6.475  -2.938  -2.251  0.00  0.00     0.024 H 
ENDBRANCH   8  40
BRANCH   1  44
ATOM     44  O   LIG d   1       7.087  -0.128  -5.778  0.00  0.00    -0.461 OA
BRANCH  44  45
ATOM     45  C   LIG d   1       7.892   0.759  -6.387  0.00  0.00     0.304 C 
ATOM     46  O   LIG d   1       7.417   1.710  -6.961  0.00  0.00    -0.251 OA
BRANCH  45  47
ATOM     47  C   LIG d   1       9.386   0.568  -6.352  0.00  0.00     0.033 C 
ATOM     48  H   LIG d   1       9.711   0.086  -7.274  0.00  0.00     0.034 H 
ATOM     49  H   LIG d   1       9.874   1.538  -6.257  0.00  0.00     0.034 H 
ATOM     50  H   LIG d   1       9.653  -0.059  -5.501  0.00  0.00     0.034 H 
ENDBRANCH  45  47
ENDBRANCH  44  45
ENDBRANCH   1  44
BRANCH  11  51
ATOM     51  O   LIG d   1       3.922  -3.439  -6.005  0.00  0.00    -0.387 OA
ATOM     52  H   LIG d   1       4.297  -3.630  -6.875  0.00  0.00     0.210 HD
ENDBRANCH  11  51
BRANCH  14  53
ATOM     53  O   LIG d   1       6.153  -4.607  -7.625  0.00  0.00    -0.387 OA
ATOM     54  H   LIG d   1       6.636  -3.870  -8.022  0.00  0.00     0.210 HD
ENDBRANCH  14  53
BRANCH  16  55
ATOM     55  C   LIG d   1       8.514  -5.773  -4.958  0.00  0.00    -0.053 C 
ATOM     56  H   LIG d   1       8.554  -6.860  -5.028  0.00  0.00     0.024 H 
ATOM     57  H   LIG d   1       9.500  -5.388  -4.700  0.00  0.00     0.024 H 
ATOM     58  H   LIG d   1       7.798  -5.484  -4.188  0.00  0.00     0.024 H 
ENDBRANCH  16  55
BRANCH  16  59
ATOM     59  C   LIG d   1       8.407  -6.179  -7.400  0.00  0.00    -0.082 C 
ATOM     60  C   LIG d   1       9.424  -5.958  -8.195  0.00  0.00    -0.102 C 
ATOM     61  H   LIG d   1       9.661  -6.663  -8.978  0.00  0.00     0.053 H 
ATOM     62  H   LIG d   1      10.028  -5.071  -8.067  0.00  0.00     0.053 H 
ATOM     63  H   LIG d   1       7.804  -7.066  -7.528  0.00  0.00     0.057 H 
ENDBRANCH  16  59
TORSDOF 12
ENDMDL
MODEL 10
REMARK VINA RESULT:      -5.1      2.241      6.179
REMARK  12 active torsions:
REMARK  status: ('A' for Active; 'I' for Inactive)
REMARK    1  A    between atoms: C_1  and  C_2 
REMARK    2  A    between atoms: C_2  and  O_4 
REMARK    3  A    between atoms: O_4  and  C_5 
REMARK    4  A    between atoms: C_9  and  C_29 
REMARK    5  A    between atoms: C_9  and  C_30 
REMARK    6  A    between atoms: C_12  and  C_28 
REMARK    7  A    between atoms: C_15  and  O_18 
REMARK    8  A    between atoms: C_19  and  O_27 
REMARK    9  A    between atoms: C_21  and  C_24 
REMARK   10  A    between atoms: C_21  and  C_25 
REMARK   11  A    between atoms: C_30  and  O_32 
REMARK   12  A    between atoms: O_32  and  C_33 
ROOT
ATOM      1  C   LIG d   1       6.968  -2.802  -5.418  0.00  0.00     0.112 C 
ATOM      2  H   LIG d   1       7.176  -3.777  -5.864  0.00  0.00     0.074 H 
ATOM      3  C   LIG d   1       7.318  -2.843  -3.929  0.00  0.00    -0.014 C 
ATOM      4  C   LIG d   1       7.055  -1.489  -3.283  0.00  0.00    -0.034 C 
ATOM      5  C   LIG d   1       5.600  -1.039  -3.459  0.00  0.00     0.069 C 
ATOM      6  C   LIG d   1       5.170  -1.153  -4.904  0.00  0.00    -0.010 C 
ATOM      7  H   LIG d   1       5.730  -0.368  -5.467  0.00  0.00     0.032 H 
ATOM      8  C   LIG d   1       5.485  -2.473  -5.578  0.00  0.00     0.030 C 
ATOM      9  C   LIG d   1       5.117  -2.390  -7.054  0.00  0.00    -0.056 C 
ATOM     10  C   LIG d   1       4.247  -1.529  -7.490  0.00  0.00    -0.013 C 
ATOM     11  C   LIG d   1       3.525  -0.532  -6.607  0.00  0.00     0.079 C 
ATOM     12  H   LIG d   1       2.464  -0.543  -6.854  0.00  0.00     0.064 H 
ATOM     13  C   LIG d   1       3.686  -0.853  -5.121  0.00  0.00    -0.018 C 
ATOM     14  C   LIG d   1       3.860  -1.443  -8.953  0.00  0.00     0.088 C 
ATOM     15  H   LIG d   1       2.792  -1.235  -9.024  0.00  0.00     0.065 H 
ATOM     16  C   LIG d   1       4.165  -2.740  -9.691  0.00  0.00     0.016 C 
ATOM     17  C   LIG d   1       5.626  -3.108  -9.425  0.00  0.00    -0.038 C 
ATOM     18  C   LIG d   1       5.824  -3.384  -7.943  0.00  0.00    -0.030 C 
ATOM     19  H   LIG d   1       6.764  -3.624  -3.419  0.00  0.00     0.030 H 
ATOM     20  H   LIG d   1       8.389  -3.073  -3.833  0.00  0.00     0.030 H 
ATOM     21  H   LIG d   1       7.275  -1.553  -2.213  0.00  0.00     0.028 H 
ATOM     22  H   LIG d   1       7.716  -0.739  -3.723  0.00  0.00     0.028 H 
ATOM     23  H   LIG d   1       3.051  -1.689  -4.853  0.00  0.00     0.030 H 
ATOM     24  H   LIG d   1       3.385   0.024  -4.542  0.00  0.00     0.030 H 
ATOM     25  H   LIG d   1       5.889  -4.000 -10.001  0.00  0.00     0.028 H 
ATOM     26  H   LIG d   1       6.276  -2.285  -9.736  0.00  0.00     0.028 H 
ATOM     27  H   LIG d   1       6.899  -3.343  -7.734  0.00  0.00     0.031 H 
ATOM     28  H   LIG d   1       5.481  -4.392  -7.713  0.00  0.00     0.031 H 
ENDROOT
BRANCH   5  29
ATOM     29  C   LIG d   1       4.687  -1.787  -2.492  0.00  0.00    -0.049 C 
ATOM     30  H   LIG d   1       3.657  -1.466  -2.643  0.00  0.00     0.024 H 
ATOM     31  H   LIG d   1       4.765  -2.859  -2.675  0.00  0.00     0.024 H 
ATOM     32  H   LIG d   1       4.989  -1.570  -1.468  0.00  0.00     0.024 H 
ENDBRANCH   5  29
BRANCH   5  33
ATOM     33  C   LIG d   1       5.557   0.437  -3.071  0.00  0.00     0.313 C 
ATOM     34  O   LIG d   1       6.188   1.247  -3.706  0.00  0.00    -0.250 OA
BRANCH  33  35
ATOM     35  O   LIG d   1       4.817   0.834  -2.023  0.00  0.00    -0.468 OA
BRANCH  35  36
ATOM     36  C   LIG d   1       3.544   1.415  -2.312  0.00  0.00     0.082 C 
ATOM     37  H   LIG d   1       3.614   2.501  -2.233  0.00  0.00     0.066 H 
ATOM     38  H   LIG d   1       3.241   1.144  -3.323  0.00  0.00     0.066 H 
ATOM     39  H   LIG d   1       2.806   1.047  -1.600  0.00  0.00     0.066 H 
ENDBRANCH  35  36
ENDBRANCH  33  35
ENDBRANCH   5  33
BRANCH   8  40
ATOM     40  C   LIG d   1       4.668  -3.630  -5.000  0.00  0.00    -0.052 C 
ATOM     41  H   LIG d   1       4.498  -3.459  -3.937  0.00  0.00     0.024 H 
ATOM     42  H   LIG d   1       3.710  -3.692  -5.516  0.00  0.00     0.024 H 
ATOM     43  H   LIG d   1       5.215  -4.564  -5.135  0.00  0.00     0.024 H 
ENDBRANCH   8  40
BRANCH   1  44
ATOM     44  O   LIG d   1       7.756  -1.803  -6.068  0.00  0.00    -0.461 OA
BRANCH  44  45
ATOM     45  C   LIG d   1       9.049  -2.094  -6.288  0.00  0.00     0.304 C 
ATOM     46  O   LIG d   1       9.910  -1.331  -5.922  0.00  0.00    -0.251 OA
BRANCH  45  47
ATOM     47  C   LIG d   1       9.424  -3.373  -6.991  0.00  0.00     0.033 C 
ATOM     48  H   LIG d   1       9.860  -3.138  -7.962  0.00  0.00     0.034 H 
ATOM     49  H   LIG d   1      10.150  -3.919  -6.389  0.00  0.00     0.034 H 
ATOM     50  H   LIG d   1       8.534  -3.985  -7.132  0.00  0.00     0.034 H 
ENDBRANCH  45  47
ENDBRANCH  44  45
ENDBRANCH   1  44
BRANCH  11  51
ATOM     51  O   LIG d   1       4.046   0.775  -6.854  0.00  0.00    -0.387 OA
ATOM     52  H   LIG d   1       4.892   0.949  -6.420  0.00  0.00     0.210 HD
ENDBRANCH  11  51
BRANCH  14  53
ATOM     53  O   LIG d   1       4.583  -0.374  -9.567  0.00  0.00    -0.387 OA
ATOM     54  H   LIG d   1       4.133   0.020 -10.326  0.00  0.00     0.210 HD
ENDBRANCH  14  53
BRANCH  16  55
ATOM     55  C   LIG d   1       3.228  -3.851  -9.212  0.00  0.00    -0.053 C 
ATOM     56  H   LIG d   1       3.467  -4.778  -9.734  0.00  0.00     0.024 H 
ATOM     57  H   LIG d   1       3.355  -3.995  -8.139  0.00  0.00     0.024 H 
ATOM     58  H   LIG d   1       2.196  -3.571  -9.422  0.00  0.00     0.024 H 
ENDBRANCH  16  55
BRANCH  16  59
ATOM     59  C   LIG d   1       3.962  -2.527 -11.174  0.00  0.00    -0.082 C 
ATOM     60  C   LIG d   1       4.879  -2.918 -12.023  0.00  0.00    -0.102 C 
ATOM     61  H   LIG d   1       4.734  -2.766 -13.082  0.00  0.00     0.053 H 
ATOM     62  H   LIG d   1       5.780  -3.394 -11.665  0.00  0.00     0.053 H 
ATOM     63  H   LIG d   1       3.061  -2.052 -11.533  0.00  0.00     0.057 H 
ENDBRANCH  16  59
TORSDOF 12
ENDMDL
