MODEL 1
REMARK VINA RESULT:      -6.1      0.000      0.000
REMARK  6 active torsions:
REMARK  status: ('A' for Active; 'I' for Inactive)
REMARK    1  A    between atoms: C_1  and  O_2 
REMARK    2  A    between atoms: O_2  and  C_3 
REMARK    3  A    between atoms: C_3  and  C_5 
REMARK    4  A    between atoms: N_10  and  C_12 
REMARK    5  A    between atoms: C_12  and  C_13 
REMARK       I    between atoms: N_21  and  C_22 
REMARK    6  A    between atoms: C_22  and  C_24 
ROOT
ATOM      1  C   LIG d   1       2.720  -3.172 -11.414  0.00  0.00     0.133 C 
ATOM      2  H   LIG d   1       3.603  -3.581 -11.903  0.00  0.00     0.062 H 
ATOM      3  C   LIG d   1       2.141  -4.215 -10.457  0.00  0.00     0.063 C 
ATOM      4  C   LIG d   1       3.020  -4.296  -9.234  0.00  0.00     0.207 A 
ATOM      5  C   LIG d   1       3.911  -3.349  -8.872  0.00  0.00     0.108 A 
ATOM      6  N   LIG d   1       4.499  -3.769  -7.720  0.00  0.00    -0.287 N 
ATOM      7  C   LIG d   1       3.953  -4.968  -7.411  0.00  0.00     0.247 A 
ATOM      8  C   LIG d   1       4.160  -2.079  -9.646  0.00  0.00     0.062 C 
ATOM      9  N   LIG d   1       3.093  -1.967 -10.656  0.00  0.00    -0.275 N 
ATOM     10  C   LIG d   1       2.470  -0.793 -10.878  0.00  0.00     0.283 C 
ATOM     11  O   LIG d   1       1.512  -0.742 -11.627  0.00  0.00    -0.267 OA
ATOM     12  H   LIG d   1       2.110  -5.187 -10.950  0.00  0.00     0.040 H 
ATOM     13  H   LIG d   1       1.133  -3.921 -10.165  0.00  0.00     0.040 H 
ATOM     14  H   LIG d   1       4.205  -5.571  -6.553  0.00  0.00     0.160 H 
ATOM     15  H   LIG d   1       5.132  -2.129 -10.137  0.00  0.00     0.053 H 
ATOM     16  H   LIG d   1       4.127  -1.221  -8.975  0.00  0.00     0.053 H 
ATOM     17  N   LIG d   1       3.069  -5.273  -8.325  0.00  0.00    -0.198 N 
ATOM     18  H   LIG d   1       2.502  -6.128  -8.340  0.00  0.00     0.454 HD
ENDROOT
BRANCH   6  19
ATOM     19  C   LIG d   1       5.530  -3.060  -6.958  0.00  0.00     0.053 C 
ATOM     20  H   LIG d   1       6.228  -3.780  -6.531  0.00  0.00     0.054 H 
ATOM     21  H   LIG d   1       6.069  -2.381  -7.620  0.00  0.00     0.054 H 
BRANCH  19  22
ATOM     22  C   LIG d   1       4.882  -2.271  -5.849  0.00  0.00    -0.028 A 
ATOM     23  C   LIG d   1       4.375  -1.010  -6.103  0.00  0.00    -0.056 A 
ATOM     24  C   LIG d   1       3.780  -0.287  -5.086  0.00  0.00    -0.043 A 
ATOM     25  H   LIG d   1       4.443  -0.592  -7.096  0.00  0.00     0.062 H 
ATOM     26  C   LIG d   1       3.693  -0.825  -3.815  0.00  0.00     0.041 A 
ATOM     27  H   LIG d   1       3.384   0.698  -5.284  0.00  0.00     0.063 H 
ATOM     28  C   LIG d   1       4.200  -2.087  -3.561  0.00  0.00    -0.043 A 
ATOM     29 CL   LIG d   1       2.948   0.083  -2.537  0.00  0.00    -0.084 Cl
ATOM     30  C   LIG d   1       4.790  -2.812  -4.580  0.00  0.00    -0.056 A 
ATOM     31  H   LIG d   1       4.133  -2.507  -2.568  0.00  0.00     0.063 H 
ATOM     32  H   LIG d   1       5.182  -3.799  -4.384  0.00  0.00     0.062 H 
ENDBRANCH  19  22
ENDBRANCH   6  19
BRANCH   1  33
ATOM     33  C   LIG d   1       1.686  -2.816 -12.450  0.00  0.00     0.328 C 
ATOM     34  O   LIG d   1       2.031  -2.414 -13.536  0.00  0.00    -0.249 OA
BRANCH  33  35
ATOM     35  O   LIG d   1       0.380  -2.946 -12.167  0.00  0.00    -0.467 OA
BRANCH  35  36
ATOM     36  C   LIG d   1      -0.475  -3.461 -13.222  0.00  0.00     0.082 C 
ATOM     37  H   LIG d   1      -1.161  -2.680 -13.547  0.00  0.00     0.066 H 
ATOM     38  H   LIG d   1       0.139  -3.779 -14.064  0.00  0.00     0.066 H 
ATOM     39  H   LIG d   1      -1.045  -4.310 -12.845  0.00  0.00     0.066 H 
ENDBRANCH  35  36
ENDBRANCH  33  35
ENDBRANCH   1  33
BRANCH  10  40
ATOM     40  C   LIG d   1       2.947   0.427 -10.216  0.00  0.00     0.189 A 
ATOM     41  O   LIG d   1       3.888   1.270 -10.690  0.00  0.00    -0.458 OA
ATOM     42  C   LIG d   1       4.070   2.268  -9.818  0.00  0.00     0.093 A 
ATOM     43  C   LIG d   1       3.245   2.081  -8.764  0.00  0.00    -0.023 A 
ATOM     44  H   LIG d   1       4.762   3.089  -9.936  0.00  0.00     0.103 H 
ATOM     45  C   LIG d   1       2.522   0.904  -9.010  0.00  0.00    -0.011 A 
ATOM     46  H   LIG d   1       3.159   2.718  -7.896  0.00  0.00     0.065 H 
ATOM     47  H   LIG d   1       1.773   0.462  -8.369  0.00  0.00     0.066 H 
ENDBRANCH  10  40
TORSDOF 6
ENDMDL
MODEL 2
REMARK VINA RESULT:      -5.8      9.035     11.936
REMARK  6 active torsions:
REMARK  status: ('A' for Active; 'I' for Inactive)
REMARK    1  A    between atoms: C_1  and  O_2 
REMARK    2  A    between atoms: O_2  and  C_3 
REMARK    3  A    between atoms: C_3  and  C_5 
REMARK    4  A    between atoms: N_10  and  C_12 
REMARK    5  A    between atoms: C_12  and  C_13 
REMARK       I    between atoms: N_21  and  C_22 
REMARK    6  A    between atoms: C_22  and  C_24 
ROOT
ATOM      1  C   LIG d   1       9.895   7.044  -2.222  0.00  0.00     0.133 C 
ATOM      2  H   LIG d   1       8.904   6.866  -1.807  0.00  0.00     0.062 H 
ATOM      3  C   LIG d   1      10.867   5.995  -1.682  0.00  0.00     0.063 C 
ATOM      4  C   LIG d   1      10.601   4.681  -2.373  0.00  0.00     0.207 A 
ATOM      5  C   LIG d   1       9.916   4.554  -3.531  0.00  0.00     0.108 A 
ATOM      6  N   LIG d   1       9.894   3.231  -3.843  0.00  0.00    -0.287 N 
ATOM      7  C   LIG d   1      10.565   2.582  -2.862  0.00  0.00     0.247 A 
ATOM      8  C   LIG d   1       9.312   5.709  -4.288  0.00  0.00     0.062 C 
ATOM      9  N   LIG d   1       9.838   6.948  -3.689  0.00  0.00    -0.275 N 
ATOM     10  C   LIG d   1      10.261   7.967  -4.464  0.00  0.00     0.283 C 
ATOM     11  O   LIG d   1      10.803   8.933  -3.959  0.00  0.00    -0.267 OA
ATOM     12  H   LIG d   1      10.720   5.877  -0.607  0.00  0.00     0.040 H 
ATOM     13  H   LIG d   1      11.891   6.311  -1.878  0.00  0.00     0.040 H 
ATOM     14  H   LIG d   1      10.728   1.516  -2.811  0.00  0.00     0.160 H 
ATOM     15  H   LIG d   1       8.225   5.685  -4.197  0.00  0.00     0.053 H 
ATOM     16  H   LIG d   1       9.597   5.655  -5.339  0.00  0.00     0.053 H 
ATOM     17  N   LIG d   1      10.982   3.460  -1.989  0.00  0.00    -0.198 N 
ATOM     18  H   LIG d   1      11.521   3.245  -1.141  0.00  0.00     0.454 HD
ENDROOT
BRANCH   6  19
ATOM     19  C   LIG d   1       9.264   2.622  -5.016  0.00  0.00     0.053 C 
ATOM     20  H   LIG d   1       8.657   3.367  -5.532  0.00  0.00     0.054 H 
ATOM     21  H   LIG d   1      10.035   2.251  -5.692  0.00  0.00     0.054 H 
BRANCH  19  22
ATOM     22  C   LIG d   1       8.387   1.477  -4.578  0.00  0.00    -0.028 A 
ATOM     23  C   LIG d   1       7.303   1.713  -3.753  0.00  0.00    -0.056 A 
ATOM     24  C   LIG d   1       6.500   0.662  -3.351  0.00  0.00    -0.043 A 
ATOM     25  H   LIG d   1       7.085   2.718  -3.423  0.00  0.00     0.062 H 
ATOM     26  C   LIG d   1       6.780  -0.624  -3.775  0.00  0.00     0.041 A 
ATOM     27  H   LIG d   1       5.653   0.847  -2.706  0.00  0.00     0.063 H 
ATOM     28  C   LIG d   1       7.864  -0.860  -4.600  0.00  0.00    -0.043 A 
ATOM     29 CL   LIG d   1       5.771  -1.943  -3.269  0.00  0.00    -0.084 Cl
ATOM     30  C   LIG d   1       8.665   0.192  -5.006  0.00  0.00    -0.056 A 
ATOM     31  H   LIG d   1       8.084  -1.864  -4.930  0.00  0.00     0.063 H 
ATOM     32  H   LIG d   1       9.509   0.009  -5.655  0.00  0.00     0.062 H 
ENDBRANCH  19  22
ENDBRANCH   6  19
BRANCH   1  33
ATOM     33  C   LIG d   1      10.371   8.417  -1.824  0.00  0.00     0.328 C 
ATOM     34  O   LIG d   1      11.520   8.586  -1.490  0.00  0.00    -0.249 OA
BRANCH  33  35
ATOM     35  O   LIG d   1       9.519   9.454  -1.843  0.00  0.00    -0.467 OA
BRANCH  35  36
ATOM     36  C   LIG d   1       8.728   9.678  -0.645  0.00  0.00     0.082 C 
ATOM     37  H   LIG d   1       8.649  10.748  -0.457  0.00  0.00     0.066 H 
ATOM     38  H   LIG d   1       7.732   9.258  -0.783  0.00  0.00     0.066 H 
ATOM     39  H   LIG d   1       9.212   9.195   0.205  0.00  0.00     0.066 H 
ENDBRANCH  35  36
ENDBRANCH  33  35
ENDBRANCH   1  33
BRANCH  10  40
ATOM     40  C   LIG d   1      10.068   7.911  -5.917  0.00  0.00     0.189 A 
ATOM     41  O   LIG d   1      10.869   7.279  -6.799  0.00  0.00    -0.458 OA
ATOM     42  C   LIG d   1      10.387   7.446  -8.036  0.00  0.00     0.093 A 
ATOM     43  C   LIG d   1       9.263   8.192  -7.968  0.00  0.00    -0.023 A 
ATOM     44  H   LIG d   1      10.824   7.050  -8.941  0.00  0.00     0.103 H 
ATOM     45  C   LIG d   1       9.051   8.496  -6.614  0.00  0.00    -0.011 A 
ATOM     46  H   LIG d   1       8.644   8.498  -8.799  0.00  0.00     0.065 H 
ATOM     47  H   LIG d   1       8.238   9.078  -6.204  0.00  0.00     0.066 H 
ENDBRANCH  10  40
TORSDOF 6
ENDMDL
MODEL 3
REMARK VINA RESULT:      -5.8      4.818      7.620
REMARK  6 active torsions:
REMARK  status: ('A' for Active; 'I' for Inactive)
REMARK    1  A    between atoms: C_1  and  O_2 
REMARK    2  A    between atoms: O_2  and  C_3 
REMARK    3  A    between atoms: C_3  and  C_5 
REMARK    4  A    between atoms: N_10  and  C_12 
REMARK    5  A    between atoms: C_12  and  C_13 
REMARK       I    between atoms: N_21  and  C_22 
REMARK    6  A    between atoms: C_22  and  C_24 
ROOT
ATOM      1  C   LIG d   1       7.198  -2.202  -6.098  0.00  0.00     0.133 C 
ATOM      2  H   LIG d   1       6.676  -2.949  -6.695  0.00  0.00     0.062 H 
ATOM      3  C   LIG d   1       8.154  -1.413  -6.992  0.00  0.00     0.063 C 
ATOM      4  C   LIG d   1       7.352  -0.458  -7.841  0.00  0.00     0.207 A 
ATOM      5  C   LIG d   1       6.083  -0.082  -7.573  0.00  0.00     0.108 A 
ATOM      6  N   LIG d   1       5.706   0.789  -8.548  0.00  0.00    -0.287 N 
ATOM      7  C   LIG d   1       6.758   0.919  -9.389  0.00  0.00     0.247 A 
ATOM      8  C   LIG d   1       5.284  -0.576  -6.393  0.00  0.00     0.062 C 
ATOM      9  N   LIG d   1       6.218  -1.282  -5.498  0.00  0.00    -0.275 N 
ATOM     10  C   LIG d   1       6.180  -1.088  -4.165  0.00  0.00     0.283 C 
ATOM     11  O   LIG d   1       7.033  -1.584  -3.452  0.00  0.00    -0.267 OA
ATOM     12  H   LIG d   1       8.703  -2.100  -7.637  0.00  0.00     0.040 H 
ATOM     13  H   LIG d   1       8.854  -0.854  -6.373  0.00  0.00     0.040 H 
ATOM     14  H   LIG d   1       6.784   1.541 -10.271  0.00  0.00     0.160 H 
ATOM     15  H   LIG d   1       4.505  -1.260  -6.732  0.00  0.00     0.053 H 
ATOM     16  H   LIG d   1       4.834   0.268  -5.870  0.00  0.00     0.053 H 
ATOM     17  N   LIG d   1       7.737   0.169  -8.956  0.00  0.00    -0.198 N 
ATOM     18  H   LIG d   1       8.656   0.076  -9.402  0.00  0.00     0.454 HD
ENDROOT
BRANCH   6  19
ATOM     19  C   LIG d   1       4.409   1.458  -8.666  0.00  0.00     0.053 C 
ATOM     20  H   LIG d   1       3.969   1.578  -7.675  0.00  0.00     0.054 H 
ATOM     21  H   LIG d   1       4.545   2.438  -9.123  0.00  0.00     0.054 H 
BRANCH  19  22
ATOM     22  C   LIG d   1       3.491   0.626  -9.524  0.00  0.00    -0.028 A 
ATOM     23  C   LIG d   1       2.380   0.022  -8.965  0.00  0.00    -0.056 A 
ATOM     24  C   LIG d   1       1.539  -0.740  -9.753  0.00  0.00    -0.043 A 
ATOM     25  H   LIG d   1       2.171   0.147  -7.913  0.00  0.00     0.062 H 
ATOM     26  C   LIG d   1       1.808  -0.899 -11.100  0.00  0.00     0.041 A 
ATOM     27  H   LIG d   1       0.671  -1.212  -9.316  0.00  0.00     0.063 H 
ATOM     28  C   LIG d   1       2.919  -0.294 -11.659  0.00  0.00    -0.043 A 
ATOM     29 CL   LIG d   1       0.752  -1.858 -12.090  0.00  0.00    -0.084 Cl
ATOM     30  C   LIG d   1       3.758   0.473 -10.872  0.00  0.00    -0.056 A 
ATOM     31  H   LIG d   1       3.130  -0.419 -12.711  0.00  0.00     0.063 H 
ATOM     32  H   LIG d   1       4.623   0.949 -11.309  0.00  0.00     0.062 H 
ENDBRANCH  19  22
ENDBRANCH   6  19
BRANCH   1  33
ATOM     33  C   LIG d   1       7.982  -2.884  -5.007  0.00  0.00     0.328 C 
ATOM     34  O   LIG d   1       7.537  -3.869  -4.467  0.00  0.00    -0.249 OA
BRANCH  33  35
ATOM     35  O   LIG d   1       9.176  -2.396  -4.635  0.00  0.00    -0.467 OA
BRANCH  35  36
ATOM     36  C   LIG d   1      10.197  -3.362  -4.268  0.00  0.00     0.082 C 
ATOM     37  H   LIG d   1      10.800  -3.603  -5.143  0.00  0.00     0.066 H 
ATOM     38  H   LIG d   1      10.835  -2.939  -3.493  0.00  0.00     0.066 H 
ATOM     39  H   LIG d   1       9.722  -4.268  -3.894  0.00  0.00     0.066 H 
ENDBRANCH  35  36
ENDBRANCH  33  35
ENDBRANCH   1  33
BRANCH  10  40
ATOM     40  C   LIG d   1       5.110  -0.278  -3.573  0.00  0.00     0.189 A 
ATOM     41  O   LIG d   1       5.081   1.070  -3.504  0.00  0.00    -0.458 OA
ATOM     42  C   LIG d   1       3.956   1.460  -2.893  0.00  0.00     0.093 A 
ATOM     43  C   LIG d   1       3.240   0.364  -2.558  0.00  0.00    -0.023 A 
ATOM     44  H   LIG d   1       3.667   2.482  -2.699  0.00  0.00     0.103 H 
ATOM     45  C   LIG d   1       3.972  -0.754  -2.990  0.00  0.00    -0.011 A 
ATOM     46  H   LIG d   1       2.285   0.350  -2.054  0.00  0.00     0.065 H 
ATOM     47  H   LIG d   1       3.688  -1.791  -2.882  0.00  0.00     0.066 H 
ENDBRANCH  10  40
TORSDOF 6
ENDMDL
MODEL 4
REMARK VINA RESULT:      -5.7      4.629      7.931
REMARK  6 active torsions:
REMARK  status: ('A' for Active; 'I' for Inactive)
REMARK    1  A    between atoms: C_1  and  O_2 
REMARK    2  A    between atoms: O_2  and  C_3 
REMARK    3  A    between atoms: C_3  and  C_5 
REMARK    4  A    between atoms: N_10  and  C_12 
REMARK    5  A    between atoms: C_12  and  C_13 
REMARK       I    between atoms: N_21  and  C_22 
REMARK    6  A    between atoms: C_22  and  C_24 
ROOT
ATOM      1  C   LIG d   1       3.957  -0.193  -4.327  0.00  0.00     0.133 C 
ATOM      2  H   LIG d   1       4.705   0.597  -4.268  0.00  0.00     0.062 H 
ATOM      3  C   LIG d   1       2.772   0.292  -5.162  0.00  0.00     0.063 C 
ATOM      4  C   LIG d   1       3.168   0.293  -6.617  0.00  0.00     0.207 A 
ATOM      5  C   LIG d   1       4.221  -0.386  -7.121  0.00  0.00     0.108 A 
ATOM      6  N   LIG d   1       4.249  -0.151  -8.460  0.00  0.00    -0.287 N 
ATOM      7  C   LIG d   1       3.212   0.672  -8.739  0.00  0.00     0.247 A 
ATOM      8  C   LIG d   1       5.156  -1.233  -6.295  0.00  0.00     0.062 C 
ATOM      9  N   LIG d   1       4.548  -1.382  -4.961  0.00  0.00    -0.275 N 
ATOM     10  C   LIG d   1       4.529  -2.577  -4.339  0.00  0.00     0.283 C 
ATOM     11  O   LIG d   1       3.919  -2.711  -3.294  0.00  0.00    -0.267 OA
ATOM     12  H   LIG d   1       2.499   1.303  -4.858  0.00  0.00     0.040 H 
ATOM     13  H   LIG d   1       1.925  -0.376  -5.014  0.00  0.00     0.040 H 
ATOM     14  H   LIG d   1       2.954   1.051  -9.716  0.00  0.00     0.160 H 
ATOM     15  H   LIG d   1       6.125  -0.740  -6.209  0.00  0.00     0.053 H 
ATOM     16  H   LIG d   1       5.279  -2.211  -6.759  0.00  0.00     0.053 H 
ATOM     17  N   LIG d   1       2.572   0.931  -7.628  0.00  0.00    -0.198 N 
ATOM     18  H   LIG d   1       1.742   1.529  -7.546  0.00  0.00     0.454 HD
ENDROOT
BRANCH   6  19
ATOM     19  C   LIG d   1       5.219  -0.684  -9.419  0.00  0.00     0.053 C 
ATOM     20  H   LIG d   1       5.998   0.057  -9.600  0.00  0.00     0.054 H 
ATOM     21  H   LIG d   1       5.668  -1.591  -9.015  0.00  0.00     0.054 H 
BRANCH  19  22
ATOM     22  C   LIG d   1       4.519  -1.004 -10.715  0.00  0.00    -0.028 A 
ATOM     23  C   LIG d   1       3.726  -2.132 -10.812  0.00  0.00    -0.056 A 
ATOM     24  C   LIG d   1       3.084  -2.426 -12.001  0.00  0.00    -0.043 A 
ATOM     25  H   LIG d   1       3.607  -2.783  -9.959  0.00  0.00     0.062 H 
ATOM     26  C   LIG d   1       3.237  -1.591 -13.093  0.00  0.00     0.041 A 
ATOM     27  H   LIG d   1       2.465  -3.307 -12.076  0.00  0.00     0.063 H 
ATOM     28  C   LIG d   1       4.031  -0.462 -12.996  0.00  0.00    -0.043 A 
ATOM     29 CL   LIG d   1       2.432  -1.960 -14.586  0.00  0.00    -0.084 Cl
ATOM     30  C   LIG d   1       4.668  -0.167 -11.805  0.00  0.00    -0.056 A 
ATOM     31  H   LIG d   1       4.150   0.189 -13.849  0.00  0.00     0.063 H 
ATOM     32  H   LIG d   1       5.284   0.717 -11.727  0.00  0.00     0.062 H 
ENDBRANCH  19  22
ENDBRANCH   6  19
BRANCH   1  33
ATOM     33  C   LIG d   1       3.482  -0.545  -2.941  0.00  0.00     0.328 C 
ATOM     34  O   LIG d   1       2.368  -0.984  -2.777  0.00  0.00    -0.249 OA
BRANCH  33  35
ATOM     35  O   LIG d   1       4.296  -0.371  -1.889  0.00  0.00    -0.467 OA
BRANCH  35  36
ATOM     36  C   LIG d   1       4.668   0.995  -1.562  0.00  0.00     0.082 C 
ATOM     37  H   LIG d   1       3.796   1.528  -1.185  0.00  0.00     0.066 H 
ATOM     38  H   LIG d   1       5.447   0.987  -0.800  0.00  0.00     0.066 H 
ATOM     39  H   LIG d   1       5.040   1.494  -2.457  0.00  0.00     0.066 H 
ENDBRANCH  35  36
ENDBRANCH  33  35
ENDBRANCH   1  33
BRANCH  10  40
ATOM     40  C   LIG d   1       5.243  -3.719  -4.922  0.00  0.00     0.189 A 
ATOM     41  O   LIG d   1       6.579  -3.910  -4.905  0.00  0.00    -0.458 OA
ATOM     42  C   LIG d   1       6.872  -5.054  -5.535  0.00  0.00     0.093 A 
ATOM     43  C   LIG d   1       5.723  -5.619  -5.968  0.00  0.00    -0.023 A 
ATOM     44  H   LIG d   1       7.863  -5.460  -5.674  0.00  0.00     0.103 H 
ATOM     45  C   LIG d   1       4.674  -4.770  -5.580  0.00  0.00    -0.011 A 
ATOM     46  H   LIG d   1       5.630  -6.548  -6.511  0.00  0.00     0.065 H 
ATOM     47  H   LIG d   1       3.621  -4.921  -5.766  0.00  0.00     0.066 H 
ENDBRANCH  10  40
TORSDOF 6
ENDMDL
MODEL 5
REMARK VINA RESULT:      -5.7      3.286      5.485
REMARK  6 active torsions:
REMARK  status: ('A' for Active; 'I' for Inactive)
REMARK    1  A    between atoms: C_1  and  O_2 
REMARK    2  A    between atoms: O_2  and  C_3 
REMARK    3  A    between atoms: C_3  and  C_5 
REMARK    4  A    between atoms: N_10  and  C_12 
REMARK    5  A    between atoms: C_12  and  C_13 
REMARK       I    between atoms: N_21  and  C_22 
REMARK    6  A    between atoms: C_22  and  C_24 
ROOT
ATOM      1  C   LIG d   1       4.137  -0.697  -8.258  0.00  0.00     0.133 C 
ATOM      2  H   LIG d   1       5.165  -0.790  -8.605  0.00  0.00     0.062 H 
ATOM      3  C   LIG d   1       3.287  -1.801  -8.886  0.00  0.00     0.063 C 
ATOM      4  C   LIG d   1       3.604  -3.109  -8.205  0.00  0.00     0.207 A 
ATOM      5  C   LIG d   1       4.215  -3.214  -7.005  0.00  0.00     0.108 A 
ATOM      6  N   LIG d   1       4.315  -4.540  -6.719  0.00  0.00    -0.287 N 
ATOM      7  C   LIG d   1       3.765  -5.211  -7.758  0.00  0.00     0.247 A 
ATOM      8  C   LIG d   1       4.677  -2.037  -6.183  0.00  0.00     0.062 C 
ATOM      9  N   LIG d   1       4.101  -0.826  -6.793  0.00  0.00    -0.275 N 
ATOM     10  C   LIG d   1       3.550   0.138  -6.029  0.00  0.00     0.283 C 
ATOM     11  O   LIG d   1       2.972   1.074  -6.550  0.00  0.00    -0.267 OA
ATOM     12  H   LIG d   1       3.515  -1.879  -9.950  0.00  0.00     0.040 H 
ATOM     13  H   LIG d   1       2.231  -1.566  -8.756  0.00  0.00     0.040 H 
ATOM     14  H   LIG d   1       3.686  -6.284  -7.843  0.00  0.00     0.160 H 
ATOM     15  H   LIG d   1       5.765  -1.979  -6.198  0.00  0.00     0.053 H 
ATOM     16  H   LIG d   1       4.325  -2.140  -5.157  0.00  0.00     0.053 H 
ATOM     17  N   LIG d   1       3.342  -4.344  -8.641  0.00  0.00    -0.198 N 
ATOM     18  H   LIG d   1       2.882  -4.576  -9.528  0.00  0.00     0.454 HD
ENDROOT
BRANCH   6  19
ATOM     19  C   LIG d   1       4.908  -5.131  -5.518  0.00  0.00     0.053 C 
ATOM     20  H   LIG d   1       4.694  -4.497  -4.657  0.00  0.00     0.054 H 
ATOM     21  H   LIG d   1       4.484  -6.122  -5.353  0.00  0.00     0.054 H 
BRANCH  19  22
ATOM     22  C   LIG d   1       6.400  -5.246  -5.698  0.00  0.00    -0.028 A 
ATOM     23  C   LIG d   1       6.924  -6.240  -6.502  0.00  0.00    -0.056 A 
ATOM     24  C   LIG d   1       8.293  -6.345  -6.667  0.00  0.00    -0.043 A 
ATOM     25  H   LIG d   1       6.264  -6.935  -7.001  0.00  0.00     0.062 H 
ATOM     26  C   LIG d   1       9.137  -5.456  -6.028  0.00  0.00     0.041 A 
ATOM     27  H   LIG d   1       8.702  -7.123  -7.295  0.00  0.00     0.063 H 
ATOM     28  C   LIG d   1       8.611  -4.460  -5.224  0.00  0.00    -0.043 A 
ATOM     29 CL   LIG d   1      10.855  -5.588  -6.234  0.00  0.00    -0.084 Cl
ATOM     30  C   LIG d   1       7.242  -4.352  -5.063  0.00  0.00    -0.056 A 
ATOM     31  H   LIG d   1       9.271  -3.765  -4.724  0.00  0.00     0.063 H 
ATOM     32  H   LIG d   1       6.832  -3.572  -4.439  0.00  0.00     0.062 H 
ENDBRANCH  19  22
ENDBRANCH   6  19
BRANCH   1  33
ATOM     33  C   LIG d   1       3.587   0.648  -8.659  0.00  0.00     0.328 C 
ATOM     34  O   LIG d   1       2.447   0.743  -9.050  0.00  0.00    -0.249 OA
BRANCH  33  35
ATOM     35  O   LIG d   1       4.363   1.740  -8.581  0.00  0.00    -0.467 OA
BRANCH  35  36
ATOM     36  C   LIG d   1       5.733   1.609  -9.045  0.00  0.00     0.082 C 
ATOM     37  H   LIG d   1       6.396   1.488  -8.188  0.00  0.00     0.066 H 
ATOM     38  H   LIG d   1       5.815   0.738  -9.694  0.00  0.00     0.066 H 
ATOM     39  H   LIG d   1       6.016   2.504  -9.599  0.00  0.00     0.066 H 
ENDBRANCH  35  36
ENDBRANCH  33  35
ENDBRANCH   1  33
BRANCH  10  40
ATOM     40  C   LIG d   1       3.646   0.060  -4.567  0.00  0.00     0.189 A 
ATOM     41  O   LIG d   1       4.664   0.525  -3.813  0.00  0.00    -0.458 OA
ATOM     42  C   LIG d   1       4.413   0.274  -2.523  0.00  0.00     0.093 A 
ATOM     43  C   LIG d   1       3.223  -0.359  -2.426  0.00  0.00    -0.023 A 
ATOM     44  H   LIG d   1       5.055   0.534  -1.695  0.00  0.00     0.103 H 
ATOM     45  C   LIG d   1       2.724  -0.501  -3.731  0.00  0.00    -0.011 A 
ATOM     46  H   LIG d   1       2.746  -0.693  -1.517  0.00  0.00     0.065 H 
ATOM     47  H   LIG d   1       1.791  -0.963  -4.017  0.00  0.00     0.066 H 
ENDBRANCH  10  40
TORSDOF 6
ENDMDL
MODEL 6
REMARK VINA RESULT:      -5.7      4.557      7.710
REMARK  6 active torsions:
REMARK  status: ('A' for Active; 'I' for Inactive)
REMARK    1  A    between atoms: C_1  and  O_2 
REMARK    2  A    between atoms: O_2  and  C_3 
REMARK    3  A    between atoms: C_3  and  C_5 
REMARK    4  A    between atoms: N_10  and  C_12 
REMARK    5  A    between atoms: C_12  and  C_13 
REMARK       I    between atoms: N_21  and  C_22 
REMARK    6  A    between atoms: C_22  and  C_24 
ROOT
ATOM      1  C   LIG d   1       7.409  -0.255  -6.677  0.00  0.00     0.133 C 
ATOM      2  H   LIG d   1       7.553  -1.108  -7.340  0.00  0.00     0.062 H 
ATOM      3  C   LIG d   1       7.229   1.013  -7.511  0.00  0.00     0.063 C 
ATOM      4  C   LIG d   1       5.848   1.006  -8.118  0.00  0.00     0.207 A 
ATOM      5  C   LIG d   1       4.829   0.235  -7.682  0.00  0.00     0.108 A 
ATOM      6  N   LIG d   1       3.751   0.513  -8.464  0.00  0.00    -0.287 N 
ATOM      7  C   LIG d   1       4.144   1.445  -9.362  0.00  0.00     0.247 A 
ATOM      8  C   LIG d   1       4.931  -0.736  -6.533  0.00  0.00     0.062 C 
ATOM      9  N   LIG d   1       6.211  -0.472  -5.852  0.00  0.00    -0.275 N 
ATOM     10  C   LIG d   1       6.281  -0.426  -4.507  0.00  0.00     0.283 C 
ATOM     11  O   LIG d   1       7.316  -0.089  -3.962  0.00  0.00    -0.267 OA
ATOM     12  H   LIG d   1       7.976   1.039  -8.305  0.00  0.00     0.040 H 
ATOM     13  H   LIG d   1       7.343   1.888  -6.873  0.00  0.00     0.040 H 
ATOM     14  H   LIG d   1       3.523   1.881 -10.130  0.00  0.00     0.160 H 
ATOM     15  H   LIG d   1       4.915  -1.759  -6.910  0.00  0.00     0.053 H 
ATOM     16  H   LIG d   1       4.103  -0.583  -5.842  0.00  0.00     0.053 H 
ATOM     17  N   LIG d   1       5.401   1.732  -9.146  0.00  0.00    -0.198 N 
ATOM     18  H   LIG d   1       5.956   2.411  -9.680  0.00  0.00     0.454 HD
ENDROOT
BRANCH   6  19
ATOM     19  C   LIG d   1       2.418  -0.085  -8.357  0.00  0.00     0.053 C 
ATOM     20  H   LIG d   1       2.330  -0.610  -7.406  0.00  0.00     0.054 H 
ATOM     21  H   LIG d   1       1.663   0.699  -8.410  0.00  0.00     0.054 H 
BRANCH  19  22
ATOM     22  C   LIG d   1       2.212  -1.059  -9.489  0.00  0.00    -0.028 A 
ATOM     23  C   LIG d   1       2.793  -2.312  -9.437  0.00  0.00    -0.056 A 
ATOM     24  C   LIG d   1       2.603  -3.205 -10.475  0.00  0.00    -0.043 A 
ATOM     25  H   LIG d   1       3.395  -2.592  -8.585  0.00  0.00     0.062 H 
ATOM     26  C   LIG d   1       1.832  -2.844 -11.565  0.00  0.00     0.041 A 
ATOM     27  H   LIG d   1       3.058  -4.184 -10.435  0.00  0.00     0.063 H 
ATOM     28  C   LIG d   1       1.250  -1.590 -11.616  0.00  0.00    -0.043 A 
ATOM     29 CL   LIG d   1       1.595  -3.965 -12.869  0.00  0.00    -0.084 Cl
ATOM     30  C   LIG d   1       1.436  -0.700 -10.575  0.00  0.00    -0.056 A 
ATOM     31  H   LIG d   1       0.649  -1.309 -12.468  0.00  0.00     0.063 H 
ATOM     32  H   LIG d   1       0.978   0.278 -10.613  0.00  0.00     0.062 H 
ENDBRANCH  19  22
ENDBRANCH   6  19
BRANCH   1  33
ATOM     33  C   LIG d   1       8.614  -0.100  -5.785  0.00  0.00     0.328 C 
ATOM     34  O   LIG d   1       8.998   1.003  -5.474  0.00  0.00    -0.249 OA
BRANCH  33  35
ATOM     35  O   LIG d   1       9.260  -1.187  -5.335  0.00  0.00    -0.467 OA
BRANCH  35  36
ATOM     36  C   LIG d   1       9.277  -2.350  -6.205  0.00  0.00     0.082 C 
ATOM     37  H   LIG d   1      10.300  -2.711  -6.309  0.00  0.00     0.066 H 
ATOM     38  H   LIG d   1       8.657  -3.135  -5.775  0.00  0.00     0.066 H 
ATOM     39  H   LIG d   1       8.889  -2.075  -7.186  0.00  0.00     0.066 H 
ENDBRANCH  35  36
ENDBRANCH  33  35
ENDBRANCH   1  33
BRANCH  10  40
ATOM     40  C   LIG d   1       5.110  -0.781  -3.698  0.00  0.00     0.189 A 
ATOM     41  O   LIG d   1       4.035   0.003  -3.472  0.00  0.00    -0.458 OA
ATOM     42  C   LIG d   1       3.168  -0.647  -2.687  0.00  0.00     0.093 A 
ATOM     43  C   LIG d   1       3.675  -1.865  -2.394  0.00  0.00    -0.023 A 
ATOM     44  H   LIG d   1       2.219  -0.262  -2.343  0.00  0.00     0.103 H 
ATOM     45  C   LIG d   1       4.919  -1.960  -3.038  0.00  0.00    -0.011 A 
ATOM     46  H   LIG d   1       3.210  -2.623  -1.781  0.00  0.00     0.065 H 
ATOM     47  H   LIG d   1       5.593  -2.804  -3.015  0.00  0.00     0.066 H 
ENDBRANCH  10  40
TORSDOF 6
ENDMDL
MODEL 7
REMARK VINA RESULT:      -5.7      4.944      7.518
REMARK  6 active torsions:
REMARK  status: ('A' for Active; 'I' for Inactive)
REMARK    1  A    between atoms: C_1  and  O_2 
REMARK    2  A    between atoms: O_2  and  C_3 
REMARK    3  A    between atoms: C_3  and  C_5 
REMARK    4  A    between atoms: N_10  and  C_12 
REMARK    5  A    between atoms: C_12  and  C_13 
REMARK       I    between atoms: N_21  and  C_22 
REMARK    6  A    between atoms: C_22  and  C_24 
ROOT
ATOM      1  C   LIG d   1       3.825  -0.089  -4.408  0.00  0.00     0.133 C 
ATOM      2  H   LIG d   1       4.467   0.782  -4.278  0.00  0.00     0.062 H 
ATOM      3  C   LIG d   1       2.710   0.246  -5.399  0.00  0.00     0.063 C 
ATOM      4  C   LIG d   1       3.288   0.272  -6.793  0.00  0.00     0.207 A 
ATOM      5  C   LIG d   1       4.466  -0.290  -7.140  0.00  0.00     0.108 A 
ATOM      6  N   LIG d   1       4.639  -0.072  -8.471  0.00  0.00    -0.287 N 
ATOM      7  C   LIG d   1       3.561   0.623  -8.901  0.00  0.00     0.247 A 
ATOM      8  C   LIG d   1       5.376  -1.013  -6.179  0.00  0.00     0.062 C 
ATOM      9  N   LIG d   1       4.621  -1.211  -4.929  0.00  0.00    -0.275 N 
ATOM     10  C   LIG d   1       4.656  -2.393  -4.280  0.00  0.00     0.283 C 
ATOM     11  O   LIG d   1       3.935  -2.581  -3.317  0.00  0.00    -0.267 OA
ATOM     12  H   LIG d   1       2.289   1.223  -5.161  0.00  0.00     0.040 H 
ATOM     13  H   LIG d   1       1.931  -0.513  -5.340  0.00  0.00     0.040 H 
ATOM     14  H   LIG d   1       3.390   0.957  -9.914  0.00  0.00     0.160 H 
ATOM     15  H   LIG d   1       6.264  -0.411  -5.985  0.00  0.00     0.053 H 
ATOM     16  H   LIG d   1       5.665  -1.977  -6.596  0.00  0.00     0.053 H 
ATOM     17  N   LIG d   1       2.759   0.823  -7.888  0.00  0.00    -0.198 N 
ATOM     18  H   LIG d   1       1.864   1.323  -7.929  0.00  0.00     0.454 HD
ENDROOT
BRANCH   6  19
ATOM     19  C   LIG d   1       5.778  -0.504  -9.285  0.00  0.00     0.053 C 
ATOM     20  H   LIG d   1       6.008  -1.547  -9.064  0.00  0.00     0.054 H 
ATOM     21  H   LIG d   1       5.528  -0.405 -10.341  0.00  0.00     0.054 H 
BRANCH  19  22
ATOM     22  C   LIG d   1       6.976   0.353  -8.969  0.00  0.00    -0.028 A 
ATOM     23  C   LIG d   1       6.890   1.728  -9.079  0.00  0.00    -0.056 A 
ATOM     24  C   LIG d   1       7.989   2.514  -8.789  0.00  0.00    -0.043 A 
ATOM     25  H   LIG d   1       5.964   2.187  -9.391  0.00  0.00     0.062 H 
ATOM     26  C   LIG d   1       9.175   1.925  -8.389  0.00  0.00     0.041 A 
ATOM     27  H   LIG d   1       7.922   3.589  -8.876  0.00  0.00     0.063 H 
ATOM     28  C   LIG d   1       9.260   0.549  -8.278  0.00  0.00    -0.043 A 
ATOM     29 CL   LIG d   1      10.556   2.912  -8.026  0.00  0.00    -0.084 Cl
ATOM     30  C   LIG d   1       8.159  -0.237  -8.563  0.00  0.00    -0.056 A 
ATOM     31  H   LIG d   1      10.186   0.089  -7.966  0.00  0.00     0.063 H 
ATOM     32  H   LIG d   1       8.224  -1.311  -8.473  0.00  0.00     0.062 H 
ENDBRANCH  19  22
ENDBRANCH   6  19
BRANCH   1  33
ATOM     33  C   LIG d   1       3.218  -0.474  -3.084  0.00  0.00     0.328 C 
ATOM     34  O   LIG d   1       2.084  -0.890  -3.037  0.00  0.00    -0.249 OA
BRANCH  33  35
ATOM     35  O   LIG d   1       3.936  -0.354  -1.957  0.00  0.00    -0.467 OA
BRANCH  35  36
ATOM     36  C   LIG d   1       4.636   0.903  -1.752  0.00  0.00     0.082 C 
ATOM     37  H   LIG d   1       5.305   1.087  -2.592  0.00  0.00     0.066 H 
ATOM     38  H   LIG d   1       3.912   1.714  -1.679  0.00  0.00     0.066 H 
ATOM     39  H   LIG d   1       5.216   0.849  -0.831  0.00  0.00     0.066 H 
ENDBRANCH  35  36
ENDBRANCH  33  35
ENDBRANCH   1  33
BRANCH  10  40
ATOM     40  C   LIG d   1       5.562  -3.453  -4.735  0.00  0.00     0.189 A 
ATOM     41  O   LIG d   1       6.899  -3.484  -4.557  0.00  0.00    -0.458 OA
ATOM     42  C   LIG d   1       7.395  -4.598  -5.107  0.00  0.00     0.093 A 
ATOM     43  C   LIG d   1       6.379  -5.304  -5.652  0.00  0.00    -0.023 A 
ATOM     44  H   LIG d   1       8.436  -4.886  -5.116  0.00  0.00     0.103 H 
ATOM     45  C   LIG d   1       5.201  -4.578  -5.418  0.00  0.00    -0.011 A 
ATOM     46  H   LIG d   1       6.460  -6.249  -6.169  0.00  0.00     0.065 H 
ATOM     47  H   LIG d   1       4.202  -4.857  -5.720  0.00  0.00     0.066 H 
ENDBRANCH  10  40
TORSDOF 6
ENDMDL
MODEL 8
REMARK VINA RESULT:      -5.7      4.609      7.428
REMARK  6 active torsions:
REMARK  status: ('A' for Active; 'I' for Inactive)
REMARK    1  A    between atoms: C_1  and  O_2 
REMARK    2  A    between atoms: O_2  and  C_3 
REMARK    3  A    between atoms: C_3  and  C_5 
REMARK    4  A    between atoms: N_10  and  C_12 
REMARK    5  A    between atoms: C_12  and  C_13 
REMARK       I    between atoms: N_21  and  C_22 
REMARK    6  A    between atoms: C_22  and  C_24 
ROOT
ATOM      1  C   LIG d   1       3.840  -0.106  -4.442  0.00  0.00     0.133 C 
ATOM      2  H   LIG d   1       4.493   0.759  -4.328  0.00  0.00     0.062 H 
ATOM      3  C   LIG d   1       2.718   0.232  -5.423  0.00  0.00     0.063 C 
ATOM      4  C   LIG d   1       3.279   0.238  -6.823  0.00  0.00     0.207 A 
ATOM      5  C   LIG d   1       4.447  -0.341  -7.178  0.00  0.00     0.108 A 
ATOM      6  N   LIG d   1       4.607  -0.138  -8.514  0.00  0.00    -0.287 N 
ATOM      7  C   LIG d   1       3.531   0.565  -8.939  0.00  0.00     0.247 A 
ATOM      8  C   LIG d   1       5.359  -1.064  -6.221  0.00  0.00     0.062 C 
ATOM      9  N   LIG d   1       4.618  -1.242  -4.960  0.00  0.00    -0.275 N 
ATOM     10  C   LIG d   1       4.647  -2.417  -4.301  0.00  0.00     0.283 C 
ATOM     11  O   LIG d   1       3.935  -2.587  -3.327  0.00  0.00    -0.267 OA
ATOM     12  H   LIG d   1       2.311   1.216  -5.190  0.00  0.00     0.040 H 
ATOM     13  H   LIG d   1       1.931  -0.517  -5.347  0.00  0.00     0.040 H 
ATOM     14  H   LIG d   1       3.353   0.891  -9.952  0.00  0.00     0.160 H 
ATOM     15  H   LIG d   1       6.257  -0.471  -6.044  0.00  0.00     0.053 H 
ATOM     16  H   LIG d   1       5.634  -2.036  -6.631  0.00  0.00     0.053 H 
ATOM     17  N   LIG d   1       2.744   0.784  -7.918  0.00  0.00    -0.198 N 
ATOM     18  H   LIG d   1       1.854   1.294  -7.953  0.00  0.00     0.454 HD
ENDROOT
BRANCH   6  19
ATOM     19  C   LIG d   1       5.730  -0.591  -9.337  0.00  0.00     0.053 C 
ATOM     20  H   LIG d   1       5.615  -0.212 -10.352  0.00  0.00     0.054 H 
ATOM     21  H   LIG d   1       6.664  -0.218  -8.914  0.00  0.00     0.054 H 
BRANCH  19  22
ATOM     22  C   LIG d   1       5.757  -2.098  -9.363  0.00  0.00    -0.028 A 
ATOM     23  C   LIG d   1       6.922  -2.774  -9.049  0.00  0.00    -0.056 A 
ATOM     24  C   LIG d   1       6.946  -4.156  -9.074  0.00  0.00    -0.043 A 
ATOM     25  H   LIG d   1       7.811  -2.222  -8.784  0.00  0.00     0.062 H 
ATOM     26  C   LIG d   1       5.806  -4.862  -9.412  0.00  0.00     0.041 A 
ATOM     27  H   LIG d   1       7.856  -4.684  -8.828  0.00  0.00     0.063 H 
ATOM     28  C   LIG d   1       4.641  -4.185  -9.726  0.00  0.00    -0.043 A 
ATOM     29 CL   LIG d   1       5.837  -6.597  -9.444  0.00  0.00    -0.084 Cl
ATOM     30  C   LIG d   1       4.616  -2.802  -9.696  0.00  0.00    -0.056 A 
ATOM     31  H   LIG d   1       3.751  -4.736  -9.992  0.00  0.00     0.063 H 
ATOM     32  H   LIG d   1       3.705  -2.274  -9.937  0.00  0.00     0.062 H 
ENDBRANCH  19  22
ENDBRANCH   6  19
BRANCH   1  33
ATOM     33  C   LIG d   1       3.244  -0.470  -3.107  0.00  0.00     0.328 C 
ATOM     34  O   LIG d   1       2.113  -0.890  -3.044  0.00  0.00    -0.249 OA
BRANCH  33  35
ATOM     35  O   LIG d   1       3.971  -0.328  -1.987  0.00  0.00    -0.467 OA
BRANCH  35  36
ATOM     36  C   LIG d   1       4.684   0.926  -1.818  0.00  0.00     0.082 C 
ATOM     37  H   LIG d   1       4.574   1.270  -0.790  0.00  0.00     0.066 H 
ATOM     38  H   LIG d   1       5.740   0.776  -2.041  0.00  0.00     0.066 H 
ATOM     39  H   LIG d   1       4.271   1.672  -2.497  0.00  0.00     0.066 H 
ENDBRANCH  35  36
ENDBRANCH  33  35
ENDBRANCH   1  33
BRANCH  10  40
ATOM     40  C   LIG d   1       5.535  -3.492  -4.755  0.00  0.00     0.189 A 
ATOM     41  O   LIG d   1       6.866  -3.564  -4.542  0.00  0.00    -0.458 OA
ATOM     42  C   LIG d   1       7.346  -4.679  -5.105  0.00  0.00     0.093 A 
ATOM     43  C   LIG d   1       6.327  -5.345  -5.691  0.00  0.00    -0.023 A 
ATOM     44  H   LIG d   1       8.379  -4.995  -5.093  0.00  0.00     0.103 H 
ATOM     45  C   LIG d   1       5.162  -4.591  -5.473  0.00  0.00    -0.011 A 
ATOM     46  H   LIG d   1       6.395  -6.280  -6.227  0.00  0.00     0.065 H 
ATOM     47  H   LIG d   1       4.165  -4.836  -5.807  0.00  0.00     0.066 H 
ENDBRANCH  10  40
TORSDOF 6
ENDMDL
MODEL 9
REMARK VINA RESULT:      -5.6      3.555      5.199
REMARK  6 active torsions:
REMARK  status: ('A' for Active; 'I' for Inactive)
REMARK    1  A    between atoms: C_1  and  O_2 
REMARK    2  A    between atoms: O_2  and  C_3 
REMARK    3  A    between atoms: C_3  and  C_5 
REMARK    4  A    between atoms: N_10  and  C_12 
REMARK    5  A    between atoms: C_12  and  C_13 
REMARK       I    between atoms: N_21  and  C_22 
REMARK    6  A    between atoms: C_22  and  C_24 
ROOT
ATOM      1  C   LIG d   1       3.993   0.440  -8.726  0.00  0.00     0.133 C 
ATOM      2  H   LIG d   1       3.862  -0.595  -9.042  0.00  0.00     0.062 H 
ATOM      3  C   LIG d   1       2.908   0.802  -7.712  0.00  0.00     0.063 C 
ATOM      4  C   LIG d   1       3.238   0.153  -6.391  0.00  0.00     0.207 A 
ATOM      5  C   LIG d   1       4.459  -0.318  -6.058  0.00  0.00     0.108 A 
ATOM      6  N   LIG d   1       4.368  -0.815  -4.795  0.00  0.00    -0.287 N 
ATOM      7  C   LIG d   1       3.088  -0.638  -4.392  0.00  0.00     0.247 A 
ATOM      8  C   LIG d   1       5.662  -0.270  -6.965  0.00  0.00     0.062 C 
ATOM      9  N   LIG d   1       5.316   0.599  -8.104  0.00  0.00    -0.275 N 
ATOM     10  C   LIG d   1       6.188   1.519  -8.561  0.00  0.00     0.283 C 
ATOM     11  O   LIG d   1       5.845   2.309  -9.422  0.00  0.00    -0.267 OA
ATOM     12  H   LIG d   1       1.941   0.441  -8.065  0.00  0.00     0.040 H 
ATOM     13  H   LIG d   1       2.871   1.884  -7.589  0.00  0.00     0.040 H 
ATOM     14  H   LIG d   1       2.685  -0.927  -3.434  0.00  0.00     0.160 H 
ATOM     15  H   LIG d   1       5.898  -1.273  -7.322  0.00  0.00     0.053 H 
ATOM     16  H   LIG d   1       6.516   0.143  -6.429  0.00  0.00     0.053 H 
ATOM     17  N   LIG d   1       2.422  -0.058  -5.356  0.00  0.00    -0.198 N 
ATOM     18  H   LIG d   1       1.428   0.196  -5.321  0.00  0.00     0.454 HD
ENDROOT
BRANCH   6  19
ATOM     19  C   LIG d   1       5.448  -1.428  -4.019  0.00  0.00     0.053 C 
ATOM     20  H   LIG d   1       6.343  -0.810  -4.090  0.00  0.00     0.054 H 
ATOM     21  H   LIG d   1       5.145  -1.509  -2.975  0.00  0.00     0.054 H 
BRANCH  19  22
ATOM     22  C   LIG d   1       5.742  -2.801  -4.565  0.00  0.00    -0.028 A 
ATOM     23  C   LIG d   1       4.704  -3.667  -4.854  0.00  0.00    -0.056 A 
ATOM     24  C   LIG d   1       4.974  -4.927  -5.354  0.00  0.00    -0.043 A 
ATOM     25  H   LIG d   1       3.682  -3.359  -4.688  0.00  0.00     0.062 H 
ATOM     26  C   LIG d   1       6.283  -5.321  -5.567  0.00  0.00     0.041 A 
ATOM     27  H   LIG d   1       4.163  -5.604  -5.579  0.00  0.00     0.063 H 
ATOM     28  C   LIG d   1       7.321  -4.454  -5.278  0.00  0.00    -0.043 A 
ATOM     29 CL   LIG d   1       6.622  -6.903  -6.194  0.00  0.00    -0.084 Cl
ATOM     30  C   LIG d   1       7.050  -3.192  -4.782  0.00  0.00    -0.056 A 
ATOM     31  H   LIG d   1       8.343  -4.762  -5.443  0.00  0.00     0.063 H 
ATOM     32  H   LIG d   1       7.861  -2.513  -4.561  0.00  0.00     0.062 H 
ENDBRANCH  19  22
ENDBRANCH   6  19
BRANCH   1  33
ATOM     33  C   LIG d   1       3.885   1.352  -9.921  0.00  0.00     0.328 C 
ATOM     34  O   LIG d   1       3.387   2.447  -9.803  0.00  0.00    -0.249 OA
BRANCH  33  35
ATOM     35  O   LIG d   1       4.342   0.947 -11.116  0.00  0.00    -0.467 OA
BRANCH  35  36
ATOM     36  C   LIG d   1       4.111  -0.441 -11.475  0.00  0.00     0.082 C 
ATOM     37  H   LIG d   1       4.236  -0.564 -12.551  0.00  0.00     0.066 H 
ATOM     38  H   LIG d   1       4.826  -1.075 -10.952  0.00  0.00     0.066 H 
ATOM     39  H   LIG d   1       3.097  -0.725 -11.193  0.00  0.00     0.066 H 
ENDBRANCH  35  36
ENDBRANCH  33  35
ENDBRANCH   1  33
BRANCH  10  40
ATOM     40  C   LIG d   1       7.552   1.570  -8.022  0.00  0.00     0.189 A 
ATOM     41  O   LIG d   1       7.915   2.094  -6.833  0.00  0.00    -0.458 OA
ATOM     42  C   LIG d   1       9.238   1.970  -6.678  0.00  0.00     0.093 A 
ATOM     43  C   LIG d   1       9.749   1.361  -7.771  0.00  0.00    -0.023 A 
ATOM     44  H   LIG d   1       9.805   2.301  -5.821  0.00  0.00     0.103 H 
ATOM     45  C   LIG d   1       8.676   1.101  -8.638  0.00  0.00    -0.011 A 
ATOM     46  H   LIG d   1      10.787   1.120  -7.945  0.00  0.00     0.065 H 
ATOM     47  H   LIG d   1       8.730   0.622  -9.604  0.00  0.00     0.066 H 
ENDBRANCH  10  40
TORSDOF 6
ENDMDL
MODEL 10
REMARK VINA RESULT:      -5.6      4.296      6.959
REMARK  6 active torsions:
REMARK  status: ('A' for Active; 'I' for Inactive)
REMARK    1  A    between atoms: C_1  and  O_2 
REMARK    2  A    between atoms: O_2  and  C_3 
REMARK    3  A    between atoms: C_3  and  C_5 
REMARK    4  A    between atoms: N_10  and  C_12 
REMARK    5  A    between atoms: C_12  and  C_13 
REMARK       I    between atoms: N_21  and  C_22 
REMARK    6  A    between atoms: C_22  and  C_24 
ROOT
ATOM      1  C   LIG d   1       4.519  -1.518  -3.963  0.00  0.00     0.133 C 
ATOM      2  H   LIG d   1       4.039  -2.363  -3.469  0.00  0.00     0.062 H 
ATOM      3  C   LIG d   1       5.869  -1.244  -3.301  0.00  0.00     0.063 C 
ATOM      4  C   LIG d   1       6.850  -2.304  -3.734  0.00  0.00     0.207 A 
ATOM      5  C   LIG d   1       6.683  -3.101  -4.812  0.00  0.00     0.108 A 
ATOM      6  N   LIG d   1       7.772  -3.914  -4.884  0.00  0.00    -0.287 N 
ATOM      7  C   LIG d   1       8.575  -3.592  -3.843  0.00  0.00     0.247 A 
ATOM      8  C   LIG d   1       5.486  -3.050  -5.726  0.00  0.00     0.062 C 
ATOM      9  N   LIG d   1       4.727  -1.834  -5.384  0.00  0.00    -0.275 N 
ATOM     10  C   LIG d   1       4.239  -1.029  -6.349  0.00  0.00     0.283 C 
ATOM     11  O   LIG d   1       3.720   0.032  -6.053  0.00  0.00    -0.267 OA
ATOM     12  H   LIG d   1       5.758  -1.272  -2.216  0.00  0.00     0.040 H 
ATOM     13  H   LIG d   1       6.232  -0.263  -3.606  0.00  0.00     0.040 H 
ATOM     14  H   LIG d   1       9.523  -4.055  -3.614  0.00  0.00     0.160 H 
ATOM     15  H   LIG d   1       4.864  -3.932  -5.573  0.00  0.00     0.053 H 
ATOM     16  H   LIG d   1       5.813  -3.004  -6.765  0.00  0.00     0.053 H 
ATOM     17  N   LIG d   1       8.013  -2.628  -3.162  0.00  0.00    -0.198 N 
ATOM     18  H   LIG d   1       8.404  -2.189  -2.321  0.00  0.00     0.454 HD
ENDROOT
BRANCH   6  19
ATOM     19  C   LIG d   1       8.027  -4.942  -5.895  0.00  0.00     0.053 C 
ATOM     20  H   LIG d   1       7.516  -4.678  -6.821  0.00  0.00     0.054 H 
ATOM     21  H   LIG d   1       9.099  -5.011  -6.081  0.00  0.00     0.054 H 
BRANCH  19  22
ATOM     22  C   LIG d   1       7.516  -6.270  -5.401  0.00  0.00    -0.028 A 
ATOM     23  C   LIG d   1       6.227  -6.670  -5.701  0.00  0.00    -0.056 A 
ATOM     24  C   LIG d   1       5.759  -7.889  -5.247  0.00  0.00    -0.043 A 
ATOM     25  H   LIG d   1       5.588  -6.030  -6.290  0.00  0.00     0.062 H 
ATOM     26  C   LIG d   1       6.579  -8.708  -4.493  0.00  0.00     0.041 A 
ATOM     27  H   LIG d   1       4.752  -8.201  -5.482  0.00  0.00     0.063 H 
ATOM     28  C   LIG d   1       7.869  -8.308  -4.193  0.00  0.00    -0.043 A 
ATOM     29 CL   LIG d   1       5.991 -10.238  -3.922  0.00  0.00    -0.084 Cl
ATOM     30  C   LIG d   1       8.339  -7.091  -4.652  0.00  0.00    -0.056 A 
ATOM     31  H   LIG d   1       8.509  -8.947  -3.603  0.00  0.00     0.063 H 
ATOM     32  H   LIG d   1       9.347  -6.780  -4.421  0.00  0.00     0.062 H 
ENDBRANCH  19  22
ENDBRANCH   6  19
BRANCH   1  33
ATOM     33  C   LIG d   1       3.645  -0.297  -3.840  0.00  0.00     0.328 C 
ATOM     34  O   LIG d   1       2.442  -0.411  -3.851  0.00  0.00    -0.249 OA
BRANCH  33  35
ATOM     35  O   LIG d   1       4.203   0.917  -3.718  0.00  0.00    -0.467 OA
BRANCH  35  36
ATOM     36  C   LIG d   1       3.788   1.722  -2.582  0.00  0.00     0.082 C 
ATOM     37  H   LIG d   1       3.666   1.082  -1.709  0.00  0.00     0.066 H 
ATOM     38  H   LIG d   1       4.546   2.477  -2.376  0.00  0.00     0.066 H 
ATOM     39  H   LIG d   1       2.841   2.210  -2.810  0.00  0.00     0.066 H 
ENDBRANCH  35  36
ENDBRANCH  33  35
ENDBRANCH   1  33
BRANCH  10  40
ATOM     40  C   LIG d   1       4.334  -1.430  -7.757  0.00  0.00     0.189 A 
ATOM     41  O   LIG d   1       3.517  -2.297  -8.391  0.00  0.00    -0.458 OA
ATOM     42  C   LIG d   1       3.907  -2.425  -9.665  0.00  0.00     0.093 A 
ATOM     43  C   LIG d   1       4.986  -1.637  -9.870  0.00  0.00    -0.023 A 
ATOM     44  H   LIG d   1       3.437  -3.053 -10.407  0.00  0.00     0.103 H 
ATOM     45  C   LIG d   1       5.267  -0.997  -8.653  0.00  0.00    -0.011 A 
ATOM     46  H   LIG d   1       5.530  -1.523 -10.796  0.00  0.00     0.065 H 
ATOM     47  H   LIG d   1       6.066  -0.295  -8.464  0.00  0.00     0.066 H 
ENDBRANCH  10  40
TORSDOF 6
ENDMDL
