MODEL 1
REMARK VINA RESULT:      -6.6      0.000      0.000
REMARK  9 active torsions:
REMARK  status: ('A' for Active; 'I' for Inactive)
REMARK    1  A    between atoms: C_1  and  C_2 
REMARK    2  A    between atoms: C_9  and  O_39 
REMARK    3  A    between atoms: C_17  and  O_19 
REMARK    4  A    between atoms: C_21  and  C_26 
REMARK    5  A    between atoms: C_23  and  O_25 
REMARK    6  A    between atoms: C_26  and  C_27 
REMARK    7  A    between atoms: C_26  and  C_28 
REMARK    8  A    between atoms: C_26  and  C_29 
REMARK    9  A    between atoms: C_30  and  O_38 
ROOT
ATOM      1  C   LIG d   1       4.658   0.206  -3.424  0.00  0.00     0.089 C 
ATOM      2  H   LIG d   1       5.583   0.756  -3.591  0.00  0.00     0.044 H 
ATOM      3  C   LIG d   1       3.450   1.096  -3.684  0.00  0.00     0.313 C 
ATOM      4  O   LIG d   1       3.376   2.288  -3.504  0.00  0.00    -0.250 OA
ATOM      5  O   LIG d   1       2.477   0.281  -4.155  0.00  0.00    -0.455 OA
ATOM      6  C   LIG d   1       3.089  -0.658  -5.038  0.00  0.00     0.162 C 
ATOM      7  H   LIG d   1       2.496  -1.573  -5.131  0.00  0.00     0.079 H 
ATOM      8  C   LIG d   1       4.496  -0.940  -4.451  0.00  0.00     0.158 C 
ATOM      9  C   LIG d   1       5.471  -0.768  -5.596  0.00  0.00     0.214 C 
ATOM     10  C   LIG d   1       6.293  -1.955  -5.964  0.00  0.00     0.344 C 
ATOM     11  O   LIG d   1       7.272  -2.330  -5.353  0.00  0.00    -0.247 OA
ATOM     12  O   LIG d   1       5.805  -2.575  -7.080  0.00  0.00    -0.456 OA
ATOM     13  C   LIG d   1       4.485  -2.100  -7.428  0.00  0.00     0.141 C 
ATOM     14  H   LIG d   1       3.662  -2.680  -7.009  0.00  0.00     0.077 H 
ATOM     15  C   LIG d   1       4.623  -0.655  -6.903  0.00  0.00     0.097 C 
ATOM     16  C   LIG d   1       3.337  -0.018  -6.431  0.00  0.00     0.108 C 
ATOM     17  H   LIG d   1       3.432   1.061  -6.344  0.00  0.00     0.064 H 
ATOM     18  C   LIG d   1       5.563   0.005  -7.901  0.00  0.00     0.090 C 
ATOM     19  C   LIG d   1       4.813  -0.281  -9.119  0.00  0.00     0.009 C 
ATOM     20  H   LIG d   1       5.370  -0.132 -10.043  0.00  0.00     0.034 H 
ATOM     21  C   LIG d   1       4.318  -1.751  -8.942  0.00  0.00     0.097 C 
ATOM     22  H   LIG d   1       4.922  -2.434  -9.544  0.00  0.00     0.063 H 
ATOM     23  C   LIG d   1       6.889  -0.589  -8.512  0.00  0.00     0.164 C 
ATOM     24  H   LIG d   1       7.338  -1.358  -7.853  0.00  0.00     0.072 H 
ATOM     25  C   LIG d   1       7.781   0.670  -8.559  0.00  0.00     0.339 C 
ATOM     26  O   LIG d   1       8.776   0.844  -9.218  0.00  0.00    -0.248 OA
ATOM     27  O   LIG d   1       7.181   1.565  -7.670  0.00  0.00    -0.432 OA
ATOM     28  C   LIG d   1       6.632   0.451  -6.931  0.00  0.00     0.216 C 
ATOM     29  H   LIG d   1       7.446  -0.271  -6.837  0.00  0.00     0.106 H 
ATOM     30  O   LIG d   1       6.065   0.558  -5.624  0.00  0.00    -0.319 OA
ENDROOT
BRANCH  19  31
ATOM     31  C   LIG d   1       3.631   0.693  -9.299  0.00  0.00    -0.032 C 
BRANCH  31  32
ATOM     32  C   LIG d   1       3.823   1.493 -10.589  0.00  0.00    -0.060 C 
ATOM     33  H   LIG d   1       4.076   2.523 -10.343  0.00  0.00     0.024 H 
ATOM     34  H   LIG d   1       4.629   1.050 -11.174  0.00  0.00     0.024 H 
ATOM     35  H   LIG d   1       2.900   1.474 -11.169  0.00  0.00     0.024 H 
ENDBRANCH  31  32
BRANCH  31  36
ATOM     36  C   LIG d   1       2.325  -0.100  -9.380  0.00  0.00    -0.060 C 
ATOM     37  H   LIG d   1       2.147  -0.402 -10.413  0.00  0.00     0.024 H 
ATOM     38  H   LIG d   1       2.399  -0.987  -8.750  0.00  0.00     0.024 H 
ATOM     39  H   LIG d   1       1.500   0.524  -9.035  0.00  0.00     0.024 H 
ENDBRANCH  31  36
BRANCH  31  40
ATOM     40  C   LIG d   1       3.575   1.650  -8.107  0.00  0.00    -0.060 C 
ATOM     41  H   LIG d   1       3.569   1.078  -7.180  0.00  0.00     0.024 H 
ATOM     42  H   LIG d   1       4.446   2.305  -8.126  0.00  0.00     0.024 H 
ATOM     43  H   LIG d   1       2.668   2.252  -8.168  0.00  0.00     0.024 H 
ENDBRANCH  31  40
ENDBRANCH  19  31
BRANCH  21  44
ATOM     44  O   LIG d   1       2.947  -1.869  -9.329  0.00  0.00    -0.388 OA
ATOM     45  H   LIG d   1       2.788  -1.702 -10.268  0.00  0.00     0.210 HD
ENDBRANCH  21  44
BRANCH  23  46
ATOM     46  O   LIG d   1       6.837  -1.227  -9.781  0.00  0.00    -0.380 OA
ATOM     47  H   LIG d   1       6.091  -1.832  -9.885  0.00  0.00     0.210 HD
ENDBRANCH  23  46
BRANCH  16  48
ATOM     48  O   LIG d   1       2.216  -0.369  -7.254  0.00  0.00    -0.387 OA
ATOM     49  H   LIG d   1       1.400  -0.521  -6.761  0.00  0.00     0.210 HD
ENDBRANCH  16  48
BRANCH   8  50
ATOM     50  O   LIG d   1       4.594  -2.229  -3.842  0.00  0.00    -0.381 OA
ATOM     51  H   LIG d   1       4.757  -2.202  -2.888  0.00  0.00     0.210 HD
ENDBRANCH   8  50
BRANCH   1  52
ATOM     52  C   LIG d   1       4.616  -0.346  -1.997  0.00  0.00    -0.049 C 
ATOM     53  H   LIG d   1       5.234   0.274  -1.349  0.00  0.00     0.024 H 
ATOM     54  H   LIG d   1       3.587  -0.337  -1.635  0.00  0.00     0.024 H 
ATOM     55  H   LIG d   1       4.995  -1.368  -1.992  0.00  0.00     0.024 H 
ENDBRANCH   1  52
TORSDOF 9
ENDMDL
MODEL 2
REMARK VINA RESULT:      -6.1      2.522      5.264
REMARK  9 active torsions:
REMARK  status: ('A' for Active; 'I' for Inactive)
REMARK    1  A    between atoms: C_1  and  C_2 
REMARK    2  A    between atoms: C_9  and  O_39 
REMARK    3  A    between atoms: C_17  and  O_19 
REMARK    4  A    between atoms: C_21  and  C_26 
REMARK    5  A    between atoms: C_23  and  O_25 
REMARK    6  A    between atoms: C_26  and  C_27 
REMARK    7  A    between atoms: C_26  and  C_28 
REMARK    8  A    between atoms: C_26  and  C_29 
REMARK    9  A    between atoms: C_30  and  O_38 
ROOT
ATOM      1  C   LIG d   1       8.773   0.214  -6.748  0.00  0.00     0.089 C 
ATOM      2  H   LIG d   1       8.422  -0.511  -7.480  0.00  0.00     0.044 H 
ATOM      3  C   LIG d   1       7.998   1.518  -6.868  0.00  0.00     0.313 C 
ATOM      4  O   LIG d   1       7.531   1.994  -7.875  0.00  0.00    -0.250 OA
ATOM      5  O   LIG d   1       7.938   2.037  -5.619  0.00  0.00    -0.455 OA
ATOM      6  C   LIG d   1       7.717   0.958  -4.712  0.00  0.00     0.162 C 
ATOM      7  H   LIG d   1       8.063   1.200  -3.702  0.00  0.00     0.079 H 
ATOM      8  C   LIG d   1       8.474  -0.258  -5.305  0.00  0.00     0.158 C 
ATOM      9  C   LIG d   1       7.486  -1.405  -5.316  0.00  0.00     0.214 C 
ATOM     10  C   LIG d   1       7.850  -2.613  -4.524  0.00  0.00     0.344 C 
ATOM     11  O   LIG d   1       8.642  -3.459  -4.884  0.00  0.00    -0.247 OA
ATOM     12  O   LIG d   1       7.178  -2.652  -3.334  0.00  0.00    -0.456 OA
ATOM     13  C   LIG d   1       6.531  -1.394  -3.038  0.00  0.00     0.141 C 
ATOM     14  H   LIG d   1       7.122  -0.704  -2.435  0.00  0.00     0.077 H 
ATOM     15  C   LIG d   1       6.246  -0.944  -4.486  0.00  0.00     0.097 C 
ATOM     16  C   LIG d   1       6.218   0.552  -4.700  0.00  0.00     0.108 C 
ATOM     17  H   LIG d   1       5.745   0.814  -5.642  0.00  0.00     0.064 H 
ATOM     18  C   LIG d   1       5.129  -1.872  -4.941  0.00  0.00     0.090 C 
ATOM     19  C   LIG d   1       4.177  -1.597  -3.870  0.00  0.00     0.009 C 
ATOM     20  H   LIG d   1       3.356  -2.309  -3.796  0.00  0.00     0.034 H 
ATOM     21  C   LIG d   1       5.046  -1.540  -2.574  0.00  0.00     0.097 C 
ATOM     22  H   LIG d   1       4.932  -2.460  -1.995  0.00  0.00     0.063 H 
ATOM     23  C   LIG d   1       5.019  -3.428  -4.715  0.00  0.00     0.164 C 
ATOM     24  H   LIG d   1       6.013  -3.894  -4.570  0.00  0.00     0.072 H 
ATOM     25  C   LIG d   1       4.400  -3.877  -6.056  0.00  0.00     0.339 C 
ATOM     26  O   LIG d   1       3.828  -4.910  -6.294  0.00  0.00    -0.248 OA
ATOM     27  O   LIG d   1       4.651  -2.820  -6.935  0.00  0.00    -0.432 OA
ATOM     28  C   LIG d   1       5.811  -2.456  -6.155  0.00  0.00     0.216 C 
ATOM     29  H   LIG d   1       6.328  -3.394  -5.940  0.00  0.00     0.106 H 
ATOM     30  O   LIG d   1       6.826  -1.556  -6.602  0.00  0.00    -0.319 OA
ENDROOT
BRANCH  19  31
ATOM     31  C   LIG d   1       3.428  -0.270  -4.103  0.00  0.00    -0.032 C 
BRANCH  31  32
ATOM     32  C   LIG d   1       1.922  -0.503  -3.959  0.00  0.00    -0.060 C 
ATOM     33  H   LIG d   1       1.570  -0.045  -3.037  0.00  0.00     0.024 H 
ATOM     34  H   LIG d   1       1.404  -0.057  -4.809  0.00  0.00     0.024 H 
ATOM     35  H   LIG d   1       1.721  -1.574  -3.933  0.00  0.00     0.024 H 
ENDBRANCH  31  32
BRANCH  31  36
ATOM     36  C   LIG d   1       3.885   0.762  -3.070  0.00  0.00    -0.060 C 
ATOM     37  H   LIG d   1       3.061   1.439  -2.843  0.00  0.00     0.024 H 
ATOM     38  H   LIG d   1       4.196   0.251  -2.159  0.00  0.00     0.024 H 
ATOM     39  H   LIG d   1       4.723   1.332  -3.472  0.00  0.00     0.024 H 
ENDBRANCH  31  36
BRANCH  31  40
ATOM     40  C   LIG d   1       3.733   0.246  -5.511  0.00  0.00    -0.060 C 
ATOM     41  H   LIG d   1       3.177  -0.341  -6.242  0.00  0.00     0.024 H 
ATOM     42  H   LIG d   1       3.439   1.293  -5.586  0.00  0.00     0.024 H 
ATOM     43  H   LIG d   1       4.801   0.154  -5.708  0.00  0.00     0.024 H 
ENDBRANCH  31  40
ENDBRANCH  19  31
BRANCH  21  44
ATOM     44  O   LIG d   1       4.668  -0.425  -1.764  0.00  0.00    -0.388 OA
ATOM     45  H   LIG d   1       3.715  -0.352  -1.617  0.00  0.00     0.210 HD
ENDBRANCH  21  44
BRANCH  23  46
ATOM     46  O   LIG d   1       4.260  -3.912  -3.615  0.00  0.00    -0.380 OA
ATOM     47  H   LIG d   1       3.310  -3.746  -3.691  0.00  0.00     0.210 HD
ENDBRANCH  23  46
BRANCH  16  48
ATOM     48  O   LIG d   1       5.608   1.251  -3.607  0.00  0.00    -0.387 OA
ATOM     49  H   LIG d   1       5.160   0.675  -2.974  0.00  0.00     0.210 HD
ENDBRANCH  16  48
BRANCH   8  50
ATOM     50  O   LIG d   1       9.667  -0.574  -4.582  0.00  0.00    -0.381 OA
ATOM     51  H   LIG d   1       9.599  -1.373  -4.041  0.00  0.00     0.210 HD
ENDBRANCH   8  50
BRANCH   1  52
ATOM     52  C   LIG d   1      10.273   0.468  -6.927  0.00  0.00    -0.049 C 
ATOM     53  H   LIG d   1      10.571   0.183  -7.935  0.00  0.00     0.024 H 
ATOM     54  H   LIG d   1      10.483   1.526  -6.770  0.00  0.00     0.024 H 
ATOM     55  H   LIG d   1      10.831  -0.126  -6.202  0.00  0.00     0.024 H 
ENDBRANCH   1  52
TORSDOF 9
ENDMDL
MODEL 3
REMARK VINA RESULT:      -6.0     10.755     13.089
REMARK  9 active torsions:
REMARK  status: ('A' for Active; 'I' for Inactive)
REMARK    1  A    between atoms: C_1  and  C_2 
REMARK    2  A    between atoms: C_9  and  O_39 
REMARK    3  A    between atoms: C_17  and  O_19 
REMARK    4  A    between atoms: C_21  and  C_26 
REMARK    5  A    between atoms: C_23  and  O_25 
REMARK    6  A    between atoms: C_26  and  C_27 
REMARK    7  A    between atoms: C_26  and  C_28 
REMARK    8  A    between atoms: C_26  and  C_29 
REMARK    9  A    between atoms: C_30  and  O_38 
ROOT
ATOM      1  C   LIG d   1      10.546  11.311  -1.674  0.00  0.00     0.089 C 
ATOM      2  H   LIG d   1      10.378  11.246  -0.600  0.00  0.00     0.044 H 
ATOM      3  C   LIG d   1      11.981  11.725  -1.969  0.00  0.00     0.313 C 
ATOM      4  O   LIG d   1      12.680  12.445  -1.297  0.00  0.00    -0.250 OA
ATOM      5  O   LIG d   1      12.313  11.124  -3.135  0.00  0.00    -0.455 OA
ATOM      6  C   LIG d   1      11.758   9.810  -3.119  0.00  0.00     0.162 C 
ATOM      7  H   LIG d   1      11.611   9.419  -4.131  0.00  0.00     0.079 H 
ATOM      8  C   LIG d   1      10.420   9.923  -2.344  0.00  0.00     0.158 C 
ATOM      9  C   LIG d   1      10.443   8.826  -1.301  0.00  0.00     0.214 C 
ATOM     10  C   LIG d   1       9.361   7.804  -1.375  0.00  0.00     0.344 C 
ATOM     11  O   LIG d   1       8.226   7.976  -0.986  0.00  0.00    -0.247 OA
ATOM     12  O   LIG d   1       9.808   6.643  -1.941  0.00  0.00    -0.456 OA
ATOM     13  C   LIG d   1      11.100   6.809  -2.569  0.00  0.00     0.141 C 
ATOM     14  H   LIG d   1      11.066   7.060  -3.629  0.00  0.00     0.077 H 
ATOM     15  C   LIG d   1      11.660   7.906  -1.638  0.00  0.00     0.097 C 
ATOM     16  C   LIG d   1      12.646   8.851  -2.281  0.00  0.00     0.108 C 
ATOM     17  H   LIG d   1      13.212   9.407  -1.538  0.00  0.00     0.064 H 
ATOM     18  C   LIG d   1      11.938   7.168  -0.336  0.00  0.00     0.090 C 
ATOM     19  C   LIG d   1      12.805   6.122  -0.868  0.00  0.00     0.009 C 
ATOM     20  H   LIG d   1      12.976   5.284  -0.192  0.00  0.00     0.034 H 
ATOM     21  C   LIG d   1      12.128   5.690  -2.206  0.00  0.00     0.097 C 
ATOM     22  H   LIG d   1      11.604   4.738  -2.082  0.00  0.00     0.063 H 
ATOM     23  C   LIG d   1      11.018   6.114   0.388  0.00  0.00     0.164 C 
ATOM     24  H   LIG d   1       9.951   6.245   0.121  0.00  0.00     0.072 H 
ATOM     25  C   LIG d   1      11.254   6.485   1.869  0.00  0.00     0.339 C 
ATOM     26  O   LIG d   1      11.039   5.807   2.842  0.00  0.00    -0.248 OA
ATOM     27  O   LIG d   1      11.771   7.783   1.832  0.00  0.00    -0.432 OA
ATOM     28  C   LIG d   1      11.085   8.012   0.581  0.00  0.00     0.216 C 
ATOM     29  H   LIG d   1      10.080   7.607   0.716  0.00  0.00     0.106 H 
ATOM     30  O   LIG d   1      10.900   9.301  -0.006  0.00  0.00    -0.319 OA
ENDROOT
BRANCH  19  31
ATOM     31  C   LIG d   1      14.239   6.638  -1.104  0.00  0.00    -0.032 C 
BRANCH  31  32
ATOM     32  C   LIG d   1      15.234   5.722  -0.389  0.00  0.00    -0.060 C 
ATOM     33  H   LIG d   1      16.166   5.690  -0.951  0.00  0.00     0.024 H 
ATOM     34  H   LIG d   1      15.426   6.106   0.613  0.00  0.00     0.024 H 
ATOM     35  H   LIG d   1      14.818   4.717  -0.319  0.00  0.00     0.024 H 
ENDBRANCH  31  32
BRANCH  31  36
ATOM     36  C   LIG d   1      14.538   6.644  -2.604  0.00  0.00    -0.060 C 
ATOM     37  H   LIG d   1      15.588   6.888  -2.764  0.00  0.00     0.024 H 
ATOM     38  H   LIG d   1      14.326   5.659  -3.021  0.00  0.00     0.024 H 
ATOM     39  H   LIG d   1      13.912   7.389  -3.096  0.00  0.00     0.024 H 
ENDBRANCH  31  36
BRANCH  31  40
ATOM     40  C   LIG d   1      14.365   8.059  -0.552  0.00  0.00    -0.060 C 
ATOM     41  H   LIG d   1      15.224   8.552  -1.007  0.00  0.00     0.024 H 
ATOM     42  H   LIG d   1      13.459   8.620  -0.782  0.00  0.00     0.024 H 
ATOM     43  H   LIG d   1      14.500   8.018   0.529  0.00  0.00     0.024 H 
ENDBRANCH  31  40
ENDBRANCH  19  31
BRANCH  21  44
ATOM     44  O   LIG d   1      13.103   5.559  -3.243  0.00  0.00    -0.388 OA
ATOM     45  H   LIG d   1      13.871   5.027  -2.994  0.00  0.00     0.210 HD
ENDBRANCH  21  44
BRANCH  23  46
ATOM     46  O   LIG d   1      11.249   4.729   0.167  0.00  0.00    -0.380 OA
ATOM     47  H   LIG d   1      11.803   4.312   0.841  0.00  0.00     0.210 HD
ENDBRANCH  23  46
BRANCH  16  48
ATOM     48  O   LIG d   1      13.523   8.187  -3.201  0.00  0.00    -0.387 OA
ATOM     49  H   LIG d   1      14.395   8.596  -3.277  0.00  0.00     0.210 HD
ENDBRANCH  16  48
BRANCH   8  50
ATOM     50  O   LIG d   1       9.276   9.837  -3.198  0.00  0.00    -0.381 OA
ATOM     51  H   LIG d   1       8.873   8.958  -3.229  0.00  0.00     0.210 HD
ENDBRANCH   8  50
BRANCH   1  52
ATOM     52  C   LIG d   1       9.565  12.302  -2.307  0.00  0.00    -0.049 C 
ATOM     53  H   LIG d   1       8.903  12.700  -1.539  0.00  0.00     0.024 H 
ATOM     54  H   LIG d   1      10.120  13.119  -2.768  0.00  0.00     0.024 H 
ATOM     55  H   LIG d   1       8.973  11.791  -3.067  0.00  0.00     0.024 H 
ENDBRANCH   1  52
TORSDOF 9
ENDMDL
MODEL 4
REMARK VINA RESULT:      -5.9      2.278      3.397
REMARK  9 active torsions:
REMARK  status: ('A' for Active; 'I' for Inactive)
REMARK    1  A    between atoms: C_1  and  C_2 
REMARK    2  A    between atoms: C_9  and  O_39 
REMARK    3  A    between atoms: C_17  and  O_19 
REMARK    4  A    between atoms: C_21  and  C_26 
REMARK    5  A    between atoms: C_23  and  O_25 
REMARK    6  A    between atoms: C_26  and  C_27 
REMARK    7  A    between atoms: C_26  and  C_28 
REMARK    8  A    between atoms: C_26  and  C_29 
REMARK    9  A    between atoms: C_30  and  O_38 
ROOT
ATOM      1  C   LIG d   1       3.826   0.649  -3.619  0.00  0.00     0.089 C 
ATOM      2  H   LIG d   1       4.128   1.336  -4.407  0.00  0.00     0.044 H 
ATOM      3  C   LIG d   1       2.600  -0.148  -4.041  0.00  0.00     0.313 C 
ATOM      4  O   LIG d   1       1.707   0.225  -4.764  0.00  0.00    -0.250 OA
ATOM      5  O   LIG d   1       2.712  -1.357  -3.442  0.00  0.00    -0.455 OA
ATOM      6  C   LIG d   1       4.083  -1.746  -3.505  0.00  0.00     0.162 C 
ATOM      7  H   LIG d   1       4.338  -2.463  -2.718  0.00  0.00     0.079 H 
ATOM      8  C   LIG d   1       4.903  -0.436  -3.380  0.00  0.00     0.158 C 
ATOM      9  C   LIG d   1       5.900  -0.454  -4.519  0.00  0.00     0.214 C 
ATOM     10  C   LIG d   1       7.343  -0.419  -4.150  0.00  0.00     0.344 C 
ATOM     11  O   LIG d   1       7.942   0.579  -3.808  0.00  0.00    -0.247 OA
ATOM     12  O   LIG d   1       7.913  -1.658  -4.242  0.00  0.00    -0.456 OA
ATOM     13  C   LIG d   1       6.921  -2.699  -4.386  0.00  0.00     0.141 C 
ATOM     14  H   LIG d   1       6.595  -3.156  -3.451  0.00  0.00     0.077 H 
ATOM     15  C   LIG d   1       5.851  -1.884  -5.144  0.00  0.00     0.097 C 
ATOM     16  C   LIG d   1       4.425  -2.321  -4.906  0.00  0.00     0.108 C 
ATOM     17  H   LIG d   1       3.751  -1.919  -5.658  0.00  0.00     0.064 H 
ATOM     18  C   LIG d   1       6.448  -1.704  -6.532  0.00  0.00     0.090 C 
ATOM     19  C   LIG d   1       6.681  -3.110  -6.846  0.00  0.00     0.009 C 
ATOM     20  H   LIG d   1       7.333  -3.284  -7.700  0.00  0.00     0.034 H 
ATOM     21  C   LIG d   1       7.240  -3.723  -5.524  0.00  0.00     0.097 C 
ATOM     22  H   LIG d   1       8.321  -3.867  -5.594  0.00  0.00     0.063 H 
ATOM     23  C   LIG d   1       7.932  -1.320  -6.898  0.00  0.00     0.164 C 
ATOM     24  H   LIG d   1       8.429  -0.766  -6.078  0.00  0.00     0.072 H 
ATOM     25  C   LIG d   1       7.705  -0.395  -8.114  0.00  0.00     0.339 C 
ATOM     26  O   LIG d   1       8.504  -0.078  -8.958  0.00  0.00    -0.248 OA
ATOM     27  O   LIG d   1       6.366  -0.004  -8.018  0.00  0.00    -0.432 OA
ATOM     28  C   LIG d   1       6.421  -0.195  -6.587  0.00  0.00     0.216 C 
ATOM     29  H   LIG d   1       7.361   0.258  -6.264  0.00  0.00     0.106 H 
ATOM     30  O   LIG d   1       5.433   0.290  -5.676  0.00  0.00    -0.319 OA
ENDROOT
BRANCH  19  31
ATOM     31  C   LIG d   1       5.383  -3.814  -7.288  0.00  0.00    -0.032 C 
BRANCH  31  32
ATOM     32  C   LIG d   1       5.614  -4.514  -8.628  0.00  0.00    -0.060 C 
ATOM     33  H   LIG d   1       6.439  -5.218  -8.534  0.00  0.00     0.024 H 
ATOM     34  H   LIG d   1       4.710  -5.051  -8.919  0.00  0.00     0.024 H 
ATOM     35  H   LIG d   1       5.855  -3.772  -9.389  0.00  0.00     0.024 H 
ENDBRANCH  31  32
BRANCH  31  36
ATOM     36  C   LIG d   1       4.980  -4.849  -6.235  0.00  0.00    -0.060 C 
ATOM     37  H   LIG d   1       4.092  -5.384  -6.573  0.00  0.00     0.024 H 
ATOM     38  H   LIG d   1       5.797  -5.556  -6.090  0.00  0.00     0.024 H 
ATOM     39  H   LIG d   1       4.765  -4.344  -5.293  0.00  0.00     0.024 H 
ENDBRANCH  31  36
BRANCH  31  40
ATOM     40  C   LIG d   1       4.267  -2.778  -7.438  0.00  0.00    -0.060 C 
ATOM     41  H   LIG d   1       3.683  -2.999  -8.332  0.00  0.00     0.024 H 
ATOM     42  H   LIG d   1       3.619  -2.812  -6.563  0.00  0.00     0.024 H 
ATOM     43  H   LIG d   1       4.705  -1.784  -7.527  0.00  0.00     0.024 H 
ENDBRANCH  31  40
ENDBRANCH  19  31
BRANCH  21  44
ATOM     44  O   LIG d   1       6.615  -4.978  -5.248  0.00  0.00    -0.388 OA
ATOM     45  H   LIG d   1       6.210  -5.032  -4.372  0.00  0.00     0.210 HD
ENDBRANCH  21  44
BRANCH  23  46
ATOM     46  O   LIG d   1       8.855  -2.354  -7.210  0.00  0.00    -0.380 OA
ATOM     47  H   LIG d   1       8.841  -3.093  -6.586  0.00  0.00     0.210 HD
ENDBRANCH  23  46
BRANCH  16  48
ATOM     48  O   LIG d   1       4.296  -3.746  -4.813  0.00  0.00    -0.387 OA
ATOM     49  H   LIG d   1       4.252  -4.193  -5.668  0.00  0.00     0.210 HD
ENDBRANCH  16  48
BRANCH   8  50
ATOM     50  O   LIG d   1       5.536  -0.298  -2.105  0.00  0.00    -0.381 OA
ATOM     51  H   LIG d   1       5.754  -1.139  -1.681  0.00  0.00     0.210 HD
ENDBRANCH   8  50
BRANCH   1  52
ATOM     52  C   LIG d   1       3.543   1.415  -2.323  0.00  0.00    -0.049 C 
ATOM     53  H   LIG d   1       4.313   2.170  -2.173  0.00  0.00     0.024 H 
ATOM     54  H   LIG d   1       2.568   1.898  -2.393  0.00  0.00     0.024 H 
ATOM     55  H   LIG d   1       3.546   0.720  -1.483  0.00  0.00     0.024 H 
ENDBRANCH   1  52
TORSDOF 9
ENDMDL
MODEL 5
REMARK VINA RESULT:      -5.8      2.024      5.170
REMARK  9 active torsions:
REMARK  status: ('A' for Active; 'I' for Inactive)
REMARK    1  A    between atoms: C_1  and  C_2 
REMARK    2  A    between atoms: C_9  and  O_39 
REMARK    3  A    between atoms: C_17  and  O_19 
REMARK    4  A    between atoms: C_21  and  C_26 
REMARK    5  A    between atoms: C_23  and  O_25 
REMARK    6  A    between atoms: C_26  and  C_27 
REMARK    7  A    between atoms: C_26  and  C_28 
REMARK    8  A    between atoms: C_26  and  C_29 
REMARK    9  A    between atoms: C_30  and  O_38 
ROOT
ATOM      1  C   LIG d   1       9.131  -3.056  -6.288  0.00  0.00     0.089 C 
ATOM      2  H   LIG d   1       9.059  -2.318  -7.086  0.00  0.00     0.044 H 
ATOM      3  C   LIG d   1       9.750  -2.440  -5.041  0.00  0.00     0.313 C 
ATOM      4  O   LIG d   1      10.577  -1.561  -5.001  0.00  0.00    -0.250 OA
ATOM      5  O   LIG d   1       9.186  -3.076  -3.988  0.00  0.00    -0.455 OA
ATOM      6  C   LIG d   1       7.804  -3.268  -4.286  0.00  0.00     0.162 C 
ATOM      7  H   LIG d   1       7.379  -4.104  -3.722  0.00  0.00     0.079 H 
ATOM      8  C   LIG d   1       7.728  -3.507  -5.816  0.00  0.00     0.158 C 
ATOM      9  C   LIG d   1       6.665  -2.565  -6.337  0.00  0.00     0.214 C 
ATOM     10  C   LIG d   1       5.492  -3.184  -7.016  0.00  0.00     0.344 C 
ATOM     11  O   LIG d   1       5.498  -3.603  -8.154  0.00  0.00    -0.247 OA
ATOM     12  O   LIG d   1       4.401  -3.223  -6.193  0.00  0.00    -0.456 OA
ATOM     13  C   LIG d   1       4.748  -2.928  -4.821  0.00  0.00     0.141 C 
ATOM     14  H   LIG d   1       4.973  -3.800  -4.207  0.00  0.00     0.077 H 
ATOM     15  C   LIG d   1       5.931  -1.974  -5.091  0.00  0.00     0.097 C 
ATOM     16  C   LIG d   1       7.003  -1.963  -4.027  0.00  0.00     0.108 C 
ATOM     17  H   LIG d   1       7.649  -1.095  -4.117  0.00  0.00     0.064 H 
ATOM     18  C   LIG d   1       5.265  -0.711  -5.617  0.00  0.00     0.090 C 
ATOM     19  C   LIG d   1       4.351  -0.475  -4.503  0.00  0.00     0.009 C 
ATOM     20  H   LIG d   1       3.560   0.246  -4.708  0.00  0.00     0.034 H 
ATOM     21  C   LIG d   1       3.801  -1.889  -4.138  0.00  0.00     0.097 C 
ATOM     22  H   LIG d   1       2.784  -2.015  -4.518  0.00  0.00     0.063 H 
ATOM     23  C   LIG d   1       4.097  -0.605  -6.670  0.00  0.00     0.164 C 
ATOM     24  H   LIG d   1       4.063  -1.488  -7.337  0.00  0.00     0.072 H 
ATOM     25  C   LIG d   1       4.524   0.652  -7.458  0.00  0.00     0.339 C 
ATOM     26  O   LIG d   1       3.838   1.348  -8.163  0.00  0.00    -0.248 OA
ATOM     27  O   LIG d   1       5.884   0.805  -7.173  0.00  0.00    -0.432 OA
ATOM     28  C   LIG d   1       5.987  -0.617  -6.940  0.00  0.00     0.216 C 
ATOM     29  H   LIG d   1       5.438  -1.091  -7.756  0.00  0.00     0.106 H 
ATOM     30  O   LIG d   1       7.224  -1.326  -6.850  0.00  0.00    -0.319 OA
ENDROOT
BRANCH  19  31
ATOM     31  C   LIG d   1       5.072   0.175  -3.305  0.00  0.00    -0.032 C 
BRANCH  31  32
ATOM     32  C   LIG d   1       4.380   1.492  -2.948  0.00  0.00    -0.060 C 
ATOM     33  H   LIG d   1       4.779   1.868  -2.007  0.00  0.00     0.024 H 
ATOM     34  H   LIG d   1       4.559   2.222  -3.738  0.00  0.00     0.024 H 
ATOM     35  H   LIG d   1       3.308   1.323  -2.845  0.00  0.00     0.024 H 
ENDBRANCH  31  32
BRANCH  31  36
ATOM     36  C   LIG d   1       5.020  -0.772  -2.104  0.00  0.00    -0.060 C 
ATOM     37  H   LIG d   1       4.795  -1.781  -2.447  0.00  0.00     0.024 H 
ATOM     38  H   LIG d   1       5.985  -0.768  -1.597  0.00  0.00     0.024 H 
ATOM     39  H   LIG d   1       4.245  -0.439  -1.414  0.00  0.00     0.024 H 
ENDBRANCH  31  36
BRANCH  31  40
ATOM     40  C   LIG d   1       6.531   0.449  -3.677  0.00  0.00    -0.060 C 
ATOM     41  H   LIG d   1       7.110  -0.470  -3.583  0.00  0.00     0.024 H 
ATOM     42  H   LIG d   1       6.583   0.808  -4.705  0.00  0.00     0.024 H 
ATOM     43  H   LIG d   1       6.940   1.207  -3.008  0.00  0.00     0.024 H 
ENDBRANCH  31  40
ENDBRANCH  19  31
BRANCH  21  44
ATOM     44  O   LIG d   1       3.800  -2.077  -2.721  0.00  0.00    -0.388 OA
ATOM     45  H   LIG d   1       3.368  -1.364  -2.231  0.00  0.00     0.210 HD
ENDBRANCH  21  44
BRANCH  23  46
ATOM     46  O   LIG d   1       2.759  -0.486  -6.205  0.00  0.00    -0.380 OA
ATOM     47  H   LIG d   1       2.396  -1.305  -5.841  0.00  0.00     0.210 HD
ENDBRANCH  23  46
BRANCH  16  48
ATOM     48  O   LIG d   1       6.462  -2.065  -2.703  0.00  0.00    -0.387 OA
ATOM     49  H   LIG d   1       5.858  -1.348  -2.470  0.00  0.00     0.210 HD
ENDBRANCH  16  48
BRANCH   8  50
ATOM     50  O   LIG d   1       7.459  -4.871  -6.151  0.00  0.00    -0.381 OA
ATOM     51  H   LIG d   1       7.584  -5.078  -7.088  0.00  0.00     0.210 HD
ENDBRANCH   8  50
BRANCH   1  52
ATOM     52  C   LIG d   1       9.953  -4.262  -6.750  0.00  0.00    -0.049 C 
ATOM     53  H   LIG d   1      10.973  -3.945  -6.966  0.00  0.00     0.024 H 
ATOM     54  H   LIG d   1       9.965  -5.016  -5.963  0.00  0.00     0.024 H 
ATOM     55  H   LIG d   1       9.504  -4.683  -7.650  0.00  0.00     0.024 H 
ENDBRANCH   1  52
TORSDOF 9
ENDMDL
MODEL 6
REMARK VINA RESULT:      -5.7      1.873      2.901
REMARK  9 active torsions:
REMARK  status: ('A' for Active; 'I' for Inactive)
REMARK    1  A    between atoms: C_1  and  C_2 
REMARK    2  A    between atoms: C_9  and  O_39 
REMARK    3  A    between atoms: C_17  and  O_19 
REMARK    4  A    between atoms: C_21  and  C_26 
REMARK    5  A    between atoms: C_23  and  O_25 
REMARK    6  A    between atoms: C_26  and  C_27 
REMARK    7  A    between atoms: C_26  and  C_28 
REMARK    8  A    between atoms: C_26  and  C_29 
REMARK    9  A    between atoms: C_30  and  O_38 
ROOT
ATOM      1  C   LIG d   1       5.179  -1.010  -3.051  0.00  0.00     0.089 C 
ATOM      2  H   LIG d   1       6.096  -1.579  -2.909  0.00  0.00     0.044 H 
ATOM      3  C   LIG d   1       5.493   0.448  -3.356  0.00  0.00     0.313 C 
ATOM      4  O   LIG d   1       6.434   1.087  -2.950  0.00  0.00    -0.250 OA
ATOM      5  O   LIG d   1       4.506   0.882  -4.174  0.00  0.00    -0.455 OA
ATOM      6  C   LIG d   1       4.209  -0.169  -5.092  0.00  0.00     0.162 C 
ATOM      7  H   LIG d   1       3.194  -0.085  -5.491  0.00  0.00     0.079 H 
ATOM      8  C   LIG d   1       4.412  -1.490  -4.306  0.00  0.00     0.158 C 
ATOM      9  C   LIG d   1       5.299  -2.361  -5.170  0.00  0.00     0.214 C 
ATOM     10  C   LIG d   1       4.738  -3.671  -5.604  0.00  0.00     0.344 C 
ATOM     11  O   LIG d   1       4.669  -4.657  -4.901  0.00  0.00    -0.247 OA
ATOM     12  O   LIG d   1       4.306  -3.625  -6.900  0.00  0.00    -0.456 OA
ATOM     13  C   LIG d   1       4.240  -2.270  -7.400  0.00  0.00     0.141 C 
ATOM     14  H   LIG d   1       3.271  -1.784  -7.285  0.00  0.00     0.077 H 
ATOM     15  C   LIG d   1       5.393  -1.670  -6.567  0.00  0.00     0.097 C 
ATOM     16  C   LIG d   1       5.253  -0.202  -6.241  0.00  0.00     0.108 C 
ATOM     17  H   LIG d   1       6.195   0.229  -5.913  0.00  0.00     0.064 H 
ATOM     18  C   LIG d   1       6.643  -2.269  -7.194  0.00  0.00     0.090 C 
ATOM     19  C   LIG d   1       6.413  -1.844  -8.571  0.00  0.00     0.009 C 
ATOM     20  H   LIG d   1       7.039  -2.340  -9.312  0.00  0.00     0.034 H 
ATOM     21  C   LIG d   1       4.889  -2.084  -8.809  0.00  0.00     0.097 C 
ATOM     22  H   LIG d   1       4.731  -2.985  -9.407  0.00  0.00     0.063 H 
ATOM     23  C   LIG d   1       6.876  -3.764  -7.637  0.00  0.00     0.164 C 
ATOM     24  H   LIG d   1       6.227  -4.465  -7.077  0.00  0.00     0.072 H 
ATOM     25  C   LIG d   1       8.355  -3.961  -7.239  0.00  0.00     0.339 C 
ATOM     26  O   LIG d   1       9.117  -4.808  -7.633  0.00  0.00    -0.248 OA
ATOM     27  O   LIG d   1       8.616  -2.940  -6.322  0.00  0.00    -0.432 OA
ATOM     28  C   LIG d   1       7.218  -2.920  -5.958  0.00  0.00     0.216 C 
ATOM     29  H   LIG d   1       6.924  -3.967  -5.856  0.00  0.00     0.106 H 
ATOM     30  O   LIG d   1       6.701  -2.264  -4.799  0.00  0.00    -0.319 OA
ENDROOT
BRANCH  19  31
ATOM     31  C   LIG d   1       6.788  -0.363  -8.778  0.00  0.00    -0.032 C 
BRANCH  31  32
ATOM     32  C   LIG d   1       7.823  -0.251  -9.900  0.00  0.00    -0.060 C 
ATOM     33  H   LIG d   1       8.327   0.711  -9.835  0.00  0.00     0.024 H 
ATOM     34  H   LIG d   1       8.555  -1.053  -9.800  0.00  0.00     0.024 H 
ATOM     35  H   LIG d   1       7.323  -0.335 -10.865  0.00  0.00     0.024 H 
ENDBRANCH  31  32
BRANCH  31  36
ATOM     36  C   LIG d   1       5.537   0.432  -9.157  0.00  0.00    -0.060 C 
ATOM     37  H   LIG d   1       5.821   1.278  -9.783  0.00  0.00     0.024 H 
ATOM     38  H   LIG d   1       4.850  -0.212  -9.706  0.00  0.00     0.024 H 
ATOM     39  H   LIG d   1       5.050   0.796  -8.252  0.00  0.00     0.024 H 
ENDBRANCH  31  36
BRANCH  31  40
ATOM     40  C   LIG d   1       7.378   0.198  -7.482  0.00  0.00    -0.060 C 
ATOM     41  H   LIG d   1       6.570   0.510  -6.820  0.00  0.00     0.024 H 
ATOM     42  H   LIG d   1       7.975  -0.570  -6.992  0.00  0.00     0.024 H 
ATOM     43  H   LIG d   1       8.010   1.056  -7.712  0.00  0.00     0.024 H 
ENDBRANCH  31  40
ENDBRANCH  19  31
BRANCH  21  44
ATOM     44  O   LIG d   1       4.304  -0.966  -9.480  0.00  0.00    -0.388 OA
ATOM     45  H   LIG d   1       4.936  -0.273  -9.714  0.00  0.00     0.210 HD
ENDBRANCH  21  44
BRANCH  23  46
ATOM     46  O   LIG d   1       6.661  -4.122  -8.995  0.00  0.00    -0.380 OA
ATOM     47  H   LIG d   1       7.374  -3.852  -9.589  0.00  0.00     0.210 HD
ENDBRANCH  23  46
BRANCH  16  48
ATOM     48  O   LIG d   1       4.697   0.551  -7.328  0.00  0.00    -0.387 OA
ATOM     49  H   LIG d   1       5.081   1.431  -7.432  0.00  0.00     0.210 HD
ENDBRANCH  16  48
BRANCH   8  50
ATOM     50  O   LIG d   1       3.178  -2.132  -3.973  0.00  0.00    -0.381 OA
ATOM     51  H   LIG d   1       3.275  -2.877  -3.364  0.00  0.00     0.210 HD
ENDBRANCH   8  50
BRANCH   1  52
ATOM     52  C   LIG d   1       4.290  -1.115  -1.809  0.00  0.00    -0.049 C 
ATOM     53  H   LIG d   1       4.485  -2.059  -1.301  0.00  0.00     0.024 H 
ATOM     54  H   LIG d   1       4.510  -0.287  -1.135  0.00  0.00     0.024 H 
ATOM     55  H   LIG d   1       3.242  -1.072  -2.108  0.00  0.00     0.024 H 
ENDBRANCH   1  52
TORSDOF 9
ENDMDL
MODEL 7
REMARK VINA RESULT:      -5.7      1.953      5.519
REMARK  9 active torsions:
REMARK  status: ('A' for Active; 'I' for Inactive)
REMARK    1  A    between atoms: C_1  and  C_2 
REMARK    2  A    between atoms: C_9  and  O_39 
REMARK    3  A    between atoms: C_17  and  O_19 
REMARK    4  A    between atoms: C_21  and  C_26 
REMARK    5  A    between atoms: C_23  and  O_25 
REMARK    6  A    between atoms: C_26  and  C_27 
REMARK    7  A    between atoms: C_26  and  C_28 
REMARK    8  A    between atoms: C_26  and  C_29 
REMARK    9  A    between atoms: C_30  and  O_38 
ROOT
ATOM      1  C   LIG d   1       4.388  -0.654  -9.462  0.00  0.00     0.089 C 
ATOM      2  H   LIG d   1       3.831  -1.588  -9.518  0.00  0.00     0.044 H 
ATOM      3  C   LIG d   1       3.618   0.384  -8.659  0.00  0.00     0.313 C 
ATOM      4  O   LIG d   1       2.418   0.500  -8.587  0.00  0.00    -0.250 OA
ATOM      5  O   LIG d   1       4.548   1.151  -8.045  0.00  0.00    -0.455 OA
ATOM      6  C   LIG d   1       5.596   0.290  -7.601  0.00  0.00     0.162 C 
ATOM      7  H   LIG d   1       6.541   0.828  -7.482  0.00  0.00     0.079 H 
ATOM      8  C   LIG d   1       5.701  -0.834  -8.663  0.00  0.00     0.158 C 
ATOM      9  C   LIG d   1       5.682  -2.140  -7.898  0.00  0.00     0.214 C 
ATOM     10  C   LIG d   1       6.873  -3.023  -8.045  0.00  0.00     0.344 C 
ATOM     11  O   LIG d   1       7.088  -3.734  -9.004  0.00  0.00    -0.247 OA
ATOM     12  O   LIG d   1       7.701  -2.931  -6.961  0.00  0.00    -0.456 OA
ATOM     13  C   LIG d   1       7.359  -1.812  -6.113  0.00  0.00     0.141 C 
ATOM     14  H   LIG d   1       7.898  -0.889  -6.331  0.00  0.00     0.077 H 
ATOM     15  C   LIG d   1       5.840  -1.782  -6.386  0.00  0.00     0.097 C 
ATOM     16  C   LIG d   1       5.195  -0.420  -6.279  0.00  0.00     0.108 C 
ATOM     17  H   LIG d   1       4.114  -0.493  -6.198  0.00  0.00     0.064 H 
ATOM     18  C   LIG d   1       5.317  -3.012  -5.657  0.00  0.00     0.090 C 
ATOM     19  C   LIG d   1       5.847  -2.711  -4.330  0.00  0.00     0.009 C 
ATOM     20  H   LIG d   1       5.833  -3.549  -3.634  0.00  0.00     0.034 H 
ATOM     21  C   LIG d   1       7.286  -2.168  -4.593  0.00  0.00     0.097 C 
ATOM     22  H   LIG d   1       8.033  -2.931  -4.360  0.00  0.00     0.063 H 
ATOM     23  C   LIG d   1       5.942  -4.458  -5.640  0.00  0.00     0.164 C 
ATOM     24  H   LIG d   1       6.562  -4.650  -6.537  0.00  0.00     0.072 H 
ATOM     25  C   LIG d   1       4.668  -5.330  -5.667  0.00  0.00     0.339 C 
ATOM     26  O   LIG d   1       4.562  -6.490  -5.357  0.00  0.00    -0.248 OA
ATOM     27  O   LIG d   1       3.663  -4.476  -6.129  0.00  0.00    -0.432 OA
ATOM     28  C   LIG d   1       4.658  -3.697  -6.830  0.00  0.00     0.216 C 
ATOM     29  H   LIG d   1       5.311  -4.423  -7.318  0.00  0.00     0.106 H 
ATOM     30  O   LIG d   1       4.354  -2.725  -7.831  0.00  0.00    -0.319 OA
ENDROOT
BRANCH  19  31
ATOM     31  C   LIG d   1       4.978  -1.671  -3.595  0.00  0.00    -0.032 C 
BRANCH  31  32
ATOM     32  C   LIG d   1       4.293  -2.334  -2.398  0.00  0.00    -0.060 C 
ATOM     33  H   LIG d   1       3.255  -2.547  -2.646  0.00  0.00     0.024 H 
ATOM     34  H   LIG d   1       4.808  -3.265  -2.155  0.00  0.00     0.024 H 
ATOM     35  H   LIG d   1       4.332  -1.664  -1.540  0.00  0.00     0.024 H 
ENDBRANCH  31  32
BRANCH  31  36
ATOM     36  C   LIG d   1       5.863  -0.524  -3.105  0.00  0.00    -0.060 C 
ATOM     37  H   LIG d   1       6.789  -0.928  -2.696  0.00  0.00     0.024 H 
ATOM     38  H   LIG d   1       6.094   0.139  -3.939  0.00  0.00     0.024 H 
ATOM     39  H   LIG d   1       5.337   0.036  -2.331  0.00  0.00     0.024 H 
ENDBRANCH  31  36
BRANCH  31  40
ATOM     40  C   LIG d   1       3.917  -1.126  -4.553  0.00  0.00    -0.060 C 
ATOM     41  H   LIG d   1       4.398  -0.522  -5.322  0.00  0.00     0.024 H 
ATOM     42  H   LIG d   1       3.387  -1.956  -5.019  0.00  0.00     0.024 H 
ATOM     43  H   LIG d   1       3.209  -0.511  -3.997  0.00  0.00     0.024 H 
ENDBRANCH  31  40
ENDBRANCH  19  31
BRANCH  21  44
ATOM     44  O   LIG d   1       7.537  -1.006  -3.800  0.00  0.00    -0.388 OA
ATOM     45  H   LIG d   1       7.955  -0.282  -4.286  0.00  0.00     0.210 HD
ENDBRANCH  21  44
BRANCH  23  46
ATOM     46  O   LIG d   1       6.791  -4.829  -4.562  0.00  0.00    -0.380 OA
ATOM     47  H   LIG d   1       6.519  -4.470  -3.707  0.00  0.00     0.210 HD
ENDBRANCH  23  46
BRANCH  16  48
ATOM     48  O   LIG d   1       5.738   0.362  -5.207  0.00  0.00    -0.387 OA
ATOM     49  H   LIG d   1       5.237   1.165  -5.014  0.00  0.00     0.210 HD
ENDBRANCH  16  48
BRANCH   8  50
ATOM     50  O   LIG d   1       6.859  -0.706  -9.493  0.00  0.00    -0.381 OA
ATOM     51  H   LIG d   1       7.568  -1.329  -9.278  0.00  0.00     0.210 HD
ENDBRANCH   8  50
BRANCH   1  52
ATOM     52  C   LIG d   1       4.686  -0.128 -10.868  0.00  0.00    -0.049 C 
ATOM     53  H   LIG d   1       5.764  -0.092 -11.022  0.00  0.00     0.024 H 
ATOM     54  H   LIG d   1       4.235  -0.791 -11.607  0.00  0.00     0.024 H 
ATOM     55  H   LIG d   1       4.270   0.874 -10.977  0.00  0.00     0.024 H 
ENDBRANCH   1  52
TORSDOF 9
ENDMDL
MODEL 8
REMARK VINA RESULT:      -5.6      1.929      3.742
REMARK  9 active torsions:
REMARK  status: ('A' for Active; 'I' for Inactive)
REMARK    1  A    between atoms: C_1  and  C_2 
REMARK    2  A    between atoms: C_9  and  O_39 
REMARK    3  A    between atoms: C_17  and  O_19 
REMARK    4  A    between atoms: C_21  and  C_26 
REMARK    5  A    between atoms: C_23  and  O_25 
REMARK    6  A    between atoms: C_26  and  C_27 
REMARK    7  A    between atoms: C_26  and  C_28 
REMARK    8  A    between atoms: C_26  and  C_29 
REMARK    9  A    between atoms: C_30  and  O_38 
ROOT
ATOM      1  C   LIG d   1       4.634   0.159  -3.234  0.00  0.00     0.089 C 
ATOM      2  H   LIG d   1       4.155   0.753  -4.012  0.00  0.00     0.044 H 
ATOM      3  C   LIG d   1       3.841  -1.111  -2.963  0.00  0.00     0.313 C 
ATOM      4  O   LIG d   1       2.644  -1.251  -3.049  0.00  0.00    -0.250 OA
ATOM      5  O   LIG d   1       4.747  -2.051  -2.606  0.00  0.00    -0.455 OA
ATOM      6  C   LIG d   1       5.894  -1.886  -3.438  0.00  0.00     0.162 C 
ATOM      7  H   LIG d   1       6.796  -2.291  -2.971  0.00  0.00     0.079 H 
ATOM      8  C   LIG d   1       6.014  -0.362  -3.700  0.00  0.00     0.158 C 
ATOM      9  C   LIG d   1       6.164  -0.203  -5.198  0.00  0.00     0.214 C 
ATOM     10  C   LIG d   1       7.411   0.452  -5.683  0.00  0.00     0.344 C 
ATOM     11  O   LIG d   1       7.611   1.648  -5.663  0.00  0.00    -0.247 OA
ATOM     12  O   LIG d   1       8.307  -0.466  -6.154  0.00  0.00    -0.456 OA
ATOM     13  C   LIG d   1       7.936  -1.816  -5.797  0.00  0.00     0.141 C 
ATOM     14  H   LIG d   1       8.377  -2.183  -4.869  0.00  0.00     0.077 H 
ATOM     15  C   LIG d   1       6.404  -1.631  -5.785  0.00  0.00     0.097 C 
ATOM     16  C   LIG d   1       5.656  -2.532  -4.830  0.00  0.00     0.108 C 
ATOM     17  H   LIG d   1       4.594  -2.565  -5.059  0.00  0.00     0.064 H 
ATOM     18  C   LIG d   1       6.044  -1.492  -7.257  0.00  0.00     0.090 C 
ATOM     19  C   LIG d   1       6.645  -2.732  -7.738  0.00  0.00     0.009 C 
ATOM     20  H   LIG d   1       6.755  -2.795  -8.820  0.00  0.00     0.034 H 
ATOM     21  C   LIG d   1       8.009  -2.828  -6.986  0.00  0.00     0.097 C 
ATOM     22  H   LIG d   1       8.834  -2.554  -7.649  0.00  0.00     0.063 H 
ATOM     23  C   LIG d   1       6.789  -0.640  -8.353  0.00  0.00     0.164 C 
ATOM     24  H   LIG d   1       7.353   0.202  -7.908  0.00  0.00     0.072 H 
ATOM     25  C   LIG d   1       5.595  -0.115  -9.179  0.00  0.00     0.339 C 
ATOM     26  O   LIG d   1       5.611   0.324 -10.302  0.00  0.00    -0.248 OA
ATOM     27  O   LIG d   1       4.489  -0.261  -8.337  0.00  0.00    -0.432 OA
ATOM     28  C   LIG d   1       5.358  -0.149  -7.189  0.00  0.00     0.216 C 
ATOM     29  H   LIG d   1       6.033   0.682  -7.408  0.00  0.00     0.106 H 
ATOM     30  O   LIG d   1       4.898   0.077  -5.855  0.00  0.00    -0.319 OA
ENDROOT
BRANCH  19  31
ATOM     31  C   LIG d   1       5.750  -3.951  -7.437  0.00  0.00    -0.032 C 
BRANCH  31  32
ATOM     32  C   LIG d   1       6.480  -4.895  -6.480  0.00  0.00    -0.060 C 
ATOM     33  H   LIG d   1       7.092  -4.314  -5.793  0.00  0.00     0.024 H 
ATOM     34  H   LIG d   1       5.749  -5.474  -5.914  0.00  0.00     0.024 H 
ATOM     35  H   LIG d   1       7.116  -5.571  -7.051  0.00  0.00     0.024 H 
ENDBRANCH  31  32
BRANCH  31  36
ATOM     36  C   LIG d   1       4.445  -3.478  -6.792  0.00  0.00    -0.060 C 
ATOM     37  H   LIG d   1       4.407  -2.389  -6.806  0.00  0.00     0.024 H 
ATOM     38  H   LIG d   1       3.599  -3.878  -7.351  0.00  0.00     0.024 H 
ATOM     39  H   LIG d   1       4.401  -3.832  -5.762  0.00  0.00     0.024 H 
ENDBRANCH  31  36
BRANCH  31  40
ATOM     40  C   LIG d   1       5.438  -4.687  -8.741  0.00  0.00    -0.060 C 
ATOM     41  H   LIG d   1       5.068  -5.687  -8.515  0.00  0.00     0.024 H 
ATOM     42  H   LIG d   1       4.681  -4.136  -9.298  0.00  0.00     0.024 H 
ATOM     43  H   LIG d   1       6.345  -4.763  -9.342  0.00  0.00     0.024 H 
ENDBRANCH  31  40
ENDBRANCH  19  31
BRANCH  21  44
ATOM     44  O   LIG d   1       8.220  -4.154  -6.495  0.00  0.00    -0.388 OA
ATOM     45  H   LIG d   1       7.462  -4.522  -6.021  0.00  0.00     0.210 HD
ENDBRANCH  21  44
BRANCH  23  46
ATOM     46  O   LIG d   1       7.746  -1.278  -9.189  0.00  0.00    -0.380 OA
ATOM     47  H   LIG d   1       8.354  -0.666  -9.626  0.00  0.00     0.210 HD
ENDBRANCH  23  46
BRANCH  16  48
ATOM     48  O   LIG d   1       6.211  -3.853  -4.775  0.00  0.00    -0.387 OA
ATOM     49  H   LIG d   1       5.561  -4.557  -4.901  0.00  0.00     0.210 HD
ENDBRANCH  16  48
BRANCH   8  50
ATOM     50  O   LIG d   1       7.091   0.241  -2.978  0.00  0.00    -0.381 OA
ATOM     51  H   LIG d   1       7.172   1.195  -3.117  0.00  0.00     0.210 HD
ENDBRANCH   8  50
BRANCH   1  52
ATOM     52  C   LIG d   1       4.779   0.981  -1.951  0.00  0.00    -0.049 C 
ATOM     53  H   LIG d   1       4.822   0.311  -1.093  0.00  0.00     0.024 H 
ATOM     54  H   LIG d   1       5.695   1.571  -1.999  0.00  0.00     0.024 H 
ATOM     55  H   LIG d   1       3.922   1.648  -1.848  0.00  0.00     0.024 H 
ENDBRANCH   1  52
TORSDOF 9
ENDMDL
MODEL 9
REMARK VINA RESULT:      -5.6      1.914      5.130
REMARK  9 active torsions:
REMARK  status: ('A' for Active; 'I' for Inactive)
REMARK    1  A    between atoms: C_1  and  C_2 
REMARK    2  A    between atoms: C_9  and  O_39 
REMARK    3  A    between atoms: C_17  and  O_19 
REMARK    4  A    between atoms: C_21  and  C_26 
REMARK    5  A    between atoms: C_23  and  O_25 
REMARK    6  A    between atoms: C_26  and  C_27 
REMARK    7  A    between atoms: C_26  and  C_28 
REMARK    8  A    between atoms: C_26  and  C_29 
REMARK    9  A    between atoms: C_30  and  O_38 
ROOT
ATOM      1  C   LIG d   1       8.908   1.984  -6.896  0.00  0.00     0.089 C 
ATOM      2  H   LIG d   1       8.042   2.439  -7.376  0.00  0.00     0.044 H 
ATOM      3  C   LIG d   1       8.945   2.332  -5.415  0.00  0.00     0.313 C 
ATOM      4  O   LIG d   1       8.551   3.350  -4.899  0.00  0.00    -0.250 OA
ATOM      5  O   LIG d   1       9.510   1.270  -4.794  0.00  0.00    -0.455 OA
ATOM      6  C   LIG d   1       9.005   0.087  -5.412  0.00  0.00     0.162 C 
ATOM      7  H   LIG d   1       9.684  -0.761  -5.280  0.00  0.00     0.079 H 
ATOM      8  C   LIG d   1       8.807   0.440  -6.908  0.00  0.00     0.158 C 
ATOM      9  C   LIG d   1       7.401   0.003  -7.261  0.00  0.00     0.214 C 
ATOM     10  C   LIG d   1       7.265  -1.019  -8.336  0.00  0.00     0.344 C 
ATOM     11  O   LIG d   1       7.354  -0.785  -9.523  0.00  0.00    -0.247 OA
ATOM     12  O   LIG d   1       7.027  -2.262  -7.818  0.00  0.00    -0.456 OA
ATOM     13  C   LIG d   1       7.256  -2.305  -6.391  0.00  0.00     0.141 C 
ATOM     14  H   LIG d   1       8.261  -2.611  -6.097  0.00  0.00     0.077 H 
ATOM     15  C   LIG d   1       6.875  -0.846  -6.060  0.00  0.00     0.097 C 
ATOM     16  C   LIG d   1       7.590  -0.250  -4.870  0.00  0.00     0.108 C 
ATOM     17  H   LIG d   1       7.094   0.648  -4.513  0.00  0.00     0.064 H 
ATOM     18  C   LIG d   1       5.362  -0.822  -6.223  0.00  0.00     0.090 C 
ATOM     19  C   LIG d   1       5.034  -1.909  -5.306  0.00  0.00     0.009 C 
ATOM     20  H   LIG d   1       4.016  -2.287  -5.394  0.00  0.00     0.034 H 
ATOM     21  C   LIG d   1       6.111  -3.002  -5.587  0.00  0.00     0.097 C 
ATOM     22  H   LIG d   1       5.688  -3.814  -6.184  0.00  0.00     0.063 H 
ATOM     23  C   LIG d   1       4.508  -1.466  -7.380  0.00  0.00     0.164 C 
ATOM     24  H   LIG d   1       5.097  -1.582  -8.311  0.00  0.00     0.072 H 
ATOM     25  C   LIG d   1       3.410  -0.396  -7.566  0.00  0.00     0.339 C 
ATOM     26  O   LIG d   1       2.337  -0.527  -8.099  0.00  0.00    -0.248 OA
ATOM     27  O   LIG d   1       3.935   0.758  -6.979  0.00  0.00    -0.432 OA
ATOM     28  C   LIG d   1       5.271   0.280  -7.252  0.00  0.00     0.216 C 
ATOM     29  H   LIG d   1       5.246  -0.098  -8.276  0.00  0.00     0.106 H 
ATOM     30  O   LIG d   1       6.443   1.092  -7.175  0.00  0.00    -0.319 OA
ENDROOT
BRANCH  19  31
ATOM     31  C   LIG d   1       5.074  -1.443  -3.837  0.00  0.00    -0.032 C 
BRANCH  31  32
ATOM     32  C   LIG d   1       6.257  -2.105  -3.126  0.00  0.00    -0.060 C 
ATOM     33  H   LIG d   1       7.088  -2.207  -3.821  0.00  0.00     0.024 H 
ATOM     34  H   LIG d   1       6.562  -1.488  -2.280  0.00  0.00     0.024 H 
ATOM     35  H   LIG d   1       5.960  -3.091  -2.768  0.00  0.00     0.024 H 
ENDBRANCH  31  32
BRANCH  31  36
ATOM     36  C   LIG d   1       5.235   0.077  -3.788  0.00  0.00    -0.060 C 
ATOM     37  H   LIG d   1       4.257   0.542  -3.660  0.00  0.00     0.024 H 
ATOM     38  H   LIG d   1       5.877   0.347  -2.949  0.00  0.00     0.024 H 
ATOM     39  H   LIG d   1       5.686   0.425  -4.717  0.00  0.00     0.024 H 
ENDBRANCH  31  36
BRANCH  31  40
ATOM     40  C   LIG d   1       3.772  -1.842  -3.141  0.00  0.00    -0.060 C 
ATOM     41  H   LIG d   1       3.924  -2.768  -2.585  0.00  0.00     0.024 H 
ATOM     42  H   LIG d   1       3.469  -1.051  -2.455  0.00  0.00     0.024 H 
ATOM     43  H   LIG d   1       2.992  -1.991  -3.887  0.00  0.00     0.024 H 
ENDBRANCH  31  40
ENDBRANCH  19  31
BRANCH  21  44
ATOM     44  O   LIG d   1       6.620  -3.533  -4.362  0.00  0.00    -0.388 OA
ATOM     45  H   LIG d   1       7.583  -3.616  -4.340  0.00  0.00     0.210 HD
ENDBRANCH  21  44
BRANCH  23  46
ATOM     46  O   LIG d   1       3.938  -2.753  -7.182  0.00  0.00    -0.380 OA
ATOM     47  H   LIG d   1       3.363  -3.042  -7.904  0.00  0.00     0.210 HD
ENDBRANCH  23  46
BRANCH  16  48
ATOM     48  O   LIG d   1       7.766  -1.195  -3.807  0.00  0.00    -0.387 OA
ATOM     49  H   LIG d   1       7.244  -1.001  -3.018  0.00  0.00     0.210 HD
ENDBRANCH  16  48
BRANCH   8  50
ATOM     50  O   LIG d   1       9.792  -0.159  -7.755  0.00  0.00    -0.381 OA
ATOM     51  H   LIG d   1      10.698   0.112  -7.555  0.00  0.00     0.210 HD
ENDBRANCH   8  50
BRANCH   1  52
ATOM     52  C   LIG d   1      10.197   2.441  -7.584  0.00  0.00    -0.049 C 
ATOM     53  H   LIG d   1       9.988   3.305  -8.212  0.00  0.00     0.024 H 
ATOM     54  H   LIG d   1      10.935   2.711  -6.828  0.00  0.00     0.024 H 
ATOM     55  H   LIG d   1      10.587   1.629  -8.199  0.00  0.00     0.024 H 
ENDBRANCH   1  52
TORSDOF 9
ENDMDL
MODEL 10
REMARK VINA RESULT:      -5.6     11.532     13.715
REMARK  9 active torsions:
REMARK  status: ('A' for Active; 'I' for Inactive)
REMARK    1  A    between atoms: C_1  and  C_2 
REMARK    2  A    between atoms: C_9  and  O_39 
REMARK    3  A    between atoms: C_17  and  O_19 
REMARK    4  A    between atoms: C_21  and  C_26 
REMARK    5  A    between atoms: C_23  and  O_25 
REMARK    6  A    between atoms: C_26  and  C_27 
REMARK    7  A    between atoms: C_26  and  C_28 
REMARK    8  A    between atoms: C_26  and  C_29 
REMARK    9  A    between atoms: C_30  and  O_38 
ROOT
ATOM      1  C   LIG d   1      11.013  12.943  -3.693  0.00  0.00     0.089 C 
ATOM      2  H   LIG d   1      11.995  13.022  -3.228  0.00  0.00     0.044 H 
ATOM      3  C   LIG d   1      11.087  12.112  -4.966  0.00  0.00     0.313 C 
ATOM      4  O   LIG d   1      12.022  12.034  -5.727  0.00  0.00    -0.250 OA
ATOM      5  O   LIG d   1       9.896  11.479  -5.072  0.00  0.00    -0.455 OA
ATOM      6  C   LIG d   1       9.510  11.059  -3.764  0.00  0.00     0.162 C 
ATOM      7  H   LIG d   1       8.426  10.928  -3.683  0.00  0.00     0.079 H 
ATOM      8  C   LIG d   1      10.032  12.151  -2.796  0.00  0.00     0.158 C 
ATOM      9  C   LIG d   1      10.783  11.420  -1.703  0.00  0.00     0.214 C 
ATOM     10  C   LIG d   1      10.282  11.593  -0.311  0.00  0.00     0.344 C 
ATOM     11  O   LIG d   1      10.486  12.571   0.377  0.00  0.00    -0.247 OA
ATOM     12  O   LIG d   1       9.558  10.508   0.098  0.00  0.00    -0.456 OA
ATOM     13  C   LIG d   1       9.231   9.630  -1.004  0.00  0.00     0.141 C 
ATOM     14  H   LIG d   1       8.268   9.825  -1.476  0.00  0.00     0.077 H 
ATOM     15  C   LIG d   1      10.474   9.900  -1.879  0.00  0.00     0.097 C 
ATOM     16  C   LIG d   1      10.255   9.756  -3.366  0.00  0.00     0.108 C 
ATOM     17  H   LIG d   1      11.195   9.675  -3.905  0.00  0.00     0.064 H 
ATOM     18  C   LIG d   1      11.601   9.203  -1.131  0.00  0.00     0.090 C 
ATOM     19  C   LIG d   1      11.012   7.870  -1.055  0.00  0.00     0.009 C 
ATOM     20  H   LIG d   1      11.499   7.196  -0.351  0.00  0.00     0.034 H 
ATOM     21  C   LIG d   1       9.510   8.120  -0.713  0.00  0.00     0.097 C 
ATOM     22  H   LIG d   1       9.317   7.909   0.342  0.00  0.00     0.063 H 
ATOM     23  C   LIG d   1      11.886   9.225   0.419  0.00  0.00     0.164 C 
ATOM     24  H   LIG d   1      11.465  10.128   0.903  0.00  0.00     0.072 H 
ATOM     25  C   LIG d   1      13.429   9.273   0.434  0.00  0.00     0.339 C 
ATOM     26  O   LIG d   1      14.166   8.994   1.347  0.00  0.00    -0.248 OA
ATOM     27  O   LIG d   1      13.784   9.711  -0.844  0.00  0.00    -0.432 OA
ATOM     28  C   LIG d   1      12.515  10.393  -0.955  0.00  0.00     0.216 C 
ATOM     29  H   LIG d   1      12.368  10.901   0.001  0.00  0.00     0.106 H 
ATOM     30  O   LIG d   1      12.214  11.367  -1.954  0.00  0.00    -0.319 OA
ENDROOT
BRANCH  19  31
ATOM     31  C   LIG d   1      11.166   7.106  -2.386  0.00  0.00    -0.032 C 
BRANCH  31  32
ATOM     32  C   LIG d   1      11.920   5.797  -2.137  0.00  0.00    -0.060 C 
ATOM     33  H   LIG d   1      12.945   5.896  -2.492  0.00  0.00     0.024 H 
ATOM     34  H   LIG d   1      11.924   5.578  -1.069  0.00  0.00     0.024 H 
ATOM     35  H   LIG d   1      11.427   4.986  -2.673  0.00  0.00     0.024 H 
ENDBRANCH  31  32
BRANCH  31  36
ATOM     36  C   LIG d   1       9.782   6.795  -2.958  0.00  0.00    -0.060 C 
ATOM     37  H   LIG d   1       9.852   5.947  -3.639  0.00  0.00     0.024 H 
ATOM     38  H   LIG d   1       9.098   6.552  -2.145  0.00  0.00     0.024 H 
ATOM     39  H   LIG d   1       9.409   7.666  -3.499  0.00  0.00     0.024 H 
ENDBRANCH  31  36
BRANCH  31  40
ATOM     40  C   LIG d   1      11.949   7.966  -3.379  0.00  0.00    -0.060 C 
ATOM     41  H   LIG d   1      11.258   8.592  -3.943  0.00  0.00     0.024 H 
ATOM     42  H   LIG d   1      12.653   8.597  -2.837  0.00  0.00     0.024 H 
ATOM     43  H   LIG d   1      12.498   7.320  -4.065  0.00  0.00     0.024 H 
ENDBRANCH  31  40
ENDBRANCH  19  31
BRANCH  21  44
ATOM     44  O   LIG d   1       8.667   7.297  -1.521  0.00  0.00    -0.388 OA
ATOM     45  H   LIG d   1       7.777   7.654  -1.650  0.00  0.00     0.210 HD
ENDBRANCH  21  44
BRANCH  23  46
ATOM     46  O   LIG d   1      11.400   8.159   1.224  0.00  0.00    -0.380 OA
ATOM     47  H   LIG d   1      10.944   7.467   0.725  0.00  0.00     0.210 HD
ENDBRANCH  23  46
BRANCH  16  48
ATOM     48  O   LIG d   1       9.383   8.665  -3.690  0.00  0.00    -0.387 OA
ATOM     49  H   LIG d   1       8.927   8.764  -4.536  0.00  0.00     0.210 HD
ENDBRANCH  16  48
BRANCH   8  50
ATOM     50  O   LIG d   1       8.987  12.978  -2.277  0.00  0.00    -0.381 OA
ATOM     51  H   LIG d   1       8.672  12.712  -1.402  0.00  0.00     0.210 HD
ENDBRANCH   8  50
BRANCH   1  52
ATOM     52  C   LIG d   1      10.454  14.335  -3.997  0.00  0.00    -0.049 C 
ATOM     53  H   LIG d   1      11.275  15.045  -4.083  0.00  0.00     0.024 H 
ATOM     54  H   LIG d   1       9.899  14.306  -4.935  0.00  0.00     0.024 H 
ATOM     55  H   LIG d   1       9.789  14.644  -3.190  0.00  0.00     0.024 H 
ENDBRANCH   1  52
TORSDOF 9
ENDMDL
