MODEL 1
REMARK VINA RESULT:      -5.3      0.000      0.000
REMARK  4 active torsions:
REMARK  status: ('A' for Active; 'I' for Inactive)
REMARK    1  A    between atoms: C_1  and  O_2 
REMARK    2  A    between atoms: O_2  and  C_3 
REMARK    3  A    between atoms: C_8  and  C_9 
REMARK    4  A    between atoms: C_9  and  C_10 
ROOT
ATOM      1  C   LIG d   1       3.730  -1.033  -3.218  0.00  0.00     0.124 A 
ATOM      2  C   LIG d   1       4.530  -0.900  -2.091  0.00  0.00    -0.020 A 
ATOM      3  C   LIG d   1       4.708   0.342  -1.515  0.00  0.00    -0.058 A 
ATOM      4  C   LIG d   1       4.089   1.453  -2.057  0.00  0.00    -0.061 A 
ATOM      5  C   LIG d   1       3.294   1.323  -3.182  0.00  0.00    -0.055 A 
ATOM      6  C   LIG d   1       3.110   0.082  -3.760  0.00  0.00    -0.000 A 
ATOM      7  H   LIG d   1       5.015  -1.768  -1.668  0.00  0.00     0.065 H 
ATOM      8  H   LIG d   1       5.331   0.446  -0.638  0.00  0.00     0.062 H 
ATOM      9  H   LIG d   1       4.228   2.423  -1.605  0.00  0.00     0.062 H 
ATOM     10  H   LIG d   1       2.815   2.193  -3.606  0.00  0.00     0.062 H 
ENDROOT
BRANCH   6  11
ATOM     11  C   LIG d   1       2.240  -0.058  -4.983  0.00  0.00     0.015 C 
ATOM     12  H   LIG d   1       1.406   0.642  -4.918  0.00  0.00     0.037 H 
ATOM     13  H   LIG d   1       1.855  -1.076  -5.039  0.00  0.00     0.037 H 
BRANCH  11  14
ATOM     14  C   LIG d   1       3.053   0.242  -6.216  0.00  0.00     0.046 C 
ATOM     15  O   LIG d   1       2.977   1.327  -6.740  0.00  0.00    -0.549 OA
ATOM     16  O   LIG d   1       3.866  -0.696  -6.727  0.00  0.00    -0.549 OA
ENDBRANCH  11  14
ENDBRANCH   6  11
BRANCH   1  17
ATOM     17  O   LIG d   1       3.555  -2.254  -3.787  0.00  0.00    -0.495 OA
BRANCH  17  18
ATOM     18  C   LIG d   1       4.732  -2.972  -4.161  0.00  0.00     0.079 C 
ATOM     19  H   LIG d   1       4.747  -3.937  -3.653  0.00  0.00     0.066 H 
ATOM     20  H   LIG d   1       4.734  -3.129  -5.240  0.00  0.00     0.066 H 
ATOM     21  H   LIG d   1       5.614  -2.397  -3.876  0.00  0.00     0.066 H 
ENDBRANCH  17  18
ENDBRANCH   1  17
TORSDOF 4
ENDMDL
MODEL 2
REMARK VINA RESULT:      -4.8      1.971      3.852
REMARK  4 active torsions:
REMARK  status: ('A' for Active; 'I' for Inactive)
REMARK    1  A    between atoms: C_1  and  O_2 
REMARK    2  A    between atoms: O_2  and  C_3 
REMARK    3  A    between atoms: C_8  and  C_9 
REMARK    4  A    between atoms: C_9  and  C_10 
ROOT
ATOM      1  C   LIG d   1       3.941  -0.779  -5.017  0.00  0.00     0.124 A 
ATOM      2  C   LIG d   1       4.589  -1.781  -5.725  0.00  0.00    -0.020 A 
ATOM      3  C   LIG d   1       4.997  -2.930  -5.076  0.00  0.00    -0.058 A 
ATOM      4  C   LIG d   1       4.760  -3.082  -3.722  0.00  0.00    -0.061 A 
ATOM      5  C   LIG d   1       4.120  -2.082  -3.014  0.00  0.00    -0.055 A 
ATOM      6  C   LIG d   1       3.706  -0.933  -3.659  0.00  0.00    -0.000 A 
ATOM      7  H   LIG d   1       4.774  -1.663  -6.783  0.00  0.00     0.065 H 
ATOM      8  H   LIG d   1       5.501  -3.711  -5.627  0.00  0.00     0.062 H 
ATOM      9  H   LIG d   1       5.080  -3.981  -3.217  0.00  0.00     0.062 H 
ATOM     10  H   LIG d   1       3.940  -2.202  -1.956  0.00  0.00     0.062 H 
ENDROOT
BRANCH   6  11
ATOM     11  C   LIG d   1       3.003   0.154  -2.887  0.00  0.00     0.015 C 
ATOM     12  H   LIG d   1       2.536  -0.274  -1.999  0.00  0.00     0.037 H 
ATOM     13  H   LIG d   1       2.238   0.609  -3.516  0.00  0.00     0.037 H 
BRANCH  11  14
ATOM     14  C   LIG d   1       4.002   1.203  -2.473  0.00  0.00     0.046 C 
ATOM     15  O   LIG d   1       4.154   2.193  -3.148  0.00  0.00    -0.549 OA
ATOM     16  O   LIG d   1       4.719   1.039  -1.350  0.00  0.00    -0.549 OA
ENDBRANCH  11  14
ENDBRANCH   6  11
BRANCH   1  17
ATOM     17  O   LIG d   1       3.540   0.353  -5.654  0.00  0.00    -0.495 OA
BRANCH  17  18
ATOM     18  C   LIG d   1       2.936   0.196  -6.939  0.00  0.00     0.079 C 
ATOM     19  H   LIG d   1       2.526  -0.811  -7.028  0.00  0.00     0.066 H 
ATOM     20  H   LIG d   1       2.134   0.926  -7.055  0.00  0.00     0.066 H 
ATOM     21  H   LIG d   1       3.686   0.353  -7.714  0.00  0.00     0.066 H 
ENDBRANCH  17  18
ENDBRANCH   1  17
TORSDOF 4
ENDMDL
MODEL 3
REMARK VINA RESULT:      -4.8      2.118      3.521
REMARK  4 active torsions:
REMARK  status: ('A' for Active; 'I' for Inactive)
REMARK    1  A    between atoms: C_1  and  O_2 
REMARK    2  A    between atoms: O_2  and  C_3 
REMARK    3  A    between atoms: C_8  and  C_9 
REMARK    4  A    between atoms: C_9  and  C_10 
ROOT
ATOM      1  C   LIG d   1       5.785   0.091  -3.107  0.00  0.00     0.124 A 
ATOM      2  C   LIG d   1       5.159   1.257  -2.688  0.00  0.00    -0.020 A 
ATOM      3  C   LIG d   1       3.817   1.240  -2.363  0.00  0.00    -0.058 A 
ATOM      4  C   LIG d   1       3.096   0.062  -2.453  0.00  0.00    -0.061 A 
ATOM      5  C   LIG d   1       3.718  -1.099  -2.875  0.00  0.00    -0.055 A 
ATOM      6  C   LIG d   1       5.060  -1.088  -3.197  0.00  0.00    -0.000 A 
ATOM      7  H   LIG d   1       5.721   2.177  -2.618  0.00  0.00     0.065 H 
ATOM      8  H   LIG d   1       3.329   2.147  -2.037  0.00  0.00     0.062 H 
ATOM      9  H   LIG d   1       2.048   0.051  -2.198  0.00  0.00     0.062 H 
ATOM     10  H   LIG d   1       3.152  -2.016  -2.949  0.00  0.00     0.062 H 
ENDROOT
BRANCH   6  11
ATOM     11  C   LIG d   1       5.737  -2.356  -3.652  0.00  0.00     0.015 C 
ATOM     12  H   LIG d   1       5.803  -3.053  -2.816  0.00  0.00     0.037 H 
ATOM     13  H   LIG d   1       6.739  -2.124  -4.011  0.00  0.00     0.037 H 
BRANCH  11  14
ATOM     14  C   LIG d   1       4.937  -2.982  -4.765  0.00  0.00     0.046 C 
ATOM     15  O   LIG d   1       4.419  -4.062  -4.603  0.00  0.00    -0.549 OA
ATOM     16  O   LIG d   1       4.793  -2.336  -5.933  0.00  0.00    -0.549 OA
ENDBRANCH  11  14
ENDBRANCH   6  11
BRANCH   1  17
ATOM     17  O   LIG d   1       7.105   0.106  -3.428  0.00  0.00    -0.495 OA
BRANCH  17  18
ATOM     18  C   LIG d   1       7.657   1.354  -3.850  0.00  0.00     0.079 C 
ATOM     19  H   LIG d   1       8.017   1.265  -4.876  0.00  0.00     0.066 H 
ATOM     20  H   LIG d   1       6.889   2.127  -3.800  0.00  0.00     0.066 H 
ATOM     21  H   LIG d   1       8.487   1.624  -3.196  0.00  0.00     0.066 H 
ENDBRANCH  17  18
ENDBRANCH   1  17
TORSDOF 4
ENDMDL
MODEL 4
REMARK VINA RESULT:      -4.7      2.678      3.262
REMARK  4 active torsions:
REMARK  status: ('A' for Active; 'I' for Inactive)
REMARK    1  A    between atoms: C_1  and  O_2 
REMARK    2  A    between atoms: O_2  and  C_3 
REMARK    3  A    between atoms: C_8  and  C_9 
REMARK    4  A    between atoms: C_9  and  C_10 
ROOT
ATOM      1  C   LIG d   1       4.937  -1.446  -3.357  0.00  0.00     0.124 A 
ATOM      2  C   LIG d   1       3.565  -1.543  -3.170  0.00  0.00    -0.020 A 
ATOM      3  C   LIG d   1       2.855  -0.456  -2.702  0.00  0.00    -0.058 A 
ATOM      4  C   LIG d   1       3.509   0.730  -2.421  0.00  0.00    -0.061 A 
ATOM      5  C   LIG d   1       4.876   0.827  -2.602  0.00  0.00    -0.055 A 
ATOM      6  C   LIG d   1       5.590  -0.257  -3.074  0.00  0.00    -0.000 A 
ATOM      7  H   LIG d   1       3.054  -2.470  -3.390  0.00  0.00     0.065 H 
ATOM      8  H   LIG d   1       1.787  -0.531  -2.557  0.00  0.00     0.062 H 
ATOM      9  H   LIG d   1       2.951   1.579  -2.056  0.00  0.00     0.062 H 
ATOM     10  H   LIG d   1       5.385   1.753  -2.377  0.00  0.00     0.062 H 
ENDROOT
BRANCH   6  11
ATOM     11  C   LIG d   1       7.081  -0.148  -3.276  0.00  0.00     0.015 C 
ATOM     12  H   LIG d   1       7.435  -1.012  -3.839  0.00  0.00     0.037 H 
ATOM     13  H   LIG d   1       7.576  -0.118  -2.306  0.00  0.00     0.037 H 
BRANCH  11  14
ATOM     14  C   LIG d   1       7.393   1.112  -4.040  0.00  0.00     0.046 C 
ATOM     15  O   LIG d   1       7.955   2.029  -3.489  0.00  0.00    -0.549 OA
ATOM     16  O   LIG d   1       7.054   1.213  -5.335  0.00  0.00    -0.549 OA
ENDBRANCH  11  14
ENDBRANCH   6  11
BRANCH   1  17
ATOM     17  O   LIG d   1       5.638  -2.516  -3.816  0.00  0.00    -0.495 OA
BRANCH  17  18
ATOM     18  C   LIG d   1       4.957  -3.409  -4.699  0.00  0.00     0.079 C 
ATOM     19  H   LIG d   1       3.893  -3.169  -4.710  0.00  0.00     0.066 H 
ATOM     20  H   LIG d   1       5.362  -3.304  -5.706  0.00  0.00     0.066 H 
ATOM     21  H   LIG d   1       5.095  -4.435  -4.356  0.00  0.00     0.066 H 
ENDBRANCH  17  18
ENDBRANCH   1  17
TORSDOF 4
ENDMDL
MODEL 5
REMARK VINA RESULT:      -4.7      1.543      3.258
REMARK  4 active torsions:
REMARK  status: ('A' for Active; 'I' for Inactive)
REMARK    1  A    between atoms: C_1  and  O_2 
REMARK    2  A    between atoms: O_2  and  C_3 
REMARK    3  A    between atoms: C_8  and  C_9 
REMARK    4  A    between atoms: C_9  and  C_10 
ROOT
ATOM      1  C   LIG d   1       3.622  -0.311  -4.038  0.00  0.00     0.124 A 
ATOM      2  C   LIG d   1       3.346   1.008  -3.705  0.00  0.00    -0.020 A 
ATOM      3  C   LIG d   1       3.742   1.505  -2.479  0.00  0.00    -0.058 A 
ATOM      4  C   LIG d   1       4.413   0.692  -1.584  0.00  0.00    -0.061 A 
ATOM      5  C   LIG d   1       4.685  -0.624  -1.913  0.00  0.00    -0.055 A 
ATOM      6  C   LIG d   1       4.295  -1.125  -3.140  0.00  0.00    -0.000 A 
ATOM      7  H   LIG d   1       2.821   1.643  -4.403  0.00  0.00     0.065 H 
ATOM      8  H   LIG d   1       3.528   2.532  -2.218  0.00  0.00     0.062 H 
ATOM      9  H   LIG d   1       4.722   1.083  -0.627  0.00  0.00     0.062 H 
ATOM     10  H   LIG d   1       5.205  -1.258  -1.211  0.00  0.00     0.062 H 
ENDROOT
BRANCH   6  11
ATOM     11  C   LIG d   1       4.596  -2.558  -3.499  0.00  0.00     0.015 C 
ATOM     12  H   LIG d   1       3.810  -2.942  -4.150  0.00  0.00     0.037 H 
ATOM     13  H   LIG d   1       4.642  -3.158  -2.591  0.00  0.00     0.037 H 
BRANCH  11  14
ATOM     14  C   LIG d   1       5.920  -2.629  -4.215  0.00  0.00     0.046 C 
ATOM     15  O   LIG d   1       5.953  -2.850  -5.403  0.00  0.00    -0.549 OA
ATOM     16  O   LIG d   1       7.062  -2.439  -3.535  0.00  0.00    -0.549 OA
ENDBRANCH  11  14
ENDBRANCH   6  11
BRANCH   1  17
ATOM     17  O   LIG d   1       3.232  -0.803  -5.243  0.00  0.00    -0.495 OA
BRANCH  17  18
ATOM     18  C   LIG d   1       3.818  -0.214  -6.406  0.00  0.00     0.079 C 
ATOM     19  H   LIG d   1       4.421  -0.958  -6.926  0.00  0.00     0.066 H 
ATOM     20  H   LIG d   1       3.029   0.143  -7.069  0.00  0.00     0.066 H 
ATOM     21  H   LIG d   1       4.450   0.624  -6.109  0.00  0.00     0.066 H 
ENDBRANCH  17  18
ENDBRANCH   1  17
TORSDOF 4
ENDMDL
MODEL 6
REMARK VINA RESULT:      -4.7      2.751      3.832
REMARK  4 active torsions:
REMARK  status: ('A' for Active; 'I' for Inactive)
REMARK    1  A    between atoms: C_1  and  O_2 
REMARK    2  A    between atoms: O_2  and  C_3 
REMARK    3  A    between atoms: C_8  and  C_9 
REMARK    4  A    between atoms: C_9  and  C_10 
ROOT
ATOM      1  C   LIG d   1       4.129  -0.272  -4.465  0.00  0.00     0.124 A 
ATOM      2  C   LIG d   1       2.955  -0.621  -3.812  0.00  0.00    -0.020 A 
ATOM      3  C   LIG d   1       3.008  -1.353  -2.642  0.00  0.00    -0.058 A 
ATOM      4  C   LIG d   1       4.230  -1.737  -2.120  0.00  0.00    -0.061 A 
ATOM      5  C   LIG d   1       5.401  -1.395  -2.772  0.00  0.00    -0.055 A 
ATOM      6  C   LIG d   1       5.353  -0.659  -3.940  0.00  0.00    -0.000 A 
ATOM      7  H   LIG d   1       2.000  -0.321  -4.219  0.00  0.00     0.065 H 
ATOM      8  H   LIG d   1       2.095  -1.624  -2.133  0.00  0.00     0.062 H 
ATOM      9  H   LIG d   1       4.269  -2.309  -1.205  0.00  0.00     0.062 H 
ATOM     10  H   LIG d   1       6.353  -1.700  -2.365  0.00  0.00     0.062 H 
ENDROOT
BRANCH   6  11
ATOM     11  C   LIG d   1       6.630  -0.282  -4.647  0.00  0.00     0.015 C 
ATOM     12  H   LIG d   1       6.411  -0.034  -5.686  0.00  0.00     0.037 H 
ATOM     13  H   LIG d   1       7.325  -1.120  -4.612  0.00  0.00     0.037 H 
BRANCH  11  14
ATOM     14  C   LIG d   1       7.248   0.912  -3.965  0.00  0.00     0.046 C 
ATOM     15  O   LIG d   1       8.443   1.081  -4.009  0.00  0.00    -0.549 OA
ATOM     16  O   LIG d   1       6.468   1.790  -3.315  0.00  0.00    -0.549 OA
ENDBRANCH  11  14
ENDBRANCH   6  11
BRANCH   1  17
ATOM     17  O   LIG d   1       4.078   0.447  -5.617  0.00  0.00    -0.495 OA
BRANCH  17  18
ATOM     18  C   LIG d   1       3.041   0.119  -6.543  0.00  0.00     0.079 C 
ATOM     19  H   LIG d   1       2.130   0.653  -6.273  0.00  0.00     0.066 H 
ATOM     20  H   LIG d   1       3.348   0.408  -7.549  0.00  0.00     0.066 H 
ATOM     21  H   LIG d   1       2.855  -0.955  -6.514  0.00  0.00     0.066 H 
ENDBRANCH  17  18
ENDBRANCH   1  17
TORSDOF 4
ENDMDL
MODEL 7
REMARK VINA RESULT:      -4.5      2.118      3.698
REMARK  4 active torsions:
REMARK  status: ('A' for Active; 'I' for Inactive)
REMARK    1  A    between atoms: C_1  and  O_2 
REMARK    2  A    between atoms: O_2  and  C_3 
REMARK    3  A    between atoms: C_8  and  C_9 
REMARK    4  A    between atoms: C_9  and  C_10 
ROOT
ATOM      1  C   LIG d   1       4.359  -1.149  -4.681  0.00  0.00     0.124 A 
ATOM      2  C   LIG d   1       4.563  -1.405  -6.030  0.00  0.00    -0.020 A 
ATOM      3  C   LIG d   1       3.810  -0.741  -6.978  0.00  0.00    -0.058 A 
ATOM      4  C   LIG d   1       2.854   0.179  -6.586  0.00  0.00    -0.061 A 
ATOM      5  C   LIG d   1       2.647   0.432  -5.242  0.00  0.00    -0.055 A 
ATOM      6  C   LIG d   1       3.400  -0.227  -4.290  0.00  0.00    -0.000 A 
ATOM      7  H   LIG d   1       5.308  -2.124  -6.337  0.00  0.00     0.065 H 
ATOM      8  H   LIG d   1       3.968  -0.940  -8.029  0.00  0.00     0.062 H 
ATOM      9  H   LIG d   1       2.268   0.697  -7.329  0.00  0.00     0.062 H 
ATOM     10  H   LIG d   1       1.897   1.147  -4.938  0.00  0.00     0.062 H 
ENDROOT
BRANCH   6  11
ATOM     11  C   LIG d   1       3.177   0.053  -2.825  0.00  0.00     0.015 C 
ATOM     12  H   LIG d   1       3.341  -0.859  -2.252  0.00  0.00     0.037 H 
ATOM     13  H   LIG d   1       2.155   0.399  -2.674  0.00  0.00     0.037 H 
BRANCH  11  14
ATOM     14  C   LIG d   1       4.140   1.116  -2.364  0.00  0.00     0.046 C 
ATOM     15  O   LIG d   1       4.675   1.020  -1.285  0.00  0.00    -0.549 OA
ATOM     16  O   LIG d   1       4.409   2.167  -3.156  0.00  0.00    -0.549 OA
ENDBRANCH  11  14
ENDBRANCH   6  11
BRANCH   1  17
ATOM     17  O   LIG d   1       5.098  -1.802  -3.746  0.00  0.00    -0.495 OA
BRANCH  17  18
ATOM     18  C   LIG d   1       6.491  -1.493  -3.687  0.00  0.00     0.079 C 
ATOM     19  H   LIG d   1       6.650  -0.465  -4.014  0.00  0.00     0.066 H 
ATOM     20  H   LIG d   1       6.845  -1.607  -2.662  0.00  0.00     0.066 H 
ATOM     21  H   LIG d   1       7.042  -2.171  -4.339  0.00  0.00     0.066 H 
ENDBRANCH  17  18
ENDBRANCH   1  17
TORSDOF 4
ENDMDL
MODEL 8
REMARK VINA RESULT:      -4.5      1.705      3.525
REMARK  4 active torsions:
REMARK  status: ('A' for Active; 'I' for Inactive)
REMARK    1  A    between atoms: C_1  and  O_2 
REMARK    2  A    between atoms: O_2  and  C_3 
REMARK    3  A    between atoms: C_8  and  C_9 
REMARK    4  A    between atoms: C_9  and  C_10 
ROOT
ATOM      1  C   LIG d   1       4.011  -0.621  -4.911  0.00  0.00     0.124 A 
ATOM      2  C   LIG d   1       3.278   0.044  -3.937  0.00  0.00    -0.020 A 
ATOM      3  C   LIG d   1       3.094  -0.537  -2.698  0.00  0.00    -0.058 A 
ATOM      4  C   LIG d   1       3.640  -1.778  -2.425  0.00  0.00    -0.061 A 
ATOM      5  C   LIG d   1       4.367  -2.443  -3.396  0.00  0.00    -0.055 A 
ATOM      6  C   LIG d   1       4.558  -1.865  -4.635  0.00  0.00    -0.000 A 
ATOM      7  H   LIG d   1       2.850   1.013  -4.150  0.00  0.00     0.065 H 
ATOM      8  H   LIG d   1       2.523  -0.020  -1.940  0.00  0.00     0.062 H 
ATOM      9  H   LIG d   1       3.496  -2.229  -1.456  0.00  0.00     0.062 H 
ATOM     10  H   LIG d   1       4.789  -3.414  -3.182  0.00  0.00     0.062 H 
ENDROOT
BRANCH   6  11
ATOM     11  C   LIG d   1       5.355  -2.589  -5.691  0.00  0.00     0.015 C 
ATOM     12  H   LIG d   1       6.139  -3.178  -5.214  0.00  0.00     0.037 H 
ATOM     13  H   LIG d   1       5.806  -1.862  -6.366  0.00  0.00     0.037 H 
BRANCH  11  14
ATOM     14  C   LIG d   1       4.444  -3.502  -6.470  0.00  0.00     0.046 C 
ATOM     15  O   LIG d   1       4.098  -3.200  -7.587  0.00  0.00    -0.549 OA
ATOM     16  O   LIG d   1       4.024  -4.654  -5.925  0.00  0.00    -0.549 OA
ENDBRANCH  11  14
ENDBRANCH   6  11
BRANCH   1  17
ATOM     17  O   LIG d   1       4.192  -0.052  -6.131  0.00  0.00    -0.495 OA
BRANCH  17  18
ATOM     18  C   LIG d   1       3.027   0.155  -6.932  0.00  0.00     0.079 C 
ATOM     19  H   LIG d   1       3.142  -0.364  -7.884  0.00  0.00     0.066 H 
ATOM     20  H   LIG d   1       2.153  -0.235  -6.409  0.00  0.00     0.066 H 
ATOM     21  H   LIG d   1       2.896   1.222  -7.114  0.00  0.00     0.066 H 
ENDBRANCH  17  18
ENDBRANCH   1  17
TORSDOF 4
ENDMDL
MODEL 9
REMARK VINA RESULT:      -4.4      2.444      4.177
REMARK  4 active torsions:
REMARK  status: ('A' for Active; 'I' for Inactive)
REMARK    1  A    between atoms: C_1  and  O_2 
REMARK    2  A    between atoms: O_2  and  C_3 
REMARK    3  A    between atoms: C_8  and  C_9 
REMARK    4  A    between atoms: C_9  and  C_10 
ROOT
ATOM      1  C   LIG d   1       4.791  -0.410  -4.448  0.00  0.00     0.124 A 
ATOM      2  C   LIG d   1       3.410  -0.317  -4.353  0.00  0.00    -0.020 A 
ATOM      3  C   LIG d   1       2.748  -0.930  -3.307  0.00  0.00    -0.058 A 
ATOM      4  C   LIG d   1       3.461  -1.636  -2.355  0.00  0.00    -0.061 A 
ATOM      5  C   LIG d   1       4.837  -1.733  -2.451  0.00  0.00    -0.055 A 
ATOM      6  C   LIG d   1       5.504  -1.118  -3.492  0.00  0.00    -0.000 A 
ATOM      7  H   LIG d   1       2.852   0.234  -5.097  0.00  0.00     0.065 H 
ATOM      8  H   LIG d   1       1.673  -0.858  -3.233  0.00  0.00     0.062 H 
ATOM      9  H   LIG d   1       2.942  -2.114  -1.538  0.00  0.00     0.062 H 
ATOM     10  H   LIG d   1       5.391  -2.289  -1.708  0.00  0.00     0.062 H 
ENDROOT
BRANCH   6  11
ATOM     11  C   LIG d   1       7.005  -1.221  -3.593  0.00  0.00     0.015 C 
ATOM     12  H   LIG d   1       7.450  -0.987  -2.625  0.00  0.00     0.037 H 
ATOM     13  H   LIG d   1       7.367  -0.515  -4.340  0.00  0.00     0.037 H 
BRANCH  11  14
ATOM     14  C   LIG d   1       7.386  -2.621  -3.996  0.00  0.00     0.046 C 
ATOM     15  O   LIG d   1       8.247  -3.212  -3.388  0.00  0.00    -0.549 OA
ATOM     16  O   LIG d   1       6.765  -3.215  -5.028  0.00  0.00    -0.549 OA
ENDBRANCH  11  14
ENDBRANCH   6  11
BRANCH   1  17
ATOM     17  O   LIG d   1       5.444   0.193  -5.476  0.00  0.00    -0.495 OA
BRANCH  17  18
ATOM     18  C   LIG d   1       5.268  -0.372  -6.777  0.00  0.00     0.079 C 
ATOM     19  H   LIG d   1       6.240  -0.651  -7.187  0.00  0.00     0.066 H 
ATOM     20  H   LIG d   1       4.636  -1.257  -6.707  0.00  0.00     0.066 H 
ATOM     21  H   LIG d   1       4.795   0.362  -7.431  0.00  0.00     0.066 H 
ENDBRANCH  17  18
ENDBRANCH   1  17
TORSDOF 4
ENDMDL
MODEL 10
REMARK VINA RESULT:      -4.3      2.734      3.568
REMARK  4 active torsions:
REMARK  status: ('A' for Active; 'I' for Inactive)
REMARK    1  A    between atoms: C_1  and  O_2 
REMARK    2  A    between atoms: O_2  and  C_3 
REMARK    3  A    between atoms: C_8  and  C_9 
REMARK    4  A    between atoms: C_9  and  C_10 
ROOT
ATOM      1  C   LIG d   1       6.220  -0.920  -3.319  0.00  0.00     0.124 A 
ATOM      2  C   LIG d   1       7.231  -1.268  -4.204  0.00  0.00    -0.020 A 
ATOM      3  C   LIG d   1       8.047  -0.290  -4.737  0.00  0.00    -0.058 A 
ATOM      4  C   LIG d   1       7.859   1.035  -4.388  0.00  0.00    -0.061 A 
ATOM      5  C   LIG d   1       6.849   1.384  -3.510  0.00  0.00    -0.055 A 
ATOM      6  C   LIG d   1       6.033   0.409  -2.972  0.00  0.00    -0.000 A 
ATOM      7  H   LIG d   1       7.378  -2.303  -4.478  0.00  0.00     0.065 H 
ATOM      8  H   LIG d   1       8.834  -0.560  -5.426  0.00  0.00     0.062 H 
ATOM      9  H   LIG d   1       8.499   1.798  -4.805  0.00  0.00     0.062 H 
ATOM     10  H   LIG d   1       6.702   2.420  -3.243  0.00  0.00     0.062 H 
ENDROOT
BRANCH   6  11
ATOM     11  C   LIG d   1       4.936   0.790  -2.010  0.00  0.00     0.015 C 
ATOM     12  H   LIG d   1       5.225   1.691  -1.468  0.00  0.00     0.037 H 
ATOM     13  H   LIG d   1       4.775  -0.023  -1.303  0.00  0.00     0.037 H 
BRANCH  11  14
ATOM     14  C   LIG d   1       3.665   1.052  -2.776  0.00  0.00     0.046 C 
ATOM     15  O   LIG d   1       2.790   0.219  -2.797  0.00  0.00    -0.549 OA
ATOM     16  O   LIG d   1       3.502   2.213  -3.429  0.00  0.00    -0.549 OA
ENDBRANCH  11  14
ENDBRANCH   6  11
BRANCH   1  17
ATOM     17  O   LIG d   1       5.415  -1.881  -2.795  0.00  0.00    -0.495 OA
BRANCH  17  18
ATOM     18  C   LIG d   1       4.629  -2.643  -3.713  0.00  0.00     0.079 C 
ATOM     19  H   LIG d   1       4.511  -2.084  -4.642  0.00  0.00     0.066 H 
ATOM     20  H   LIG d   1       5.128  -3.590  -3.920  0.00  0.00     0.066 H 
ATOM     21  H   LIG d   1       3.648  -2.836  -3.278  0.00  0.00     0.066 H 
ENDBRANCH  17  18
ENDBRANCH   1  17
TORSDOF 4
ENDMDL
