MODEL 1
REMARK VINA RESULT:      -6.2      0.000      0.000
REMARK  12 active torsions:
REMARK  status: ('A' for Active; 'I' for Inactive)
REMARK    1  A    between atoms: C_1  and  C_2 
REMARK    2  A    between atoms: C_2  and  C_3 
REMARK    3  A    between atoms: C_2  and  C_4 
REMARK    4  A    between atoms: C_7  and  C_11 
REMARK    5  A    between atoms: C_7  and  C_23 
REMARK    6  A    between atoms: C_11  and  C_12 
REMARK    7  A    between atoms: C_12  and  N_13 
REMARK    8  A    between atoms: N_13  and  C_14 
REMARK       I    between atoms: N_13  and  C_20 
REMARK    9  A    between atoms: C_14  and  C_15 
REMARK   10  A    between atoms: C_20  and  C_22 
REMARK   11  A    between atoms: C_28  and  O_29 
REMARK   12  A    between atoms: O_29  and  C_30 
ROOT
ATOM      1  C   LIG d   1       7.884  -3.514  -5.237  0.00  0.00     0.062 C 
ATOM      2  H   LIG d   1       7.823  -3.160  -6.265  0.00  0.00     0.060 H 
ATOM      3  C   LIG d   1       7.420  -2.406  -4.287  0.00  0.00    -0.017 C 
ATOM      4  C   LIG d   1       5.954  -2.076  -4.579  0.00  0.00     0.005 C 
ATOM      5  C   LIG d   1       5.116  -3.351  -4.436  0.00  0.00    -0.019 C 
ATOM      6  C   LIG d   1       5.669  -4.422  -5.380  0.00  0.00     0.049 C 
ATOM      7  O   LIG d   1       7.045  -4.660  -5.075  0.00  0.00    -0.376 OA
ATOM      8  H   LIG d   1       7.520  -2.745  -3.255  0.00  0.00     0.030 H 
ATOM      9  H   LIG d   1       8.032  -1.516  -4.440  0.00  0.00     0.030 H 
ATOM     10  H   LIG d   1       4.080  -3.137  -4.696  0.00  0.00     0.030 H 
ATOM     11  H   LIG d   1       5.168  -3.710  -3.408  0.00  0.00     0.030 H 
ATOM     12  H   LIG d   1       5.579  -4.081  -6.411  0.00  0.00     0.056 H 
ATOM     13  H   LIG d   1       5.104  -5.346  -5.252  0.00  0.00     0.056 H 
ENDROOT
BRANCH   4  14
ATOM     14  C   LIG d   1       5.822  -1.533  -6.003  0.00  0.00    -0.027 C 
ATOM     15  H   LIG d   1       6.266  -0.539  -6.055  0.00  0.00     0.029 H 
ATOM     16  H   LIG d   1       6.340  -2.198  -6.695  0.00  0.00     0.029 H 
BRANCH  14  17
ATOM     17  C   LIG d   1       4.342  -1.453  -6.384  0.00  0.00     0.016 C 
ATOM     18  H   LIG d   1       4.107  -2.242  -7.099  0.00  0.00     0.046 H 
ATOM     19  H   LIG d   1       3.730  -1.577  -5.491  0.00  0.00     0.046 H 
BRANCH  17  20
ATOM     20  N   LIG d   1       4.064  -0.147  -6.988  0.00  0.00    -0.294 N 
ATOM     21  C   LIG d   1       3.124   0.656  -6.454  0.00  0.00     0.213 C 
ATOM     22  O   LIG d   1       2.822   1.690  -7.010  0.00  0.00    -0.276 OA
BRANCH  20  23
ATOM     23  C   LIG d   1       4.808   0.284  -8.174  0.00  0.00     0.073 C 
ATOM     24  H   LIG d   1       4.825   1.374  -8.216  0.00  0.00     0.054 H 
ATOM     25  H   LIG d   1       5.829  -0.094  -8.119  0.00  0.00     0.054 H 
BRANCH  23  26
ATOM     26  C   LIG d   1       4.138  -0.255  -9.411  0.00  0.00     0.122 A 
ATOM     27  O   LIG d   1       4.226  -1.517  -9.865  0.00  0.00    -0.466 OA
ATOM     28  C   LIG d   1       3.502  -1.639 -10.989  0.00  0.00     0.092 A 
ATOM     29  C   LIG d   1       2.941  -0.448 -11.265  0.00  0.00    -0.024 A 
ATOM     30  H   LIG d   1       3.388  -2.541 -11.572  0.00  0.00     0.103 H 
ATOM     31  C   LIG d   1       3.348   0.443 -10.246  0.00  0.00    -0.019 A 
ATOM     32  H   LIG d   1       2.300  -0.216 -12.104  0.00  0.00     0.065 H 
ATOM     33  H   LIG d   1       3.077   1.484 -10.154  0.00  0.00     0.065 H 
ENDBRANCH  23  26
ENDBRANCH  20  23
BRANCH  21  34
ATOM     34  C   LIG d   1       2.446   0.270  -5.163  0.00  0.00     0.012 C 
ATOM     35  H   LIG d   1       1.786  -0.580  -5.341  0.00  0.00     0.032 H 
ATOM     36  H   LIG d   1       3.200  -0.005  -4.425  0.00  0.00     0.032 H 
ATOM     37  H   LIG d   1       1.863   1.112  -4.793  0.00  0.00     0.032 H 
ENDBRANCH  21  34
ENDBRANCH  17  20
ENDBRANCH  14  17
ENDBRANCH   4  14
BRANCH   4  38
ATOM     38  C   LIG d   1       5.465  -1.040  -3.598  0.00  0.00     0.001 A 
ATOM     39  C   LIG d   1       5.879   0.278  -3.717  0.00  0.00     0.124 A 
ATOM     40  C   LIG d   1       5.425   1.229  -2.816  0.00  0.00    -0.020 A 
ATOM     41  C   LIG d   1       4.570   0.860  -1.796  0.00  0.00    -0.058 A 
ATOM     42  H   LIG d   1       5.741   2.257  -2.909  0.00  0.00     0.065 H 
ATOM     43  C   LIG d   1       4.163  -0.457  -1.676  0.00  0.00    -0.061 A 
ATOM     44  H   LIG d   1       4.219   1.599  -1.091  0.00  0.00     0.062 H 
ATOM     45  C   LIG d   1       4.610  -1.405  -2.576  0.00  0.00    -0.055 A 
ATOM     46  H   LIG d   1       3.494  -0.743  -0.877  0.00  0.00     0.062 H 
ATOM     47  H   LIG d   1       4.290  -2.433  -2.480  0.00  0.00     0.062 H 
BRANCH  39  48
ATOM     48  O   LIG d   1       6.725   0.638  -4.718  0.00  0.00    -0.495 OA
BRANCH  48  49
ATOM     49  C   LIG d   1       7.882   1.392  -4.350  0.00  0.00     0.079 C 
ATOM     50  H   LIG d   1       8.614   1.351  -5.156  0.00  0.00     0.066 H 
ATOM     51  H   LIG d   1       7.597   2.429  -4.170  0.00  0.00     0.066 H 
ATOM     52  H   LIG d   1       8.316   0.973  -3.443  0.00  0.00     0.066 H 
ENDBRANCH  48  49
ENDBRANCH  39  48
ENDBRANCH   4  38
BRANCH   1  53
ATOM     53  C   LIG d   1       9.330  -3.892  -4.912  0.00  0.00    -0.020 C 
ATOM     54  H   LIG d   1       9.616  -4.771  -5.490  0.00  0.00     0.032 H 
BRANCH  53  55
ATOM     55  C   LIG d   1      10.255  -2.726  -5.267  0.00  0.00    -0.060 C 
ATOM     56  H   LIG d   1      10.456  -2.136  -4.372  0.00  0.00     0.023 H 
ATOM     57  H   LIG d   1      11.193  -3.114  -5.664  0.00  0.00     0.023 H 
ATOM     58  H   LIG d   1       9.774  -2.097  -6.017  0.00  0.00     0.023 H 
ENDBRANCH  53  55
BRANCH  53  59
ATOM     59  C   LIG d   1       9.453  -4.204  -3.419  0.00  0.00    -0.060 C 
ATOM     60  H   LIG d   1       9.308  -3.289  -2.844  0.00  0.00     0.023 H 
ATOM     61  H   LIG d   1       8.696  -4.935  -3.137  0.00  0.00     0.023 H 
ATOM     62  H   LIG d   1      10.444  -4.608  -3.212  0.00  0.00     0.023 H 
ENDBRANCH  53  59
ENDBRANCH   1  53
TORSDOF 12
ENDMDL
MODEL 2
REMARK VINA RESULT:      -6.1      1.380      2.198
REMARK  12 active torsions:
REMARK  status: ('A' for Active; 'I' for Inactive)
REMARK    1  A    between atoms: C_1  and  C_2 
REMARK    2  A    between atoms: C_2  and  C_3 
REMARK    3  A    between atoms: C_2  and  C_4 
REMARK    4  A    between atoms: C_7  and  C_11 
REMARK    5  A    between atoms: C_7  and  C_23 
REMARK    6  A    between atoms: C_11  and  C_12 
REMARK    7  A    between atoms: C_12  and  N_13 
REMARK    8  A    between atoms: N_13  and  C_14 
REMARK       I    between atoms: N_13  and  C_20 
REMARK    9  A    between atoms: C_14  and  C_15 
REMARK   10  A    between atoms: C_20  and  C_22 
REMARK   11  A    between atoms: C_28  and  O_29 
REMARK   12  A    between atoms: O_29  and  C_30 
ROOT
ATOM      1  C   LIG d   1       8.374  -3.589  -4.742  0.00  0.00     0.062 C 
ATOM      2  H   LIG d   1       8.496  -3.206  -5.755  0.00  0.00     0.060 H 
ATOM      3  C   LIG d   1       7.740  -2.510  -3.861  0.00  0.00    -0.017 C 
ATOM      4  C   LIG d   1       6.348  -2.173  -4.402  0.00  0.00     0.005 C 
ATOM      5  C   LIG d   1       5.506  -3.453  -4.448  0.00  0.00    -0.019 C 
ATOM      6  C   LIG d   1       6.226  -4.496  -5.307  0.00  0.00     0.049 C 
ATOM      7  O   LIG d   1       7.527  -4.741  -4.766  0.00  0.00    -0.376 OA
ATOM      8  H   LIG d   1       7.655  -2.877  -2.838  0.00  0.00     0.030 H 
ATOM      9  H   LIG d   1       8.364  -1.615  -3.877  0.00  0.00     0.030 H 
ATOM     10  H   LIG d   1       4.532  -3.232  -4.884  0.00  0.00     0.030 H 
ATOM     11  H   LIG d   1       5.375  -3.840  -3.438  0.00  0.00     0.030 H 
ATOM     12  H   LIG d   1       6.321  -4.125  -6.327  0.00  0.00     0.056 H 
ATOM     13  H   LIG d   1       5.653  -5.423  -5.308  0.00  0.00     0.056 H 
ENDROOT
BRANCH   4  14
ATOM     14  C   LIG d   1       6.471  -1.590  -5.811  0.00  0.00    -0.027 C 
ATOM     15  H   LIG d   1       6.947  -0.611  -5.759  0.00  0.00     0.029 H 
ATOM     16  H   LIG d   1       7.076  -2.255  -6.428  0.00  0.00     0.029 H 
BRANCH  14  17
ATOM     17  C   LIG d   1       5.078  -1.449  -6.429  0.00  0.00     0.016 C 
ATOM     18  H   LIG d   1       4.478  -2.324  -6.176  0.00  0.00     0.046 H 
ATOM     19  H   LIG d   1       4.596  -0.553  -6.039  0.00  0.00     0.046 H 
BRANCH  17  20
ATOM     20  N   LIG d   1       5.198  -1.343  -7.885  0.00  0.00    -0.294 N 
ATOM     21  C   LIG d   1       4.732  -2.331  -8.674  0.00  0.00     0.213 C 
ATOM     22  O   LIG d   1       4.922  -2.293  -9.870  0.00  0.00    -0.276 OA
BRANCH  20  23
ATOM     23  C   LIG d   1       5.827  -0.163  -8.484  0.00  0.00     0.073 C 
ATOM     24  H   LIG d   1       6.548   0.259  -7.783  0.00  0.00     0.054 H 
ATOM     25  H   LIG d   1       6.339  -0.452  -9.402  0.00  0.00     0.054 H 
BRANCH  23  26
ATOM     26  C   LIG d   1       4.772   0.865  -8.798  0.00  0.00     0.122 A 
ATOM     27  O   LIG d   1       3.779   1.247  -7.977  0.00  0.00    -0.466 OA
ATOM     28  C   LIG d   1       3.029   2.179  -8.586  0.00  0.00     0.092 A 
ATOM     29  C   LIG d   1       3.540   2.403  -9.810  0.00  0.00    -0.024 A 
ATOM     30  H   LIG d   1       2.163   2.668  -8.164  0.00  0.00     0.103 H 
ATOM     31  C   LIG d   1       4.665   1.559  -9.945  0.00  0.00    -0.019 A 
ATOM     32  H   LIG d   1       3.163   3.097 -10.548  0.00  0.00     0.065 H 
ATOM     33  H   LIG d   1       5.315   1.485 -10.804  0.00  0.00     0.065 H 
ENDBRANCH  23  26
ENDBRANCH  20  23
BRANCH  21  34
ATOM     34  C   LIG d   1       3.975  -3.486  -8.068  0.00  0.00     0.012 C 
ATOM     35  H   LIG d   1       2.929  -3.434  -8.375  0.00  0.00     0.032 H 
ATOM     36  H   LIG d   1       4.408  -4.425  -8.412  0.00  0.00     0.032 H 
ATOM     37  H   LIG d   1       4.038  -3.431  -6.982  0.00  0.00     0.032 H 
ENDBRANCH  21  34
ENDBRANCH  17  20
ENDBRANCH  14  17
ENDBRANCH   4  14
BRANCH   4  38
ATOM     38  C   LIG d   1       5.685  -1.166  -3.497  0.00  0.00     0.001 A 
ATOM     39  C   LIG d   1       6.130   0.147  -3.476  0.00  0.00     0.124 A 
ATOM     40  C   LIG d   1       5.515   1.072  -2.645  0.00  0.00    -0.020 A 
ATOM     41  C   LIG d   1       4.469   0.681  -1.833  0.00  0.00    -0.058 A 
ATOM     42  H   LIG d   1       5.856   2.096  -2.631  0.00  0.00     0.065 H 
ATOM     43  C   LIG d   1       4.030  -0.631  -1.852  0.00  0.00    -0.061 A 
ATOM     44  H   LIG d   1       3.992   1.400  -1.182  0.00  0.00     0.062 H 
ATOM     45  C   LIG d   1       4.638  -1.553  -2.683  0.00  0.00    -0.055 A 
ATOM     46  H   LIG d   1       3.211  -0.935  -1.215  0.00  0.00     0.062 H 
ATOM     47  H   LIG d   1       4.293  -2.576  -2.696  0.00  0.00     0.062 H 
BRANCH  39  48
ATOM     48  O   LIG d   1       7.164   0.529  -4.271  0.00  0.00    -0.495 OA
BRANCH  48  49
ATOM     49  C   LIG d   1       7.934   1.652  -3.840  0.00  0.00     0.079 C 
ATOM     50  H   LIG d   1       7.445   2.572  -4.159  0.00  0.00     0.066 H 
ATOM     51  H   LIG d   1       8.015   1.641  -2.753  0.00  0.00     0.066 H 
ATOM     52  H   LIG d   1       8.930   1.599  -4.278  0.00  0.00     0.066 H 
ENDBRANCH  48  49
ENDBRANCH  39  48
ENDBRANCH   4  38
BRANCH   1  53
ATOM     53  C   LIG d   1       9.741  -3.975  -4.174  0.00  0.00    -0.020 C 
ATOM     54  H   LIG d   1      10.457  -3.178  -4.373  0.00  0.00     0.032 H 
BRANCH  53  55
ATOM     55  C   LIG d   1       9.623  -4.190  -2.663  0.00  0.00    -0.060 C 
ATOM     56  H   LIG d   1      10.190  -5.075  -2.376  0.00  0.00     0.023 H 
ATOM     57  H   LIG d   1      10.019  -3.319  -2.141  0.00  0.00     0.023 H 
ATOM     58  H   LIG d   1       8.575  -4.327  -2.397  0.00  0.00     0.023 H 
ENDBRANCH  53  55
BRANCH  53  59
ATOM     59  C   LIG d   1      10.222  -5.268  -4.836  0.00  0.00    -0.060 C 
ATOM     60  H   LIG d   1      10.375  -5.096  -5.901  0.00  0.00     0.023 H 
ATOM     61  H   LIG d   1      11.160  -5.583  -4.379  0.00  0.00     0.023 H 
ATOM     62  H   LIG d   1       9.471  -6.047  -4.700  0.00  0.00     0.023 H 
ENDBRANCH  53  59
ENDBRANCH   1  53
TORSDOF 12
ENDMDL
MODEL 3
REMARK VINA RESULT:      -5.8      2.134      4.599
REMARK  12 active torsions:
REMARK  status: ('A' for Active; 'I' for Inactive)
REMARK    1  A    between atoms: C_1  and  C_2 
REMARK    2  A    between atoms: C_2  and  C_3 
REMARK    3  A    between atoms: C_2  and  C_4 
REMARK    4  A    between atoms: C_7  and  C_11 
REMARK    5  A    between atoms: C_7  and  C_23 
REMARK    6  A    between atoms: C_11  and  C_12 
REMARK    7  A    between atoms: C_12  and  N_13 
REMARK    8  A    between atoms: N_13  and  C_14 
REMARK       I    between atoms: N_13  and  C_20 
REMARK    9  A    between atoms: C_14  and  C_15 
REMARK   10  A    between atoms: C_20  and  C_22 
REMARK   11  A    between atoms: C_28  and  O_29 
REMARK   12  A    between atoms: O_29  and  C_30 
ROOT
ATOM      1  C   LIG d   1       5.768  -1.046  -3.689  0.00  0.00     0.062 C 
ATOM      2  H   LIG d   1       6.377  -0.150  -3.803  0.00  0.00     0.060 H 
ATOM      3  C   LIG d   1       4.675  -1.060  -4.761  0.00  0.00    -0.017 C 
ATOM      4  C   LIG d   1       5.329  -1.116  -6.144  0.00  0.00     0.005 C 
ATOM      5  C   LIG d   1       6.234  -2.350  -6.220  0.00  0.00    -0.019 C 
ATOM      6  C   LIG d   1       7.266  -2.286  -5.092  0.00  0.00     0.049 C 
ATOM      7  O   LIG d   1       6.591  -2.205  -3.834  0.00  0.00    -0.376 OA
ATOM      8  H   LIG d   1       4.040  -1.935  -4.622  0.00  0.00     0.030 H 
ATOM      9  H   LIG d   1       4.073  -0.155  -4.678  0.00  0.00     0.030 H 
ATOM     10  H   LIG d   1       6.746  -2.368  -7.182  0.00  0.00     0.030 H 
ATOM     11  H   LIG d   1       5.631  -3.252  -6.112  0.00  0.00     0.030 H 
ATOM     12  H   LIG d   1       7.895  -1.407  -5.223  0.00  0.00     0.056 H 
ATOM     13  H   LIG d   1       7.885  -3.184  -5.114  0.00  0.00     0.056 H 
ENDROOT
BRANCH   4  14
ATOM     14  C   LIG d   1       6.165   0.146  -6.369  0.00  0.00    -0.027 C 
ATOM     15  H   LIG d   1       5.507   1.014  -6.410  0.00  0.00     0.029 H 
ATOM     16  H   LIG d   1       6.872   0.265  -5.547  0.00  0.00     0.029 H 
BRANCH  14  17
ATOM     17  C   LIG d   1       6.931   0.022  -7.688  0.00  0.00     0.016 C 
ATOM     18  H   LIG d   1       7.977  -0.205  -7.480  0.00  0.00     0.046 H 
ATOM     19  H   LIG d   1       6.498  -0.778  -8.286  0.00  0.00     0.046 H 
BRANCH  17  20
ATOM     20  N   LIG d   1       6.842   1.285  -8.424  0.00  0.00    -0.294 N 
ATOM     21  C   LIG d   1       7.946   2.032  -8.619  0.00  0.00     0.213 C 
ATOM     22  O   LIG d   1       7.857   3.123  -9.138  0.00  0.00    -0.276 OA
BRANCH  20  23
ATOM     23  C   LIG d   1       5.550   1.738  -8.947  0.00  0.00     0.073 C 
ATOM     24  H   LIG d   1       4.782   1.602  -8.185  0.00  0.00     0.054 H 
ATOM     25  H   LIG d   1       5.616   2.793  -9.213  0.00  0.00     0.054 H 
BRANCH  23  26
ATOM     26  C   LIG d   1       5.193   0.932 -10.169  0.00  0.00     0.122 A 
ATOM     27  O   LIG d   1       5.896  -0.101 -10.662  0.00  0.00    -0.466 OA
ATOM     28  C   LIG d   1       5.283  -0.578 -11.758  0.00  0.00     0.092 A 
ATOM     29  C   LIG d   1       4.174   0.152 -11.975  0.00  0.00    -0.024 A 
ATOM     30  H   LIG d   1       5.622  -1.407 -12.361  0.00  0.00     0.103 H 
ATOM     31  C   LIG d   1       4.113   1.122 -10.949  0.00  0.00    -0.019 A 
ATOM     32  H   LIG d   1       3.464   0.020 -12.779  0.00  0.00     0.065 H 
ATOM     33  H   LIG d   1       3.348   1.872 -10.817  0.00  0.00     0.065 H 
ENDBRANCH  23  26
ENDBRANCH  20  23
BRANCH  21  34
ATOM     34  C   LIG d   1       9.294   1.510  -8.192  0.00  0.00     0.012 C 
ATOM     35  H   LIG d   1       9.971   2.348  -8.025  0.00  0.00     0.032 H 
ATOM     36  H   LIG d   1       9.187   0.940  -7.269  0.00  0.00     0.032 H 
ATOM     37  H   LIG d   1       9.698   0.866  -8.972  0.00  0.00     0.032 H 
ENDBRANCH  21  34
ENDBRANCH  17  20
ENDBRANCH  14  17
ENDBRANCH   4  14
BRANCH   4  38
ATOM     38  C   LIG d   1       4.261  -1.208  -7.204  0.00  0.00     0.001 A 
ATOM     39  C   LIG d   1       3.256  -0.254  -7.261  0.00  0.00     0.124 A 
ATOM     40  C   LIG d   1       2.277  -0.338  -8.240  0.00  0.00    -0.020 A 
ATOM     41  C   LIG d   1       2.299  -1.378  -9.148  0.00  0.00    -0.058 A 
ATOM     42  H   LIG d   1       1.497   0.406  -8.289  0.00  0.00     0.065 H 
ATOM     43  C   LIG d   1       3.299  -2.332  -9.086  0.00  0.00    -0.061 A 
ATOM     44  H   LIG d   1       1.534  -1.447  -9.909  0.00  0.00     0.062 H 
ATOM     45  C   LIG d   1       4.278  -2.246  -8.115  0.00  0.00    -0.055 A 
ATOM     46  H   LIG d   1       3.314  -3.144  -9.798  0.00  0.00     0.062 H 
ATOM     47  H   LIG d   1       5.059  -2.992  -8.069  0.00  0.00     0.062 H 
BRANCH  39  48
ATOM     48  O   LIG d   1       3.233   0.766  -6.362  0.00  0.00    -0.495 OA
BRANCH  48  49
ATOM     49  C   LIG d   1       2.177   0.758  -5.399  0.00  0.00     0.079 C 
ATOM     50  H   LIG d   1       1.254   0.426  -5.875  0.00  0.00     0.066 H 
ATOM     51  H   LIG d   1       2.432   0.079  -4.586  0.00  0.00     0.066 H 
ATOM     52  H   LIG d   1       2.040   1.763  -5.003  0.00  0.00     0.066 H 
ENDBRANCH  48  49
ENDBRANCH  39  48
ENDBRANCH   4  38
BRANCH   1  53
ATOM     53  C   LIG d   1       5.122  -1.051  -2.302  0.00  0.00    -0.020 C 
ATOM     54  H   LIG d   1       5.848  -1.391  -1.563  0.00  0.00     0.032 H 
BRANCH  53  55
ATOM     55  C   LIG d   1       4.659   0.364  -1.948  0.00  0.00    -0.060 C 
ATOM     56  H   LIG d   1       4.319   0.871  -2.851  0.00  0.00     0.023 H 
ATOM     57  H   LIG d   1       3.839   0.310  -1.232  0.00  0.00     0.023 H 
ATOM     58  H   LIG d   1       5.489   0.918  -1.510  0.00  0.00     0.023 H 
ENDBRANCH  53  55
BRANCH  53  59
ATOM     59  C   LIG d   1       3.918  -1.996  -2.303  0.00  0.00    -0.060 C 
ATOM     60  H   LIG d   1       2.998  -1.412  -2.328  0.00  0.00     0.023 H 
ATOM     61  H   LIG d   1       3.963  -2.641  -3.181  0.00  0.00     0.023 H 
ATOM     62  H   LIG d   1       3.935  -2.608  -1.401  0.00  0.00     0.023 H 
ENDBRANCH  53  59
ENDBRANCH   1  53
TORSDOF 12
ENDMDL
MODEL 4
REMARK VINA RESULT:      -5.6      1.779      4.777
REMARK  12 active torsions:
REMARK  status: ('A' for Active; 'I' for Inactive)
REMARK    1  A    between atoms: C_1  and  C_2 
REMARK    2  A    between atoms: C_2  and  C_3 
REMARK    3  A    between atoms: C_2  and  C_4 
REMARK    4  A    between atoms: C_7  and  C_11 
REMARK    5  A    between atoms: C_7  and  C_23 
REMARK    6  A    between atoms: C_11  and  C_12 
REMARK    7  A    between atoms: C_12  and  N_13 
REMARK    8  A    between atoms: N_13  and  C_14 
REMARK       I    between atoms: N_13  and  C_20 
REMARK    9  A    between atoms: C_14  and  C_15 
REMARK   10  A    between atoms: C_20  and  C_22 
REMARK   11  A    between atoms: C_28  and  O_29 
REMARK   12  A    between atoms: O_29  and  C_30 
ROOT
ATOM      1  C   LIG d   1       5.712   0.674  -3.268  0.00  0.00     0.062 C 
ATOM      2  H   LIG d   1       5.165   1.061  -4.127  0.00  0.00     0.060 H 
ATOM      3  C   LIG d   1       6.247  -0.724  -3.590  0.00  0.00    -0.017 C 
ATOM      4  C   LIG d   1       7.227  -0.629  -4.762  0.00  0.00     0.005 C 
ATOM      5  C   LIG d   1       8.347   0.351  -4.399  0.00  0.00    -0.019 C 
ATOM      6  C   LIG d   1       7.732   1.707  -4.046  0.00  0.00     0.049 C 
ATOM      7  O   LIG d   1       6.807   1.543  -2.968  0.00  0.00    -0.376 OA
ATOM      8  H   LIG d   1       6.759  -1.128  -2.717  0.00  0.00     0.030 H 
ATOM      9  H   LIG d   1       5.416  -1.377  -3.861  0.00  0.00     0.030 H 
ATOM     10  H   LIG d   1       9.020   0.466  -5.249  0.00  0.00     0.030 H 
ATOM     11  H   LIG d   1       8.903  -0.031  -3.543  0.00  0.00     0.030 H 
ATOM     12  H   LIG d   1       7.210   2.108  -4.914  0.00  0.00     0.056 H 
ATOM     13  H   LIG d   1       8.521   2.397  -3.744  0.00  0.00     0.056 H 
ENDROOT
BRANCH   4  14
ATOM     14  C   LIG d   1       6.493  -0.129  -6.008  0.00  0.00    -0.027 C 
ATOM     15  H   LIG d   1       6.206   0.913  -5.866  0.00  0.00     0.029 H 
ATOM     16  H   LIG d   1       7.151  -0.208  -6.874  0.00  0.00     0.029 H 
BRANCH  14  17
ATOM     17  C   LIG d   1       5.242  -0.978  -6.239  0.00  0.00     0.016 C 
ATOM     18  H   LIG d   1       5.196  -1.769  -5.490  0.00  0.00     0.046 H 
ATOM     19  H   LIG d   1       4.356  -0.349  -6.157  0.00  0.00     0.046 H 
BRANCH  17  20
ATOM     20  N   LIG d   1       5.295  -1.573  -7.576  0.00  0.00    -0.294 N 
ATOM     21  C   LIG d   1       5.152  -2.904  -7.728  0.00  0.00     0.213 C 
ATOM     22  O   LIG d   1       5.297  -3.409  -8.821  0.00  0.00    -0.276 OA
BRANCH  20  23
ATOM     23  C   LIG d   1       5.507  -0.721  -8.749  0.00  0.00     0.073 C 
ATOM     24  H   LIG d   1       6.469  -0.214  -8.661  0.00  0.00     0.054 H 
ATOM     25  H   LIG d   1       5.502  -1.335  -9.650  0.00  0.00     0.054 H 
BRANCH  23  26
ATOM     26  C   LIG d   1       4.406   0.304  -8.831  0.00  0.00     0.122 A 
ATOM     27  O   LIG d   1       4.521   1.607  -8.522  0.00  0.00    -0.466 OA
ATOM     28  C   LIG d   1       3.341   2.218  -8.714  0.00  0.00     0.092 A 
ATOM     29  C   LIG d   1       2.456   1.305  -9.151  0.00  0.00    -0.024 A 
ATOM     30  H   LIG d   1       3.138   3.265  -8.547  0.00  0.00     0.103 H 
ATOM     31  C   LIG d   1       3.143   0.072  -9.231  0.00  0.00    -0.019 A 
ATOM     32  H   LIG d   1       1.418   1.480  -9.397  0.00  0.00     0.065 H 
ATOM     33  H   LIG d   1       2.733  -0.874  -9.550  0.00  0.00     0.065 H 
ENDBRANCH  23  26
ENDBRANCH  20  23
BRANCH  21  34
ATOM     34  C   LIG d   1       4.810  -3.766  -6.540  0.00  0.00     0.012 C 
ATOM     35  H   LIG d   1       4.213  -4.618  -6.870  0.00  0.00     0.032 H 
ATOM     36  H   LIG d   1       5.728  -4.125  -6.075  0.00  0.00     0.032 H 
ATOM     37  H   LIG d   1       4.241  -3.181  -5.818  0.00  0.00     0.032 H 
ENDBRANCH  21  34
ENDBRANCH  17  20
ENDBRANCH  14  17
ENDBRANCH   4  14
BRANCH   4  38
ATOM     38  C   LIG d   1       7.817  -1.989  -5.037  0.00  0.00     0.001 A 
ATOM     39  C   LIG d   1       8.600  -2.191  -6.164  0.00  0.00     0.124 A 
ATOM     40  C   LIG d   1       9.145  -3.442  -6.412  0.00  0.00    -0.020 A 
ATOM     41  C   LIG d   1       8.899  -4.486  -5.543  0.00  0.00    -0.058 A 
ATOM     42  H   LIG d   1       9.759  -3.600  -7.286  0.00  0.00     0.065 H 
ATOM     43  C   LIG d   1       8.113  -4.284  -4.422  0.00  0.00    -0.061 A 
ATOM     44  H   LIG d   1       9.320  -5.462  -5.737  0.00  0.00     0.062 H 
ATOM     45  C   LIG d   1       7.573  -3.036  -4.170  0.00  0.00    -0.055 A 
ATOM     46  H   LIG d   1       7.922  -5.102  -3.743  0.00  0.00     0.062 H 
ATOM     47  H   LIG d   1       6.961  -2.881  -3.294  0.00  0.00     0.062 H 
BRANCH  39  48
ATOM     48  O   LIG d   1       8.836  -1.164  -7.022  0.00  0.00    -0.495 OA
BRANCH  48  49
ATOM     49  C   LIG d   1       9.161  -1.506  -8.371  0.00  0.00     0.079 C 
ATOM     50  H   LIG d   1      10.209  -1.276  -8.562  0.00  0.00     0.066 H 
ATOM     51  H   LIG d   1       8.988  -2.571  -8.527  0.00  0.00     0.066 H 
ATOM     52  H   LIG d   1       8.534  -0.932  -9.053  0.00  0.00     0.066 H 
ENDBRANCH  48  49
ENDBRANCH  39  48
ENDBRANCH   4  38
BRANCH   1  53
ATOM     53  C   LIG d   1       4.778   0.597  -2.059  0.00  0.00    -0.020 C 
ATOM     54  H   LIG d   1       5.279   1.011  -1.184  0.00  0.00     0.032 H 
BRANCH  53  55
ATOM     55  C   LIG d   1       3.506   1.398  -2.345  0.00  0.00    -0.060 C 
ATOM     56  H   LIG d   1       3.429   1.589  -3.416  0.00  0.00     0.023 H 
ATOM     57  H   LIG d   1       2.636   0.831  -2.014  0.00  0.00     0.023 H 
ATOM     58  H   LIG d   1       3.547   2.347  -1.809  0.00  0.00     0.023 H 
ENDBRANCH  53  55
BRANCH  53  59
ATOM     59  C   LIG d   1       4.410  -0.863  -1.791  0.00  0.00    -0.060 C 
ATOM     60  H   LIG d   1       3.503  -1.117  -2.341  0.00  0.00     0.023 H 
ATOM     61  H   LIG d   1       5.226  -1.509  -2.116  0.00  0.00     0.023 H 
ATOM     62  H   LIG d   1       4.237  -1.004  -0.723  0.00  0.00     0.023 H 
ENDBRANCH  53  59
ENDBRANCH   1  53
TORSDOF 12
ENDMDL
MODEL 5
REMARK VINA RESULT:      -5.5      1.830      4.993
REMARK  12 active torsions:
REMARK  status: ('A' for Active; 'I' for Inactive)
REMARK    1  A    between atoms: C_1  and  C_2 
REMARK    2  A    between atoms: C_2  and  C_3 
REMARK    3  A    between atoms: C_2  and  C_4 
REMARK    4  A    between atoms: C_7  and  C_11 
REMARK    5  A    between atoms: C_7  and  C_23 
REMARK    6  A    between atoms: C_11  and  C_12 
REMARK    7  A    between atoms: C_12  and  N_13 
REMARK    8  A    between atoms: N_13  and  C_14 
REMARK       I    between atoms: N_13  and  C_20 
REMARK    9  A    between atoms: C_14  and  C_15 
REMARK   10  A    between atoms: C_20  and  C_22 
REMARK   11  A    between atoms: C_28  and  O_29 
REMARK   12  A    between atoms: O_29  and  C_30 
ROOT
ATOM      1  C   LIG d   1       4.674  -0.244  -4.120  0.00  0.00     0.062 C 
ATOM      2  H   LIG d   1       4.999   0.344  -4.978  0.00  0.00     0.060 H 
ATOM      3  C   LIG d   1       4.606  -1.723  -4.510  0.00  0.00    -0.017 C 
ATOM      4  C   LIG d   1       6.006  -2.204  -4.901  0.00  0.00     0.005 C 
ATOM      5  C   LIG d   1       6.965  -1.955  -3.732  0.00  0.00    -0.019 C 
ATOM      6  C   LIG d   1       6.942  -0.468  -3.372  0.00  0.00     0.049 C 
ATOM      7  O   LIG d   1       5.606  -0.078  -3.048  0.00  0.00    -0.376 OA
ATOM      8  H   LIG d   1       4.243  -2.306  -3.664  0.00  0.00     0.030 H 
ATOM      9  H   LIG d   1       3.929  -1.844  -5.356  0.00  0.00     0.030 H 
ATOM     10  H   LIG d   1       7.975  -2.244  -4.022  0.00  0.00     0.030 H 
ATOM     11  H   LIG d   1       6.651  -2.543  -2.870  0.00  0.00     0.030 H 
ATOM     12  H   LIG d   1       7.296   0.118  -4.220  0.00  0.00     0.056 H 
ATOM     13  H   LIG d   1       7.590  -0.291  -2.513  0.00  0.00     0.056 H 
ENDROOT
BRANCH   4  14
ATOM     14  C   LIG d   1       6.490  -1.435  -6.132  0.00  0.00    -0.027 C 
ATOM     15  H   LIG d   1       6.694  -0.400  -5.856  0.00  0.00     0.029 H 
ATOM     16  H   LIG d   1       7.402  -1.895  -6.513  0.00  0.00     0.029 H 
BRANCH  14  17
ATOM     17  C   LIG d   1       5.409  -1.472  -7.214  0.00  0.00     0.016 C 
ATOM     18  H   LIG d   1       4.842  -2.399  -7.130  0.00  0.00     0.046 H 
ATOM     19  H   LIG d   1       4.738  -0.623  -7.087  0.00  0.00     0.046 H 
BRANCH  17  20
ATOM     20  N   LIG d   1       6.039  -1.402  -8.535  0.00  0.00    -0.294 N 
ATOM     21  C   LIG d   1       6.096  -2.500  -9.313  0.00  0.00     0.213 C 
ATOM     22  O   LIG d   1       6.705  -2.469 -10.361  0.00  0.00    -0.276 OA
BRANCH  20  23
ATOM     23  C   LIG d   1       6.608  -0.137  -9.009  0.00  0.00     0.073 C 
ATOM     24  H   LIG d   1       7.232   0.296  -8.226  0.00  0.00     0.054 H 
ATOM     25  H   LIG d   1       7.215  -0.322  -9.895  0.00  0.00     0.054 H 
BRANCH  23  26
ATOM     26  C   LIG d   1       5.495   0.818  -9.350  0.00  0.00     0.122 A 
ATOM     27  O   LIG d   1       5.095   1.859  -8.600  0.00  0.00    -0.466 OA
ATOM     28  C   LIG d   1       4.080   2.489  -9.213  0.00  0.00     0.092 A 
ATOM     29  C   LIG d   1       3.821   1.852 -10.370  0.00  0.00    -0.024 A 
ATOM     30  H   LIG d   1       3.561   3.360  -8.842  0.00  0.00     0.103 H 
ATOM     31  C   LIG d   1       4.736   0.778 -10.460  0.00  0.00    -0.019 A 
ATOM     32  H   LIG d   1       3.062   2.113 -11.092  0.00  0.00     0.065 H 
ATOM     33  H   LIG d   1       4.810   0.062 -11.265  0.00  0.00     0.065 H 
ENDBRANCH  23  26
ENDBRANCH  20  23
BRANCH  21  34
ATOM     34  C   LIG d   1       5.403  -3.767  -8.882  0.00  0.00     0.012 C 
ATOM     35  H   LIG d   1       4.592  -3.990  -9.577  0.00  0.00     0.032 H 
ATOM     36  H   LIG d   1       6.118  -4.590  -8.882  0.00  0.00     0.032 H 
ATOM     37  H   LIG d   1       4.998  -3.636  -7.879  0.00  0.00     0.032 H 
ENDBRANCH  21  34
ENDBRANCH  17  20
ENDBRANCH  14  17
ENDBRANCH   4  14
BRANCH   4  38
ATOM     38  C   LIG d   1       5.964  -3.678  -5.213  0.00  0.00     0.001 A 
ATOM     39  C   LIG d   1       7.130  -4.351  -5.547  0.00  0.00     0.124 A 
ATOM     40  C   LIG d   1       7.088  -5.708  -5.829  0.00  0.00    -0.020 A 
ATOM     41  C   LIG d   1       5.885  -6.384  -5.787  0.00  0.00    -0.058 A 
ATOM     42  H   LIG d   1       7.996  -6.235  -6.084  0.00  0.00     0.065 H 
ATOM     43  C   LIG d   1       4.722  -5.710  -5.458  0.00  0.00    -0.061 A 
ATOM     44  H   LIG d   1       5.851  -7.441  -6.010  0.00  0.00     0.062 H 
ATOM     45  C   LIG d   1       4.762  -4.359  -5.172  0.00  0.00    -0.055 A 
ATOM     46  H   LIG d   1       3.782  -6.242  -5.426  0.00  0.00     0.062 H 
ATOM     47  H   LIG d   1       3.853  -3.835  -4.915  0.00  0.00     0.062 H 
BRANCH  39  48
ATOM     48  O   LIG d   1       8.312  -3.682  -5.594  0.00  0.00    -0.495 OA
BRANCH  48  49
ATOM     49  C   LIG d   1       9.477  -4.394  -5.174  0.00  0.00     0.079 C 
ATOM     50  H   LIG d   1       9.927  -4.894  -6.033  0.00  0.00     0.066 H 
ATOM     51  H   LIG d   1      10.195  -3.695  -4.744  0.00  0.00     0.066 H 
ATOM     52  H   LIG d   1       9.200  -5.136  -4.426  0.00  0.00     0.066 H 
ENDBRANCH  48  49
ENDBRANCH  39  48
ENDBRANCH   4  38
BRANCH   1  53
ATOM     53  C   LIG d   1       3.291   0.230  -3.670  0.00  0.00    -0.020 C 
ATOM     54  H   LIG d   1       3.393   1.129  -3.062  0.00  0.00     0.032 H 
BRANCH  53  55
ATOM     55  C   LIG d   1       2.432   0.539  -4.898  0.00  0.00    -0.060 C 
ATOM     56  H   LIG d   1       1.440   0.854  -4.578  0.00  0.00     0.023 H 
ATOM     57  H   LIG d   1       2.898   1.337  -5.476  0.00  0.00     0.023 H 
ATOM     58  H   LIG d   1       2.349  -0.356  -5.516  0.00  0.00     0.023 H 
ENDBRANCH  53  55
BRANCH  53  59
ATOM     59  C   LIG d   1       2.621  -0.869  -2.842  0.00  0.00    -0.060 C 
ATOM     60  H   LIG d   1       3.259  -1.752  -2.825  0.00  0.00     0.023 H 
ATOM     61  H   LIG d   1       2.465  -0.513  -1.824  0.00  0.00     0.023 H 
ATOM     62  H   LIG d   1       1.659  -1.125  -3.289  0.00  0.00     0.023 H 
ENDBRANCH  53  59
ENDBRANCH   1  53
TORSDOF 12
ENDMDL
MODEL 6
REMARK VINA RESULT:      -5.5      1.629      4.419
REMARK  12 active torsions:
REMARK  status: ('A' for Active; 'I' for Inactive)
REMARK    1  A    between atoms: C_1  and  C_2 
REMARK    2  A    between atoms: C_2  and  C_3 
REMARK    3  A    between atoms: C_2  and  C_4 
REMARK    4  A    between atoms: C_7  and  C_11 
REMARK    5  A    between atoms: C_7  and  C_23 
REMARK    6  A    between atoms: C_11  and  C_12 
REMARK    7  A    between atoms: C_12  and  N_13 
REMARK    8  A    between atoms: N_13  and  C_14 
REMARK       I    between atoms: N_13  and  C_20 
REMARK    9  A    between atoms: C_14  and  C_15 
REMARK   10  A    between atoms: C_20  and  C_22 
REMARK   11  A    between atoms: C_28  and  O_29 
REMARK   12  A    between atoms: O_29  and  C_30 
ROOT
ATOM      1  C   LIG d   1       5.634  -1.391  -3.477  0.00  0.00     0.062 C 
ATOM      2  H   LIG d   1       5.387  -0.570  -4.150  0.00  0.00     0.060 H 
ATOM      3  C   LIG d   1       5.266  -2.722  -4.137  0.00  0.00    -0.017 C 
ATOM      4  C   LIG d   1       6.099  -2.898  -5.410  0.00  0.00     0.005 C 
ATOM      5  C   LIG d   1       7.586  -2.820  -5.049  0.00  0.00    -0.019 C 
ATOM      6  C   LIG d   1       7.864  -1.485  -4.354  0.00  0.00     0.049 C 
ATOM      7  O   LIG d   1       7.035  -1.371  -3.194  0.00  0.00    -0.376 OA
ATOM      8  H   LIG d   1       5.475  -3.541  -3.449  0.00  0.00     0.030 H 
ATOM      9  H   LIG d   1       4.206  -2.720  -4.393  0.00  0.00     0.030 H 
ATOM     10  H   LIG d   1       8.185  -2.889  -5.957  0.00  0.00     0.030 H 
ATOM     11  H   LIG d   1       7.843  -3.640  -4.379  0.00  0.00     0.030 H 
ATOM     12  H   LIG d   1       7.646  -0.665  -5.038  0.00  0.00     0.056 H 
ATOM     13  H   LIG d   1       8.912  -1.442  -4.055  0.00  0.00     0.056 H 
ENDROOT
BRANCH   4  14
ATOM     14  C   LIG d   1       5.756  -1.789  -6.407  0.00  0.00    -0.027 C 
ATOM     15  H   LIG d   1       6.099  -0.831  -6.017  0.00  0.00     0.029 H 
ATOM     16  H   LIG d   1       6.249  -1.991  -7.359  0.00  0.00     0.029 H 
BRANCH  14  17
ATOM     17  C   LIG d   1       4.241  -1.743  -6.617  0.00  0.00     0.016 C 
ATOM     18  H   LIG d   1       3.928  -2.606  -7.205  0.00  0.00     0.046 H 
ATOM     19  H   LIG d   1       3.739  -1.760  -5.650  0.00  0.00     0.046 H 
BRANCH  17  20
ATOM     20  N   LIG d   1       3.884  -0.513  -7.329  0.00  0.00    -0.294 N 
ATOM     21  C   LIG d   1       3.165   0.441  -6.707  0.00  0.00     0.213 C 
ATOM     22  O   LIG d   1       2.783   1.412  -7.325  0.00  0.00    -0.276 OA
BRANCH  20  23
ATOM     23  C   LIG d   1       4.309  -0.322  -8.718  0.00  0.00     0.073 C 
ATOM     24  H   LIG d   1       4.527   0.733  -8.890  0.00  0.00     0.054 H 
ATOM     25  H   LIG d   1       5.206  -0.912  -8.908  0.00  0.00     0.054 H 
BRANCH  23  26
ATOM     26  C   LIG d   1       3.209  -0.765  -9.646  0.00  0.00     0.122 A 
ATOM     27  O   LIG d   1       2.320  -1.742  -9.400  0.00  0.00    -0.466 OA
ATOM     28  C   LIG d   1       1.487  -1.863 -10.447  0.00  0.00     0.092 A 
ATOM     29  C   LIG d   1       1.839  -0.957 -11.377  0.00  0.00    -0.024 A 
ATOM     30  H   LIG d   1       0.673  -2.567 -10.528  0.00  0.00     0.103 H 
ATOM     31  C   LIG d   1       2.945  -0.246 -10.859  0.00  0.00    -0.019 A 
ATOM     32  H   LIG d   1       1.364  -0.800 -12.335  0.00  0.00     0.065 H 
ATOM     33  H   LIG d   1       3.478   0.558 -11.344  0.00  0.00     0.065 H 
ENDBRANCH  23  26
ENDBRANCH  20  23
BRANCH  21  34
ATOM     34  C   LIG d   1       2.834   0.303  -5.243  0.00  0.00     0.012 C 
ATOM     35  H   LIG d   1       3.699   0.595  -4.647  0.00  0.00     0.032 H 
ATOM     36  H   LIG d   1       1.990   0.948  -4.999  0.00  0.00     0.032 H 
ATOM     37  H   LIG d   1       2.575  -0.733  -5.026  0.00  0.00     0.032 H 
ENDBRANCH  21  34
ENDBRANCH  17  20
ENDBRANCH  14  17
ENDBRANCH   4  14
BRANCH   4  38
ATOM     38  C   LIG d   1       5.800  -4.241  -6.027  0.00  0.00     0.001 A 
ATOM     39  C   LIG d   1       6.427  -4.618  -7.205  0.00  0.00     0.124 A 
ATOM     40  C   LIG d   1       6.153  -5.856  -7.768  0.00  0.00    -0.020 A 
ATOM     41  C   LIG d   1       5.250  -6.705  -7.159  0.00  0.00    -0.058 A 
ATOM     42  H   LIG d   1       6.644  -6.154  -8.682  0.00  0.00     0.065 H 
ATOM     43  C   LIG d   1       4.622  -6.324  -5.987  0.00  0.00    -0.061 A 
ATOM     44  H   LIG d   1       5.033  -7.668  -7.599  0.00  0.00     0.062 H 
ATOM     45  C   LIG d   1       4.897  -5.093  -5.422  0.00  0.00    -0.055 A 
ATOM     46  H   LIG d   1       3.915  -6.990  -5.513  0.00  0.00     0.062 H 
ATOM     47  H   LIG d   1       4.406  -4.799  -4.506  0.00  0.00     0.062 H 
BRANCH  39  48
ATOM     48  O   LIG d   1       7.311  -3.778  -7.806  0.00  0.00    -0.495 OA
BRANCH  48  49
ATOM     49  C   LIG d   1       7.320  -3.758  -9.234  0.00  0.00     0.079 C 
ATOM     50  H   LIG d   1       7.177  -2.736  -9.584  0.00  0.00     0.066 H 
ATOM     51  H   LIG d   1       8.275  -4.137  -9.597  0.00  0.00     0.066 H 
ATOM     52  H   LIG d   1       6.514  -4.387  -9.611  0.00  0.00     0.066 H 
ENDBRANCH  48  49
ENDBRANCH  39  48
ENDBRANCH   4  38
BRANCH   1  53
ATOM     53  C   LIG d   1       4.850  -1.234  -2.172  0.00  0.00    -0.020 C 
ATOM     54  H   LIG d   1       5.441  -1.624  -1.343  0.00  0.00     0.032 H 
BRANCH  53  55
ATOM     55  C   LIG d   1       4.548   0.246  -1.932  0.00  0.00    -0.060 C 
ATOM     56  H   LIG d   1       5.283   0.660  -1.241  0.00  0.00     0.023 H 
ATOM     57  H   LIG d   1       4.596   0.785  -2.878  0.00  0.00     0.023 H 
ATOM     58  H   LIG d   1       3.550   0.348  -1.505  0.00  0.00     0.023 H 
ENDBRANCH  53  55
BRANCH  53  59
ATOM     59  C   LIG d   1       3.536  -2.013  -2.270  0.00  0.00    -0.060 C 
ATOM     60  H   LIG d   1       2.888  -1.739  -1.437  0.00  0.00     0.023 H 
ATOM     61  H   LIG d   1       3.041  -1.772  -3.211  0.00  0.00     0.023 H 
ATOM     62  H   LIG d   1       3.744  -3.082  -2.231  0.00  0.00     0.023 H 
ENDBRANCH  53  59
ENDBRANCH   1  53
TORSDOF 12
ENDMDL
MODEL 7
REMARK VINA RESULT:      -5.5      2.196      5.052
REMARK  12 active torsions:
REMARK  status: ('A' for Active; 'I' for Inactive)
REMARK    1  A    between atoms: C_1  and  C_2 
REMARK    2  A    between atoms: C_2  and  C_3 
REMARK    3  A    between atoms: C_2  and  C_4 
REMARK    4  A    between atoms: C_7  and  C_11 
REMARK    5  A    between atoms: C_7  and  C_23 
REMARK    6  A    between atoms: C_11  and  C_12 
REMARK    7  A    between atoms: C_12  and  N_13 
REMARK    8  A    between atoms: N_13  and  C_14 
REMARK       I    between atoms: N_13  and  C_20 
REMARK    9  A    between atoms: C_14  and  C_15 
REMARK   10  A    between atoms: C_20  and  C_22 
REMARK   11  A    between atoms: C_28  and  O_29 
REMARK   12  A    between atoms: O_29  and  C_30 
ROOT
ATOM      1  C   LIG d   1       4.453   0.299  -8.424  0.00  0.00     0.062 C 
ATOM      2  H   LIG d   1       4.720  -0.620  -8.946  0.00  0.00     0.060 H 
ATOM      3  C   LIG d   1       3.998  -0.036  -7.001  0.00  0.00    -0.017 C 
ATOM      4  C   LIG d   1       5.159  -0.683  -6.241  0.00  0.00     0.005 C 
ATOM      5  C   LIG d   1       6.360   0.269  -6.258  0.00  0.00    -0.019 C 
ATOM      6  C   LIG d   1       6.724   0.592  -7.709  0.00  0.00     0.049 C 
ATOM      7  O   LIG d   1       5.591   1.163  -8.367  0.00  0.00    -0.376 OA
ATOM      8  H   LIG d   1       3.693   0.878  -6.491  0.00  0.00     0.030 H 
ATOM      9  H   LIG d   1       3.158  -0.730  -7.042  0.00  0.00     0.030 H 
ATOM     10  H   LIG d   1       7.208  -0.206  -5.766  0.00  0.00     0.030 H 
ATOM     11  H   LIG d   1       6.103   1.189  -5.733  0.00  0.00     0.030 H 
ATOM     12  H   LIG d   1       7.020  -0.322  -8.222  0.00  0.00     0.056 H 
ATOM     13  H   LIG d   1       7.550   1.304  -7.726  0.00  0.00     0.056 H 
ENDROOT
BRANCH   4  14
ATOM     14  C   LIG d   1       5.543  -2.002  -6.914  0.00  0.00    -0.027 C 
ATOM     15  H   LIG d   1       5.727  -1.828  -7.975  0.00  0.00     0.029 H 
ATOM     16  H   LIG d   1       6.447  -2.398  -6.450  0.00  0.00     0.029 H 
BRANCH  14  17
ATOM     17  C   LIG d   1       4.403  -3.010  -6.751  0.00  0.00     0.016 C 
ATOM     18  H   LIG d   1       4.432  -3.431  -5.746  0.00  0.00     0.046 H 
ATOM     19  H   LIG d   1       3.450  -2.507  -6.907  0.00  0.00     0.046 H 
BRANCH  17  20
ATOM     20  N   LIG d   1       4.557  -4.083  -7.736  0.00  0.00    -0.294 N 
ATOM     21  C   LIG d   1       4.669  -5.362  -7.327  0.00  0.00     0.213 C 
ATOM     22  O   LIG d   1       4.897  -6.239  -8.133  0.00  0.00    -0.276 OA
BRANCH  20  23
ATOM     23  C   LIG d   1       4.589  -3.766  -9.166  0.00  0.00     0.073 C 
ATOM     24  H   LIG d   1       5.112  -2.821  -9.316  0.00  0.00     0.054 H 
ATOM     25  H   LIG d   1       5.111  -4.559  -9.702  0.00  0.00     0.054 H 
BRANCH  23  26
ATOM     26  C   LIG d   1       3.180  -3.649  -9.687  0.00  0.00     0.122 A 
ATOM     27  O   LIG d   1       2.400  -4.670 -10.077  0.00  0.00    -0.466 OA
ATOM     28  C   LIG d   1       1.211  -4.196 -10.482  0.00  0.00     0.092 A 
ATOM     29  C   LIG d   1       1.221  -2.857 -10.353  0.00  0.00    -0.024 A 
ATOM     30  H   LIG d   1       0.385  -4.788 -10.848  0.00  0.00     0.103 H 
ATOM     31  C   LIG d   1       2.489  -2.504  -9.837  0.00  0.00    -0.019 A 
ATOM     32  H   LIG d   1       0.415  -2.180 -10.595  0.00  0.00     0.065 H 
ATOM     33  H   LIG d   1       2.837  -1.508  -9.607  0.00  0.00     0.065 H 
ENDBRANCH  23  26
ENDBRANCH  20  23
BRANCH  21  34
ATOM     34  C   LIG d   1       4.511  -5.704  -5.868  0.00  0.00     0.012 C 
ATOM     35  H   LIG d   1       4.484  -6.788  -5.750  0.00  0.00     0.032 H 
ATOM     36  H   LIG d   1       5.353  -5.299  -5.307  0.00  0.00     0.032 H 
ATOM     37  H   LIG d   1       3.583  -5.274  -5.492  0.00  0.00     0.032 H 
ENDBRANCH  21  34
ENDBRANCH  17  20
ENDBRANCH  14  17
ENDBRANCH   4  14
BRANCH   4  38
ATOM     38  C   LIG d   1       4.745  -0.947  -4.816  0.00  0.00     0.001 A 
ATOM     39  C   LIG d   1       5.667  -1.440  -3.905  0.00  0.00     0.124 A 
ATOM     40  C   LIG d   1       5.284  -1.678  -2.593  0.00  0.00    -0.020 A 
ATOM     41  C   LIG d   1       3.983  -1.432  -2.200  0.00  0.00    -0.058 A 
ATOM     42  H   LIG d   1       6.001  -2.057  -1.881  0.00  0.00     0.065 H 
ATOM     43  C   LIG d   1       3.063  -0.945  -3.112  0.00  0.00    -0.061 A 
ATOM     44  H   LIG d   1       3.682  -1.621  -1.179  0.00  0.00     0.062 H 
ATOM     45  C   LIG d   1       3.445  -0.703  -4.418  0.00  0.00    -0.055 A 
ATOM     46  H   LIG d   1       2.046  -0.754  -2.802  0.00  0.00     0.062 H 
ATOM     47  H   LIG d   1       2.725  -0.322  -5.128  0.00  0.00     0.062 H 
BRANCH  39  48
ATOM     48  O   LIG d   1       6.945  -1.687  -4.296  0.00  0.00    -0.495 OA
BRANCH  48  49
ATOM     49  C   LIG d   1       7.539  -2.905  -3.842  0.00  0.00     0.079 C 
ATOM     50  H   LIG d   1       7.914  -3.467  -4.698  0.00  0.00     0.066 H 
ATOM     51  H   LIG d   1       8.363  -2.678  -3.167  0.00  0.00     0.066 H 
ATOM     52  H   LIG d   1       6.792  -3.499  -3.317  0.00  0.00     0.066 H 
ENDBRANCH  48  49
ENDBRANCH  39  48
ENDBRANCH   4  38
BRANCH   1  53
ATOM     53  C   LIG d   1       3.318   1.001  -9.172  0.00  0.00    -0.020 C 
ATOM     54  H   LIG d   1       2.495   0.302  -9.323  0.00  0.00     0.032 H 
BRANCH  53  55
ATOM     55  C   LIG d   1       2.828   2.196  -8.351  0.00  0.00    -0.060 C 
ATOM     56  H   LIG d   1       3.682   2.703  -7.902  0.00  0.00     0.023 H 
ATOM     57  H   LIG d   1       2.295   2.889  -9.001  0.00  0.00     0.023 H 
ATOM     58  H   LIG d   1       2.159   1.845  -7.565  0.00  0.00     0.023 H 
ENDBRANCH  53  55
BRANCH  53  59
ATOM     59  C   LIG d   1       3.827   1.489 -10.529  0.00  0.00    -0.060 C 
ATOM     60  H   LIG d   1       3.988   0.634 -11.186  0.00  0.00     0.023 H 
ATOM     61  H   LIG d   1       3.090   2.157 -10.975  0.00  0.00     0.023 H 
ATOM     62  H   LIG d   1       4.768   2.024 -10.393  0.00  0.00     0.023 H 
ENDBRANCH  53  59
ENDBRANCH   1  53
TORSDOF 12
ENDMDL
MODEL 8
REMARK VINA RESULT:      -5.3      2.146      5.861
REMARK  12 active torsions:
REMARK  status: ('A' for Active; 'I' for Inactive)
REMARK    1  A    between atoms: C_1  and  C_2 
REMARK    2  A    between atoms: C_2  and  C_3 
REMARK    3  A    between atoms: C_2  and  C_4 
REMARK    4  A    between atoms: C_7  and  C_11 
REMARK    5  A    between atoms: C_7  and  C_23 
REMARK    6  A    between atoms: C_11  and  C_12 
REMARK    7  A    between atoms: C_12  and  N_13 
REMARK    8  A    between atoms: N_13  and  C_14 
REMARK       I    between atoms: N_13  and  C_20 
REMARK    9  A    between atoms: C_14  and  C_15 
REMARK   10  A    between atoms: C_20  and  C_22 
REMARK   11  A    between atoms: C_28  and  O_29 
REMARK   12  A    between atoms: O_29  and  C_30 
ROOT
ATOM      1  C   LIG d   1       5.022  -0.798  -3.773  0.00  0.00     0.062 C 
ATOM      2  H   LIG d   1       5.722   0.023  -3.926  0.00  0.00     0.060 H 
ATOM      3  C   LIG d   1       4.088  -0.904  -4.981  0.00  0.00    -0.017 C 
ATOM      4  C   LIG d   1       4.915  -1.224  -6.230  0.00  0.00     0.005 C 
ATOM      5  C   LIG d   1       5.704  -2.516  -5.989  0.00  0.00    -0.019 C 
ATOM      6  C   LIG d   1       6.575  -2.347  -4.742  0.00  0.00     0.049 C 
ATOM      7  O   LIG d   1       5.747  -2.021  -3.624  0.00  0.00    -0.376 OA
ATOM      8  H   LIG d   1       3.362  -1.699  -4.812  0.00  0.00     0.030 H 
ATOM      9  H   LIG d   1       3.567   0.043  -5.122  0.00  0.00     0.030 H 
ATOM     10  H   LIG d   1       6.337  -2.722  -6.852  0.00  0.00     0.030 H 
ATOM     11  H   LIG d   1       5.011  -3.344  -5.840  0.00  0.00     0.030 H 
ATOM     12  H   LIG d   1       7.295  -1.546  -4.907  0.00  0.00     0.056 H 
ATOM     13  H   LIG d   1       7.106  -3.278  -4.541  0.00  0.00     0.056 H 
ENDROOT
BRANCH   4  14
ATOM     14  C   LIG d   1       5.887  -0.076  -6.511  0.00  0.00    -0.027 C 
ATOM     15  H   LIG d   1       5.324   0.828  -6.739  0.00  0.00     0.029 H 
ATOM     16  H   LIG d   1       6.510   0.096  -5.632  0.00  0.00     0.029 H 
BRANCH  14  17
ATOM     17  C   LIG d   1       6.775  -0.440  -7.702  0.00  0.00     0.016 C 
ATOM     18  H   LIG d   1       7.375  -1.316  -7.455  0.00  0.00     0.046 H 
ATOM     19  H   LIG d   1       6.151  -0.659  -8.567  0.00  0.00     0.046 H 
BRANCH  17  20
ATOM     20  N   LIG d   1       7.660   0.686  -8.013  0.00  0.00    -0.294 N 
ATOM     21  C   LIG d   1       7.265   1.634  -8.885  0.00  0.00     0.213 C 
ATOM     22  O   LIG d   1       8.033   2.509  -9.219  0.00  0.00    -0.276 OA
BRANCH  20  23
ATOM     23  C   LIG d   1       8.976   0.780  -7.375  0.00  0.00     0.073 C 
ATOM     24  H   LIG d   1       9.380  -0.222  -7.227  0.00  0.00     0.054 H 
ATOM     25  H   LIG d   1       9.649   1.352  -8.015  0.00  0.00     0.054 H 
BRANCH  23  26
ATOM     26  C   LIG d   1       8.842   1.470  -6.043  0.00  0.00     0.122 A 
ATOM     27  O   LIG d   1       8.787   2.798  -5.848  0.00  0.00    -0.466 OA
ATOM     28  C   LIG d   1       8.666   3.053  -4.535  0.00  0.00     0.092 A 
ATOM     29  C   LIG d   1       8.642   1.881  -3.875  0.00  0.00    -0.024 A 
ATOM     30  H   LIG d   1       8.598   4.032  -4.085  0.00  0.00     0.103 H 
ATOM     31  C   LIG d   1       8.751   0.860  -4.847  0.00  0.00    -0.019 A 
ATOM     32  H   LIG d   1       8.554   1.745  -2.806  0.00  0.00     0.065 H 
ATOM     33  H   LIG d   1       8.760  -0.204  -4.665  0.00  0.00     0.065 H 
ENDBRANCH  23  26
ENDBRANCH  20  23
BRANCH  21  34
ATOM     34  C   LIG d   1       5.865   1.606  -9.445  0.00  0.00     0.012 C 
ATOM     35  H   LIG d   1       5.151   1.485  -8.630  0.00  0.00     0.032 H 
ATOM     36  H   LIG d   1       5.665   2.542  -9.967  0.00  0.00     0.032 H 
ATOM     37  H   LIG d   1       5.769   0.773 -10.140  0.00  0.00     0.032 H 
ENDBRANCH  21  34
ENDBRANCH  17  20
ENDBRANCH  14  17
ENDBRANCH   4  14
BRANCH   4  38
ATOM     38  C   LIG d   1       3.996  -1.407  -7.411  0.00  0.00     0.001 A 
ATOM     39  C   LIG d   1       3.199  -0.356  -7.838  0.00  0.00     0.124 A 
ATOM     40  C   LIG d   1       2.357  -0.525  -8.928  0.00  0.00    -0.020 A 
ATOM     41  C   LIG d   1       2.308  -1.743  -9.578  0.00  0.00    -0.058 A 
ATOM     42  H   LIG d   1       1.739   0.293  -9.265  0.00  0.00     0.065 H 
ATOM     43  C   LIG d   1       3.101  -2.791  -9.146  0.00  0.00    -0.061 A 
ATOM     44  H   LIG d   1       1.650  -1.877 -10.424  0.00  0.00     0.062 H 
ATOM     45  C   LIG d   1       3.944  -2.623  -8.064  0.00  0.00    -0.055 A 
ATOM     46  H   LIG d   1       3.060  -3.743  -9.656  0.00  0.00     0.062 H 
ATOM     47  H   LIG d   1       4.562  -3.443  -7.729  0.00  0.00     0.062 H 
BRANCH  39  48
ATOM     48  O   LIG d   1       3.244   0.840  -7.193  0.00  0.00    -0.495 OA
BRANCH  48  49
ATOM     49  C   LIG d   1       2.730   1.974  -7.893  0.00  0.00     0.079 C 
ATOM     50  H   LIG d   1       1.646   2.010  -7.782  0.00  0.00     0.066 H 
ATOM     51  H   LIG d   1       3.168   2.884  -7.481  0.00  0.00     0.066 H 
ATOM     52  H   LIG d   1       2.985   1.895  -8.949  0.00  0.00     0.066 H 
ENDBRANCH  48  49
ENDBRANCH  39  48
ENDBRANCH   4  38
BRANCH   1  53
ATOM     53  C   LIG d   1       4.197  -0.538  -2.511  0.00  0.00    -0.020 C 
ATOM     54  H   LIG d   1       4.459  -1.271  -1.748  0.00  0.00     0.032 H 
BRANCH  53  55
ATOM     55  C   LIG d   1       4.492   0.870  -1.989  0.00  0.00    -0.060 C 
ATOM     56  H   LIG d   1       3.947   1.035  -1.060  0.00  0.00     0.023 H 
ATOM     57  H   LIG d   1       5.561   0.974  -1.807  0.00  0.00     0.023 H 
ATOM     58  H   LIG d   1       4.176   1.604  -2.731  0.00  0.00     0.023 H 
ENDBRANCH  53  55
BRANCH  53  59
ATOM     59  C   LIG d   1       2.708  -0.658  -2.842  0.00  0.00    -0.060 C 
ATOM     60  H   LIG d   1       2.557  -1.474  -3.549  0.00  0.00     0.023 H 
ATOM     61  H   LIG d   1       2.148  -0.859  -1.929  0.00  0.00     0.023 H 
ATOM     62  H   LIG d   1       2.359   0.275  -3.286  0.00  0.00     0.023 H 
ENDBRANCH  53  59
ENDBRANCH   1  53
TORSDOF 12
ENDMDL
MODEL 9
REMARK VINA RESULT:      -5.3      1.793      5.770
REMARK  12 active torsions:
REMARK  status: ('A' for Active; 'I' for Inactive)
REMARK    1  A    between atoms: C_1  and  C_2 
REMARK    2  A    between atoms: C_2  and  C_3 
REMARK    3  A    between atoms: C_2  and  C_4 
REMARK    4  A    between atoms: C_7  and  C_11 
REMARK    5  A    between atoms: C_7  and  C_23 
REMARK    6  A    between atoms: C_11  and  C_12 
REMARK    7  A    between atoms: C_12  and  N_13 
REMARK    8  A    between atoms: N_13  and  C_14 
REMARK       I    between atoms: N_13  and  C_20 
REMARK    9  A    between atoms: C_14  and  C_15 
REMARK   10  A    between atoms: C_20  and  C_22 
REMARK   11  A    between atoms: C_28  and  O_29 
REMARK   12  A    between atoms: O_29  and  C_30 
ROOT
ATOM      1  C   LIG d   1       3.621  -0.508  -8.191  0.00  0.00     0.062 C 
ATOM      2  H   LIG d   1       3.502  -1.589  -8.263  0.00  0.00     0.060 H 
ATOM      3  C   LIG d   1       3.460  -0.072  -6.732  0.00  0.00    -0.017 C 
ATOM      4  C   LIG d   1       4.564  -0.719  -5.890  0.00  0.00     0.005 C 
ATOM      5  C   LIG d   1       5.928  -0.325  -6.466  0.00  0.00    -0.019 C 
ATOM      6  C   LIG d   1       5.993  -0.751  -7.935  0.00  0.00     0.049 C 
ATOM      7  O   LIG d   1       4.921  -0.139  -8.656  0.00  0.00    -0.376 OA
ATOM      8  H   LIG d   1       3.538   1.013  -6.665  0.00  0.00     0.030 H 
ATOM      9  H   LIG d   1       2.485  -0.393  -6.363  0.00  0.00     0.030 H 
ATOM     10  H   LIG d   1       6.717  -0.826  -5.906  0.00  0.00     0.030 H 
ATOM     11  H   LIG d   1       6.057   0.755  -6.394  0.00  0.00     0.030 H 
ATOM     12  H   LIG d   1       5.905  -1.835  -8.005  0.00  0.00     0.056 H 
ATOM     13  H   LIG d   1       6.945  -0.435  -8.363  0.00  0.00     0.056 H 
ENDROOT
BRANCH   4  14
ATOM     14  C   LIG d   1       4.413  -2.241  -5.926  0.00  0.00    -0.027 C 
ATOM     15  H   LIG d   1       3.358  -2.504  -5.841  0.00  0.00     0.029 H 
ATOM     16  H   LIG d   1       4.807  -2.624  -6.868  0.00  0.00     0.029 H 
BRANCH  14  17
ATOM     17  C   LIG d   1       5.188  -2.858  -4.760  0.00  0.00     0.016 C 
ATOM     18  H   LIG d   1       5.439  -2.081  -4.038  0.00  0.00     0.046 H 
ATOM     19  H   LIG d   1       4.575  -3.618  -4.277  0.00  0.00     0.046 H 
BRANCH  17  20
ATOM     20  N   LIG d   1       6.419  -3.473  -5.264  0.00  0.00    -0.294 N 
ATOM     21  C   LIG d   1       7.597  -3.215  -4.662  0.00  0.00     0.213 C 
ATOM     22  O   LIG d   1       8.627  -3.640  -5.138  0.00  0.00    -0.276 OA
BRANCH  20  23
ATOM     23  C   LIG d   1       6.370  -4.367  -6.423  0.00  0.00     0.073 C 
ATOM     24  H   LIG d   1       5.600  -4.022  -7.115  0.00  0.00     0.054 H 
ATOM     25  H   LIG d   1       7.337  -4.364  -6.926  0.00  0.00     0.054 H 
BRANCH  23  26
ATOM     26  C   LIG d   1       6.044  -5.765  -5.967  0.00  0.00     0.122 A 
ATOM     27  O   LIG d   1       4.810  -6.274  -5.813  0.00  0.00    -0.466 OA
ATOM     28  C   LIG d   1       4.899  -7.546  -5.393  0.00  0.00     0.092 A 
ATOM     29  C   LIG d   1       6.201  -7.864  -5.275  0.00  0.00    -0.024 A 
ATOM     30  H   LIG d   1       4.067  -8.203  -5.187  0.00  0.00     0.103 H 
ATOM     31  C   LIG d   1       6.939  -6.718  -5.649  0.00  0.00    -0.019 A 
ATOM     32  H   LIG d   1       6.605  -8.815  -4.957  0.00  0.00     0.065 H 
ATOM     33  H   LIG d   1       8.014  -6.624  -5.674  0.00  0.00     0.065 H 
ENDBRANCH  23  26
ENDBRANCH  20  23
BRANCH  21  34
ATOM     34  C   LIG d   1       7.633  -2.397  -3.396  0.00  0.00     0.012 C 
ATOM     35  H   LIG d   1       7.846  -1.356  -3.643  0.00  0.00     0.032 H 
ATOM     36  H   LIG d   1       6.668  -2.461  -2.894  0.00  0.00     0.032 H 
ATOM     37  H   LIG d   1       8.412  -2.781  -2.738  0.00  0.00     0.032 H 
ENDBRANCH  21  34
ENDBRANCH  17  20
ENDBRANCH  14  17
ENDBRANCH   4  14
BRANCH   4  38
ATOM     38  C   LIG d   1       4.460  -0.236  -4.466  0.00  0.00     0.001 A 
ATOM     39  C   LIG d   1       5.512   0.460  -3.891  0.00  0.00     0.124 A 
ATOM     40  C   LIG d   1       5.412   0.908  -2.582  0.00  0.00    -0.020 A 
ATOM     41  C   LIG d   1       4.270   0.650  -1.851  0.00  0.00    -0.058 A 
ATOM     42  H   LIG d   1       6.228   1.455  -2.134  0.00  0.00     0.065 H 
ATOM     43  C   LIG d   1       3.223  -0.050  -2.425  0.00  0.00    -0.061 A 
ATOM     44  H   LIG d   1       4.192   0.995  -0.830  0.00  0.00     0.062 H 
ATOM     45  C   LIG d   1       3.319  -0.492  -3.730  0.00  0.00    -0.055 A 
ATOM     46  H   LIG d   1       2.330  -0.250  -1.850  0.00  0.00     0.062 H 
ATOM     47  H   LIG d   1       2.500  -1.037  -4.176  0.00  0.00     0.062 H 
BRANCH  39  48
ATOM     48  O   LIG d   1       6.639   0.708  -4.610  0.00  0.00    -0.495 OA
BRANCH  48  49
ATOM     49  C   LIG d   1       7.683   1.428  -3.953  0.00  0.00     0.079 C 
ATOM     50  H   LIG d   1       7.982   2.277  -4.568  0.00  0.00     0.066 H 
ATOM     51  H   LIG d   1       7.326   1.786  -2.988  0.00  0.00     0.066 H 
ATOM     52  H   LIG d   1       8.538   0.770  -3.802  0.00  0.00     0.066 H 
ENDBRANCH  48  49
ENDBRANCH  39  48
ENDBRANCH   4  38
BRANCH   1  53
ATOM     53  C   LIG d   1       2.559   0.181  -9.050  0.00  0.00    -0.020 C 
ATOM     54  H   LIG d   1       1.567  -0.126  -8.719  0.00  0.00     0.032 H 
BRANCH  53  55
ATOM     55  C   LIG d   1       2.696   1.699  -8.911  0.00  0.00    -0.060 C 
ATOM     56  H   LIG d   1       3.751   1.972  -8.932  0.00  0.00     0.023 H 
ATOM     57  H   LIG d   1       2.178   2.187  -9.736  0.00  0.00     0.023 H 
ATOM     58  H   LIG d   1       2.256   2.017  -7.965  0.00  0.00     0.023 H 
ENDBRANCH  53  55
BRANCH  53  59
ATOM     59  C   LIG d   1       2.751  -0.216 -10.515  0.00  0.00    -0.060 C 
ATOM     60  H   LIG d   1       2.658  -1.298 -10.613  0.00  0.00     0.023 H 
ATOM     61  H   LIG d   1       1.993   0.272 -11.126  0.00  0.00     0.023 H 
ATOM     62  H   LIG d   1       3.742   0.094 -10.848  0.00  0.00     0.023 H 
ENDBRANCH  53  59
ENDBRANCH   1  53
TORSDOF 12
ENDMDL
MODEL 10
REMARK VINA RESULT:      -5.2      1.762      5.038
REMARK  12 active torsions:
REMARK  status: ('A' for Active; 'I' for Inactive)
REMARK    1  A    between atoms: C_1  and  C_2 
REMARK    2  A    between atoms: C_2  and  C_3 
REMARK    3  A    between atoms: C_2  and  C_4 
REMARK    4  A    between atoms: C_7  and  C_11 
REMARK    5  A    between atoms: C_7  and  C_23 
REMARK    6  A    between atoms: C_11  and  C_12 
REMARK    7  A    between atoms: C_12  and  N_13 
REMARK    8  A    between atoms: N_13  and  C_14 
REMARK       I    between atoms: N_13  and  C_20 
REMARK    9  A    between atoms: C_14  and  C_15 
REMARK   10  A    between atoms: C_20  and  C_22 
REMARK   11  A    between atoms: C_28  and  O_29 
REMARK   12  A    between atoms: O_29  and  C_30 
ROOT
ATOM      1  C   LIG d   1       5.490  -0.211  -3.590  0.00  0.00     0.062 C 
ATOM      2  H   LIG d   1       4.725   0.043  -4.323  0.00  0.00     0.060 H 
ATOM      3  C   LIG d   1       5.915  -1.670  -3.779  0.00  0.00    -0.017 C 
ATOM      4  C   LIG d   1       6.530  -1.837  -5.172  0.00  0.00     0.005 C 
ATOM      5  C   LIG d   1       7.706  -0.866  -5.320  0.00  0.00    -0.019 C 
ATOM      6  C   LIG d   1       7.212   0.562  -5.071  0.00  0.00     0.049 C 
ATOM      7  O   LIG d   1       6.624   0.641  -3.770  0.00  0.00    -0.376 OA
ATOM      8  H   LIG d   1       6.652  -1.936  -3.021  0.00  0.00     0.030 H 
ATOM      9  H   LIG d   1       5.043  -2.317  -3.686  0.00  0.00     0.030 H 
ATOM     10  H   LIG d   1       8.115  -0.939  -6.327  0.00  0.00     0.030 H 
ATOM     11  H   LIG d   1       8.479  -1.115  -4.593  0.00  0.00     0.030 H 
ATOM     12  H   LIG d   1       6.468   0.826  -5.822  0.00  0.00     0.056 H 
ATOM     13  H   LIG d   1       8.053   1.253  -5.132  0.00  0.00     0.056 H 
ENDROOT
BRANCH   4  14
ATOM     14  C   LIG d   1       5.477  -1.532  -6.239  0.00  0.00    -0.027 C 
ATOM     15  H   LIG d   1       4.716  -2.313  -6.232  0.00  0.00     0.029 H 
ATOM     16  H   LIG d   1       5.011  -0.570  -6.025  0.00  0.00     0.029 H 
BRANCH  14  17
ATOM     17  C   LIG d   1       6.145  -1.480  -7.615  0.00  0.00     0.016 C 
ATOM     18  H   LIG d   1       6.274  -0.441  -7.918  0.00  0.00     0.046 H 
ATOM     19  H   LIG d   1       7.117  -1.969  -7.565  0.00  0.00     0.046 H 
BRANCH  17  20
ATOM     20  N   LIG d   1       5.301  -2.172  -8.593  0.00  0.00    -0.294 N 
ATOM     21  C   LIG d   1       5.815  -3.166  -9.343  0.00  0.00     0.213 C 
ATOM     22  O   LIG d   1       5.149  -3.670 -10.222  0.00  0.00    -0.276 OA
BRANCH  20  23
ATOM     23  C   LIG d   1       3.898  -1.782  -8.755  0.00  0.00     0.073 C 
ATOM     24  H   LIG d   1       3.413  -2.458  -9.461  0.00  0.00     0.054 H 
ATOM     25  H   LIG d   1       3.392  -1.839  -7.791  0.00  0.00     0.054 H 
BRANCH  23  26
ATOM     26  C   LIG d   1       3.825  -0.372  -9.279  0.00  0.00     0.122 A 
ATOM     27  O   LIG d   1       4.403   0.078 -10.406  0.00  0.00    -0.466 OA
ATOM     28  C   LIG d   1       4.128   1.383 -10.560  0.00  0.00     0.092 A 
ATOM     29  C   LIG d   1       3.367   1.782  -9.525  0.00  0.00    -0.024 A 
ATOM     30  H   LIG d   1       4.461   2.007 -11.376  0.00  0.00     0.103 H 
ATOM     31  C   LIG d   1       3.168   0.650  -8.702  0.00  0.00    -0.019 A 
ATOM     32  H   LIG d   1       2.979   2.776  -9.356  0.00  0.00     0.065 H 
ATOM     33  H   LIG d   1       2.599   0.612  -7.785  0.00  0.00     0.065 H 
ENDBRANCH  23  26
ENDBRANCH  20  23
BRANCH  21  34
ATOM     34  C   LIG d   1       7.220  -3.652  -9.092  0.00  0.00     0.012 C 
ATOM     35  H   LIG d   1       7.184  -4.594  -8.543  0.00  0.00     0.032 H 
ATOM     36  H   LIG d   1       7.727  -3.805 -10.044  0.00  0.00     0.032 H 
ATOM     37  H   LIG d   1       7.761  -2.910  -8.506  0.00  0.00     0.032 H 
ENDBRANCH  21  34
ENDBRANCH  17  20
ENDBRANCH  14  17
ENDBRANCH   4  14
BRANCH   4  38
ATOM     38  C   LIG d   1       7.021  -3.252  -5.339  0.00  0.00     0.001 A 
ATOM     39  C   LIG d   1       6.114  -4.283  -5.534  0.00  0.00     0.124 A 
ATOM     40  C   LIG d   1       6.570  -5.584  -5.692  0.00  0.00    -0.020 A 
ATOM     41  C   LIG d   1       7.924  -5.851  -5.645  0.00  0.00    -0.058 A 
ATOM     42  H   LIG d   1       5.866  -6.388  -5.849  0.00  0.00     0.065 H 
ATOM     43  C   LIG d   1       8.826  -4.821  -5.445  0.00  0.00    -0.061 A 
ATOM     44  H   LIG d   1       8.279  -6.864  -5.764  0.00  0.00     0.062 H 
ATOM     45  C   LIG d   1       8.375  -3.524  -5.293  0.00  0.00    -0.055 A 
ATOM     46  H   LIG d   1       9.885  -5.033  -5.409  0.00  0.00     0.062 H 
ATOM     47  H   LIG d   1       9.082  -2.722  -5.138  0.00  0.00     0.062 H 
BRANCH  39  48
ATOM     48  O   LIG d   1       4.782  -4.020  -5.574  0.00  0.00    -0.495 OA
BRANCH  48  49
ATOM     49  C   LIG d   1       3.984  -4.835  -6.434  0.00  0.00     0.079 C 
ATOM     50  H   LIG d   1       3.014  -5.013  -5.970  0.00  0.00     0.066 H 
ATOM     51  H   LIG d   1       3.844  -4.327  -7.388  0.00  0.00     0.066 H 
ATOM     52  H   LIG d   1       4.487  -5.787  -6.601  0.00  0.00     0.066 H 
ENDBRANCH  48  49
ENDBRANCH  39  48
ENDBRANCH   4  38
BRANCH   1  53
ATOM     53  C   LIG d   1       4.930  -0.021  -2.179  0.00  0.00    -0.020 C 
ATOM     54  H   LIG d   1       5.743   0.220  -1.494  0.00  0.00     0.032 H 
BRANCH  53  55
ATOM     55  C   LIG d   1       3.911   1.120  -2.184  0.00  0.00    -0.060 C 
ATOM     56  H   LIG d   1       4.084   1.758  -3.050  0.00  0.00     0.023 H 
ATOM     57  H   LIG d   1       2.904   0.708  -2.232  0.00  0.00     0.023 H 
ATOM     58  H   LIG d   1       4.020   1.707  -1.271  0.00  0.00     0.023 H 
ENDBRANCH  53  55
BRANCH  53  59
ATOM     59  C   LIG d   1       4.247  -1.312  -1.724  0.00  0.00    -0.060 C 
ATOM     60  H   LIG d   1       3.207  -1.104  -1.470  0.00  0.00     0.023 H 
ATOM     61  H   LIG d   1       4.285  -2.047  -2.529  0.00  0.00     0.023 H 
ATOM     62  H   LIG d   1       4.762  -1.706  -0.847  0.00  0.00     0.023 H 
ENDBRANCH  53  59
ENDBRANCH   1  53
TORSDOF 12
ENDMDL
