MODEL 1
REMARK VINA RESULT:      -6.4      0.000      0.000
REMARK  5 active torsions:
REMARK  status: ('A' for Active; 'I' for Inactive)
REMARK    1  A    between atoms: C_1  and  C_2 
REMARK    2  A    between atoms: C_2  and  C_3 
REMARK    3  A    between atoms: C_9  and  C_14 
REMARK    4  A    between atoms: C_14  and  N_15 
REMARK    5  A    between atoms: C_18  and  C_21 
ROOT
ATOM      1  C   LIG d   1       4.484  -0.614  -7.132  0.00  0.00    -0.005 C 
ATOM      2  H   LIG d   1       3.995   0.250  -6.685  0.00  0.00     0.087 H 
ATOM      3  H   LIG d   1       5.504  -0.351  -7.415  0.00  0.00     0.087 H 
ENDROOT
BRANCH   1   4
ATOM      4  C   LIG d   1       4.515  -1.745  -6.137  0.00  0.00     0.015 A 
ATOM      5  C   LIG d   1       4.345  -1.491  -4.703  0.00  0.00     0.026 A 
ATOM      6  C   LIG d   1       4.380  -2.577  -3.809  0.00  0.00     0.140 A 
ATOM      7  C   LIG d   1       4.144  -0.195  -4.218  0.00  0.00    -0.048 A 
ATOM      8  C   LIG d   1       4.220  -2.344  -2.449  0.00  0.00    -0.018 A 
ATOM      9  O   LIG d   1       4.570  -3.828  -4.279  0.00  0.00    -0.422 OA
ATOM     10  C   LIG d   1       4.029  -1.057  -1.991  0.00  0.00    -0.055 A 
ATOM     11  H   LIG d   1       4.245  -3.169  -1.752  0.00  0.00     0.065 H 
ATOM     12  C   LIG d   1       3.994   0.011  -2.876  0.00  0.00    -0.047 A 
ATOM     13  H   LIG d   1       3.904  -0.880  -0.933  0.00  0.00     0.062 H 
ATOM     14  C   LIG d   1       4.726  -4.069  -5.589  0.00  0.00     0.338 A 
ATOM     15  C   LIG d   1       4.701  -3.027  -6.543  0.00  0.00     0.032 A 
ATOM     16  O   LIG d   1       4.894  -5.215  -5.967  0.00  0.00    -0.245 OA
ATOM     17  H   LIG d   1       4.830  -3.250  -7.591  0.00  0.00     0.069 H 
ATOM     18  H   LIG d   1       4.112   0.640  -4.902  0.00  0.00     0.063 H 
BRANCH  12  19
ATOM     19  C   LIG d   1       3.783   1.409  -2.353  0.00  0.00    -0.030 C 
ATOM     20  H   LIG d   1       4.737   1.823  -2.030  0.00  0.00     0.031 H 
ATOM     21  H   LIG d   1       3.094   1.381  -1.508  0.00  0.00     0.031 H 
BRANCH  19  22
ATOM     22  C   LIG d   1       3.195   2.285  -3.461  0.00  0.00    -0.061 C 
ATOM     23  H   LIG d   1       2.206   1.914  -3.732  0.00  0.00     0.023 H 
ATOM     24  H   LIG d   1       3.115   3.313  -3.108  0.00  0.00     0.023 H 
ATOM     25  H   LIG d   1       3.847   2.250  -4.335  0.00  0.00     0.023 H 
ENDBRANCH  19  22
ENDBRANCH  12  19
ENDBRANCH   1   4
BRANCH   1  26
ATOM     26  N   LIG d   1       3.739  -1.035  -8.327  0.00  0.00     0.238 N 
ATOM     27  C   LIG d   1       4.530  -0.735  -9.526  0.00  0.00    -0.031 C 
ATOM     28  C   LIG d   1       3.795  -1.245 -10.768  0.00  0.00    -0.010 C 
ATOM     29  H   LIG d   1       4.675   0.343  -9.606  0.00  0.00     0.081 H 
ATOM     30  H   LIG d   1       5.501  -1.226  -9.452  0.00  0.00     0.081 H 
ATOM     31  C   LIG d   1       2.433  -0.553 -10.867  0.00  0.00    -0.034 C 
ATOM     32  H   LIG d   1       3.651  -2.323 -10.688  0.00  0.00     0.032 H 
ATOM     33  H   LIG d   1       4.384  -1.020 -11.657  0.00  0.00     0.032 H 
ATOM     34  C   LIG d   1       1.645  -0.810  -9.579  0.00  0.00    -0.010 C 
ATOM     35  H   LIG d   1       2.578   0.519 -10.998  0.00  0.00     0.030 H 
ATOM     36  C   LIG d   1       2.460  -0.317  -8.382  0.00  0.00    -0.031 C 
ATOM     37  H   LIG d   1       1.457  -1.879  -9.476  0.00  0.00     0.032 H 
ATOM     38  H   LIG d   1       0.697  -0.276  -9.619  0.00  0.00     0.032 H 
ATOM     39  H   LIG d   1       1.902  -0.499  -7.463  0.00  0.00     0.081 H 
ATOM     40  H   LIG d   1       2.648   0.752  -8.486  0.00  0.00     0.081 H 
ATOM     41  H   LIG d   1       3.564  -2.028  -8.280  0.00  0.00     0.204 HD
BRANCH  31  42
ATOM     42  C   LIG d   1       1.660  -1.115 -12.061  0.00  0.00    -0.062 C 
ATOM     43  H   LIG d   1       1.901  -2.171 -12.186  0.00  0.00     0.023 H 
ATOM     44  H   LIG d   1       0.589  -1.005 -11.886  0.00  0.00     0.023 H 
ATOM     45  H   LIG d   1       1.937  -0.570 -12.963  0.00  0.00     0.023 H 
ENDBRANCH  31  42
ENDBRANCH   1  26
TORSDOF 5
ENDMDL
MODEL 2
REMARK VINA RESULT:      -6.3      2.972      7.316
REMARK  5 active torsions:
REMARK  status: ('A' for Active; 'I' for Inactive)
REMARK    1  A    between atoms: C_1  and  C_2 
REMARK    2  A    between atoms: C_2  and  C_3 
REMARK    3  A    between atoms: C_9  and  C_14 
REMARK    4  A    between atoms: C_14  and  N_15 
REMARK    5  A    between atoms: C_18  and  C_21 
ROOT
ATOM      1  C   LIG d   1       2.769  -0.100  -7.214  0.00  0.00    -0.005 C 
ATOM      2  H   LIG d   1       1.773   0.340  -7.259  0.00  0.00     0.087 H 
ATOM      3  H   LIG d   1       2.692  -1.186  -7.254  0.00  0.00     0.087 H 
ENDROOT
BRANCH   1   4
ATOM      4  C   LIG d   1       3.586   0.388  -8.383  0.00  0.00     0.015 A 
ATOM      5  C   LIG d   1       3.314  -0.089  -9.743  0.00  0.00     0.026 A 
ATOM      6  C   LIG d   1       4.101   0.394 -10.804  0.00  0.00     0.140 A 
ATOM      7  C   LIG d   1       2.288  -1.004  -9.995  0.00  0.00    -0.048 A 
ATOM      8  C   LIG d   1       3.849  -0.054 -12.095  0.00  0.00    -0.018 A 
ATOM      9  O   LIG d   1       5.088   1.281 -10.560  0.00  0.00    -0.422 OA
ATOM     10  C   LIG d   1       2.837  -0.962 -12.322  0.00  0.00    -0.055 A 
ATOM     11  H   LIG d   1       4.447   0.309 -12.920  0.00  0.00     0.065 H 
ATOM     12  C   LIG d   1       2.062  -1.434 -11.272  0.00  0.00    -0.047 A 
ATOM     13  H   LIG d   1       2.643  -1.307 -13.327  0.00  0.00     0.062 H 
ATOM     14  C   LIG d   1       5.343   1.722  -9.319  0.00  0.00     0.338 A 
ATOM     15  C   LIG d   1       4.592   1.281  -8.207  0.00  0.00     0.032 A 
ATOM     16  O   LIG d   1       6.244   2.524  -9.147  0.00  0.00    -0.245 OA
ATOM     17  H   LIG d   1       4.820   1.653  -7.219  0.00  0.00     0.069 H 
ATOM     18  H   LIG d   1       1.679  -1.373  -9.183  0.00  0.00     0.063 H 
BRANCH  12  19
ATOM     19  C   LIG d   1       0.959  -2.425 -11.543  0.00  0.00    -0.030 C 
ATOM     20  H   LIG d   1       1.100  -2.863 -12.531  0.00  0.00     0.031 H 
ATOM     21  H   LIG d   1      -0.004  -1.917 -11.505  0.00  0.00     0.031 H 
BRANCH  19  22
ATOM     22  C   LIG d   1       0.995  -3.530 -10.486  0.00  0.00    -0.061 C 
ATOM     23  H   LIG d   1       1.062  -4.501 -10.978  0.00  0.00     0.023 H 
ATOM     24  H   LIG d   1       1.863  -3.389  -9.841  0.00  0.00     0.023 H 
ATOM     25  H   LIG d   1       0.086  -3.489  -9.887  0.00  0.00     0.023 H 
ENDBRANCH  19  22
ENDBRANCH  12  19
ENDBRANCH   1   4
BRANCH   1  26
ATOM     26  N   LIG d   1       3.424   0.300  -5.961  0.00  0.00     0.238 N 
ATOM     27  C   LIG d   1       4.174  -0.840  -5.419  0.00  0.00    -0.031 C 
ATOM     28  C   LIG d   1       4.925  -0.407  -4.157  0.00  0.00    -0.010 C 
ATOM     29  H   LIG d   1       3.483  -1.646  -5.172  0.00  0.00     0.081 H 
ATOM     30  H   LIG d   1       4.889  -1.191  -6.164  0.00  0.00     0.081 H 
ATOM     31  C   LIG d   1       3.917   0.085  -3.114  0.00  0.00    -0.034 C 
ATOM     32  H   LIG d   1       5.617   0.398  -4.404  0.00  0.00     0.032 H 
ATOM     33  H   LIG d   1       5.480  -1.255  -3.755  0.00  0.00     0.032 H 
ATOM     34  C   LIG d   1       3.089   1.224  -3.716  0.00  0.00    -0.010 C 
ATOM     35  H   LIG d   1       3.258  -0.735  -2.830  0.00  0.00     0.030 H 
ATOM     36  C   LIG d   1       2.407   0.731  -4.995  0.00  0.00    -0.031 C 
ATOM     37  H   LIG d   1       3.743   2.063  -3.953  0.00  0.00     0.032 H 
ATOM     38  H   LIG d   1       2.333   1.542  -3.000  0.00  0.00     0.032 H 
ATOM     39  H   LIG d   1       1.817   1.540  -5.426  0.00  0.00     0.081 H 
ATOM     40  H   LIG d   1       1.753  -0.108  -4.757  0.00  0.00     0.081 H 
ATOM     41  H   LIG d   1       4.059   1.064  -6.143  0.00  0.00     0.204 HD
BRANCH  31  42
ATOM     42  C   LIG d   1       4.665   0.592  -1.880  0.00  0.00    -0.062 C 
ATOM     43  H   LIG d   1       4.008   1.239  -1.298  0.00  0.00     0.023 H 
ATOM     44  H   LIG d   1       4.975  -0.255  -1.269  0.00  0.00     0.023 H 
ATOM     45  H   LIG d   1       5.544   1.155  -2.194  0.00  0.00     0.023 H 
ENDBRANCH  31  42
ENDBRANCH   1  26
TORSDOF 5
ENDMDL
MODEL 3
REMARK VINA RESULT:      -6.1      1.756      2.072
REMARK  5 active torsions:
REMARK  status: ('A' for Active; 'I' for Inactive)
REMARK    1  A    between atoms: C_1  and  C_2 
REMARK    2  A    between atoms: C_2  and  C_3 
REMARK    3  A    between atoms: C_9  and  C_14 
REMARK    4  A    between atoms: C_14  and  N_15 
REMARK    5  A    between atoms: C_18  and  C_21 
ROOT
ATOM      1  C   LIG d   1       6.687  -0.756  -6.404  0.00  0.00    -0.005 C 
ATOM      2  H   LIG d   1       6.768   0.039  -5.663  0.00  0.00     0.087 H 
ATOM      3  H   LIG d   1       7.684  -1.073  -6.710  0.00  0.00     0.087 H 
ENDROOT
BRANCH   1   4
ATOM      4  C   LIG d   1       5.950  -1.926  -5.805  0.00  0.00     0.015 A 
ATOM      5  C   LIG d   1       5.287  -1.811  -4.502  0.00  0.00     0.026 A 
ATOM      6  C   LIG d   1       4.610  -2.929  -3.982  0.00  0.00     0.140 A 
ATOM      7  C   LIG d   1       5.314  -0.614  -3.781  0.00  0.00    -0.048 A 
ATOM      8  C   LIG d   1       3.979  -2.827  -2.748  0.00  0.00    -0.018 A 
ATOM      9  O   LIG d   1       4.579  -4.083  -4.681  0.00  0.00    -0.422 OA
ATOM     10  C   LIG d   1       4.023  -1.639  -2.050  0.00  0.00    -0.055 A 
ATOM     11  H   LIG d   1       3.456  -3.679  -2.336  0.00  0.00     0.065 H 
ATOM     12  C   LIG d   1       4.691  -0.539  -2.568  0.00  0.00    -0.047 A 
ATOM     13  H   LIG d   1       3.531  -1.564  -1.091  0.00  0.00     0.062 H 
ATOM     14  C   LIG d   1       5.183  -4.196  -5.873  0.00  0.00     0.338 A 
ATOM     15  C   LIG d   1       5.881  -3.114  -6.457  0.00  0.00     0.032 A 
ATOM     16  O   LIG d   1       5.130  -5.257  -6.468  0.00  0.00    -0.245 OA
ATOM     17  H   LIG d   1       6.358  -3.234  -7.418  0.00  0.00     0.069 H 
ATOM     18  H   LIG d   1       5.829   0.247  -4.181  0.00  0.00     0.063 H 
BRANCH  12  19
ATOM     19  C   LIG d   1       4.725   0.750  -1.788  0.00  0.00    -0.030 C 
ATOM     20  H   LIG d   1       5.691   1.234  -1.929  0.00  0.00     0.031 H 
ATOM     21  H   LIG d   1       4.577   0.538  -0.729  0.00  0.00     0.031 H 
BRANCH  19  22
ATOM     22  C   LIG d   1       3.613   1.677  -2.284  0.00  0.00    -0.061 C 
ATOM     23  H   LIG d   1       2.742   1.082  -2.559  0.00  0.00     0.023 H 
ATOM     24  H   LIG d   1       3.343   2.376  -1.493  0.00  0.00     0.023 H 
ATOM     25  H   LIG d   1       3.964   2.230  -3.155  0.00  0.00     0.023 H 
ENDBRANCH  19  22
ENDBRANCH  12  19
ENDBRANCH   1   4
BRANCH   1  26
ATOM     26  N   LIG d   1       5.949  -0.261  -7.575  0.00  0.00     0.238 N 
ATOM     27  C   LIG d   1       6.574   0.977  -8.056  0.00  0.00    -0.031 C 
ATOM     28  C   LIG d   1       5.861   1.453  -9.324  0.00  0.00    -0.010 C 
ATOM     29  H   LIG d   1       6.498   1.745  -7.286  0.00  0.00     0.081 H 
ATOM     30  H   LIG d   1       7.625   0.790  -8.279  0.00  0.00     0.081 H 
ATOM     31  C   LIG d   1       4.386   1.714  -9.005  0.00  0.00    -0.034 C 
ATOM     32  H   LIG d   1       5.937   0.686 -10.094  0.00  0.00     0.032 H 
ATOM     33  H   LIG d   1       6.325   2.374  -9.678  0.00  0.00     0.032 H 
ATOM     34  C   LIG d   1       3.763   0.437  -8.433  0.00  0.00    -0.010 C 
ATOM     35  H   LIG d   1       4.308   2.517  -8.272  0.00  0.00     0.030 H 
ATOM     36  C   LIG d   1       4.555  -0.002  -7.199  0.00  0.00    -0.031 C 
ATOM     37  H   LIG d   1       3.796  -0.351  -9.186  0.00  0.00     0.032 H 
ATOM     38  H   LIG d   1       2.729   0.630  -8.152  0.00  0.00     0.032 H 
ATOM     39  H   LIG d   1       4.114  -0.911  -6.790  0.00  0.00     0.081 H 
ATOM     40  H   LIG d   1       4.522   0.787  -6.448  0.00  0.00     0.081 H 
ATOM     41  H   LIG d   1       5.976  -0.957  -8.306  0.00  0.00     0.204 HD
BRANCH  31  42
ATOM     42  C   LIG d   1       3.649   2.114 -10.284  0.00  0.00    -0.062 C 
ATOM     43  H   LIG d   1       2.642   1.699 -10.268  0.00  0.00     0.023 H 
ATOM     44  H   LIG d   1       3.593   3.201 -10.347  0.00  0.00     0.023 H 
ATOM     45  H   LIG d   1       4.187   1.729 -11.150  0.00  0.00     0.023 H 
ENDBRANCH  31  42
ENDBRANCH   1  26
TORSDOF 5
ENDMDL
MODEL 4
REMARK VINA RESULT:      -6.0      2.181      5.878
REMARK  5 active torsions:
REMARK  status: ('A' for Active; 'I' for Inactive)
REMARK    1  A    between atoms: C_1  and  C_2 
REMARK    2  A    between atoms: C_2  and  C_3 
REMARK    3  A    between atoms: C_9  and  C_14 
REMARK    4  A    between atoms: C_14  and  N_15 
REMARK    5  A    between atoms: C_18  and  C_21 
ROOT
ATOM      1  C   LIG d   1       5.546  -2.210  -7.046  0.00  0.00    -0.005 C 
ATOM      2  H   LIG d   1       6.239  -3.034  -6.882  0.00  0.00     0.087 H 
ATOM      3  H   LIG d   1       6.074  -1.373  -7.504  0.00  0.00     0.087 H 
ENDROOT
BRANCH   1   4
ATOM      4  C   LIG d   1       4.435  -2.662  -7.958  0.00  0.00     0.015 A 
ATOM      5  C   LIG d   1       3.510  -1.695  -8.557  0.00  0.00     0.026 A 
ATOM      6  C   LIG d   1       2.488  -2.162  -9.402  0.00  0.00     0.140 A 
ATOM      7  C   LIG d   1       3.635  -0.325  -8.303  0.00  0.00    -0.048 A 
ATOM      8  C   LIG d   1       1.608  -1.251  -9.973  0.00  0.00    -0.018 A 
ATOM      9  O   LIG d   1       2.371  -3.484  -9.649  0.00  0.00    -0.422 OA
ATOM     10  C   LIG d   1       1.745   0.095  -9.706  0.00  0.00    -0.055 A 
ATOM     11  H   LIG d   1       0.818  -1.597 -10.624  0.00  0.00     0.065 H 
ATOM     12  C   LIG d   1       2.755   0.552  -8.872  0.00  0.00    -0.047 A 
ATOM     13  H   LIG d   1       1.059   0.801 -10.152  0.00  0.00     0.062 H 
ATOM     14  C   LIG d   1       3.213  -4.375  -9.106  0.00  0.00     0.338 A 
ATOM     15  C   LIG d   1       4.263  -3.977  -8.248  0.00  0.00     0.032 A 
ATOM     16  O   LIG d   1       3.070  -5.558  -9.357  0.00  0.00    -0.245 OA
ATOM     17  H   LIG d   1       4.926  -4.717  -7.824  0.00  0.00     0.069 H 
ATOM     18  H   LIG d   1       4.422   0.037  -7.659  0.00  0.00     0.063 H 
BRANCH  12  19
ATOM     19  C   LIG d   1       2.886   2.028  -8.595  0.00  0.00    -0.030 C 
ATOM     20  H   LIG d   1       3.012   2.186  -7.525  0.00  0.00     0.031 H 
ATOM     21  H   LIG d   1       1.988   2.543  -8.936  0.00  0.00     0.031 H 
BRANCH  19  22
ATOM     22  C   LIG d   1       4.104   2.580  -9.339  0.00  0.00    -0.061 C 
ATOM     23  H   LIG d   1       4.830   1.781  -9.490  0.00  0.00     0.023 H 
ATOM     24  H   LIG d   1       3.791   2.975 -10.306  0.00  0.00     0.023 H 
ATOM     25  H   LIG d   1       4.558   3.377  -8.750  0.00  0.00     0.023 H 
ENDBRANCH  19  22
ENDBRANCH  12  19
ENDBRANCH   1   4
BRANCH   1  26
ATOM     26  N   LIG d   1       4.978  -1.784  -5.759  0.00  0.00     0.238 N 
ATOM     27  C   LIG d   1       5.712  -0.612  -5.267  0.00  0.00    -0.031 C 
ATOM     28  C   LIG d   1       5.074  -0.114  -3.968  0.00  0.00    -0.010 C 
ATOM     29  H   LIG d   1       6.751  -0.885  -5.080  0.00  0.00     0.081 H 
ATOM     30  H   LIG d   1       5.675   0.180  -6.016  0.00  0.00     0.081 H 
ATOM     31  C   LIG d   1       5.129  -1.229  -2.920  0.00  0.00    -0.034 C 
ATOM     32  H   LIG d   1       4.036   0.161  -4.155  0.00  0.00     0.032 H 
ATOM     33  H   LIG d   1       5.622   0.756  -3.604  0.00  0.00     0.032 H 
ATOM     34  C   LIG d   1       4.425  -2.472  -3.473  0.00  0.00    -0.010 C 
ATOM     35  H   LIG d   1       6.168  -1.467  -2.696  0.00  0.00     0.030 H 
ATOM     36  C   LIG d   1       5.087  -2.881  -4.791  0.00  0.00    -0.031 C 
ATOM     37  H   LIG d   1       3.373  -2.246  -3.649  0.00  0.00     0.032 H 
ATOM     38  H   LIG d   1       4.508  -3.287  -2.756  0.00  0.00     0.032 H 
ATOM     39  H   LIG d   1       4.588  -3.766  -5.187  0.00  0.00     0.081 H 
ATOM     40  H   LIG d   1       6.139  -3.107  -4.614  0.00  0.00     0.081 H 
ATOM     41  H   LIG d   1       4.006  -1.543  -5.885  0.00  0.00     0.204 HD
BRANCH  31  42
ATOM     42  C   LIG d   1       4.422  -0.766  -1.644  0.00  0.00    -0.062 C 
ATOM     43  H   LIG d   1       4.439  -1.570  -0.908  0.00  0.00     0.023 H 
ATOM     44  H   LIG d   1       4.935   0.107  -1.241  0.00  0.00     0.023 H 
ATOM     45  H   LIG d   1       3.389  -0.506  -1.874  0.00  0.00     0.023 H 
ENDBRANCH  31  42
ENDBRANCH   1  26
TORSDOF 5
ENDMDL
MODEL 5
REMARK VINA RESULT:      -5.6      2.648      4.977
REMARK  5 active torsions:
REMARK  status: ('A' for Active; 'I' for Inactive)
REMARK    1  A    between atoms: C_1  and  C_2 
REMARK    2  A    between atoms: C_2  and  C_3 
REMARK    3  A    between atoms: C_9  and  C_14 
REMARK    4  A    between atoms: C_14  and  N_15 
REMARK    5  A    between atoms: C_18  and  C_21 
ROOT
ATOM      1  C   LIG d   1       6.007  -2.608  -6.499  0.00  0.00    -0.005 C 
ATOM      2  H   LIG d   1       6.836  -2.426  -7.182  0.00  0.00     0.087 H 
ATOM      3  H   LIG d   1       6.328  -2.416  -5.475  0.00  0.00     0.087 H 
ENDROOT
BRANCH   1   4
ATOM      4  C   LIG d   1       4.860  -1.693  -6.845  0.00  0.00     0.015 A 
ATOM      5  C   LIG d   1       4.165  -0.930  -5.804  0.00  0.00     0.026 A 
ATOM      6  C   LIG d   1       3.100  -0.088  -6.173  0.00  0.00     0.140 A 
ATOM      7  C   LIG d   1       4.548  -1.024  -4.463  0.00  0.00    -0.048 A 
ATOM      8  C   LIG d   1       2.436   0.638  -5.192  0.00  0.00    -0.018 A 
ATOM      9  O   LIG d   1       2.734   0.005  -7.469  0.00  0.00    -0.422 OA
ATOM     10  C   LIG d   1       2.826   0.526  -3.874  0.00  0.00    -0.055 A 
ATOM     11  H   LIG d   1       1.616   1.288  -5.462  0.00  0.00     0.065 H 
ATOM     12  C   LIG d   1       3.877  -0.304  -3.515  0.00  0.00    -0.047 A 
ATOM     13  H   LIG d   1       2.308   1.093  -3.114  0.00  0.00     0.062 H 
ATOM     14  C   LIG d   1       3.366  -0.690  -8.427  0.00  0.00     0.338 A 
ATOM     15  C   LIG d   1       4.443  -1.553  -8.129  0.00  0.00     0.032 A 
ATOM     16  O   LIG d   1       3.001  -0.573  -9.583  0.00  0.00    -0.245 OA
ATOM     17  H   LIG d   1       4.933  -2.100  -8.921  0.00  0.00     0.069 H 
ATOM     18  H   LIG d   1       5.368  -1.666  -4.177  0.00  0.00     0.063 H 
BRANCH  12  19
ATOM     19  C   LIG d   1       4.286  -0.410  -2.068  0.00  0.00    -0.030 C 
ATOM     20  H   LIG d   1       5.147  -1.071  -1.981  0.00  0.00     0.031 H 
ATOM     21  H   LIG d   1       3.458  -0.813  -1.485  0.00  0.00     0.031 H 
BRANCH  19  22
ATOM     22  C   LIG d   1       4.654   0.978  -1.539  0.00  0.00    -0.061 C 
ATOM     23  H   LIG d   1       5.503   1.368  -2.102  0.00  0.00     0.023 H 
ATOM     24  H   LIG d   1       3.802   1.649  -1.654  0.00  0.00     0.023 H 
ATOM     25  H   LIG d   1       4.920   0.906  -0.485  0.00  0.00     0.023 H 
ENDBRANCH  19  22
ENDBRANCH  12  19
ENDBRANCH   1   4
BRANCH   1  26
ATOM     26  N   LIG d   1       5.570  -4.006  -6.621  0.00  0.00     0.238 N 
ATOM     27  C   LIG d   1       5.048  -4.468  -5.329  0.00  0.00    -0.031 C 
ATOM     28  C   LIG d   1       4.516  -5.896  -5.471  0.00  0.00    -0.010 C 
ATOM     29  H   LIG d   1       5.846  -4.449  -4.587  0.00  0.00     0.081 H 
ATOM     30  H   LIG d   1       4.240  -3.810  -5.009  0.00  0.00     0.081 H 
ATOM     31  C   LIG d   1       5.655  -6.816  -5.921  0.00  0.00    -0.034 C 
ATOM     32  H   LIG d   1       3.718  -5.915  -6.212  0.00  0.00     0.032 H 
ATOM     33  H   LIG d   1       4.131  -6.238  -4.510  0.00  0.00     0.032 H 
ATOM     34  C   LIG d   1       6.242  -6.282  -7.231  0.00  0.00    -0.010 C 
ATOM     35  H   LIG d   1       6.431  -6.836  -5.155  0.00  0.00     0.030 H 
ATOM     36  C   LIG d   1       6.709  -4.839  -7.024  0.00  0.00    -0.031 C 
ATOM     37  H   LIG d   1       5.479  -6.310  -8.009  0.00  0.00     0.032 H 
ATOM     38  H   LIG d   1       7.088  -6.899  -7.529  0.00  0.00     0.032 H 
ATOM     39  H   LIG d   1       7.127  -4.457  -7.955  0.00  0.00     0.081 H 
ATOM     40  H   LIG d   1       7.472  -4.813  -6.246  0.00  0.00     0.081 H 
ATOM     41  H   LIG d   1       4.844  -4.071  -7.319  0.00  0.00     0.204 HD
BRANCH  31  42
ATOM     42  C   LIG d   1       5.114  -8.229  -6.141  0.00  0.00    -0.062 C 
ATOM     43  H   LIG d   1       5.030  -8.424  -7.210  0.00  0.00     0.023 H 
ATOM     44  H   LIG d   1       5.794  -8.953  -5.692  0.00  0.00     0.023 H 
ATOM     45  H   LIG d   1       4.132  -8.319  -5.677  0.00  0.00     0.023 H 
ENDBRANCH  31  42
ENDBRANCH   1  26
TORSDOF 5
ENDMDL
MODEL 6
REMARK VINA RESULT:      -5.5      5.143      7.251
REMARK  5 active torsions:
REMARK  status: ('A' for Active; 'I' for Inactive)
REMARK    1  A    between atoms: C_1  and  C_2 
REMARK    2  A    between atoms: C_2  and  C_3 
REMARK    3  A    between atoms: C_9  and  C_14 
REMARK    4  A    between atoms: C_14  and  N_15 
REMARK    5  A    between atoms: C_18  and  C_21 
ROOT
ATOM      1  C   LIG d   1       7.639  -3.310  -4.966  0.00  0.00    -0.005 C 
ATOM      2  H   LIG d   1       6.723  -3.440  -4.389  0.00  0.00     0.087 H 
ATOM      3  H   LIG d   1       7.473  -3.635  -5.993  0.00  0.00     0.087 H 
ENDROOT
BRANCH   1   4
ATOM      4  C   LIG d   1       8.034  -1.855  -4.959  0.00  0.00     0.015 A 
ATOM      5  C   LIG d   1       7.251  -0.865  -4.213  0.00  0.00     0.026 A 
ATOM      6  C   LIG d   1       7.657   0.481  -4.234  0.00  0.00     0.140 A 
ATOM      7  C   LIG d   1       6.119  -1.242  -3.483  0.00  0.00    -0.048 A 
ATOM      8  C   LIG d   1       6.920   1.424  -3.529  0.00  0.00    -0.018 A 
ATOM      9  O   LIG d   1       8.753   0.842  -4.934  0.00  0.00    -0.422 OA
ATOM     10  C   LIG d   1       5.803   1.034  -2.821  0.00  0.00    -0.055 A 
ATOM     11  H   LIG d   1       7.221   2.462  -3.537  0.00  0.00     0.065 H 
ATOM     12  C   LIG d   1       5.407  -0.296  -2.802  0.00  0.00    -0.047 A 
ATOM     13  H   LIG d   1       5.233   1.770  -2.274  0.00  0.00     0.062 H 
ATOM     14  C   LIG d   1       9.474  -0.058  -5.619  0.00  0.00     0.338 A 
ATOM     15  C   LIG d   1       9.125  -1.426  -5.642  0.00  0.00     0.032 A 
ATOM     16  O   LIG d   1      10.456   0.315  -6.237  0.00  0.00    -0.245 OA
ATOM     17  H   LIG d   1       9.725  -2.128  -6.202  0.00  0.00     0.069 H 
ATOM     18  H   LIG d   1       5.808  -2.275  -3.462  0.00  0.00     0.063 H 
BRANCH  12  19
ATOM     19  C   LIG d   1       4.183  -0.700  -2.020  0.00  0.00    -0.030 C 
ATOM     20  H   LIG d   1       3.359  -0.032  -2.264  0.00  0.00     0.031 H 
ATOM     21  H   LIG d   1       4.397  -0.639  -0.953  0.00  0.00     0.031 H 
BRANCH  19  22
ATOM     22  C   LIG d   1       3.799  -2.137  -2.381  0.00  0.00    -0.061 C 
ATOM     23  H   LIG d   1       3.120  -2.532  -1.626  0.00  0.00     0.023 H 
ATOM     24  H   LIG d   1       3.307  -2.148  -3.354  0.00  0.00     0.023 H 
ATOM     25  H   LIG d   1       4.696  -2.754  -2.421  0.00  0.00     0.023 H 
ENDBRANCH  19  22
ENDBRANCH  12  19
ENDBRANCH   1   4
BRANCH   1  26
ATOM     26  N   LIG d   1       8.714  -4.112  -4.366  0.00  0.00     0.238 N 
ATOM     27  C   LIG d   1       8.422  -5.537  -4.557  0.00  0.00    -0.031 C 
ATOM     28  C   LIG d   1       9.578  -6.376  -4.007  0.00  0.00    -0.010 C 
ATOM     29  H   LIG d   1       7.503  -5.795  -4.030  0.00  0.00     0.081 H 
ATOM     30  H   LIG d   1       8.300  -5.743  -5.621  0.00  0.00     0.081 H 
ATOM     31  C   LIG d   1       9.747  -6.084  -2.513  0.00  0.00    -0.034 C 
ATOM     32  H   LIG d   1      10.497  -6.120  -4.534  0.00  0.00     0.032 H 
ATOM     33  H   LIG d   1       9.359  -7.435  -4.148  0.00  0.00     0.032 H 
ATOM     34  C   LIG d   1       9.976  -4.582  -2.319  0.00  0.00    -0.010 C 
ATOM     35  H   LIG d   1       8.847  -6.388  -1.978  0.00  0.00     0.030 H 
ATOM     36  C   LIG d   1       8.806  -3.810  -2.933  0.00  0.00    -0.031 C 
ATOM     37  H   LIG d   1      10.903  -4.289  -2.812  0.00  0.00     0.032 H 
ATOM     38  H   LIG d   1      10.042  -4.358  -1.255  0.00  0.00     0.032 H 
ATOM     39  H   LIG d   1       8.966  -2.741  -2.796  0.00  0.00     0.081 H 
ATOM     40  H   LIG d   1       7.879  -4.104  -2.440  0.00  0.00     0.081 H 
ATOM     41  H   LIG d   1       9.590  -3.885  -4.813  0.00  0.00     0.204 HD
BRANCH  31  42
ATOM     42  C   LIG d   1      10.950  -6.859  -1.973  0.00  0.00    -0.062 C 
ATOM     43  H   LIG d   1      10.603  -7.754  -1.456  0.00  0.00     0.023 H 
ATOM     44  H   LIG d   1      11.599  -7.145  -2.800  0.00  0.00     0.023 H 
ATOM     45  H   LIG d   1      11.505  -6.230  -1.277  0.00  0.00     0.023 H 
ENDBRANCH  31  42
ENDBRANCH   1  26
TORSDOF 5
ENDMDL
MODEL 7
REMARK VINA RESULT:      -5.4      2.604      3.290
REMARK  5 active torsions:
REMARK  status: ('A' for Active; 'I' for Inactive)
REMARK    1  A    between atoms: C_1  and  C_2 
REMARK    2  A    between atoms: C_2  and  C_3 
REMARK    3  A    between atoms: C_9  and  C_14 
REMARK    4  A    between atoms: C_14  and  N_15 
REMARK    5  A    between atoms: C_18  and  C_21 
ROOT
ATOM      1  C   LIG d   1       5.337  -2.357  -6.719  0.00  0.00    -0.005 C 
ATOM      2  H   LIG d   1       6.145  -1.822  -7.215  0.00  0.00     0.087 H 
ATOM      3  H   LIG d   1       5.541  -3.428  -6.738  0.00  0.00     0.087 H 
ENDROOT
BRANCH   1   4
ATOM      4  C   LIG d   1       5.229  -1.892  -5.289  0.00  0.00     0.015 A 
ATOM      5  C   LIG d   1       6.011  -0.749  -4.808  0.00  0.00     0.026 A 
ATOM      6  C   LIG d   1       5.879  -0.349  -3.466  0.00  0.00     0.140 A 
ATOM      7  C   LIG d   1       6.873  -0.054  -5.663  0.00  0.00    -0.048 A 
ATOM      8  C   LIG d   1       6.616   0.734  -3.004  0.00  0.00    -0.018 A 
ATOM      9  O   LIG d   1       5.043  -1.018  -2.644  0.00  0.00    -0.422 OA
ATOM     10  C   LIG d   1       7.465   1.402  -3.861  0.00  0.00    -0.055 A 
ATOM     11  H   LIG d   1       6.525   1.051  -1.975  0.00  0.00     0.065 H 
ATOM     12  C   LIG d   1       7.591   1.006  -5.184  0.00  0.00    -0.047 A 
ATOM     13  H   LIG d   1       8.036   2.244  -3.498  0.00  0.00     0.062 H 
ATOM     14  C   LIG d   1       4.325  -2.065  -3.077  0.00  0.00     0.338 A 
ATOM     15  C   LIG d   1       4.407  -2.521  -4.411  0.00  0.00     0.032 A 
ATOM     16  O   LIG d   1       3.583  -2.638  -2.299  0.00  0.00    -0.245 OA
ATOM     17  H   LIG d   1       3.817  -3.366  -4.731  0.00  0.00     0.069 H 
ATOM     18  H   LIG d   1       6.972  -0.355  -6.694  0.00  0.00     0.063 H 
BRANCH  12  19
ATOM     19  C   LIG d   1       8.525   1.752  -6.103  0.00  0.00    -0.030 C 
ATOM     20  H   LIG d   1       7.990   2.039  -7.008  0.00  0.00     0.031 H 
ATOM     21  H   LIG d   1       9.365   1.110  -6.367  0.00  0.00     0.031 H 
BRANCH  19  22
ATOM     22  C   LIG d   1       9.042   3.006  -5.396  0.00  0.00    -0.061 C 
ATOM     23  H   LIG d   1       9.066   2.832  -4.320  0.00  0.00     0.023 H 
ATOM     24  H   LIG d   1      10.047   3.235  -5.750  0.00  0.00     0.023 H 
ATOM     25  H   LIG d   1       8.380   3.844  -5.613  0.00  0.00     0.023 H 
ENDBRANCH  19  22
ENDBRANCH  12  19
ENDBRANCH   1   4
BRANCH   1  26
ATOM     26  N   LIG d   1       4.071  -2.088  -7.416  0.00  0.00     0.238 N 
ATOM     27  C   LIG d   1       4.087  -2.751  -8.725  0.00  0.00    -0.031 C 
ATOM     28  C   LIG d   1       2.740  -2.544  -9.422  0.00  0.00    -0.010 C 
ATOM     29  H   LIG d   1       4.882  -2.327  -9.338  0.00  0.00     0.081 H 
ATOM     30  H   LIG d   1       4.264  -3.819  -8.590  0.00  0.00     0.081 H 
ATOM     31  C   LIG d   1       2.496  -1.044  -9.611  0.00  0.00    -0.034 C 
ATOM     32  H   LIG d   1       1.944  -2.968  -8.811  0.00  0.00     0.032 H 
ATOM     33  H   LIG d   1       2.754  -3.035 -10.396  0.00  0.00     0.032 H 
ATOM     34  C   LIG d   1       2.556  -0.351  -8.246  0.00  0.00    -0.010 C 
ATOM     35  H   LIG d   1       3.263  -0.629 -10.265  0.00  0.00     0.030 H 
ATOM     36  C   LIG d   1       3.909  -0.641  -7.593  0.00  0.00    -0.031 C 
ATOM     37  H   LIG d   1       1.756  -0.730  -7.610  0.00  0.00     0.032 H 
ATOM     38  H   LIG d   1       2.439   0.724  -8.378  0.00  0.00     0.032 H 
ATOM     39  H   LIG d   1       3.956  -0.149  -6.621  0.00  0.00     0.081 H 
ATOM     40  H   LIG d   1       4.709  -0.261  -8.230  0.00  0.00     0.081 H 
ATOM     41  H   LIG d   1       3.303  -2.447  -6.867  0.00  0.00     0.204 HD
BRANCH  31  42
ATOM     42  C   LIG d   1       1.117  -0.824 -10.235  0.00  0.00    -0.062 C 
ATOM     43  H   LIG d   1       0.488  -1.693 -10.040  0.00  0.00     0.023 H 
ATOM     44  H   LIG d   1       0.657   0.062  -9.799  0.00  0.00     0.023 H 
ATOM     45  H   LIG d   1       1.222  -0.686 -11.311  0.00  0.00     0.023 H 
ENDBRANCH  31  42
ENDBRANCH   1  26
TORSDOF 5
ENDMDL
MODEL 8
REMARK VINA RESULT:      -5.4      2.779      3.325
REMARK  5 active torsions:
REMARK  status: ('A' for Active; 'I' for Inactive)
REMARK    1  A    between atoms: C_1  and  C_2 
REMARK    2  A    between atoms: C_2  and  C_3 
REMARK    3  A    between atoms: C_9  and  C_14 
REMARK    4  A    between atoms: C_14  and  N_15 
REMARK    5  A    between atoms: C_18  and  C_21 
ROOT
ATOM      1  C   LIG d   1       4.320  -1.496  -6.916  0.00  0.00    -0.005 C 
ATOM      2  H   LIG d   1       4.443  -2.563  -6.730  0.00  0.00     0.087 H 
ATOM      3  H   LIG d   1       3.662  -1.067  -6.161  0.00  0.00     0.087 H 
ENDROOT
BRANCH   1   4
ATOM      4  C   LIG d   1       5.665  -0.818  -6.853  0.00  0.00     0.015 A 
ATOM      5  C   LIG d   1       6.123  -0.166  -5.623  0.00  0.00     0.026 A 
ATOM      6  C   LIG d   1       7.385   0.455  -5.609  0.00  0.00     0.140 A 
ATOM      7  C   LIG d   1       5.329  -0.159  -4.471  0.00  0.00    -0.048 A 
ATOM      8  C   LIG d   1       7.826   1.074  -4.446  0.00  0.00    -0.018 A 
ATOM      9  O   LIG d   1       8.152   0.443  -6.720  0.00  0.00    -0.422 OA
ATOM     10  C   LIG d   1       7.025   1.076  -3.324  0.00  0.00    -0.055 A 
ATOM     11  H   LIG d   1       8.793   1.555  -4.423  0.00  0.00     0.065 H 
ATOM     12  C   LIG d   1       5.781   0.462  -3.341  0.00  0.00    -0.047 A 
ATOM     13  H   LIG d   1       7.371   1.558  -2.422  0.00  0.00     0.062 H 
ATOM     14  C   LIG d   1       7.740  -0.152  -7.849  0.00  0.00     0.338 A 
ATOM     15  C   LIG d   1       6.484  -0.794  -7.934  0.00  0.00     0.032 A 
ATOM     16  O   LIG d   1       8.466  -0.138  -8.827  0.00  0.00    -0.245 OA
ATOM     17  H   LIG d   1       6.179  -1.265  -8.857  0.00  0.00     0.069 H 
ATOM     18  H   LIG d   1       4.362  -0.638  -4.477  0.00  0.00     0.063 H 
BRANCH  12  19
ATOM     19  C   LIG d   1       4.924   0.474  -2.101  0.00  0.00    -0.030 C 
ATOM     20  H   LIG d   1       5.421   1.052  -1.322  0.00  0.00     0.031 H 
ATOM     21  H   LIG d   1       4.771  -0.548  -1.755  0.00  0.00     0.031 H 
BRANCH  19  22
ATOM     22  C   LIG d   1       3.571   1.112  -2.424  0.00  0.00    -0.061 C 
ATOM     23  H   LIG d   1       2.799   0.660  -1.800  0.00  0.00     0.023 H 
ATOM     24  H   LIG d   1       3.617   2.183  -2.227  0.00  0.00     0.023 H 
ATOM     25  H   LIG d   1       3.332   0.945  -3.474  0.00  0.00     0.023 H 
ENDBRANCH  19  22
ENDBRANCH  12  19
ENDBRANCH   1   4
BRANCH   1  26
ATOM     26  N   LIG d   1       3.733  -1.295  -8.248  0.00  0.00     0.238 N 
ATOM     27  C   LIG d   1       2.619  -0.345  -8.152  0.00  0.00    -0.031 C 
ATOM     28  C   LIG d   1       2.056  -0.069  -9.548  0.00  0.00    -0.010 C 
ATOM     29  H   LIG d   1       1.836  -0.767  -7.521  0.00  0.00     0.081 H 
ATOM     30  H   LIG d   1       2.974   0.587  -7.713  0.00  0.00     0.081 H 
ATOM     31  C   LIG d   1       1.559  -1.382 -10.160  0.00  0.00    -0.034 C 
ATOM     32  H   LIG d   1       2.839   0.353 -10.179  0.00  0.00     0.032 H 
ATOM     33  H   LIG d   1       1.227   0.635  -9.474  0.00  0.00     0.032 H 
ATOM     34  C   LIG d   1       2.711  -2.391 -10.187  0.00  0.00    -0.010 C 
ATOM     35  H   LIG d   1       0.741  -1.778  -9.557  0.00  0.00     0.030 H 
ATOM     36  C   LIG d   1       3.250  -2.580  -8.767  0.00  0.00    -0.031 C 
ATOM     37  H   LIG d   1       3.507  -2.016 -10.831  0.00  0.00     0.032 H 
ATOM     38  H   LIG d   1       2.351  -3.345 -10.570  0.00  0.00     0.032 H 
ATOM     39  H   LIG d   1       4.070  -3.297  -8.783  0.00  0.00     0.081 H 
ATOM     40  H   LIG d   1       2.453  -2.954  -8.123  0.00  0.00     0.081 H 
ATOM     41  H   LIG d   1       4.436  -0.926  -8.872  0.00  0.00     0.204 HD
BRANCH  31  42
ATOM     42  C   LIG d   1       1.067  -1.128 -11.586  0.00  0.00    -0.062 C 
ATOM     43  H   LIG d   1       1.173  -2.040 -12.174  0.00  0.00     0.023 H 
ATOM     44  H   LIG d   1       0.019  -0.830 -11.562  0.00  0.00     0.023 H 
ATOM     45  H   LIG d   1       1.660  -0.333 -12.038  0.00  0.00     0.023 H 
ENDBRANCH  31  42
ENDBRANCH   1  26
TORSDOF 5
ENDMDL
MODEL 9
REMARK VINA RESULT:      -5.4      4.335      6.152
REMARK  5 active torsions:
REMARK  status: ('A' for Active; 'I' for Inactive)
REMARK    1  A    between atoms: C_1  and  C_2 
REMARK    2  A    between atoms: C_2  and  C_3 
REMARK    3  A    between atoms: C_9  and  C_14 
REMARK    4  A    between atoms: C_14  and  N_15 
REMARK    5  A    between atoms: C_18  and  C_21 
ROOT
ATOM      1  C   LIG d   1       7.773   0.872  -3.490  0.00  0.00    -0.005 C 
ATOM      2  H   LIG d   1       8.125   1.407  -2.609  0.00  0.00     0.087 H 
ATOM      3  H   LIG d   1       8.386  -0.015  -3.648  0.00  0.00     0.087 H 
ENDROOT
BRANCH   1   4
ATOM      4  C   LIG d   1       6.338   0.459  -3.286  0.00  0.00     0.015 A 
ATOM      5  C   LIG d   1       5.885  -0.891  -3.635  0.00  0.00     0.026 A 
ATOM      6  C   LIG d   1       4.537  -1.233  -3.428  0.00  0.00     0.140 A 
ATOM      7  C   LIG d   1       6.772  -1.835  -4.162  0.00  0.00    -0.048 A 
ATOM      8  C   LIG d   1       4.101  -2.510  -3.757  0.00  0.00    -0.018 A 
ATOM      9  O   LIG d   1       3.683  -0.322  -2.915  0.00  0.00    -0.422 OA
ATOM     10  C   LIG d   1       4.989  -3.425  -4.281  0.00  0.00    -0.055 A 
ATOM     11  H   LIG d   1       3.067  -2.785  -3.603  0.00  0.00     0.065 H 
ATOM     12  C   LIG d   1       6.319  -3.084  -4.482  0.00  0.00    -0.047 A 
ATOM     13  H   LIG d   1       4.647  -4.418  -4.534  0.00  0.00     0.062 H 
ATOM     14  C   LIG d   1       4.090   0.915  -2.593  0.00  0.00     0.338 A 
ATOM     15  C   LIG d   1       5.429   1.327  -2.774  0.00  0.00     0.032 A 
ATOM     16  O   LIG d   1       3.284   1.704  -2.132  0.00  0.00    -0.245 OA
ATOM     17  H   LIG d   1       5.728   2.329  -2.505  0.00  0.00     0.069 H 
ATOM     18  H   LIG d   1       7.808  -1.578  -4.318  0.00  0.00     0.063 H 
BRANCH  12  19
ATOM     19  C   LIG d   1       7.273  -4.101  -5.055  0.00  0.00    -0.030 C 
ATOM     20  H   LIG d   1       7.888  -4.512  -4.256  0.00  0.00     0.031 H 
ATOM     21  H   LIG d   1       7.913  -3.622  -5.796  0.00  0.00     0.031 H 
BRANCH  19  22
ATOM     22  C   LIG d   1       6.479  -5.228  -5.719  0.00  0.00    -0.061 C 
ATOM     23  H   LIG d   1       6.072  -4.876  -6.667  0.00  0.00     0.023 H 
ATOM     24  H   LIG d   1       7.137  -6.079  -5.899  0.00  0.00     0.023 H 
ATOM     25  H   LIG d   1       5.663  -5.531  -5.064  0.00  0.00     0.023 H 
ENDBRANCH  19  22
ENDBRANCH  12  19
ENDBRANCH   1   4
BRANCH   1  26
ATOM     26  N   LIG d   1       7.867   1.749  -4.665  0.00  0.00     0.238 N 
ATOM     27  C   LIG d   1       8.111   0.934  -5.862  0.00  0.00    -0.031 C 
ATOM     28  C   LIG d   1       8.128   1.833  -7.101  0.00  0.00    -0.010 C 
ATOM     29  H   LIG d   1       9.071   0.427  -5.767  0.00  0.00     0.081 H 
ATOM     30  H   LIG d   1       7.318   0.192  -5.963  0.00  0.00     0.081 H 
ATOM     31  C   LIG d   1       9.242   2.873  -6.953  0.00  0.00    -0.034 C 
ATOM     32  H   LIG d   1       7.167   2.339  -7.196  0.00  0.00     0.032 H 
ATOM     33  H   LIG d   1       8.311   1.226  -7.988  0.00  0.00     0.032 H 
ATOM     34  C   LIG d   1       9.019   3.667  -5.662  0.00  0.00    -0.010 C 
ATOM     35  H   LIG d   1      10.207   2.369  -6.909  0.00  0.00     0.030 H 
ATOM     36  C   LIG d   1       8.968   2.700  -4.478  0.00  0.00    -0.031 C 
ATOM     37  H   LIG d   1       8.076   4.211  -5.729  0.00  0.00     0.032 H 
ATOM     38  H   LIG d   1       9.837   4.372  -5.522  0.00  0.00     0.032 H 
ATOM     39  H   LIG d   1       8.809   3.262  -3.558  0.00  0.00     0.081 H 
ATOM     40  H   LIG d   1       9.911   2.156  -4.412  0.00  0.00     0.081 H 
ATOM     41  H   LIG d   1       7.001   2.255  -4.775  0.00  0.00     0.204 HD
BRANCH  31  42
ATOM     42  C   LIG d   1       9.214   3.825  -8.151  0.00  0.00    -0.062 C 
ATOM     43  H   LIG d   1      10.203   3.862  -8.608  0.00  0.00     0.023 H 
ATOM     44  H   LIG d   1       8.489   3.468  -8.882  0.00  0.00     0.023 H 
ATOM     45  H   LIG d   1       8.931   4.822  -7.816  0.00  0.00     0.023 H 
ENDBRANCH  31  42
ENDBRANCH   1  26
TORSDOF 5
ENDMDL
MODEL 10
REMARK VINA RESULT:      -5.2      2.424      4.420
REMARK  5 active torsions:
REMARK  status: ('A' for Active; 'I' for Inactive)
REMARK    1  A    between atoms: C_1  and  C_2 
REMARK    2  A    between atoms: C_2  and  C_3 
REMARK    3  A    between atoms: C_9  and  C_14 
REMARK    4  A    between atoms: C_14  and  N_15 
REMARK    5  A    between atoms: C_18  and  C_21 
ROOT
ATOM      1  C   LIG d   1       3.603  -1.028  -5.788  0.00  0.00    -0.005 C 
ATOM      2  H   LIG d   1       3.479  -2.093  -5.987  0.00  0.00     0.087 H 
ATOM      3  H   LIG d   1       2.678  -0.623  -5.380  0.00  0.00     0.087 H 
ENDROOT
BRANCH   1   4
ATOM      4  C   LIG d   1       4.720  -0.830  -4.795  0.00  0.00     0.015 A 
ATOM      5  C   LIG d   1       5.764  -1.845  -4.624  0.00  0.00     0.026 A 
ATOM      6  C   LIG d   1       6.787  -1.618  -3.686  0.00  0.00     0.140 A 
ATOM      7  C   LIG d   1       5.758  -3.022  -5.380  0.00  0.00    -0.048 A 
ATOM      8  C   LIG d   1       7.780  -2.576  -3.519  0.00  0.00    -0.018 A 
ATOM      9  O   LIG d   1       6.795  -0.480  -2.961  0.00  0.00    -0.422 OA
ATOM     10  C   LIG d   1       7.753  -3.732  -4.269  0.00  0.00    -0.055 A 
ATOM     11  H   LIG d   1       8.572  -2.414  -2.801  0.00  0.00     0.065 H 
ATOM     12  C   LIG d   1       6.742  -3.951  -5.194  0.00  0.00    -0.047 A 
ATOM     13  H   LIG d   1       8.527  -4.473  -4.137  0.00  0.00     0.062 H 
ATOM     14  C   LIG d   1       5.843   0.453  -3.112  0.00  0.00     0.338 A 
ATOM     15  C   LIG d   1       4.786   0.292  -4.036  0.00  0.00     0.032 A 
ATOM     16  O   LIG d   1       5.890   1.465  -2.436  0.00  0.00    -0.245 OA
ATOM     17  H   LIG d   1       4.033   1.060  -4.136  0.00  0.00     0.069 H 
ATOM     18  H   LIG d   1       4.977  -3.196  -6.104  0.00  0.00     0.063 H 
BRANCH  12  19
ATOM     19  C   LIG d   1       6.733  -5.222  -6.005  0.00  0.00    -0.030 C 
ATOM     20  H   LIG d   1       7.554  -5.862  -5.684  0.00  0.00     0.031 H 
ATOM     21  H   LIG d   1       6.852  -4.980  -7.061  0.00  0.00     0.031 H 
BRANCH  19  22
ATOM     22  C   LIG d   1       5.404  -5.951  -5.794  0.00  0.00    -0.061 C 
ATOM     23  H   LIG d   1       5.348  -6.312  -4.767  0.00  0.00     0.023 H 
ATOM     24  H   LIG d   1       4.579  -5.266  -5.985  0.00  0.00     0.023 H 
ATOM     25  H   LIG d   1       5.342  -6.796  -6.479  0.00  0.00     0.023 H 
ENDBRANCH  19  22
ENDBRANCH  12  19
ENDBRANCH   1   4
BRANCH   1  26
ATOM     26  N   LIG d   1       3.933  -0.332  -7.040  0.00  0.00     0.238 N 
ATOM     27  C   LIG d   1       2.905   0.678  -7.320  0.00  0.00    -0.031 C 
ATOM     28  C   LIG d   1       3.285   1.463  -8.578  0.00  0.00    -0.010 C 
ATOM     29  H   LIG d   1       1.944   0.186  -7.475  0.00  0.00     0.081 H 
ATOM     30  H   LIG d   1       2.829   1.363  -6.475  0.00  0.00     0.081 H 
ATOM     31  C   LIG d   1       3.391   0.498  -9.762  0.00  0.00    -0.034 C 
ATOM     32  H   LIG d   1       4.245   1.956  -8.422  0.00  0.00     0.032 H 
ATOM     33  H   LIG d   1       2.519   2.211  -8.785  0.00  0.00     0.032 H 
ATOM     34  C   LIG d   1       4.412  -0.595  -9.428  0.00  0.00    -0.010 C 
ATOM     35  H   LIG d   1       2.418   0.043  -9.949  0.00  0.00     0.030 H 
ATOM     36  C   LIG d   1       3.990  -1.302  -8.138  0.00  0.00    -0.031 C 
ATOM     37  H   LIG d   1       5.395  -0.144  -9.291  0.00  0.00     0.032 H 
ATOM     38  H   LIG d   1       4.452  -1.316 -10.243  0.00  0.00     0.032 H 
ATOM     39  H   LIG d   1       4.715  -2.080  -7.898  0.00  0.00     0.081 H 
ATOM     40  H   LIG d   1       3.007  -1.753  -8.276  0.00  0.00     0.081 H 
ATOM     41  H   LIG d   1       4.830   0.121  -6.945  0.00  0.00     0.204 HD
BRANCH  31  42
ATOM     42  C   LIG d   1       3.848   1.262 -11.005  0.00  0.00    -0.062 C 
ATOM     43  H   LIG d   1       4.937   1.276 -11.043  0.00  0.00     0.023 H 
ATOM     44  H   LIG d   1       3.459   0.771 -11.897  0.00  0.00     0.023 H 
ATOM     45  H   LIG d   1       3.473   2.284 -10.962  0.00  0.00     0.023 H 
ENDBRANCH  31  42
ENDBRANCH   1  26
TORSDOF 5
ENDMDL
