MODEL 1
REMARK VINA RESULT:      -6.1      0.000      0.000
REMARK  12 active torsions:
REMARK  status: ('A' for Active; 'I' for Inactive)
REMARK    1  A    between atoms: C_1  and  C_2 
REMARK    2  A    between atoms: C_2  and  C_3 
REMARK    3  A    between atoms: C_2  and  C_4 
REMARK    4  A    between atoms: C_4  and  C_5 
REMARK    5  A    between atoms: C_5  and  N_58 
REMARK    6  A    between atoms: C_6  and  N_58 
REMARK    7  A    between atoms: C_16  and  N_18 
REMARK    8  A    between atoms: C_19  and  O_23 
REMARK    9  A    between atoms: O_23  and  C_24 
REMARK   10  A    between atoms: C_28  and  N_30 
REMARK   11  A    between atoms: N_30  and  C_31 
REMARK   12  A    between atoms: N_30  and  C_32 
ROOT
ATOM      1  C   LIG d   1       6.292  -1.946  -4.866  0.00  0.00     0.030 C 
ATOM      2  H   LIG d   1       7.278  -2.383  -5.026  0.00  0.00     0.090 H 
ATOM      3  C   LIG d   1       5.186  -2.946  -5.267  0.00  0.00     0.093 C 
ATOM      4  O   LIG d   1       4.845  -2.594  -6.626  0.00  0.00    -0.366 OA
ATOM      5  C   LIG d   1       4.835  -1.154  -6.650  0.00  0.00     0.115 C 
ATOM      6  H   LIG d   1       3.908  -0.729  -6.266  0.00  0.00     0.065 H 
ATOM      7  C   LIG d   1       6.075  -0.740  -5.811  0.00  0.00     0.131 C 
ATOM      8  H   LIG d   1       5.929   0.196  -5.272  0.00  0.00     0.068 H 
ATOM      9  O   LIG d   1       7.165  -0.679  -6.743  0.00  0.00    -0.366 OA
ATOM     10  C   LIG d   1       6.675  -0.353  -8.037  0.00  0.00     0.073 C 
ATOM     11  C   LIG d   1       5.168  -0.656  -8.067  0.00  0.00     0.111 C 
ATOM     12  H   LIG d   1       4.951  -1.431  -8.802  0.00  0.00     0.060 H 
ATOM     13  H   LIG d   1       5.564  -3.967  -5.223  0.00  0.00     0.062 H 
ATOM     14  H   LIG d   1       4.320  -2.834  -4.615  0.00  0.00     0.062 H 
ATOM     15  H   LIG d   1       7.186  -0.949  -8.794  0.00  0.00     0.058 H 
ATOM     16  H   LIG d   1       6.843   0.707  -8.228  0.00  0.00     0.058 H 
ENDROOT
BRANCH  11  17
ATOM     17  N   LIG d   1       4.411   0.560  -8.372  0.00  0.00    -0.187 N 
ATOM     18  N   LIG d   1       4.921   1.853  -8.584  0.00  0.00    -0.041 NA
ATOM     19  N   LIG d   1       3.910   2.618  -8.815  0.00  0.00    -0.020 NA
ATOM     20  N   LIG d   1       2.821   1.941  -8.775  0.00  0.00    -0.070 NA
ATOM     21  C   LIG d   1       3.072   0.679  -8.511  0.00  0.00     0.342 A 
BRANCH  21  22
ATOM     22  O   LIG d   1       2.159  -0.315  -8.393  0.00  0.00    -0.423 OA
BRANCH  22  23
ATOM     23  C   LIG d   1       1.937  -1.108  -9.475  0.00  0.00     0.134 A 
ATOM     24  C   LIG d   1       2.343  -2.433  -9.458  0.00  0.00     0.002 A 
ATOM     25  C   LIG d   1       2.115  -3.239 -10.565  0.00  0.00     0.033 A 
ATOM     26  H   LIG d   1       2.836  -2.837  -8.586  0.00  0.00     0.067 H 
ATOM     27  C   LIG d   1       1.481  -2.717 -11.684  0.00  0.00    -0.040 A 
ATOM     28  C   LIG d   1       1.077  -1.395 -11.697  0.00  0.00    -0.057 A 
ATOM     29  H   LIG d   1       1.302  -3.344 -12.546  0.00  0.00     0.064 H 
ATOM     30  C   LIG d   1       1.309  -0.589 -10.599  0.00  0.00    -0.019 A 
ATOM     31  H   LIG d   1       0.585  -0.990 -12.568  0.00  0.00     0.062 H 
ATOM     32  H   LIG d   1       0.997   0.444 -10.614  0.00  0.00     0.065 H 
BRANCH  25  33
ATOM     33  N   LIG d   1       2.522  -4.575 -10.552  0.00  0.00    -0.336 N 
BRANCH  33  34
ATOM     34  C   LIG d   1       3.107  -5.151  -9.338  0.00  0.00     0.000 C 
ATOM     35  H   LIG d   1       4.177  -5.297  -9.484  0.00  0.00     0.043 H 
ATOM     36  H   LIG d   1       2.945  -4.473  -8.499  0.00  0.00     0.043 H 
ATOM     37  H   LIG d   1       2.634  -6.110  -9.127  0.00  0.00     0.043 H 
ENDBRANCH  33  34
BRANCH  33  38
ATOM     38  C   LIG d   1       2.365  -5.401 -11.751  0.00  0.00     0.000 C 
ATOM     39  H   LIG d   1       3.347  -5.647 -12.154  0.00  0.00     0.043 H 
ATOM     40  H   LIG d   1       1.837  -6.320 -11.494  0.00  0.00     0.043 H 
ATOM     41  H   LIG d   1       1.792  -4.852 -12.498  0.00  0.00     0.043 H 
ENDBRANCH  33  38
ENDBRANCH  25  33
ENDBRANCH  22  23
ENDBRANCH  21  22
ENDBRANCH  11  17
BRANCH   1  42
ATOM     42  N   LIG d   1       6.129  -1.527  -3.461  0.00  0.00     0.233 N 
ATOM     43  H   LIG d   1       6.819  -2.015  -2.880  0.00  0.00     0.202 HD
ATOM     44  H   LIG d   1       6.276  -0.513  -3.391  0.00  0.00     0.202 HD
BRANCH  42  45
ATOM     45  C   LIG d   1       4.772  -1.856  -2.984  0.00  0.00    -0.033 C 
ATOM     46  H   LIG d   1       4.065  -1.780  -3.810  0.00  0.00     0.081 H 
ATOM     47  H   LIG d   1       4.759  -2.871  -2.587  0.00  0.00     0.081 H 
BRANCH  45  48
ATOM     48  C   LIG d   1       4.376  -0.872  -1.881  0.00  0.00    -0.010 C 
ATOM     49  H   LIG d   1       3.969  -1.423  -1.033  0.00  0.00     0.032 H 
ATOM     50  H   LIG d   1       5.254  -0.311  -1.562  0.00  0.00     0.032 H 
BRANCH  48  51
ATOM     51  C   LIG d   1       3.318   0.095  -2.416  0.00  0.00    -0.042 C 
ATOM     52  H   LIG d   1       2.552   0.252  -1.655  0.00  0.00     0.030 H 
BRANCH  51  53
ATOM     53  C   LIG d   1       3.976   1.431  -2.760  0.00  0.00    -0.062 C 
ATOM     54  H   LIG d   1       3.250   2.236  -2.643  0.00  0.00     0.023 H 
ATOM     55  H   LIG d   1       4.820   1.604  -2.092  0.00  0.00     0.023 H 
ATOM     56  H   LIG d   1       4.328   1.408  -3.792  0.00  0.00     0.023 H 
ENDBRANCH  51  53
BRANCH  51  57
ATOM     57  C   LIG d   1       2.674  -0.496  -3.672  0.00  0.00    -0.062 C 
ATOM     58  H   LIG d   1       2.291  -1.492  -3.449  0.00  0.00     0.023 H 
ATOM     59  H   LIG d   1       1.854   0.144  -3.995  0.00  0.00     0.023 H 
ATOM     60  H   LIG d   1       3.419  -0.561  -4.465  0.00  0.00     0.023 H 
ENDBRANCH  51  57
ENDBRANCH  48  51
ENDBRANCH  45  48
ENDBRANCH  42  45
ENDBRANCH   1  42
TORSDOF 12
ENDMDL
MODEL 2
REMARK VINA RESULT:      -6.0      2.247      3.639
REMARK  12 active torsions:
REMARK  status: ('A' for Active; 'I' for Inactive)
REMARK    1  A    between atoms: C_1  and  C_2 
REMARK    2  A    between atoms: C_2  and  C_3 
REMARK    3  A    between atoms: C_2  and  C_4 
REMARK    4  A    between atoms: C_4  and  C_5 
REMARK    5  A    between atoms: C_5  and  N_58 
REMARK    6  A    between atoms: C_6  and  N_58 
REMARK    7  A    between atoms: C_16  and  N_18 
REMARK    8  A    between atoms: C_19  and  O_23 
REMARK    9  A    between atoms: O_23  and  C_24 
REMARK   10  A    between atoms: C_28  and  N_30 
REMARK   11  A    between atoms: N_30  and  C_31 
REMARK   12  A    between atoms: N_30  and  C_32 
ROOT
ATOM      1  C   LIG d   1       5.213  -3.394  -4.508  0.00  0.00     0.030 C 
ATOM      2  H   LIG d   1       5.740  -4.301  -4.214  0.00  0.00     0.090 H 
ATOM      3  C   LIG d   1       4.724  -3.501  -5.970  0.00  0.00     0.093 C 
ATOM      4  O   LIG d   1       5.753  -2.856  -6.752  0.00  0.00    -0.366 OA
ATOM      5  C   LIG d   1       6.129  -1.693  -5.991  0.00  0.00     0.115 C 
ATOM      6  H   LIG d   1       5.445  -0.855  -6.130  0.00  0.00     0.065 H 
ATOM      7  C   LIG d   1       6.179  -2.185  -4.518  0.00  0.00     0.131 C 
ATOM      8  H   LIG d   1       5.897  -1.413  -3.803  0.00  0.00     0.068 H 
ATOM      9  O   LIG d   1       7.518  -2.662  -4.321  0.00  0.00    -0.366 OA
ATOM     10  C   LIG d   1       8.412  -1.959  -5.174  0.00  0.00     0.073 C 
ATOM     11  C   LIG d   1       7.588  -1.317  -6.303  0.00  0.00     0.111 C 
ATOM     12  H   LIG d   1       7.886  -1.724  -7.269  0.00  0.00     0.060 H 
ATOM     13  H   LIG d   1       4.625  -4.547  -6.260  0.00  0.00     0.062 H 
ATOM     14  H   LIG d   1       3.772  -2.983  -6.090  0.00  0.00     0.062 H 
ATOM     15  H   LIG d   1       9.146  -2.645  -5.598  0.00  0.00     0.058 H 
ATOM     16  H   LIG d   1       8.921  -1.183  -4.601  0.00  0.00     0.058 H 
ENDROOT
BRANCH  11  17
ATOM     17  N   LIG d   1       7.755   0.137  -6.290  0.00  0.00    -0.187 N 
ATOM     18  N   LIG d   1       8.164   0.941  -5.211  0.00  0.00    -0.041 NA
ATOM     19  N   LIG d   1       8.169   2.158  -5.634  0.00  0.00    -0.020 NA
ATOM     20  N   LIG d   1       7.811   2.203  -6.866  0.00  0.00    -0.070 NA
ATOM     21  C   LIG d   1       7.550   0.996  -7.314  0.00  0.00     0.342 A 
BRANCH  21  22
ATOM     22  O   LIG d   1       7.145   0.672  -8.566  0.00  0.00    -0.423 OA
BRANCH  22  23
ATOM     23  C   LIG d   1       5.847   0.901  -8.895  0.00  0.00     0.134 A 
ATOM     24  C   LIG d   1       4.965  -0.162  -9.018  0.00  0.00     0.002 A 
ATOM     25  C   LIG d   1       3.640   0.076  -9.355  0.00  0.00     0.033 A 
ATOM     26  H   LIG d   1       5.309  -1.172  -8.852  0.00  0.00     0.067 H 
ATOM     27  C   LIG d   1       3.201   1.377  -9.568  0.00  0.00    -0.040 A 
ATOM     28  C   LIG d   1       4.083   2.433  -9.444  0.00  0.00    -0.057 A 
ATOM     29  H   LIG d   1       2.169   1.563  -9.830  0.00  0.00     0.064 H 
ATOM     30  C   LIG d   1       5.403   2.198  -9.114  0.00  0.00    -0.019 A 
ATOM     31  H   LIG d   1       3.740   3.444  -9.610  0.00  0.00     0.062 H 
ATOM     32  H   LIG d   1       6.092   3.025  -9.024  0.00  0.00     0.065 H 
BRANCH  25  33
ATOM     33  N   LIG d   1       2.748  -0.992  -9.480  0.00  0.00    -0.336 N 
BRANCH  33  34
ATOM     34  C   LIG d   1       3.189  -2.354  -9.168  0.00  0.00     0.000 C 
ATOM     35  H   LIG d   1       4.277  -2.385  -9.138  0.00  0.00     0.043 H 
ATOM     36  H   LIG d   1       2.790  -2.651  -8.198  0.00  0.00     0.043 H 
ATOM     37  H   LIG d   1       2.826  -3.038  -9.935  0.00  0.00     0.043 H 
ENDBRANCH  33  34
BRANCH  33  38
ATOM     38  C   LIG d   1       1.373  -0.750  -9.923  0.00  0.00     0.000 C 
ATOM     39  H   LIG d   1       1.365   0.049 -10.664  0.00  0.00     0.043 H 
ATOM     40  H   LIG d   1       0.969  -1.660 -10.367  0.00  0.00     0.043 H 
ATOM     41  H   LIG d   1       0.761  -0.461  -9.070  0.00  0.00     0.043 H 
ENDBRANCH  33  38
ENDBRANCH  25  33
ENDBRANCH  22  23
ENDBRANCH  21  22
ENDBRANCH  11  17
BRANCH   1  42
ATOM     42  N   LIG d   1       4.080  -3.130  -3.601  0.00  0.00     0.233 N 
ATOM     43  H   LIG d   1       3.254  -2.875  -4.155  0.00  0.00     0.202 HD
ATOM     44  H   LIG d   1       3.878  -3.977  -3.055  0.00  0.00     0.202 HD
BRANCH  42  45
ATOM     45  C   LIG d   1       4.408  -2.025  -2.680  0.00  0.00    -0.033 C 
ATOM     46  H   LIG d   1       4.593  -2.423  -1.682  0.00  0.00     0.081 H 
ATOM     47  H   LIG d   1       5.298  -1.505  -3.034  0.00  0.00     0.081 H 
BRANCH  45  48
ATOM     48  C   LIG d   1       3.231  -1.048  -2.629  0.00  0.00    -0.010 C 
ATOM     49  H   LIG d   1       2.345  -1.527  -3.045  0.00  0.00     0.032 H 
ATOM     50  H   LIG d   1       3.038  -0.765  -1.595  0.00  0.00     0.032 H 
BRANCH  48  51
ATOM     51  C   LIG d   1       3.568   0.200  -3.446  0.00  0.00    -0.042 C 
ATOM     52  H   LIG d   1       4.555   0.084  -3.897  0.00  0.00     0.030 H 
BRANCH  51  53
ATOM     53  C   LIG d   1       2.524   0.386  -4.548  0.00  0.00    -0.062 C 
ATOM     54  H   LIG d   1       3.009   0.758  -5.451  0.00  0.00     0.023 H 
ATOM     55  H   LIG d   1       2.045  -0.570  -4.760  0.00  0.00     0.023 H 
ATOM     56  H   LIG d   1       1.772   1.104  -4.218  0.00  0.00     0.023 H 
ENDBRANCH  51  53
BRANCH  51  57
ATOM     57  C   LIG d   1       3.568   1.425  -2.530  0.00  0.00    -0.062 C 
ATOM     58  H   LIG d   1       3.326   2.314  -3.112  0.00  0.00     0.023 H 
ATOM     59  H   LIG d   1       2.824   1.291  -1.744  0.00  0.00     0.023 H 
ATOM     60  H   LIG d   1       4.554   1.542  -2.080  0.00  0.00     0.023 H 
ENDBRANCH  51  57
ENDBRANCH  48  51
ENDBRANCH  45  48
ENDBRANCH  42  45
ENDBRANCH   1  42
TORSDOF 12
ENDMDL
MODEL 3
REMARK VINA RESULT:      -5.9      3.799      8.256
REMARK  12 active torsions:
REMARK  status: ('A' for Active; 'I' for Inactive)
REMARK    1  A    between atoms: C_1  and  C_2 
REMARK    2  A    between atoms: C_2  and  C_3 
REMARK    3  A    between atoms: C_2  and  C_4 
REMARK    4  A    between atoms: C_4  and  C_5 
REMARK    5  A    between atoms: C_5  and  N_58 
REMARK    6  A    between atoms: C_6  and  N_58 
REMARK    7  A    between atoms: C_16  and  N_18 
REMARK    8  A    between atoms: C_19  and  O_23 
REMARK    9  A    between atoms: O_23  and  C_24 
REMARK   10  A    between atoms: C_28  and  N_30 
REMARK   11  A    between atoms: N_30  and  C_31 
REMARK   12  A    between atoms: N_30  and  C_32 
ROOT
ATOM      1  C   LIG d   1       4.951  -1.701  -8.748  0.00  0.00     0.030 C 
ATOM      2  H   LIG d   1       4.870  -2.782  -8.864  0.00  0.00     0.090 H 
ATOM      3  C   LIG d   1       6.415  -1.245  -8.936  0.00  0.00     0.093 C 
ATOM      4  O   LIG d   1       6.955  -1.176  -7.598  0.00  0.00    -0.366 OA
ATOM      5  C   LIG d   1       5.906  -0.595  -6.799  0.00  0.00     0.115 C 
ATOM      6  H   LIG d   1       5.863   0.491  -6.879  0.00  0.00     0.065 H 
ATOM      7  C   LIG d   1       4.606  -1.284  -7.299  0.00  0.00     0.131 C 
ATOM      8  H   LIG d   1       3.734  -0.633  -7.243  0.00  0.00     0.068 H 
ATOM      9  O   LIG d   1       4.467  -2.466  -6.497  0.00  0.00    -0.366 OA
ATOM     10  C   LIG d   1       5.068  -2.260  -5.225  0.00  0.00     0.073 C 
ATOM     11  C   LIG d   1       6.038  -1.073  -5.342  0.00  0.00     0.111 C 
ATOM     12  H   LIG d   1       7.059  -1.394  -5.140  0.00  0.00     0.060 H 
ATOM     13  H   LIG d   1       6.966  -1.973  -9.530  0.00  0.00     0.062 H 
ATOM     14  H   LIG d   1       6.448  -0.265  -9.412  0.00  0.00     0.062 H 
ATOM     15  H   LIG d   1       5.614  -3.152  -4.918  0.00  0.00     0.058 H 
ATOM     16  H   LIG d   1       4.293  -2.033  -4.494  0.00  0.00     0.058 H 
ENDROOT
BRANCH  11  17
ATOM     17  N   LIG d   1       5.649  -0.005  -4.419  0.00  0.00    -0.187 N 
ATOM     18  N   LIG d   1       4.345   0.411  -4.094  0.00  0.00    -0.041 NA
ATOM     19  N   LIG d   1       4.462   1.378  -3.250  0.00  0.00    -0.020 NA
ATOM     20  N   LIG d   1       5.701   1.609  -3.008  0.00  0.00    -0.070 NA
ATOM     21  C   LIG d   1       6.466   0.791  -3.693  0.00  0.00     0.342 A 
BRANCH  21  22
ATOM     22  O   LIG d   1       7.820   0.755  -3.681  0.00  0.00    -0.423 OA
BRANCH  22  23
ATOM     23  C   LIG d   1       8.491   1.787  -4.256  0.00  0.00     0.134 A 
ATOM     24  C   LIG d   1       9.187   2.689  -3.466  0.00  0.00     0.002 A 
ATOM     25  C   LIG d   1       9.870   3.742  -4.057  0.00  0.00     0.033 A 
ATOM     26  H   LIG d   1       9.197   2.571  -2.392  0.00  0.00     0.067 H 
ATOM     27  C   LIG d   1       9.854   3.890  -5.438  0.00  0.00    -0.040 A 
ATOM     28  C   LIG d   1       9.159   2.990  -6.222  0.00  0.00    -0.057 A 
ATOM     29  H   LIG d   1      10.386   4.710  -5.899  0.00  0.00     0.064 H 
ATOM     30  C   LIG d   1       8.474   1.944  -5.636  0.00  0.00    -0.019 A 
ATOM     31  H   LIG d   1       9.148   3.107  -7.296  0.00  0.00     0.062 H 
ATOM     32  H   LIG d   1       7.927   1.245  -6.251  0.00  0.00     0.065 H 
BRANCH  25  33
ATOM     33  N   LIG d   1      10.572   4.652  -3.264  0.00  0.00    -0.336 N 
BRANCH  33  34
ATOM     34  C   LIG d   1       9.875   5.793  -2.664  0.00  0.00     0.000 C 
ATOM     35  H   LIG d   1       8.804   5.701  -2.848  0.00  0.00     0.043 H 
ATOM     36  H   LIG d   1      10.059   5.808  -1.590  0.00  0.00     0.043 H 
ATOM     37  H   LIG d   1      10.242   6.717  -3.109  0.00  0.00     0.043 H 
ENDBRANCH  33  34
BRANCH  33  38
ATOM     38  C   LIG d   1      12.007   4.467  -3.032  0.00  0.00     0.000 C 
ATOM     39  H   LIG d   1      12.562   4.786  -3.913  0.00  0.00     0.043 H 
ATOM     40  H   LIG d   1      12.316   5.062  -2.173  0.00  0.00     0.043 H 
ATOM     41  H   LIG d   1      12.210   3.415  -2.836  0.00  0.00     0.043 H 
ENDBRANCH  33  38
ENDBRANCH  25  33
ENDBRANCH  22  23
ENDBRANCH  21  22
ENDBRANCH  11  17
BRANCH   1  42
ATOM     42  N   LIG d   1       4.065  -1.006  -9.701  0.00  0.00     0.233 N 
ATOM     43  H   LIG d   1       3.742  -1.673 -10.411  0.00  0.00     0.202 HD
ATOM     44  H   LIG d   1       3.257  -0.624  -9.196  0.00  0.00     0.202 HD
BRANCH  42  45
ATOM     45  C   LIG d   1       4.789   0.096 -10.364  0.00  0.00    -0.033 C 
ATOM     46  H   LIG d   1       5.556   0.485  -9.693  0.00  0.00     0.081 H 
ATOM     47  H   LIG d   1       5.258  -0.271 -11.277  0.00  0.00     0.081 H 
BRANCH  45  48
ATOM     48  C   LIG d   1       3.800   1.210 -10.710  0.00  0.00    -0.010 C 
ATOM     49  H   LIG d   1       4.021   1.594 -11.706  0.00  0.00     0.032 H 
ATOM     50  H   LIG d   1       2.785   0.814 -10.691  0.00  0.00     0.032 H 
BRANCH  48  51
ATOM     51  C   LIG d   1       3.927   2.341  -9.687  0.00  0.00    -0.042 C 
ATOM     52  H   LIG d   1       3.735   3.296 -10.177  0.00  0.00     0.030 H 
BRANCH  51  53
ATOM     53  C   LIG d   1       2.910   2.130  -8.565  0.00  0.00    -0.062 C 
ATOM     54  H   LIG d   1       3.201   2.718  -7.694  0.00  0.00     0.023 H 
ATOM     55  H   LIG d   1       1.923   2.446  -8.904  0.00  0.00     0.023 H 
ATOM     56  H   LIG d   1       2.880   1.074  -8.295  0.00  0.00     0.023 H 
ENDBRANCH  51  53
BRANCH  51  57
ATOM     57  C   LIG d   1       5.341   2.343  -9.102  0.00  0.00    -0.062 C 
ATOM     58  H   LIG d   1       5.632   1.323  -8.851  0.00  0.00     0.023 H 
ATOM     59  H   LIG d   1       6.037   2.750  -9.836  0.00  0.00     0.023 H 
ATOM     60  H   LIG d   1       5.360   2.959  -8.203  0.00  0.00     0.023 H 
ENDBRANCH  51  57
ENDBRANCH  48  51
ENDBRANCH  45  48
ENDBRANCH  42  45
ENDBRANCH   1  42
TORSDOF 12
ENDMDL
MODEL 4
REMARK VINA RESULT:      -5.9      2.327      2.709
REMARK  12 active torsions:
REMARK  status: ('A' for Active; 'I' for Inactive)
REMARK    1  A    between atoms: C_1  and  C_2 
REMARK    2  A    between atoms: C_2  and  C_3 
REMARK    3  A    between atoms: C_2  and  C_4 
REMARK    4  A    between atoms: C_4  and  C_5 
REMARK    5  A    between atoms: C_5  and  N_58 
REMARK    6  A    between atoms: C_6  and  N_58 
REMARK    7  A    between atoms: C_16  and  N_18 
REMARK    8  A    between atoms: C_19  and  O_23 
REMARK    9  A    between atoms: O_23  and  C_24 
REMARK   10  A    between atoms: C_28  and  N_30 
REMARK   11  A    between atoms: N_30  and  C_31 
REMARK   12  A    between atoms: N_30  and  C_32 
ROOT
ATOM      1  C   LIG d   1       5.127  -3.154  -5.691  0.00  0.00     0.030 C 
ATOM      2  H   LIG d   1       6.162  -3.491  -5.624  0.00  0.00     0.090 H 
ATOM      3  C   LIG d   1       4.374  -3.935  -6.791  0.00  0.00     0.093 C 
ATOM      4  O   LIG d   1       4.460  -3.097  -7.964  0.00  0.00    -0.366 OA
ATOM      5  C   LIG d   1       4.252  -1.755  -7.483  0.00  0.00     0.115 C 
ATOM      6  H   LIG d   1       3.199  -1.514  -7.340  0.00  0.00     0.065 H 
ATOM      7  C   LIG d   1       5.067  -1.681  -6.162  0.00  0.00     0.131 C 
ATOM      8  H   LIG d   1       4.616  -1.020  -5.423  0.00  0.00     0.068 H 
ATOM      9  O   LIG d   1       6.385  -1.265  -6.549  0.00  0.00    -0.366 OA
ATOM     10  C   LIG d   1       6.315  -0.476  -7.730  0.00  0.00     0.073 C 
ATOM     11  C   LIG d   1       4.964  -0.755  -8.410  0.00  0.00     0.111 C 
ATOM     12  H   LIG d   1       5.119  -1.195  -9.396  0.00  0.00     0.060 H 
ATOM     13  H   LIG d   1       4.858  -4.895  -6.973  0.00  0.00     0.062 H 
ATOM     14  H   LIG d   1       3.333  -4.085  -6.504  0.00  0.00     0.062 H 
ATOM     15  H   LIG d   1       7.129  -0.737  -8.406  0.00  0.00     0.058 H 
ATOM     16  H   LIG d   1       6.382   0.578  -7.462  0.00  0.00     0.058 H 
ENDROOT
BRANCH  11  17
ATOM     17  N   LIG d   1       4.186   0.480  -8.522  0.00  0.00    -0.187 N 
ATOM     18  N   LIG d   1       3.493   1.149  -7.497  0.00  0.00    -0.041 NA
ATOM     19  N   LIG d   1       2.944   2.184  -8.033  0.00  0.00    -0.020 NA
ATOM     20  N   LIG d   1       3.223   2.238  -9.285  0.00  0.00    -0.070 NA
ATOM     21  C   LIG d   1       3.981   1.224  -9.632  0.00  0.00     0.342 A 
BRANCH  21  22
ATOM     22  O   LIG d   1       4.461   0.966 -10.872  0.00  0.00    -0.423 OA
BRANCH  22  23
ATOM     23  C   LIG d   1       3.794   0.064 -11.640  0.00  0.00     0.134 A 
ATOM     24  C   LIG d   1       4.345  -0.371 -12.835  0.00  0.00     0.002 A 
ATOM     25  C   LIG d   1       3.660  -1.292 -13.617  0.00  0.00     0.033 A 
ATOM     26  H   LIG d   1       5.305   0.006 -13.158  0.00  0.00     0.067 H 
ATOM     27  C   LIG d   1       2.427  -1.774 -13.199  0.00  0.00    -0.040 A 
ATOM     28  C   LIG d   1       1.882  -1.338 -12.007  0.00  0.00    -0.057 A 
ATOM     29  H   LIG d   1       1.893  -2.491 -13.806  0.00  0.00     0.064 H 
ATOM     30  C   LIG d   1       2.558  -0.418 -11.230  0.00  0.00    -0.019 A 
ATOM     31  H   LIG d   1       0.922  -1.714 -11.684  0.00  0.00     0.062 H 
ATOM     32  H   LIG d   1       2.127  -0.075 -10.302  0.00  0.00     0.065 H 
BRANCH  25  33
ATOM     33  N   LIG d   1       4.212  -1.732 -14.822  0.00  0.00    -0.336 N 
BRANCH  33  34
ATOM     34  C   LIG d   1       3.733  -2.974 -15.436  0.00  0.00     0.000 C 
ATOM     35  H   LIG d   1       2.903  -3.371 -14.852  0.00  0.00     0.043 H 
ATOM     36  H   LIG d   1       3.398  -2.771 -16.453  0.00  0.00     0.043 H 
ATOM     37  H   LIG d   1       4.543  -3.703 -15.459  0.00  0.00     0.043 H 
ENDBRANCH  33  34
BRANCH  33  38
ATOM     38  C   LIG d   1       5.269  -0.954 -15.472  0.00  0.00     0.000 C 
ATOM     39  H   LIG d   1       4.842  -0.372 -16.288  0.00  0.00     0.043 H 
ATOM     40  H   LIG d   1       5.724  -0.281 -14.745  0.00  0.00     0.043 H 
ATOM     41  H   LIG d   1       6.028  -1.630 -15.865  0.00  0.00     0.043 H 
ENDBRANCH  33  38
ENDBRANCH  25  33
ENDBRANCH  22  23
ENDBRANCH  21  22
ENDBRANCH  11  17
BRANCH   1  42
ATOM     42  N   LIG d   1       4.444  -3.300  -4.391  0.00  0.00     0.233 N 
ATOM     43  H   LIG d   1       3.429  -3.270  -4.538  0.00  0.00     0.202 HD
ATOM     44  H   LIG d   1       4.705  -4.200  -3.971  0.00  0.00     0.202 HD
BRANCH  42  45
ATOM     45  C   LIG d   1       4.837  -2.207  -3.482  0.00  0.00    -0.033 C 
ATOM     46  H   LIG d   1       5.788  -2.450  -3.006  0.00  0.00     0.081 H 
ATOM     47  H   LIG d   1       4.941  -1.280  -4.046  0.00  0.00     0.081 H 
BRANCH  45  48
ATOM     48  C   LIG d   1       3.760  -2.035  -2.410  0.00  0.00    -0.010 C 
ATOM     49  H   LIG d   1       2.917  -2.689  -2.634  0.00  0.00     0.032 H 
ATOM     50  H   LIG d   1       4.172  -2.296  -1.435  0.00  0.00     0.032 H 
BRANCH  48  51
ATOM     51  C   LIG d   1       3.286  -0.581  -2.391  0.00  0.00    -0.042 C 
ATOM     52  H   LIG d   1       2.466  -0.475  -1.679  0.00  0.00     0.030 H 
BRANCH  51  53
ATOM     53  C   LIG d   1       4.443   0.327  -1.973  0.00  0.00    -0.062 C 
ATOM     54  H   LIG d   1       5.370  -0.035  -2.418  0.00  0.00     0.023 H 
ATOM     55  H   LIG d   1       4.249   1.344  -2.314  0.00  0.00     0.023 H 
ATOM     56  H   LIG d   1       4.536   0.321  -0.886  0.00  0.00     0.023 H 
ENDBRANCH  51  53
BRANCH  51  57
ATOM     57  C   LIG d   1       2.803  -0.183  -3.787  0.00  0.00    -0.062 C 
ATOM     58  H   LIG d   1       2.395  -1.057  -4.293  0.00  0.00     0.023 H 
ATOM     59  H   LIG d   1       2.030   0.581  -3.700  0.00  0.00     0.023 H 
ATOM     60  H   LIG d   1       3.641   0.212  -4.362  0.00  0.00     0.023 H 
ENDBRANCH  51  57
ENDBRANCH  48  51
ENDBRANCH  45  48
ENDBRANCH  42  45
ENDBRANCH   1  42
TORSDOF 12
ENDMDL
MODEL 5
REMARK VINA RESULT:      -5.8      8.278     11.995
REMARK  12 active torsions:
REMARK  status: ('A' for Active; 'I' for Inactive)
REMARK    1  A    between atoms: C_1  and  C_2 
REMARK    2  A    between atoms: C_2  and  C_3 
REMARK    3  A    between atoms: C_2  and  C_4 
REMARK    4  A    between atoms: C_4  and  C_5 
REMARK    5  A    between atoms: C_5  and  N_58 
REMARK    6  A    between atoms: C_6  and  N_58 
REMARK    7  A    between atoms: C_16  and  N_18 
REMARK    8  A    between atoms: C_19  and  O_23 
REMARK    9  A    between atoms: O_23  and  C_24 
REMARK   10  A    between atoms: C_28  and  N_30 
REMARK   11  A    between atoms: N_30  and  C_31 
REMARK   12  A    between atoms: N_30  and  C_32 
ROOT
ATOM      1  C   LIG d   1       9.694   2.320  -4.164  0.00  0.00     0.030 C 
ATOM      2  H   LIG d   1      10.397   1.988  -4.928  0.00  0.00     0.090 H 
ATOM      3  C   LIG d   1       8.829   3.484  -4.695  0.00  0.00     0.093 C 
ATOM      4  O   LIG d   1       9.499   4.680  -4.242  0.00  0.00    -0.366 OA
ATOM      5  C   LIG d   1       9.920   4.387  -2.896  0.00  0.00     0.115 C 
ATOM      6  H   LIG d   1       9.122   4.511  -2.165  0.00  0.00     0.065 H 
ATOM      7  C   LIG d   1      10.452   2.929  -2.960  0.00  0.00     0.131 C 
ATOM      8  H   LIG d   1      10.286   2.377  -2.035  0.00  0.00     0.068 H 
ATOM      9  O   LIG d   1      11.841   3.043  -3.297  0.00  0.00    -0.366 OA
ATOM     10  C   LIG d   1      12.356   4.277  -2.814  0.00  0.00     0.073 C 
ATOM     11  C   LIG d   1      11.168   5.218  -2.550  0.00  0.00     0.111 C 
ATOM     12  H   LIG d   1      11.230   6.096  -3.193  0.00  0.00     0.060 H 
ATOM     13  H   LIG d   1       8.789   3.460  -5.784  0.00  0.00     0.062 H 
ATOM     14  H   LIG d   1       7.823   3.429  -4.279  0.00  0.00     0.062 H 
ATOM     15  H   LIG d   1      13.022   4.723  -3.553  0.00  0.00     0.058 H 
ATOM     16  H   LIG d   1      12.901   4.102  -1.886  0.00  0.00     0.058 H 
ENDROOT
BRANCH  11  17
ATOM     17  N   LIG d   1      11.140   5.620  -1.143  0.00  0.00    -0.187 N 
ATOM     18  N   LIG d   1      11.971   5.159  -0.106  0.00  0.00    -0.041 NA
ATOM     19  N   LIG d   1      11.600   5.768   0.967  0.00  0.00    -0.020 NA
ATOM     20  N   LIG d   1      10.627   6.566   0.713  0.00  0.00    -0.070 NA
ATOM     21  C   LIG d   1      10.311   6.515  -0.561  0.00  0.00     0.342 A 
BRANCH  21  22
ATOM     22  O   LIG d   1       9.332   7.222  -1.176  0.00  0.00    -0.423 OA
BRANCH  22  23
ATOM     23  C   LIG d   1       9.620   8.486  -1.585  0.00  0.00     0.134 A 
ATOM     24  C   LIG d   1      10.008   8.719  -2.895  0.00  0.00     0.002 A 
ATOM     25  C   LIG d   1      10.301  10.011  -3.309  0.00  0.00     0.033 A 
ATOM     26  H   LIG d   1      10.082   7.897  -3.592  0.00  0.00     0.067 H 
ATOM     27  C   LIG d   1      10.205  11.065  -2.410  0.00  0.00    -0.040 A 
ATOM     28  C   LIG d   1       9.817  10.829  -1.106  0.00  0.00    -0.057 A 
ATOM     29  H   LIG d   1      10.432  12.072  -2.732  0.00  0.00     0.064 H 
ATOM     30  C   LIG d   1       9.530   9.543  -0.690  0.00  0.00    -0.019 A 
ATOM     31  H   LIG d   1       9.743  11.650  -0.408  0.00  0.00     0.062 H 
ATOM     32  H   LIG d   1       9.233   9.360   0.332  0.00  0.00     0.065 H 
BRANCH  25  33
ATOM     33  N   LIG d   1      10.693  10.250  -4.628  0.00  0.00    -0.336 N 
BRANCH  33  34
ATOM     34  C   LIG d   1       9.741  10.046  -5.723  0.00  0.00     0.000 C 
ATOM     35  H   LIG d   1      10.195  10.361  -6.662  0.00  0.00     0.043 H 
ATOM     36  H   LIG d   1       9.477   8.990  -5.784  0.00  0.00     0.043 H 
ATOM     37  H   LIG d   1       8.842  10.635  -5.538  0.00  0.00     0.043 H 
ENDBRANCH  33  34
BRANCH  33  38
ATOM     38  C   LIG d   1      12.055  10.705  -4.917  0.00  0.00     0.000 C 
ATOM     39  H   LIG d   1      12.680  10.564  -4.036  0.00  0.00     0.043 H 
ATOM     40  H   LIG d   1      12.462  10.128  -5.747  0.00  0.00     0.043 H 
ATOM     41  H   LIG d   1      12.037  11.761  -5.185  0.00  0.00     0.043 H 
ENDBRANCH  33  38
ENDBRANCH  25  33
ENDBRANCH  22  23
ENDBRANCH  21  22
ENDBRANCH  11  17
BRANCH   1  42
ATOM     42  N   LIG d   1       8.842   1.202  -3.716  0.00  0.00     0.233 N 
ATOM     43  H   LIG d   1       9.013   0.386  -4.315  0.00  0.00     0.202 HD
ATOM     44  H   LIG d   1       9.074   0.969  -2.743  0.00  0.00     0.202 HD
BRANCH  42  45
ATOM     45  C   LIG d   1       7.418   1.578  -3.801  0.00  0.00    -0.033 C 
ATOM     46  H   LIG d   1       7.249   2.498  -3.240  0.00  0.00     0.081 H 
ATOM     47  H   LIG d   1       7.141   1.733  -4.843  0.00  0.00     0.081 H 
BRANCH  45  48
ATOM     48  C   LIG d   1       6.566   0.455  -3.207  0.00  0.00    -0.010 C 
ATOM     49  H   LIG d   1       6.626  -0.424  -3.849  0.00  0.00     0.032 H 
ATOM     50  H   LIG d   1       6.938   0.203  -2.213  0.00  0.00     0.032 H 
BRANCH  48  51
ATOM     51  C   LIG d   1       5.112   0.915  -3.107  0.00  0.00    -0.042 C 
ATOM     52  H   LIG d   1       5.031   1.945  -3.457  0.00  0.00     0.030 H 
BRANCH  51  53
ATOM     53  C   LIG d   1       4.230   0.013  -3.972  0.00  0.00    -0.062 C 
ATOM     54  H   LIG d   1       4.043   0.497  -4.930  0.00  0.00     0.023 H 
ATOM     55  H   LIG d   1       4.736  -0.938  -4.138  0.00  0.00     0.023 H 
ATOM     56  H   LIG d   1       3.282  -0.164  -3.463  0.00  0.00     0.023 H 
ENDBRANCH  51  53
BRANCH  51  57
ATOM     57  C   LIG d   1       4.650   0.836  -1.650  0.00  0.00    -0.062 C 
ATOM     58  H   LIG d   1       5.247   1.515  -1.042  0.00  0.00     0.023 H 
ATOM     59  H   LIG d   1       3.599   1.119  -1.586  0.00  0.00     0.023 H 
ATOM     60  H   LIG d   1       4.774  -0.184  -1.286  0.00  0.00     0.023 H 
ENDBRANCH  51  57
ENDBRANCH  48  51
ENDBRANCH  45  48
ENDBRANCH  42  45
ENDBRANCH   1  42
TORSDOF 12
ENDMDL
MODEL 6
REMARK VINA RESULT:      -5.8      8.354     12.233
REMARK  12 active torsions:
REMARK  status: ('A' for Active; 'I' for Inactive)
REMARK    1  A    between atoms: C_1  and  C_2 
REMARK    2  A    between atoms: C_2  and  C_3 
REMARK    3  A    between atoms: C_2  and  C_4 
REMARK    4  A    between atoms: C_4  and  C_5 
REMARK    5  A    between atoms: C_5  and  N_58 
REMARK    6  A    between atoms: C_6  and  N_58 
REMARK    7  A    between atoms: C_16  and  N_18 
REMARK    8  A    between atoms: C_19  and  O_23 
REMARK    9  A    between atoms: O_23  and  C_24 
REMARK   10  A    between atoms: C_28  and  N_30 
REMARK   11  A    between atoms: N_30  and  C_31 
REMARK   12  A    between atoms: N_30  and  C_32 
ROOT
ATOM      1  C   LIG d   1       9.330   1.900  -4.256  0.00  0.00     0.030 C 
ATOM      2  H   LIG d   1      10.016   1.470  -4.986  0.00  0.00     0.090 H 
ATOM      3  C   LIG d   1       8.526   3.058  -4.886  0.00  0.00     0.093 C 
ATOM      4  O   LIG d   1       9.256   4.252  -4.527  0.00  0.00    -0.366 OA
ATOM      5  C   LIG d   1       9.659   4.049  -3.160  0.00  0.00     0.115 C 
ATOM      6  H   LIG d   1       8.866   4.273  -2.446  0.00  0.00     0.065 H 
ATOM      7  C   LIG d   1      10.115   2.565  -3.101  0.00  0.00     0.131 C 
ATOM      8  H   LIG d   1       9.919   2.100  -2.135  0.00  0.00     0.068 H 
ATOM      9  O   LIG d   1      11.509   2.580  -3.437  0.00  0.00    -0.366 OA
ATOM     10  C   LIG d   1      12.085   3.822  -3.053  0.00  0.00     0.073 C 
ATOM     11  C   LIG d   1      10.947   4.841  -2.875  0.00  0.00     0.111 C 
ATOM     12  H   LIG d   1      11.055   5.659  -3.587  0.00  0.00     0.060 H 
ATOM     13  H   LIG d   1       8.487   2.948  -5.970  0.00  0.00     0.062 H 
ATOM     14  H   LIG d   1       7.518   3.089  -4.472  0.00  0.00     0.062 H 
ATOM     15  H   LIG d   1      12.775   4.171  -3.822  0.00  0.00     0.058 H 
ATOM     16  H   LIG d   1      12.618   3.695  -2.111  0.00  0.00     0.058 H 
ENDROOT
BRANCH  11  17
ATOM     17  N   LIG d   1      10.937   5.357  -1.505  0.00  0.00    -0.187 N 
ATOM     18  N   LIG d   1      11.665   4.872  -0.404  0.00  0.00    -0.041 NA
ATOM     19  N   LIG d   1      11.354   5.613   0.604  0.00  0.00    -0.020 NA
ATOM     20  N   LIG d   1      10.511   6.515   0.250  0.00  0.00    -0.070 NA
ATOM     21  C   LIG d   1      10.227   6.404  -1.027  0.00  0.00     0.342 A 
BRANCH  21  22
ATOM     22  O   LIG d   1       9.376   7.186  -1.733  0.00  0.00    -0.423 OA
BRANCH  22  23
ATOM     23  C   LIG d   1       9.830   8.391  -2.169  0.00  0.00     0.134 A 
ATOM     24  C   LIG d   1       9.824   9.484  -1.317  0.00  0.00     0.002 A 
ATOM     25  C   LIG d   1      10.288  10.713  -1.767  0.00  0.00     0.033 A 
ATOM     26  H   LIG d   1       9.458   9.380  -0.306  0.00  0.00     0.067 H 
ATOM     27  C   LIG d   1      10.757  10.843  -3.068  0.00  0.00    -0.040 A 
ATOM     28  C   LIG d   1      10.762   9.750  -3.914  0.00  0.00    -0.057 A 
ATOM     29  H   LIG d   1      11.119  11.799  -3.418  0.00  0.00     0.064 H 
ATOM     30  C   LIG d   1      10.295   8.528  -3.470  0.00  0.00    -0.019 A 
ATOM     31  H   LIG d   1      11.127   9.854  -4.925  0.00  0.00     0.062 H 
ATOM     32  H   LIG d   1      10.295   7.678  -4.135  0.00  0.00     0.065 H 
BRANCH  25  33
ATOM     33  N   LIG d   1      10.283  11.817  -0.912  0.00  0.00    -0.336 N 
BRANCH  33  34
ATOM     34  C   LIG d   1      10.296  11.619   0.540  0.00  0.00     0.000 C 
ATOM     35  H   LIG d   1      10.246  10.553   0.762  0.00  0.00     0.043 H 
ATOM     36  H   LIG d   1      11.215  12.033   0.956  0.00  0.00     0.043 H 
ATOM     37  H   LIG d   1       9.437  12.122   0.983  0.00  0.00     0.043 H 
ENDBRANCH  33  34
BRANCH  33  38
ATOM     38  C   LIG d   1      10.265  13.173  -1.465  0.00  0.00     0.000 C 
ATOM     39  H   LIG d   1       9.765  13.844  -0.768  0.00  0.00     0.043 H 
ATOM     40  H   LIG d   1      11.288  13.514  -1.626  0.00  0.00     0.043 H 
ATOM     41  H   LIG d   1       9.731  13.171  -2.415  0.00  0.00     0.043 H 
ENDBRANCH  33  38
ENDBRANCH  25  33
ENDBRANCH  22  23
ENDBRANCH  21  22
ENDBRANCH  11  17
BRANCH   1  42
ATOM     42  N   LIG d   1       8.420   0.867  -3.724  0.00  0.00     0.233 N 
ATOM     43  H   LIG d   1       8.403   0.067  -4.367  0.00  0.00     0.202 HD
ATOM     44  H   LIG d   1       8.758   0.560  -2.804  0.00  0.00     0.202 HD
BRANCH  42  45
ATOM     45  C   LIG d   1       7.055   1.409  -3.585  0.00  0.00    -0.033 C 
ATOM     46  H   LIG d   1       7.003   2.047  -2.703  0.00  0.00     0.081 H 
ATOM     47  H   LIG d   1       6.800   1.992  -4.471  0.00  0.00     0.081 H 
BRANCH  45  48
ATOM     48  C   LIG d   1       6.068   0.250  -3.435  0.00  0.00    -0.010 C 
ATOM     49  H   LIG d   1       5.494   0.141  -4.355  0.00  0.00     0.032 H 
ATOM     50  H   LIG d   1       6.616  -0.672  -3.239  0.00  0.00     0.032 H 
BRANCH  48  51
ATOM     51  C   LIG d   1       5.118   0.536  -2.271  0.00  0.00    -0.042 C 
ATOM     52  H   LIG d   1       5.676   0.984  -1.448  0.00  0.00     0.030 H 
BRANCH  51  53
ATOM     53  C   LIG d   1       4.025   1.503  -2.731  0.00  0.00    -0.062 C 
ATOM     54  H   LIG d   1       4.468   2.290  -3.342  0.00  0.00     0.023 H 
ATOM     55  H   LIG d   1       3.284   0.961  -3.318  0.00  0.00     0.023 H 
ATOM     56  H   LIG d   1       3.545   1.949  -1.860  0.00  0.00     0.023 H 
ENDBRANCH  51  53
BRANCH  51  57
ATOM     57  C   LIG d   1       4.477  -0.772  -1.802  0.00  0.00    -0.062 C 
ATOM     58  H   LIG d   1       3.679  -0.551  -1.094  0.00  0.00     0.023 H 
ATOM     59  H   LIG d   1       4.065  -1.303  -2.660  0.00  0.00     0.023 H 
ATOM     60  H   LIG d   1       5.232  -1.392  -1.318  0.00  0.00     0.023 H 
ENDBRANCH  51  57
ENDBRANCH  48  51
ENDBRANCH  45  48
ENDBRANCH  42  45
ENDBRANCH   1  42
TORSDOF 12
ENDMDL
MODEL 7
REMARK VINA RESULT:      -5.8      1.689      2.129
REMARK  12 active torsions:
REMARK  status: ('A' for Active; 'I' for Inactive)
REMARK    1  A    between atoms: C_1  and  C_2 
REMARK    2  A    between atoms: C_2  and  C_3 
REMARK    3  A    between atoms: C_2  and  C_4 
REMARK    4  A    between atoms: C_4  and  C_5 
REMARK    5  A    between atoms: C_5  and  N_58 
REMARK    6  A    between atoms: C_6  and  N_58 
REMARK    7  A    between atoms: C_16  and  N_18 
REMARK    8  A    between atoms: C_19  and  O_23 
REMARK    9  A    between atoms: O_23  and  C_24 
REMARK   10  A    between atoms: C_28  and  N_30 
REMARK   11  A    between atoms: N_30  and  C_31 
REMARK   12  A    between atoms: N_30  and  C_32 
ROOT
ATOM      1  C   LIG d   1       6.094  -2.222  -5.103  0.00  0.00     0.030 C 
ATOM      2  H   LIG d   1       7.085  -2.642  -5.278  0.00  0.00     0.090 H 
ATOM      3  C   LIG d   1       4.999  -3.208  -5.564  0.00  0.00     0.093 C 
ATOM      4  O   LIG d   1       4.665  -2.788  -6.905  0.00  0.00    -0.366 OA
ATOM      5  C   LIG d   1       4.644  -1.349  -6.854  0.00  0.00     0.115 C 
ATOM      6  H   LIG d   1       3.710  -0.952  -6.455  0.00  0.00     0.065 H 
ATOM      7  C   LIG d   1       5.874  -0.969  -5.985  0.00  0.00     0.131 C 
ATOM      8  H   LIG d   1       5.716  -0.064  -5.400  0.00  0.00     0.068 H 
ATOM      9  O   LIG d   1       6.970  -0.852  -6.904  0.00  0.00    -0.366 OA
ATOM     10  C   LIG d   1       6.487  -0.463  -8.183  0.00  0.00     0.073 C 
ATOM     11  C   LIG d   1       4.983  -0.775  -8.241  0.00  0.00     0.111 C 
ATOM     12  H   LIG d   1       4.777  -1.512  -9.017  0.00  0.00     0.060 H 
ATOM     13  H   LIG d   1       5.385  -4.227  -5.570  0.00  0.00     0.062 H 
ATOM     14  H   LIG d   1       4.127  -3.137  -4.913  0.00  0.00     0.062 H 
ATOM     15  H   LIG d   1       7.008  -1.014  -8.966  0.00  0.00     0.058 H 
ATOM     16  H   LIG d   1       6.648   0.607  -8.318  0.00  0.00     0.058 H 
ENDROOT
BRANCH  11  17
ATOM     17  N   LIG d   1       4.218   0.449  -8.487  0.00  0.00    -0.187 N 
ATOM     18  N   LIG d   1       3.419   1.156  -7.571  0.00  0.00    -0.041 NA
ATOM     19  N   LIG d   1       2.928   2.164  -8.206  0.00  0.00    -0.020 NA
ATOM     20  N   LIG d   1       3.337   2.167  -9.422  0.00  0.00    -0.070 NA
ATOM     21  C   LIG d   1       4.130   1.143  -9.644  0.00  0.00     0.342 A 
BRANCH  21  22
ATOM     22  O   LIG d   1       4.739   0.835 -10.814  0.00  0.00    -0.423 OA
BRANCH  22  23
ATOM     23  C   LIG d   1       4.088   0.008 -11.674  0.00  0.00     0.134 A 
ATOM     24  C   LIG d   1       2.938  -0.651 -11.266  0.00  0.00     0.002 A 
ATOM     25  C   LIG d   1       2.277  -1.495 -12.147  0.00  0.00     0.033 A 
ATOM     26  H   LIG d   1       2.558  -0.507 -10.265  0.00  0.00     0.067 H 
ATOM     27  C   LIG d   1       2.768  -1.678 -13.433  0.00  0.00    -0.040 A 
ATOM     28  C   LIG d   1       3.914  -1.019 -13.836  0.00  0.00    -0.057 A 
ATOM     29  H   LIG d   1       2.253  -2.335 -14.119  0.00  0.00     0.064 H 
ATOM     30  C   LIG d   1       4.577  -0.183 -12.959  0.00  0.00    -0.019 A 
ATOM     31  H   LIG d   1       4.294  -1.163 -14.836  0.00  0.00     0.062 H 
ATOM     32  H   LIG d   1       5.476   0.326 -13.274  0.00  0.00     0.065 H 
BRANCH  25  33
ATOM     33  N   LIG d   1       1.118  -2.160 -11.740  0.00  0.00    -0.336 N 
BRANCH  33  34
ATOM     34  C   LIG d   1      -0.053  -2.198 -12.620  0.00  0.00     0.000 C 
ATOM     35  H   LIG d   1      -0.375  -1.180 -12.839  0.00  0.00     0.043 H 
ATOM     36  H   LIG d   1       0.207  -2.704 -13.549  0.00  0.00     0.043 H 
ATOM     37  H   LIG d   1      -0.861  -2.736 -12.126  0.00  0.00     0.043 H 
ENDBRANCH  33  34
BRANCH  33  38
ATOM     38  C   LIG d   1       1.073  -2.820 -10.433  0.00  0.00     0.000 C 
ATOM     39  H   LIG d   1       1.035  -2.067  -9.646  0.00  0.00     0.043 H 
ATOM     40  H   LIG d   1       0.186  -3.451 -10.374  0.00  0.00     0.043 H 
ATOM     41  H   LIG d   1       1.963  -3.435 -10.305  0.00  0.00     0.043 H 
ENDBRANCH  33  38
ENDBRANCH  25  33
ENDBRANCH  22  23
ENDBRANCH  21  22
ENDBRANCH  11  17
BRANCH   1  42
ATOM     42  N   LIG d   1       5.917  -1.878  -3.679  0.00  0.00     0.233 N 
ATOM     43  H   LIG d   1       6.536  -2.465  -3.109  0.00  0.00     0.202 HD
ATOM     44  H   LIG d   1       6.156  -0.889  -3.537  0.00  0.00     0.202 HD
BRANCH  42  45
ATOM     45  C   LIG d   1       4.518  -2.105  -3.268  0.00  0.00    -0.033 C 
ATOM     46  H   LIG d   1       3.846  -1.789  -4.067  0.00  0.00     0.081 H 
ATOM     47  H   LIG d   1       4.364  -3.164  -3.061  0.00  0.00     0.081 H 
BRANCH  45  48
ATOM     48  C   LIG d   1       4.228  -1.290  -2.007  0.00  0.00    -0.010 C 
ATOM     49  H   LIG d   1       3.697  -1.913  -1.287  0.00  0.00     0.032 H 
ATOM     50  H   LIG d   1       5.166  -0.949  -1.569  0.00  0.00     0.032 H 
BRANCH  48  51
ATOM     51  C   LIG d   1       3.364  -0.080  -2.368  0.00  0.00    -0.042 C 
ATOM     52  H   LIG d   1       2.558   0.021  -1.640  0.00  0.00     0.030 H 
BRANCH  51  53
ATOM     53  C   LIG d   1       4.225   1.184  -2.353  0.00  0.00    -0.062 C 
ATOM     54  H   LIG d   1       5.238   0.939  -2.674  0.00  0.00     0.023 H 
ATOM     55  H   LIG d   1       3.798   1.922  -3.031  0.00  0.00     0.023 H 
ATOM     56  H   LIG d   1       4.254   1.592  -1.343  0.00  0.00     0.023 H 
ENDBRANCH  51  53
BRANCH  51  57
ATOM     57  C   LIG d   1       2.769  -0.276  -3.763  0.00  0.00    -0.062 C 
ATOM     58  H   LIG d   1       2.495   0.692  -4.181  0.00  0.00     0.023 H 
ATOM     59  H   LIG d   1       3.505  -0.755  -4.409  0.00  0.00     0.023 H 
ATOM     60  H   LIG d   1       1.882  -0.906  -3.694  0.00  0.00     0.023 H 
ENDBRANCH  51  57
ENDBRANCH  48  51
ENDBRANCH  45  48
ENDBRANCH  42  45
ENDBRANCH   1  42
TORSDOF 12
ENDMDL
MODEL 8
REMARK VINA RESULT:      -5.8      2.982      4.298
REMARK  12 active torsions:
REMARK  status: ('A' for Active; 'I' for Inactive)
REMARK    1  A    between atoms: C_1  and  C_2 
REMARK    2  A    between atoms: C_2  and  C_3 
REMARK    3  A    between atoms: C_2  and  C_4 
REMARK    4  A    between atoms: C_4  and  C_5 
REMARK    5  A    between atoms: C_5  and  N_58 
REMARK    6  A    between atoms: C_6  and  N_58 
REMARK    7  A    between atoms: C_16  and  N_18 
REMARK    8  A    between atoms: C_19  and  O_23 
REMARK    9  A    between atoms: O_23  and  C_24 
REMARK   10  A    between atoms: C_28  and  N_30 
REMARK   11  A    between atoms: N_30  and  C_31 
REMARK   12  A    between atoms: N_30  and  C_32 
ROOT
ATOM      1  C   LIG d   1       6.944   0.735  -3.656  0.00  0.00     0.030 C 
ATOM      2  H   LIG d   1       7.599   0.421  -2.844  0.00  0.00     0.090 H 
ATOM      3  C   LIG d   1       6.553  -0.473  -4.535  0.00  0.00     0.093 C 
ATOM      4  O   LIG d   1       7.499  -0.457  -5.627  0.00  0.00    -0.366 OA
ATOM      5  C   LIG d   1       7.637   0.932  -5.983  0.00  0.00     0.115 C 
ATOM      6  H   LIG d   1       6.832   1.289  -6.624  0.00  0.00     0.065 H 
ATOM      7  C   LIG d   1       7.696   1.681  -4.623  0.00  0.00     0.131 C 
ATOM      8  H   LIG d   1       7.254   2.676  -4.668  0.00  0.00     0.068 H 
ATOM      9  O   LIG d   1       9.084   1.706  -4.260  0.00  0.00    -0.366 OA
ATOM     10  C   LIG d   1       9.890   1.690  -5.430  0.00  0.00     0.073 C 
ATOM     11  C   LIG d   1       9.028   1.175  -6.595  0.00  0.00     0.111 C 
ATOM     12  H   LIG d   1       9.437   0.244  -6.988  0.00  0.00     0.060 H 
ATOM     13  H   LIG d   1       6.644  -1.399  -3.968  0.00  0.00     0.062 H 
ATOM     14  H   LIG d   1       5.536  -0.356  -4.909  0.00  0.00     0.062 H 
ATOM     15  H   LIG d   1      10.748   1.032  -5.288  0.00  0.00     0.058 H 
ATOM     16  H   LIG d   1      10.234   2.702  -5.645  0.00  0.00     0.058 H 
ENDROOT
BRANCH  11  17
ATOM     17  N   LIG d   1       8.950   2.182  -7.655  0.00  0.00    -0.187 N 
ATOM     18  N   LIG d   1       9.516   3.470  -7.653  0.00  0.00    -0.041 NA
ATOM     19  N   LIG d   1       9.199   4.018  -8.775  0.00  0.00    -0.020 NA
ATOM     20  N   LIG d   1       8.497   3.209  -9.483  0.00  0.00    -0.070 NA
ATOM     21  C   LIG d   1       8.320   2.074  -8.846  0.00  0.00     0.342 A 
BRANCH  21  22
ATOM     22  O   LIG d   1       7.629   0.999  -9.295  0.00  0.00    -0.423 OA
BRANCH  22  23
ATOM     23  C   LIG d   1       6.311   1.162  -9.582  0.00  0.00     0.134 A 
ATOM     24  C   LIG d   1       5.704   0.359 -10.536  0.00  0.00     0.002 A 
ATOM     25  C   LIG d   1       4.358   0.530 -10.827  0.00  0.00     0.033 A 
ATOM     26  H   LIG d   1       6.278  -0.397 -11.050  0.00  0.00     0.067 H 
ATOM     27  C   LIG d   1       3.623   1.504 -10.163  0.00  0.00    -0.040 A 
ATOM     28  C   LIG d   1       4.231   2.302  -9.213  0.00  0.00    -0.057 A 
ATOM     29  H   LIG d   1       2.574   1.637 -10.389  0.00  0.00     0.064 H 
ATOM     30  C   LIG d   1       5.572   2.138  -8.926  0.00  0.00    -0.019 A 
ATOM     31  H   LIG d   1       3.658   3.058  -8.698  0.00  0.00     0.062 H 
ATOM     32  H   LIG d   1       6.046   2.766  -8.187  0.00  0.00     0.065 H 
BRANCH  25  33
ATOM     33  N   LIG d   1       3.743  -0.277 -11.787  0.00  0.00    -0.336 N 
BRANCH  33  34
ATOM     34  C   LIG d   1       2.335  -0.655 -11.633  0.00  0.00     0.000 C 
ATOM     35  H   LIG d   1       1.765   0.204 -11.280  0.00  0.00     0.043 H 
ATOM     36  H   LIG d   1       1.940  -0.983 -12.595  0.00  0.00     0.043 H 
ATOM     37  H   LIG d   1       2.254  -1.467 -10.911  0.00  0.00     0.043 H 
ENDBRANCH  33  34
BRANCH  33  38
ATOM     38  C   LIG d   1       4.505  -0.746 -12.947  0.00  0.00     0.000 C 
ATOM     39  H   LIG d   1       5.518  -0.349 -12.901  0.00  0.00     0.043 H 
ATOM     40  H   LIG d   1       4.541  -1.836 -12.941  0.00  0.00     0.043 H 
ATOM     41  H   LIG d   1       4.022  -0.404 -13.861  0.00  0.00     0.043 H 
ENDBRANCH  33  38
ENDBRANCH  25  33
ENDBRANCH  22  23
ENDBRANCH  21  22
ENDBRANCH  11  17
BRANCH   1  42
ATOM     42  N   LIG d   1       5.739   1.403  -3.127  0.00  0.00     0.233 N 
ATOM     43  H   LIG d   1       6.019   2.244  -2.609  0.00  0.00     0.202 HD
ATOM     44  H   LIG d   1       5.128   1.668  -3.909  0.00  0.00     0.202 HD
BRANCH  42  45
ATOM     45  C   LIG d   1       5.007   0.496  -2.222  0.00  0.00    -0.033 C 
ATOM     46  H   LIG d   1       5.148  -0.535  -2.546  0.00  0.00     0.081 H 
ATOM     47  H   LIG d   1       5.382   0.611  -1.205  0.00  0.00     0.081 H 
BRANCH  45  48
ATOM     48  C   LIG d   1       3.518   0.844  -2.260  0.00  0.00    -0.010 C 
ATOM     49  H   LIG d   1       3.146   0.955  -1.242  0.00  0.00     0.032 H 
ATOM     50  H   LIG d   1       3.377   1.780  -2.801  0.00  0.00     0.032 H 
BRANCH  48  51
ATOM     51  C   LIG d   1       2.750  -0.274  -2.966  0.00  0.00    -0.042 C 
ATOM     52  H   LIG d   1       1.723  -0.298  -2.598  0.00  0.00     0.030 H 
BRANCH  51  53
ATOM     53  C   LIG d   1       2.745  -0.017  -4.473  0.00  0.00    -0.062 C 
ATOM     54  H   LIG d   1       2.115  -0.757  -4.967  0.00  0.00     0.023 H 
ATOM     55  H   LIG d   1       2.353   0.981  -4.670  0.00  0.00     0.023 H 
ATOM     56  H   LIG d   1       3.762  -0.091  -4.858  0.00  0.00     0.023 H 
ENDBRANCH  51  53
BRANCH  51  57
ATOM     57  C   LIG d   1       3.425  -1.617  -2.679  0.00  0.00    -0.062 C 
ATOM     58  H   LIG d   1       2.929  -2.401  -3.250  0.00  0.00     0.023 H 
ATOM     59  H   LIG d   1       4.475  -1.565  -2.969  0.00  0.00     0.023 H 
ATOM     60  H   LIG d   1       3.353  -1.839  -1.615  0.00  0.00     0.023 H 
ENDBRANCH  51  57
ENDBRANCH  48  51
ENDBRANCH  45  48
ENDBRANCH  42  45
ENDBRANCH   1  42
TORSDOF 12
ENDMDL
MODEL 9
REMARK VINA RESULT:      -5.8      4.668      7.502
REMARK  12 active torsions:
REMARK  status: ('A' for Active; 'I' for Inactive)
REMARK    1  A    between atoms: C_1  and  C_2 
REMARK    2  A    between atoms: C_2  and  C_3 
REMARK    3  A    between atoms: C_2  and  C_4 
REMARK    4  A    between atoms: C_4  and  C_5 
REMARK    5  A    between atoms: C_5  and  N_58 
REMARK    6  A    between atoms: C_6  and  N_58 
REMARK    7  A    between atoms: C_16  and  N_18 
REMARK    8  A    between atoms: C_19  and  O_23 
REMARK    9  A    between atoms: O_23  and  C_24 
REMARK   10  A    between atoms: C_28  and  N_30 
REMARK   11  A    between atoms: N_30  and  C_31 
REMARK   12  A    between atoms: N_30  and  C_32 
ROOT
ATOM      1  C   LIG d   1       6.942  -1.461  -3.521  0.00  0.00     0.030 C 
ATOM      2  H   LIG d   1       7.399  -1.138  -2.585  0.00  0.00     0.090 H 
ATOM      3  C   LIG d   1       7.919  -2.352  -4.320  0.00  0.00     0.093 C 
ATOM      4  O   LIG d   1       8.571  -1.450  -5.241  0.00  0.00    -0.366 OA
ATOM      5  C   LIG d   1       7.529  -0.575  -5.712  0.00  0.00     0.115 C 
ATOM      6  H   LIG d   1       6.931  -1.018  -6.509  0.00  0.00     0.065 H 
ATOM      7  C   LIG d   1       6.690  -0.247  -4.447  0.00  0.00     0.131 C 
ATOM      8  H   LIG d   1       5.634  -0.097  -4.666  0.00  0.00     0.068 H 
ATOM      9  O   LIG d   1       7.307   0.912  -3.869  0.00  0.00    -0.366 OA
ATOM     10  C   LIG d   1       7.932   1.684  -4.886  0.00  0.00     0.073 C 
ATOM     11  C   LIG d   1       8.133   0.781  -6.115  0.00  0.00     0.111 C 
ATOM     12  H   LIG d   1       9.195   0.673  -6.337  0.00  0.00     0.060 H 
ATOM     13  H   LIG d   1       8.649  -2.807  -3.652  0.00  0.00     0.062 H 
ATOM     14  H   LIG d   1       7.370  -3.122  -4.863  0.00  0.00     0.062 H 
ATOM     15  H   LIG d   1       8.897   2.055  -4.540  0.00  0.00     0.058 H 
ATOM     16  H   LIG d   1       7.287   2.524  -5.147  0.00  0.00     0.058 H 
ENDROOT
BRANCH  11  17
ATOM     17  N   LIG d   1       7.425   1.332  -7.273  0.00  0.00    -0.187 N 
ATOM     18  N   LIG d   1       6.076   1.139  -7.619  0.00  0.00    -0.041 NA
ATOM     19  N   LIG d   1       5.874   1.796  -8.709  0.00  0.00    -0.020 NA
ATOM     20  N   LIG d   1       6.953   2.385  -9.080  0.00  0.00    -0.070 NA
ATOM     21  C   LIG d   1       7.927   2.136  -8.236  0.00  0.00     0.342 A 
BRANCH  21  22
ATOM     22  O   LIG d   1       9.200   2.594  -8.318  0.00  0.00    -0.423 OA
BRANCH  22  23
ATOM     23  C   LIG d   1       9.432   3.894  -7.998  0.00  0.00     0.134 A 
ATOM     24  C   LIG d   1       9.827   4.233  -6.714  0.00  0.00     0.002 A 
ATOM     25  C   LIG d   1      10.063   5.562  -6.391  0.00  0.00     0.033 A 
ATOM     26  H   LIG d   1       9.952   3.463  -5.966  0.00  0.00     0.067 H 
ATOM     27  C   LIG d   1       9.901   6.548  -7.355  0.00  0.00    -0.040 A 
ATOM     28  C   LIG d   1       9.507   6.207  -8.635  0.00  0.00    -0.057 A 
ATOM     29  H   LIG d   1      10.084   7.584  -7.105  0.00  0.00     0.064 H 
ATOM     30  C   LIG d   1       9.266   4.885  -8.956  0.00  0.00    -0.019 A 
ATOM     31  H   LIG d   1       9.382   6.975  -9.383  0.00  0.00     0.062 H 
ATOM     32  H   LIG d   1       8.953   4.622  -9.956  0.00  0.00     0.065 H 
BRANCH  25  33
ATOM     33  N   LIG d   1      10.462   5.907  -5.098  0.00  0.00    -0.336 N 
BRANCH  33  34
ATOM     34  C   LIG d   1       9.734   5.378  -3.941  0.00  0.00     0.000 C 
ATOM     35  H   LIG d   1       8.801   4.925  -4.275  0.00  0.00     0.043 H 
ATOM     36  H   LIG d   1      10.344   4.625  -3.441  0.00  0.00     0.043 H 
ATOM     37  H   LIG d   1       9.517   6.189  -3.247  0.00  0.00     0.043 H 
ENDBRANCH  33  34
BRANCH  33  38
ATOM     38  C   LIG d   1      11.607   6.798  -4.898  0.00  0.00     0.000 C 
ATOM     39  H   LIG d   1      11.599   7.577  -5.659  0.00  0.00     0.043 H 
ATOM     40  H   LIG d   1      11.544   7.255  -3.910  0.00  0.00     0.043 H 
ATOM     41  H   LIG d   1      12.531   6.225  -4.973  0.00  0.00     0.043 H 
ENDBRANCH  33  38
ENDBRANCH  25  33
ENDBRANCH  22  23
ENDBRANCH  21  22
ENDBRANCH  11  17
BRANCH   1  42
ATOM     42  N   LIG d   1       5.678  -2.176  -3.265  0.00  0.00     0.233 N 
ATOM     43  H   LIG d   1       5.137  -2.229  -4.136  0.00  0.00     0.202 HD
ATOM     44  H   LIG d   1       5.887  -3.125  -2.933  0.00  0.00     0.202 HD
BRANCH  42  45
ATOM     45  C   LIG d   1       4.885  -1.466  -2.244  0.00  0.00    -0.033 C 
ATOM     46  H   LIG d   1       4.972  -1.983  -1.288  0.00  0.00     0.081 H 
ATOM     47  H   LIG d   1       5.253  -0.445  -2.138  0.00  0.00     0.081 H 
BRANCH  45  48
ATOM     48  C   LIG d   1       3.418  -1.438  -2.676  0.00  0.00    -0.010 C 
ATOM     49  H   LIG d   1       3.314  -1.943  -3.637  0.00  0.00     0.032 H 
ATOM     50  H   LIG d   1       2.809  -1.949  -1.930  0.00  0.00     0.032 H 
BRANCH  48  51
ATOM     51  C   LIG d   1       2.952   0.012  -2.809  0.00  0.00    -0.042 C 
ATOM     52  H   LIG d   1       1.975   0.125  -2.338  0.00  0.00     0.030 H 
BRANCH  51  53
ATOM     53  C   LIG d   1       3.958   0.936  -2.122  0.00  0.00    -0.062 C 
ATOM     54  H   LIG d   1       3.564   1.953  -2.100  0.00  0.00     0.023 H 
ATOM     55  H   LIG d   1       4.130   0.592  -1.102  0.00  0.00     0.023 H 
ATOM     56  H   LIG d   1       4.899   0.924  -2.674  0.00  0.00     0.023 H 
ENDBRANCH  51  53
BRANCH  51  57
ATOM     57  C   LIG d   1       2.849   0.382  -4.291  0.00  0.00    -0.062 C 
ATOM     58  H   LIG d   1       3.832   0.299  -4.755  0.00  0.00     0.023 H 
ATOM     59  H   LIG d   1       2.155  -0.297  -4.787  0.00  0.00     0.023 H 
ATOM     60  H   LIG d   1       2.487   1.405  -4.385  0.00  0.00     0.023 H 
ENDBRANCH  51  57
ENDBRANCH  48  51
ENDBRANCH  45  48
ENDBRANCH  42  45
ENDBRANCH   1  42
TORSDOF 12
ENDMDL
MODEL 10
REMARK VINA RESULT:      -5.7      6.554      9.110
REMARK  12 active torsions:
REMARK  status: ('A' for Active; 'I' for Inactive)
REMARK    1  A    between atoms: C_1  and  C_2 
REMARK    2  A    between atoms: C_2  and  C_3 
REMARK    3  A    between atoms: C_2  and  C_4 
REMARK    4  A    between atoms: C_4  and  C_5 
REMARK    5  A    between atoms: C_5  and  N_58 
REMARK    6  A    between atoms: C_6  and  N_58 
REMARK    7  A    between atoms: C_16  and  N_18 
REMARK    8  A    between atoms: C_19  and  O_23 
REMARK    9  A    between atoms: O_23  and  C_24 
REMARK   10  A    between atoms: C_28  and  N_30 
REMARK   11  A    between atoms: N_30  and  C_31 
REMARK   12  A    between atoms: N_30  and  C_32 
ROOT
ATOM      1  C   LIG d   1       8.220   1.387  -4.812  0.00  0.00     0.030 C 
ATOM      2  H   LIG d   1       8.749   0.462  -4.585  0.00  0.00     0.090 H 
ATOM      3  C   LIG d   1       8.563   1.871  -6.238  0.00  0.00     0.093 C 
ATOM      4  O   LIG d   1       9.635   2.823  -6.058  0.00  0.00    -0.366 OA
ATOM      5  C   LIG d   1       9.268   3.584  -4.892  0.00  0.00     0.115 C 
ATOM      6  H   LIG d   1       8.550   4.376  -5.109  0.00  0.00     0.065 H 
ATOM      7  C   LIG d   1       8.712   2.531  -3.894  0.00  0.00     0.131 C 
ATOM      8  H   LIG d   1       7.924   2.928  -3.255  0.00  0.00     0.068 H 
ATOM      9  O   LIG d   1       9.850   2.071  -3.151  0.00  0.00    -0.366 OA
ATOM     10  C   LIG d   1      10.830   3.099  -3.081  0.00  0.00     0.073 C 
ATOM     11  C   LIG d   1      10.535   4.114  -4.198  0.00  0.00     0.111 C 
ATOM     12  H   LIG d   1      11.365   4.155  -4.904  0.00  0.00     0.060 H 
ATOM     13  H   LIG d   1       8.897   1.035  -6.852  0.00  0.00     0.062 H 
ATOM     14  H   LIG d   1       7.697   2.353  -6.693  0.00  0.00     0.062 H 
ATOM     15  H   LIG d   1      11.827   2.680  -3.218  0.00  0.00     0.058 H 
ATOM     16  H   LIG d   1      10.768   3.590  -2.110  0.00  0.00     0.058 H 
ENDROOT
BRANCH  11  17
ATOM     17  N   LIG d   1      10.288   5.440  -3.628  0.00  0.00    -0.187 N 
ATOM     18  N   LIG d   1       9.667   5.741  -2.403  0.00  0.00    -0.041 NA
ATOM     19  N   LIG d   1       9.652   7.026  -2.298  0.00  0.00    -0.020 NA
ATOM     20  N   LIG d   1      10.203   7.562  -3.327  0.00  0.00    -0.070 NA
ATOM     21  C   LIG d   1      10.610   6.638  -4.166  0.00  0.00     0.342 A 
BRANCH  21  22
ATOM     22  O   LIG d   1      11.231   6.846  -5.352  0.00  0.00    -0.423 OA
BRANCH  22  23
ATOM     23  C   LIG d   1      10.465   7.194  -6.420  0.00  0.00     0.134 A 
ATOM     24  C   LIG d   1      10.187   6.261  -7.407  0.00  0.00     0.002 A 
ATOM     25  C   LIG d   1       9.405   6.621  -8.496  0.00  0.00     0.033 A 
ATOM     26  H   LIG d   1      10.577   5.257  -7.328  0.00  0.00     0.067 H 
ATOM     27  C   LIG d   1       8.905   7.913  -8.594  0.00  0.00    -0.040 A 
ATOM     28  C   LIG d   1       9.185   8.839  -7.608  0.00  0.00    -0.057 A 
ATOM     29  H   LIG d   1       8.296   8.193  -9.442  0.00  0.00     0.064 H 
ATOM     30  C   LIG d   1       9.967   8.485  -6.526  0.00  0.00    -0.019 A 
ATOM     31  H   LIG d   1       8.795   9.843  -7.686  0.00  0.00     0.062 H 
ATOM     32  H   LIG d   1      10.189   9.213  -5.760  0.00  0.00     0.065 H 
BRANCH  25  33
ATOM     33  N   LIG d   1       9.122   5.684  -9.492  0.00  0.00    -0.336 N 
BRANCH  33  34
ATOM     34  C   LIG d   1       8.885   4.283  -9.134  0.00  0.00     0.000 C 
ATOM     35  H   LIG d   1       8.395   3.774  -9.964  0.00  0.00     0.043 H 
ATOM     36  H   LIG d   1       9.837   3.796  -8.921  0.00  0.00     0.043 H 
ATOM     37  H   LIG d   1       8.248   4.237  -8.252  0.00  0.00     0.043 H 
ENDBRANCH  33  34
BRANCH  33  38
ATOM     38  C   LIG d   1       9.062   6.101 -10.895  0.00  0.00     0.000 C 
ATOM     39  H   LIG d   1       9.888   5.649 -11.445  0.00  0.00     0.043 H 
ATOM     40  H   LIG d   1       8.117   5.778 -11.331  0.00  0.00     0.043 H 
ATOM     41  H   LIG d   1       9.137   7.186 -10.955  0.00  0.00     0.043 H 
ENDBRANCH  33  38
ENDBRANCH  25  33
ENDBRANCH  22  23
ENDBRANCH  21  22
ENDBRANCH  11  17
BRANCH   1  42
ATOM     42  N   LIG d   1       6.763   1.207  -4.662  0.00  0.00     0.233 N 
ATOM     43  H   LIG d   1       6.282   2.054  -4.986  0.00  0.00     0.202 HD
ATOM     44  H   LIG d   1       6.462   0.403  -5.226  0.00  0.00     0.202 HD
BRANCH  42  45
ATOM     45  C   LIG d   1       6.421   0.964  -3.248  0.00  0.00    -0.033 C 
ATOM     46  H   LIG d   1       7.313   1.079  -2.630  0.00  0.00     0.081 H 
ATOM     47  H   LIG d   1       5.663   1.679  -2.926  0.00  0.00     0.081 H 
BRANCH  45  48
ATOM     48  C   LIG d   1       5.878  -0.458  -3.100  0.00  0.00    -0.010 C 
ATOM     49  H   LIG d   1       5.483  -0.797  -4.057  0.00  0.00     0.032 H 
ATOM     50  H   LIG d   1       6.681  -1.124  -2.782  0.00  0.00     0.032 H 
BRANCH  48  51
ATOM     51  C   LIG d   1       4.761  -0.472  -2.055  0.00  0.00    -0.042 C 
ATOM     52  H   LIG d   1       5.198  -0.539  -1.057  0.00  0.00     0.030 H 
BRANCH  51  53
ATOM     53  C   LIG d   1       3.941   0.814  -2.166  0.00  0.00    -0.062 C 
ATOM     54  H   LIG d   1       3.607   1.120  -1.175  0.00  0.00     0.023 H 
ATOM     55  H   LIG d   1       4.557   1.601  -2.601  0.00  0.00     0.023 H 
ATOM     56  H   LIG d   1       3.074   0.638  -2.803  0.00  0.00     0.023 H 
ENDBRANCH  51  53
BRANCH  51  57
ATOM     57  C   LIG d   1       3.852  -1.680  -2.295  0.00  0.00    -0.062 C 
ATOM     58  H   LIG d   1       4.459  -2.582  -2.369  0.00  0.00     0.023 H 
ATOM     59  H   LIG d   1       3.153  -1.779  -1.464  0.00  0.00     0.023 H 
ATOM     60  H   LIG d   1       3.298  -1.537  -3.222  0.00  0.00     0.023 H 
ENDBRANCH  51  57
ENDBRANCH  48  51
ENDBRANCH  45  48
ENDBRANCH  42  45
ENDBRANCH   1  42
TORSDOF 12
ENDMDL
