MODEL 1
REMARK VINA RESULT:      -7.1      0.000      0.000
REMARK  5 active torsions:
REMARK  status: ('A' for Active; 'I' for Inactive)
REMARK    1  A    between atoms: C_1  and  C_2 
REMARK    2  A    between atoms: C_2  and  C_23 
REMARK    3  A    between atoms: C_4  and  C_17 
REMARK    4  A    between atoms: C_6  and  C_7 
REMARK    5  A    between atoms: C_7  and  C_8 
ROOT
ATOM      1  C   LIG d   1       8.334   1.531  -6.235  0.00  0.00     0.248 C 
ATOM      2  O   LIG d   1       7.109   1.331  -5.521  0.00  0.00    -0.451 OA
ATOM      3  C   LIG d   1       7.205   1.280  -4.169  0.00  0.00     0.136 C 
ATOM      4  C   LIG d   1       8.222   1.944  -3.547  0.00  0.00     0.023 C 
ATOM      5  C   LIG d   1       9.152   2.663  -4.328  0.00  0.00     0.129 C 
ATOM      6  O   LIG d   1       9.005   2.669  -5.680  0.00  0.00    -0.452 OA
ATOM      7  H   LIG d   1       8.314   1.920  -2.471  0.00  0.00     0.069 H 
ENDROOT
BRANCH   5   8
ATOM      8  C   LIG d   1      10.196   3.349  -3.730  0.00  0.00    -0.018 C 
ATOM      9  H   LIG d   1      11.218   3.106  -3.983  0.00  0.00     0.065 H 
BRANCH   8  10
ATOM     10  C   LIG d   1       9.930   4.354  -2.800  0.00  0.00    -0.039 C 
ATOM     11  C   LIG d   1       9.882   5.676  -3.203  0.00  0.00     0.079 A 
ATOM     12  S   LIG d   1      10.121   6.378  -4.831  0.00  0.00    -0.026 SA
ATOM     13  C   LIG d   1       9.637   6.845  -2.439  0.00  0.00     0.258 A 
ATOM     14  C   LIG d   1       9.876   8.091  -4.388  0.00  0.00     0.283 A 
ATOM     15  N   LIG d   1       9.643   8.012  -3.058  0.00  0.00    -0.242 N 
ATOM     16  O   LIG d   1       9.915   9.077  -5.099  0.00  0.00    -0.262 OA
ATOM     17  H   LIG d   1       9.477   8.823  -2.553  0.00  0.00     0.159 HD
ATOM     18  O   LIG d   1       9.427   6.774  -1.240  0.00  0.00    -0.269 OA
ATOM     19  H   LIG d   1       9.760   4.099  -1.764  0.00  0.00     0.063 H 
ENDBRANCH   8  10
ENDBRANCH   5   8
BRANCH   3  20
ATOM     20  C   LIG d   1       6.222   0.516  -3.379  0.00  0.00     0.017 A 
ATOM     21  C   LIG d   1       6.178  -0.878  -3.471  0.00  0.00    -0.051 A 
ATOM     22  C   LIG d   1       5.258  -1.586  -2.725  0.00  0.00    -0.061 A 
ATOM     23  H   LIG d   1       6.863  -1.400  -4.123  0.00  0.00     0.062 H 
ATOM     24  C   LIG d   1       4.375  -0.919  -1.895  0.00  0.00    -0.062 A 
ATOM     25  H   LIG d   1       5.225  -2.663  -2.793  0.00  0.00     0.062 H 
ATOM     26  C   LIG d   1       4.410   0.461  -1.802  0.00  0.00    -0.061 A 
ATOM     27  H   LIG d   1       3.655  -1.479  -1.316  0.00  0.00     0.062 H 
ATOM     28  C   LIG d   1       5.327   1.182  -2.538  0.00  0.00    -0.051 A 
ATOM     29  H   LIG d   1       3.718   0.975  -1.152  0.00  0.00     0.062 H 
ATOM     30  H   LIG d   1       5.353   2.259  -2.464  0.00  0.00     0.062 H 
ENDBRANCH   3  20
BRANCH   1  31
ATOM     31  C   LIG d   1       8.031   1.782  -7.714  0.00  0.00     0.013 C 
ATOM     32  H   LIG d   1       8.359   2.786  -7.986  0.00  0.00     0.030 H 
ATOM     33  H   LIG d   1       8.559   1.049  -8.323  0.00  0.00     0.030 H 
ATOM     34  H   LIG d   1       6.959   1.693  -7.885  0.00  0.00     0.030 H 
ENDBRANCH   1  31
BRANCH   1  35
ATOM     35  C   LIG d   1       9.222   0.293  -6.097  0.00  0.00     0.013 C 
ATOM     36  H   LIG d   1      10.269   0.594  -6.108  0.00  0.00     0.030 H 
ATOM     37  H   LIG d   1       9.000  -0.210  -5.156  0.00  0.00     0.030 H 
ATOM     38  H   LIG d   1       9.030  -0.387  -6.926  0.00  0.00     0.030 H 
ENDBRANCH   1  35
TORSDOF 5
ENDMDL
MODEL 2
REMARK VINA RESULT:      -6.9      6.541      8.513
REMARK  5 active torsions:
REMARK  status: ('A' for Active; 'I' for Inactive)
REMARK    1  A    between atoms: C_1  and  C_2 
REMARK    2  A    between atoms: C_2  and  C_23 
REMARK    3  A    between atoms: C_4  and  C_17 
REMARK    4  A    between atoms: C_6  and  C_7 
REMARK    5  A    between atoms: C_7  and  C_8 
ROOT
ATOM      1  C   LIG d   1       3.802   0.110  -3.354  0.00  0.00     0.248 C 
ATOM      2  O   LIG d   1       5.099  -0.479  -3.499  0.00  0.00    -0.451 OA
ATOM      3  C   LIG d   1       5.274  -1.286  -4.575  0.00  0.00     0.136 C 
ATOM      4  C   LIG d   1       4.525  -1.075  -5.695  0.00  0.00     0.023 C 
ATOM      5  C   LIG d   1       3.581  -0.026  -5.704  0.00  0.00     0.129 C 
ATOM      6  O   LIG d   1       3.448   0.743  -4.590  0.00  0.00    -0.452 OA
ATOM      7  H   LIG d   1       4.652  -1.703  -6.565  0.00  0.00     0.069 H 
ENDROOT
BRANCH   5   8
ATOM      8  C   LIG d   1       2.804   0.216  -6.825  0.00  0.00    -0.018 C 
ATOM      9  H   LIG d   1       1.757  -0.053  -6.825  0.00  0.00     0.065 H 
BRANCH   8  10
ATOM     10  C   LIG d   1       3.371   0.807  -7.953  0.00  0.00    -0.039 C 
ATOM     11  C   LIG d   1       3.098   0.301  -9.212  0.00  0.00     0.079 A 
ATOM     12  S   LIG d   1       2.068  -1.083  -9.681  0.00  0.00    -0.026 SA
ATOM     13  C   LIG d   1       3.563   0.735 -10.479  0.00  0.00     0.258 A 
ATOM     14  C   LIG d   1       2.317  -0.974 -11.447  0.00  0.00     0.283 A 
ATOM     15  N   LIG d   1       3.156   0.082 -11.553  0.00  0.00    -0.242 N 
ATOM     16  O   LIG d   1       1.855  -1.674 -12.328  0.00  0.00    -0.262 OA
ATOM     17  H   LIG d   1       3.463   0.362 -12.429  0.00  0.00     0.159 HD
ATOM     18  O   LIG d   1       4.320   1.686 -10.574  0.00  0.00    -0.269 OA
ATOM     19  H   LIG d   1       4.024   1.661  -7.845  0.00  0.00     0.063 H 
ENDBRANCH   8  10
ENDBRANCH   5   8
BRANCH   3  20
ATOM     20  C   LIG d   1       6.264  -2.378  -4.536  0.00  0.00     0.017 A 
ATOM     21  C   LIG d   1       6.068  -3.532  -5.300  0.00  0.00    -0.051 A 
ATOM     22  C   LIG d   1       7.000  -4.547  -5.261  0.00  0.00    -0.061 A 
ATOM     23  H   LIG d   1       5.190  -3.627  -5.921  0.00  0.00     0.062 H 
ATOM     24  C   LIG d   1       8.123  -4.430  -4.460  0.00  0.00    -0.062 A 
ATOM     25  H   LIG d   1       6.852  -5.438  -5.854  0.00  0.00     0.062 H 
ATOM     26  C   LIG d   1       8.322  -3.293  -3.698  0.00  0.00    -0.061 A 
ATOM     27  H   LIG d   1       8.848  -5.231  -4.432  0.00  0.00     0.062 H 
ATOM     28  C   LIG d   1       7.400  -2.268  -3.729  0.00  0.00    -0.051 A 
ATOM     29  H   LIG d   1       9.200  -3.208  -3.075  0.00  0.00     0.062 H 
ATOM     30  H   LIG d   1       7.557  -1.380  -3.134  0.00  0.00     0.062 H 
ENDBRANCH   3  20
BRANCH   1  31
ATOM     31  C   LIG d   1       3.832   1.151  -2.232  0.00  0.00     0.013 C 
ATOM     32  H   LIG d   1       4.195   0.686  -1.315  0.00  0.00     0.030 H 
ATOM     33  H   LIG d   1       4.495   1.969  -2.513  0.00  0.00     0.030 H 
ATOM     34  H   LIG d   1       2.826   1.537  -2.069  0.00  0.00     0.030 H 
ENDBRANCH   1  31
BRANCH   1  35
ATOM     35  C   LIG d   1       2.775  -0.974  -3.020  0.00  0.00     0.013 C 
ATOM     36  H   LIG d   1       3.274  -1.807  -2.524  0.00  0.00     0.030 H 
ATOM     37  H   LIG d   1       2.013  -0.563  -2.359  0.00  0.00     0.030 H 
ATOM     38  H   LIG d   1       2.307  -1.327  -3.939  0.00  0.00     0.030 H 
ENDBRANCH   1  35
TORSDOF 5
ENDMDL
MODEL 3
REMARK VINA RESULT:      -6.9      1.609      2.307
REMARK  5 active torsions:
REMARK  status: ('A' for Active; 'I' for Inactive)
REMARK    1  A    between atoms: C_1  and  C_2 
REMARK    2  A    between atoms: C_2  and  C_23 
REMARK    3  A    between atoms: C_4  and  C_17 
REMARK    4  A    between atoms: C_6  and  C_7 
REMARK    5  A    between atoms: C_7  and  C_8 
ROOT
ATOM      1  C   LIG d   1       8.497   1.252  -6.241  0.00  0.00     0.248 C 
ATOM      2  O   LIG d   1       7.234   1.057  -5.594  0.00  0.00    -0.451 OA
ATOM      3  C   LIG d   1       7.210   1.265  -4.253  0.00  0.00     0.136 C 
ATOM      4  C   LIG d   1       8.100   2.137  -3.697  0.00  0.00     0.023 C 
ATOM      5  C   LIG d   1       9.029   2.796  -4.531  0.00  0.00     0.129 C 
ATOM      6  O   LIG d   1       9.007   2.538  -5.866  0.00  0.00    -0.452 OA
ATOM      7  H   LIG d   1       8.094   2.320  -2.633  0.00  0.00     0.069 H 
ENDROOT
BRANCH   5   8
ATOM      8  C   LIG d   1       9.947   3.687  -4.000  0.00  0.00    -0.018 C 
ATOM      9  H   LIG d   1      11.003   3.546  -4.179  0.00  0.00     0.065 H 
BRANCH   8  10
ATOM     10  C   LIG d   1       9.508   4.768  -3.235  0.00  0.00    -0.039 C 
ATOM     11  C   LIG d   1      10.344   5.330  -2.287  0.00  0.00     0.079 A 
ATOM     12  S   LIG d   1      12.014   4.880  -1.834  0.00  0.00    -0.026 SA
ATOM     13  C   LIG d   1      10.107   6.414  -1.405  0.00  0.00     0.258 A 
ATOM     14  C   LIG d   1      12.259   6.120  -0.573  0.00  0.00     0.283 A 
ATOM     15  N   LIG d   1      11.074   6.772  -0.578  0.00  0.00    -0.242 N 
ATOM     16  O   LIG d   1      13.239   6.324   0.119  0.00  0.00    -0.262 OA
ATOM     17  H   LIG d   1      10.932   7.511   0.033  0.00  0.00     0.159 HD
ATOM     18  O   LIG d   1       9.039   7.001  -1.409  0.00  0.00    -0.269 OA
ATOM     19  H   LIG d   1       8.515   5.166  -3.383  0.00  0.00     0.063 H 
ENDBRANCH   8  10
ENDBRANCH   5   8
BRANCH   3  20
ATOM     20  C   LIG d   1       6.232   0.558  -3.406  0.00  0.00     0.017 A 
ATOM     21  C   LIG d   1       5.373   1.280  -2.572  0.00  0.00    -0.051 A 
ATOM     22  C   LIG d   1       4.457   0.612  -1.787  0.00  0.00    -0.061 A 
ATOM     23  H   LIG d   1       5.424   2.359  -2.546  0.00  0.00     0.062 H 
ATOM     24  C   LIG d   1       4.395  -0.771  -1.814  0.00  0.00    -0.062 A 
ATOM     25  H   LIG d   1       3.791   1.168  -1.145  0.00  0.00     0.062 H 
ATOM     26  C   LIG d   1       5.245  -1.492  -2.633  0.00  0.00    -0.061 A 
ATOM     27  H   LIG d   1       3.678  -1.288  -1.194  0.00  0.00     0.062 H 
ATOM     28  C   LIG d   1       6.162  -0.838  -3.429  0.00  0.00    -0.051 A 
ATOM     29  H   LIG d   1       5.191  -2.570  -2.650  0.00  0.00     0.062 H 
ATOM     30  H   LIG d   1       6.825  -1.402  -4.068  0.00  0.00     0.062 H 
ENDBRANCH   3  20
BRANCH   1  31
ATOM     31  C   LIG d   1       8.310   1.195  -7.759  0.00  0.00     0.013 C 
ATOM     32  H   LIG d   1       9.056   1.828  -8.240  0.00  0.00     0.030 H 
ATOM     33  H   LIG d   1       8.430   0.167  -8.101  0.00  0.00     0.030 H 
ATOM     34  H   LIG d   1       7.312   1.550  -8.015  0.00  0.00     0.030 H 
ENDBRANCH   1  31
BRANCH   1  35
ATOM     35  C   LIG d   1       9.477   0.163  -5.803  0.00  0.00     0.013 C 
ATOM     36  H   LIG d   1       8.928  -0.659  -5.346  0.00  0.00     0.030 H 
ATOM     37  H   LIG d   1      10.024  -0.206  -6.671  0.00  0.00     0.030 H 
ATOM     38  H   LIG d   1      10.181   0.576  -5.080  0.00  0.00     0.030 H 
ENDBRANCH   1  35
TORSDOF 5
ENDMDL
MODEL 4
REMARK VINA RESULT:      -6.5      6.939      9.096
REMARK  5 active torsions:
REMARK  status: ('A' for Active; 'I' for Inactive)
REMARK    1  A    between atoms: C_1  and  C_2 
REMARK    2  A    between atoms: C_2  and  C_23 
REMARK    3  A    between atoms: C_4  and  C_17 
REMARK    4  A    between atoms: C_6  and  C_7 
REMARK    5  A    between atoms: C_7  and  C_8 
ROOT
ATOM      1  C   LIG d   1       4.784  -2.045  -7.330  0.00  0.00     0.248 C 
ATOM      2  O   LIG d   1       4.439  -1.905  -5.946  0.00  0.00    -0.451 OA
ATOM      3  C   LIG d   1       3.884  -0.721  -5.584  0.00  0.00     0.136 C 
ATOM      4  C   LIG d   1       3.182  -0.004  -6.507  0.00  0.00     0.023 C 
ATOM      5  C   LIG d   1       3.055  -0.509  -7.820  0.00  0.00     0.129 C 
ATOM      6  O   LIG d   1       3.641  -1.698  -8.122  0.00  0.00    -0.452 OA
ATOM      7  H   LIG d   1       2.728   0.939  -6.238  0.00  0.00     0.069 H 
ENDROOT
BRANCH   5   8
ATOM      8  C   LIG d   1       2.348   0.194  -8.782  0.00  0.00    -0.018 C 
ATOM      9  H   LIG d   1       2.244   1.266  -8.699  0.00  0.00     0.065 H 
BRANCH   8  10
ATOM     10  C   LIG d   1       1.771  -0.482  -9.856  0.00  0.00    -0.039 C 
ATOM     11  C   LIG d   1       2.473  -0.628 -11.040  0.00  0.00     0.079 A 
ATOM     12  S   LIG d   1       4.114  -0.060 -11.466  0.00  0.00    -0.026 SA
ATOM     13  C   LIG d   1       2.084  -1.264 -12.246  0.00  0.00     0.258 A 
ATOM     14  C   LIG d   1       4.156  -0.693 -13.136  0.00  0.00     0.283 A 
ATOM     15  N   LIG d   1       2.940  -1.274 -13.253  0.00  0.00    -0.242 N 
ATOM     16  O   LIG d   1       5.048  -0.617 -13.960  0.00  0.00    -0.262 OA
ATOM     17  H   LIG d   1       2.694  -1.703 -14.086  0.00  0.00     0.159 HD
ATOM     18  O   LIG d   1       0.988  -1.787 -12.352  0.00  0.00    -0.269 OA
ATOM     19  H   LIG d   1       0.776  -0.891  -9.765  0.00  0.00     0.063 H 
ENDBRANCH   8  10
ENDBRANCH   5   8
BRANCH   3  20
ATOM     20  C   LIG d   1       4.038  -0.216  -4.208  0.00  0.00     0.017 A 
ATOM     21  C   LIG d   1       4.724  -0.973  -3.253  0.00  0.00    -0.051 A 
ATOM     22  C   LIG d   1       4.867  -0.491  -1.969  0.00  0.00    -0.061 A 
ATOM     23  H   LIG d   1       5.142  -1.932  -3.522  0.00  0.00     0.062 H 
ATOM     24  C   LIG d   1       4.326   0.734  -1.621  0.00  0.00    -0.062 A 
ATOM     25  H   LIG d   1       5.400  -1.073  -1.232  0.00  0.00     0.062 H 
ATOM     26  C   LIG d   1       3.643   1.487  -2.559  0.00  0.00    -0.061 A 
ATOM     27  H   LIG d   1       4.439   1.105  -0.613  0.00  0.00     0.062 H 
ATOM     28  C   LIG d   1       3.495   1.021  -3.849  0.00  0.00    -0.051 A 
ATOM     29  H   LIG d   1       3.223   2.443  -2.282  0.00  0.00     0.062 H 
ATOM     30  H   LIG d   1       2.961   1.610  -4.580  0.00  0.00     0.062 H 
ENDBRANCH   3  20
BRANCH   1  31
ATOM     31  C   LIG d   1       5.188  -3.494  -7.615  0.00  0.00     0.013 C 
ATOM     32  H   LIG d   1       4.304  -4.131  -7.573  0.00  0.00     0.030 H 
ATOM     33  H   LIG d   1       5.637  -3.557  -8.606  0.00  0.00     0.030 H 
ATOM     34  H   LIG d   1       5.908  -3.823  -6.866  0.00  0.00     0.030 H 
ENDBRANCH   1  31
BRANCH   1  35
ATOM     35  C   LIG d   1       5.947  -1.112  -7.670  0.00  0.00     0.013 C 
ATOM     36  H   LIG d   1       6.882  -1.672  -7.648  0.00  0.00     0.030 H 
ATOM     37  H   LIG d   1       5.799  -0.694  -8.666  0.00  0.00     0.030 H 
ATOM     38  H   LIG d   1       5.991  -0.304  -6.940  0.00  0.00     0.030 H 
ENDBRANCH   1  35
TORSDOF 5
ENDMDL
MODEL 5
REMARK VINA RESULT:      -6.5      7.134     10.529
REMARK  5 active torsions:
REMARK  status: ('A' for Active; 'I' for Inactive)
REMARK    1  A    between atoms: C_1  and  C_2 
REMARK    2  A    between atoms: C_2  and  C_23 
REMARK    3  A    between atoms: C_4  and  C_17 
REMARK    4  A    between atoms: C_6  and  C_7 
REMARK    5  A    between atoms: C_7  and  C_8 
ROOT
ATOM      1  C   LIG d   1       7.869  -3.194  -4.537  0.00  0.00     0.248 C 
ATOM      2  O   LIG d   1       7.094  -2.483  -3.563  0.00  0.00    -0.451 OA
ATOM      3  C   LIG d   1       5.785  -2.295  -3.862  0.00  0.00     0.136 C 
ATOM      4  C   LIG d   1       5.150  -3.188  -4.674  0.00  0.00     0.023 C 
ATOM      5  C   LIG d   1       5.875  -4.284  -5.190  0.00  0.00     0.129 C 
ATOM      6  O   LIG d   1       7.188  -4.413  -4.859  0.00  0.00    -0.452 OA
ATOM      7  H   LIG d   1       4.106  -3.059  -4.920  0.00  0.00     0.069 H 
ENDROOT
BRANCH   5   8
ATOM      8  C   LIG d   1       5.262  -5.211  -6.017  0.00  0.00    -0.018 C 
ATOM      9  H   LIG d   1       5.200  -5.027  -7.080  0.00  0.00     0.065 H 
BRANCH   8  10
ATOM     10  C   LIG d   1       4.725  -6.380  -5.479  0.00  0.00    -0.039 C 
ATOM     11  C   LIG d   1       5.471  -7.545  -5.473  0.00  0.00     0.079 A 
ATOM     12  S   LIG d   1       7.127  -7.839  -6.080  0.00  0.00    -0.026 SA
ATOM     13  C   LIG d   1       5.127  -8.833  -4.990  0.00  0.00     0.258 A 
ATOM     14  C   LIG d   1       7.231  -9.570  -5.652  0.00  0.00     0.283 A 
ATOM     15  N   LIG d   1       6.020  -9.801  -5.096  0.00  0.00    -0.242 N 
ATOM     16  O   LIG d   1       8.154 -10.345  -5.823  0.00  0.00    -0.262 OA
ATOM     17  H   LIG d   1       5.805 -10.689  -4.772  0.00  0.00     0.159 HD
ATOM     18  O   LIG d   1       4.035  -9.042  -4.489  0.00  0.00    -0.269 OA
ATOM     19  H   LIG d   1       3.727  -6.375  -5.067  0.00  0.00     0.063 H 
ENDBRANCH   8  10
ENDBRANCH   5   8
BRANCH   3  20
ATOM     20  C   LIG d   1       5.054  -1.137  -3.314  0.00  0.00     0.017 A 
ATOM     21  C   LIG d   1       3.658  -1.160  -3.235  0.00  0.00    -0.051 A 
ATOM     22  C   LIG d   1       2.983  -0.076  -2.716  0.00  0.00    -0.061 A 
ATOM     23  H   LIG d   1       3.111  -2.027  -3.576  0.00  0.00     0.062 H 
ATOM     24  C   LIG d   1       3.681   1.038  -2.284  0.00  0.00    -0.062 A 
ATOM     25  H   LIG d   1       1.905  -0.094  -2.651  0.00  0.00     0.062 H 
ATOM     26  C   LIG d   1       5.062   1.070  -2.364  0.00  0.00    -0.061 A 
ATOM     27  H   LIG d   1       3.146   1.886  -1.883  0.00  0.00     0.062 H 
ATOM     28  C   LIG d   1       5.753  -0.009  -2.875  0.00  0.00    -0.051 A 
ATOM     29  H   LIG d   1       5.602   1.942  -2.025  0.00  0.00     0.062 H 
ATOM     30  H   LIG d   1       6.830   0.017  -2.936  0.00  0.00     0.062 H 
ENDBRANCH   3  20
BRANCH   1  31
ATOM     31  C   LIG d   1       9.251  -3.512  -3.961  0.00  0.00     0.013 C 
ATOM     32  H   LIG d   1       9.171  -3.655  -2.883  0.00  0.00     0.030 H 
ATOM     33  H   LIG d   1       9.636  -4.422  -4.422  0.00  0.00     0.030 H 
ATOM     34  H   LIG d   1       9.929  -2.684  -4.168  0.00  0.00     0.030 H 
ENDBRANCH   1  31
BRANCH   1  35
ATOM     35  C   LIG d   1       8.022  -2.342  -5.798  0.00  0.00     0.013 C 
ATOM     36  H   LIG d   1       8.295  -2.981  -6.638  0.00  0.00     0.030 H 
ATOM     37  H   LIG d   1       7.079  -1.842  -6.016  0.00  0.00     0.030 H 
ATOM     38  H   LIG d   1       8.801  -1.596  -5.642  0.00  0.00     0.030 H 
ENDBRANCH   1  35
TORSDOF 5
ENDMDL
MODEL 6
REMARK VINA RESULT:      -6.3      1.754      2.449
REMARK  5 active torsions:
REMARK  status: ('A' for Active; 'I' for Inactive)
REMARK    1  A    between atoms: C_1  and  C_2 
REMARK    2  A    between atoms: C_2  and  C_23 
REMARK    3  A    between atoms: C_4  and  C_17 
REMARK    4  A    between atoms: C_6  and  C_7 
REMARK    5  A    between atoms: C_7  and  C_8 
ROOT
ATOM      1  C   LIG d   1       6.959   0.483  -7.156  0.00  0.00     0.248 C 
ATOM      2  O   LIG d   1       5.904   0.266  -6.211  0.00  0.00    -0.451 OA
ATOM      3  C   LIG d   1       6.265   0.245  -4.904  0.00  0.00     0.136 C 
ATOM      4  C   LIG d   1       7.364   0.948  -4.504  0.00  0.00     0.023 C 
ATOM      5  C   LIG d   1       8.102   1.675  -5.463  0.00  0.00     0.129 C 
ATOM      6  O   LIG d   1       7.692   1.650  -6.759  0.00  0.00    -0.452 OA
ATOM      7  H   LIG d   1       7.666   0.948  -3.467  0.00  0.00     0.069 H 
ENDROOT
BRANCH   5   8
ATOM      8  C   LIG d   1       9.222   2.400  -5.091  0.00  0.00    -0.018 C 
ATOM      9  H   LIG d   1      10.177   1.905  -4.993  0.00  0.00     0.065 H 
BRANCH   8  10
ATOM     10  C   LIG d   1       9.118   3.768  -4.844  0.00  0.00    -0.039 C 
ATOM     11  C   LIG d   1       9.766   4.328  -3.757  0.00  0.00     0.079 A 
ATOM     12  S   LIG d   1      10.791   3.545  -2.519  0.00  0.00    -0.026 SA
ATOM     13  C   LIG d   1       9.793   5.676  -3.319  0.00  0.00     0.258 A 
ATOM     14  C   LIG d   1      11.167   5.007  -1.565  0.00  0.00     0.283 A 
ATOM     15  N   LIG d   1      10.493   5.968  -2.237  0.00  0.00    -0.242 N 
ATOM     16  O   LIG d   1      11.850   5.112  -0.563  0.00  0.00    -0.262 OA
ATOM     17  H   LIG d   1      10.525   6.884  -1.920  0.00  0.00     0.159 HD
ATOM     18  O   LIG d   1       9.185   6.542  -3.924  0.00  0.00    -0.269 OA
ATOM     19  H   LIG d   1       8.530   4.392  -5.502  0.00  0.00     0.063 H 
ENDBRANCH   8  10
ENDBRANCH   5   8
BRANCH   3  20
ATOM     20  C   LIG d   1       5.479  -0.528  -3.925  0.00  0.00     0.017 A 
ATOM     21  C   LIG d   1       5.039  -1.818  -4.239  0.00  0.00    -0.051 A 
ATOM     22  C   LIG d   1       4.308  -2.536  -3.316  0.00  0.00    -0.061 A 
ATOM     23  H   LIG d   1       5.274  -2.251  -5.200  0.00  0.00     0.062 H 
ATOM     24  C   LIG d   1       4.001  -1.980  -2.087  0.00  0.00    -0.062 A 
ATOM     25  H   LIG d   1       3.971  -3.534  -3.556  0.00  0.00     0.062 H 
ATOM     26  C   LIG d   1       4.429  -0.703  -1.771  0.00  0.00    -0.061 A 
ATOM     27  H   LIG d   1       3.425  -2.547  -1.370  0.00  0.00     0.062 H 
ATOM     28  C   LIG d   1       5.164   0.026  -2.681  0.00  0.00    -0.051 A 
ATOM     29  H   LIG d   1       4.186  -0.275  -0.810  0.00  0.00     0.062 H 
ATOM     30  H   LIG d   1       5.498   1.023  -2.434  0.00  0.00     0.062 H 
ENDBRANCH   3  20
BRANCH   1  31
ATOM     31  C   LIG d   1       6.366   0.697  -8.550  0.00  0.00     0.013 C 
ATOM     32  H   LIG d   1       6.908   0.087  -9.273  0.00  0.00     0.030 H 
ATOM     33  H   LIG d   1       5.315   0.408  -8.546  0.00  0.00     0.030 H 
ATOM     34  H   LIG d   1       6.453   1.748  -8.824  0.00  0.00     0.030 H 
ENDBRANCH   1  31
BRANCH   1  35
ATOM     35  C   LIG d   1       7.893  -0.728  -7.176  0.00  0.00     0.013 C 
ATOM     36  H   LIG d   1       8.921  -0.393  -7.318  0.00  0.00     0.030 H 
ATOM     37  H   LIG d   1       7.815  -1.263  -6.230  0.00  0.00     0.030 H 
ATOM     38  H   LIG d   1       7.612  -1.392  -7.993  0.00  0.00     0.030 H 
ENDBRANCH   1  35
TORSDOF 5
ENDMDL
MODEL 7
REMARK VINA RESULT:      -6.3      2.564      2.838
REMARK  5 active torsions:
REMARK  status: ('A' for Active; 'I' for Inactive)
REMARK    1  A    between atoms: C_1  and  C_2 
REMARK    2  A    between atoms: C_2  and  C_23 
REMARK    3  A    between atoms: C_4  and  C_17 
REMARK    4  A    between atoms: C_6  and  C_7 
REMARK    5  A    between atoms: C_7  and  C_8 
ROOT
ATOM      1  C   LIG d   1       8.056   1.063  -6.213  0.00  0.00     0.248 C 
ATOM      2  O   LIG d   1       6.798   0.656  -5.662  0.00  0.00    -0.451 OA
ATOM      3  C   LIG d   1       6.720   0.623  -4.308  0.00  0.00     0.136 C 
ATOM      4  C   LIG d   1       7.516   1.451  -3.573  0.00  0.00     0.023 C 
ATOM      5  C   LIG d   1       8.407   2.320  -4.240  0.00  0.00     0.129 C 
ATOM      6  O   LIG d   1       8.443   2.300  -5.599  0.00  0.00    -0.452 OA
ATOM      7  H   LIG d   1       7.465   1.444  -2.494  0.00  0.00     0.069 H 
ENDROOT
BRANCH   5   8
ATOM      8  C   LIG d   1       9.229   3.174  -3.525  0.00  0.00    -0.018 C 
ATOM      9  H   LIG d   1       8.803   3.852  -2.799  0.00  0.00     0.065 H 
BRANCH   8  10
ATOM     10  C   LIG d   1      10.607   3.161  -3.740  0.00  0.00    -0.039 C 
ATOM     11  C   LIG d   1      11.446   3.875  -2.904  0.00  0.00     0.079 A 
ATOM     12  S   LIG d   1      11.044   4.890  -1.488  0.00  0.00    -0.026 SA
ATOM     13  C   LIG d   1      12.857   4.007  -2.940  0.00  0.00     0.258 A 
ATOM     14  C   LIG d   1      12.710   5.379  -1.067  0.00  0.00     0.283 A 
ATOM     15  N   LIG d   1      13.440   4.755  -2.020  0.00  0.00    -0.242 N 
ATOM     16  O   LIG d   1      13.091   6.095  -0.160  0.00  0.00    -0.262 OA
ATOM     17  H   LIG d   1      14.404   4.858  -2.027  0.00  0.00     0.159 HD
ATOM     18  O   LIG d   1      13.515   3.445  -3.798  0.00  0.00    -0.269 OA
ATOM     19  H   LIG d   1      11.019   2.593  -4.561  0.00  0.00     0.063 H 
ENDBRANCH   8  10
ENDBRANCH   5   8
BRANCH   3  20
ATOM     20  C   LIG d   1       5.784  -0.299  -3.638  0.00  0.00     0.017 A 
ATOM     21  C   LIG d   1       5.474  -1.532  -4.219  0.00  0.00    -0.051 A 
ATOM     22  C   LIG d   1       4.602  -2.390  -3.583  0.00  0.00    -0.061 A 
ATOM     23  H   LIG d   1       5.920  -1.813  -5.162  0.00  0.00     0.062 H 
ATOM     24  C   LIG d   1       4.025  -2.029  -2.378  0.00  0.00    -0.062 A 
ATOM     25  H   LIG d   1       4.365  -3.345  -4.029  0.00  0.00     0.062 H 
ATOM     26  C   LIG d   1       4.323  -0.808  -1.799  0.00  0.00    -0.061 A 
ATOM     27  H   LIG d   1       3.339  -2.704  -1.888  0.00  0.00     0.062 H 
ATOM     28  C   LIG d   1       5.197   0.059  -2.420  0.00  0.00    -0.051 A 
ATOM     29  H   LIG d   1       3.869  -0.533  -0.859  0.00  0.00     0.062 H 
ATOM     30  H   LIG d   1       5.429   1.011  -1.967  0.00  0.00     0.062 H 
ENDBRANCH   3  20
BRANCH   1  31
ATOM     31  C   LIG d   1       7.917   1.259  -7.724  0.00  0.00     0.013 C 
ATOM     32  H   LIG d   1       7.002   1.814  -7.935  0.00  0.00     0.030 H 
ATOM     33  H   LIG d   1       8.775   1.816  -8.099  0.00  0.00     0.030 H 
ATOM     34  H   LIG d   1       7.872   0.286  -8.213  0.00  0.00     0.030 H 
ENDBRANCH   1  31
BRANCH   1  35
ATOM     35  C   LIG d   1       9.115  -0.004  -5.929  0.00  0.00     0.013 C 
ATOM     36  H   LIG d   1      10.095   0.467  -5.851  0.00  0.00     0.030 H 
ATOM     37  H   LIG d   1       8.881  -0.509  -4.992  0.00  0.00     0.030 H 
ATOM     38  H   LIG d   1       9.126  -0.731  -6.740  0.00  0.00     0.030 H 
ENDBRANCH   1  35
TORSDOF 5
ENDMDL
MODEL 8
REMARK VINA RESULT:      -6.3      7.561     10.026
REMARK  5 active torsions:
REMARK  status: ('A' for Active; 'I' for Inactive)
REMARK    1  A    between atoms: C_1  and  C_2 
REMARK    2  A    between atoms: C_2  and  C_23 
REMARK    3  A    between atoms: C_4  and  C_17 
REMARK    4  A    between atoms: C_6  and  C_7 
REMARK    5  A    between atoms: C_7  and  C_8 
ROOT
ATOM      1  C   LIG d   1       3.378   0.710  -8.263  0.00  0.00     0.248 C 
ATOM      2  O   LIG d   1       3.722   0.658  -6.873  0.00  0.00    -0.451 OA
ATOM      3  C   LIG d   1       4.118  -0.549  -6.398  0.00  0.00     0.136 C 
ATOM      4  C   LIG d   1       4.705  -1.440  -7.248  0.00  0.00     0.023 C 
ATOM      5  C   LIG d   1       4.879  -1.085  -8.604  0.00  0.00     0.129 C 
ATOM      6  O   LIG d   1       4.453   0.138  -9.019  0.00  0.00    -0.452 OA
ATOM      7  H   LIG d   1       5.032  -2.405  -6.890  0.00  0.00     0.069 H 
ENDROOT
BRANCH   5   8
ATOM      8  C   LIG d   1       5.471  -1.966  -9.494  0.00  0.00    -0.018 C 
ATOM      9  H   LIG d   1       6.480  -2.312  -9.320  0.00  0.00     0.065 H 
BRANCH   8  10
ATOM     10  C   LIG d   1       4.767  -2.405 -10.614  0.00  0.00    -0.039 C 
ATOM     11  C   LIG d   1       3.921  -3.496 -10.517  0.00  0.00     0.079 A 
ATOM     12  S   LIG d   1       3.543  -4.518  -9.100  0.00  0.00    -0.026 SA
ATOM     13  C   LIG d   1       3.123  -4.110 -11.514  0.00  0.00     0.258 A 
ATOM     14  C   LIG d   1       2.397  -5.625  -9.906  0.00  0.00     0.283 A 
ATOM     15  N   LIG d   1       2.388  -5.154 -11.174  0.00  0.00    -0.242 N 
ATOM     16  O   LIG d   1       1.785  -6.566  -9.437  0.00  0.00    -0.262 OA
ATOM     17  H   LIG d   1       1.835  -5.588 -11.841  0.00  0.00     0.159 HD
ATOM     18  O   LIG d   1       3.115  -3.685 -12.657  0.00  0.00    -0.269 OA
ATOM     19  H   LIG d   1       4.882  -1.894 -11.559  0.00  0.00     0.063 H 
ENDBRANCH   8  10
ENDBRANCH   5   8
BRANCH   3  20
ATOM     20  C   LIG d   1       3.918  -0.894  -4.979  0.00  0.00     0.017 A 
ATOM     21  C   LIG d   1       3.087  -0.108  -4.175  0.00  0.00    -0.051 A 
ATOM     22  C   LIG d   1       2.902  -0.441  -2.849  0.00  0.00    -0.061 A 
ATOM     23  H   LIG d   1       2.590   0.755  -4.591  0.00  0.00     0.062 H 
ATOM     24  C   LIG d   1       3.543  -1.544  -2.312  0.00  0.00    -0.062 A 
ATOM     25  H   LIG d   1       2.257   0.163  -2.228  0.00  0.00     0.062 H 
ATOM     26  C   LIG d   1       4.370  -2.323  -3.101  0.00  0.00    -0.061 A 
ATOM     27  H   LIG d   1       3.396  -1.796  -1.272  0.00  0.00     0.062 H 
ATOM     28  C   LIG d   1       4.562  -2.006  -4.429  0.00  0.00    -0.051 A 
ATOM     29  H   LIG d   1       4.868  -3.182  -2.676  0.00  0.00     0.062 H 
ATOM     30  H   LIG d   1       5.208  -2.616  -5.044  0.00  0.00     0.062 H 
ENDBRANCH   3  20
BRANCH   1  31
ATOM     31  C   LIG d   1       3.168   2.165  -8.687  0.00  0.00     0.013 C 
ATOM     32  H   LIG d   1       2.846   2.197  -9.728  0.00  0.00     0.030 H 
ATOM     33  H   LIG d   1       2.405   2.621  -8.056  0.00  0.00     0.030 H 
ATOM     34  H   LIG d   1       4.104   2.713  -8.580  0.00  0.00     0.030 H 
ENDBRANCH   1  31
BRANCH   1  35
ATOM     35  C   LIG d   1       2.096  -0.087  -8.509  0.00  0.00     0.013 C 
ATOM     36  H   LIG d   1       1.472  -0.057  -7.617  0.00  0.00     0.030 H 
ATOM     37  H   LIG d   1       1.552   0.350  -9.347  0.00  0.00     0.030 H 
ATOM     38  H   LIG d   1       2.349  -1.121  -8.741  0.00  0.00     0.030 H 
ENDBRANCH   1  35
TORSDOF 5
ENDMDL
MODEL 9
REMARK VINA RESULT:      -6.1      5.879      7.796
REMARK  5 active torsions:
REMARK  status: ('A' for Active; 'I' for Inactive)
REMARK    1  A    between atoms: C_1  and  C_2 
REMARK    2  A    between atoms: C_2  and  C_23 
REMARK    3  A    between atoms: C_4  and  C_17 
REMARK    4  A    between atoms: C_6  and  C_7 
REMARK    5  A    between atoms: C_7  and  C_8 
ROOT
ATOM      1  C   LIG d   1       5.107  -4.461  -5.641  0.00  0.00     0.248 C 
ATOM      2  O   LIG d   1       4.399  -3.511  -4.835  0.00  0.00    -0.451 OA
ATOM      3  C   LIG d   1       4.661  -2.203  -5.080  0.00  0.00     0.136 C 
ATOM      4  C   LIG d   1       5.066  -1.827  -6.328  0.00  0.00     0.023 C 
ATOM      5  C   LIG d   1       5.208  -2.810  -7.331  0.00  0.00     0.129 C 
ATOM      6  O   LIG d   1       4.936  -4.105  -7.019  0.00  0.00    -0.452 OA
ATOM      7  H   LIG d   1       5.276  -0.790  -6.545  0.00  0.00     0.069 H 
ENDROOT
BRANCH   5   8
ATOM      8  C   LIG d   1       5.616  -2.462  -8.608  0.00  0.00    -0.018 C 
ATOM      9  H   LIG d   1       6.649  -2.588  -8.897  0.00  0.00     0.065 H 
BRANCH   8  10
ATOM     10  C   LIG d   1       4.695  -1.949  -9.520  0.00  0.00    -0.039 C 
ATOM     11  C   LIG d   1       4.520  -0.582  -9.634  0.00  0.00     0.079 A 
ATOM     12  S   LIG d   1       5.330   0.745  -8.750  0.00  0.00    -0.026 SA
ATOM     13  C   LIG d   1       3.647   0.149 -10.479  0.00  0.00     0.258 A 
ATOM     14  C   LIG d   1       4.489   2.106  -9.545  0.00  0.00     0.283 A 
ATOM     15  N   LIG d   1       3.662   1.468 -10.405  0.00  0.00    -0.242 N 
ATOM     16  O   LIG d   1       4.622   3.301  -9.358  0.00  0.00    -0.262 OA
ATOM     17  H   LIG d   1       3.073   1.987 -10.974  0.00  0.00     0.159 HD
ATOM     18  O   LIG d   1       2.901  -0.425 -11.254  0.00  0.00    -0.269 OA
ATOM     19  H   LIG d   1       4.117  -2.621 -10.138  0.00  0.00     0.063 H 
ENDBRANCH   8  10
ENDBRANCH   5   8
BRANCH   3  20
ATOM     20  C   LIG d   1       4.510  -1.199  -4.011  0.00  0.00     0.017 A 
ATOM     21  C   LIG d   1       3.253  -0.949  -3.455  0.00  0.00    -0.051 A 
ATOM     22  C   LIG d   1       3.121  -0.011  -2.452  0.00  0.00    -0.061 A 
ATOM     23  H   LIG d   1       2.388  -1.491  -3.807  0.00  0.00     0.062 H 
ATOM     24  C   LIG d   1       4.227   0.688  -2.004  0.00  0.00    -0.062 A 
ATOM     25  H   LIG d   1       2.150   0.180  -2.018  0.00  0.00     0.062 H 
ATOM     26  C   LIG d   1       5.474   0.450  -2.553  0.00  0.00    -0.061 A 
ATOM     27  H   LIG d   1       4.116   1.424  -1.221  0.00  0.00     0.062 H 
ATOM     28  C   LIG d   1       5.623  -0.488  -3.553  0.00  0.00    -0.051 A 
ATOM     29  H   LIG d   1       6.334   0.999  -2.199  0.00  0.00     0.062 H 
ATOM     30  H   LIG d   1       6.597  -0.674  -3.981  0.00  0.00     0.062 H 
ENDBRANCH   3  20
BRANCH   1  31
ATOM     31  C   LIG d   1       4.545  -5.863  -5.397  0.00  0.00     0.013 C 
ATOM     32  H   LIG d   1       5.345  -6.521  -5.058  0.00  0.00     0.030 H 
ATOM     33  H   LIG d   1       3.766  -5.815  -4.637  0.00  0.00     0.030 H 
ATOM     34  H   LIG d   1       4.125  -6.251  -6.325  0.00  0.00     0.030 H 
ENDBRANCH   1  31
BRANCH   1  35
ATOM     35  C   LIG d   1       6.594  -4.435  -5.285  0.00  0.00     0.013 C 
ATOM     36  H   LIG d   1       6.726  -3.980  -4.303  0.00  0.00     0.030 H 
ATOM     37  H   LIG d   1       6.982  -5.454  -5.267  0.00  0.00     0.030 H 
ATOM     38  H   LIG d   1       7.138  -3.854  -6.030  0.00  0.00     0.030 H 
ENDBRANCH   1  35
TORSDOF 5
ENDMDL
