MODEL 1
REMARK VINA RESULT:      -7.6      0.000      0.000
REMARK  5 active torsions:
REMARK  status: ('A' for Active; 'I' for Inactive)
REMARK    1  A    between atoms: C_1  and  N_2 
REMARK    2  A    between atoms: C_11  and  C_12 
REMARK    3  A    between atoms: C_14  and  C_24 
REMARK    4  A    between atoms: N_16  and  C_18 
REMARK    5  A    between atoms: C_29  and  O_30 
ROOT
ATOM      1  C   LIG d   1       6.343  -3.810  -5.648  0.00  0.00     0.073 A 
ATOM      2  C   LIG d   1       7.026  -2.904  -4.651  0.00  0.00     0.017 A 
ATOM      3  C   LIG d   1       6.505  -1.498  -5.006  0.00  0.00     0.080 A 
ATOM      4  H   LIG d   1       7.327  -0.847  -5.304  0.00  0.00     0.058 H 
ATOM      5  N   LIG d   1       5.601  -1.742  -6.142  0.00  0.00    -0.216 N 
ATOM      6  N   LIG d   1       5.592  -3.106  -6.425  0.00  0.00    -0.183 NA
ATOM      7  H   LIG d   1       6.741  -3.171  -3.633  0.00  0.00     0.035 H 
ATOM      8  H   LIG d   1       8.109  -2.952  -4.770  0.00  0.00     0.035 H 
ENDROOT
BRANCH   1   9
ATOM      9  C   LIG d   1       6.513  -5.270  -5.727  0.00  0.00     0.054 A 
ATOM     10  C   LIG d   1       5.434  -6.134  -5.404  0.00  0.00     0.198 A 
ATOM     11  C   LIG d   1       5.661  -7.587  -5.499  0.00  0.00     0.046 A 
ATOM     12  O   LIG d   1       4.352  -5.687  -5.058  0.00  0.00    -0.286 OA
ATOM     13  C   LIG d   1       6.925  -8.051  -5.902  0.00  0.00     0.052 A 
ATOM     14  C   LIG d   1       4.645  -8.496  -5.198  0.00  0.00    -0.049 A 
ATOM     15  N   LIG d   1       7.926  -7.150  -6.199  0.00  0.00    -0.356 N 
ATOM     16  C   LIG d   1       7.150  -9.421  -5.995  0.00  0.00    -0.037 A 
ATOM     17  C   LIG d   1       7.733  -5.812  -6.110  0.00  0.00    -0.023 A 
ATOM     18  O   LIG d   1       8.753  -4.980  -6.409  0.00  0.00    -0.861 OA
ATOM     19  C   LIG d   1       6.139 -10.307  -5.694  0.00  0.00    -0.060 A 
ATOM     20  H   LIG d   1       8.118  -9.789  -6.303  0.00  0.00     0.064 H 
ATOM     21  C   LIG d   1       4.890  -9.847  -5.297  0.00  0.00    -0.061 A 
ATOM     22  H   LIG d   1       6.318 -11.369  -5.768  0.00  0.00     0.062 H 
ATOM     23  H   LIG d   1       4.107 -10.553  -5.065  0.00  0.00     0.062 H 
ATOM     24  H   LIG d   1       3.673  -8.141  -4.889  0.00  0.00     0.062 H 
BRANCH  15  25
ATOM     25  C   LIG d   1       9.237  -7.655  -6.617  0.00  0.00     0.011 C 
ATOM     26  H   LIG d   1       9.606  -8.365  -5.876  0.00  0.00     0.045 H 
ATOM     27  H   LIG d   1       9.143  -8.153  -7.582  0.00  0.00     0.045 H 
ATOM     28  H   LIG d   1       9.935  -6.823  -6.703  0.00  0.00     0.045 H 
ENDBRANCH  15  25
ENDBRANCH   1   9
BRANCH   5  29
ATOM     29  C   LIG d   1       4.875  -0.767  -6.824  0.00  0.00     0.052 A 
ATOM     30  C   LIG d   1       5.458  -0.075  -7.880  0.00  0.00    -0.039 A 
ATOM     31  C   LIG d   1       4.735   0.886  -8.557  0.00  0.00    -0.060 A 
ATOM     32  H   LIG d   1       6.475  -0.293  -8.172  0.00  0.00     0.064 H 
ATOM     33  C   LIG d   1       3.435   1.169  -8.179  0.00  0.00    -0.062 A 
ATOM     34  H   LIG d   1       5.186   1.420  -9.381  0.00  0.00     0.062 H 
ATOM     35  C   LIG d   1       2.854   0.489  -7.126  0.00  0.00    -0.060 A 
ATOM     36  H   LIG d   1       2.873   1.925  -8.709  0.00  0.00     0.062 H 
ATOM     37  C   LIG d   1       3.568  -0.479  -6.448  0.00  0.00    -0.039 A 
ATOM     38  H   LIG d   1       1.838   0.713  -6.834  0.00  0.00     0.062 H 
ATOM     39  H   LIG d   1       3.113  -1.010  -5.625  0.00  0.00     0.064 H 
ENDBRANCH   5  29
BRANCH   3  40
ATOM     40  C   LIG d   1       5.754  -0.901  -3.844  0.00  0.00     0.017 A 
ATOM     41  C   LIG d   1       5.875   0.451  -3.559  0.00  0.00     0.122 A 
ATOM     42  C   LIG d   1       5.177   0.997  -2.491  0.00  0.00    -0.020 A 
ATOM     43  C   LIG d   1       4.372   0.193  -1.709  0.00  0.00    -0.058 A 
ATOM     44  H   LIG d   1       5.267   2.051  -2.270  0.00  0.00     0.065 H 
ATOM     45  C   LIG d   1       4.257  -1.156  -1.992  0.00  0.00    -0.061 A 
ATOM     46  H   LIG d   1       3.832   0.617  -0.876  0.00  0.00     0.062 H 
ATOM     47  C   LIG d   1       4.947  -1.702  -3.058  0.00  0.00    -0.053 A 
ATOM     48  H   LIG d   1       3.627  -1.783  -1.379  0.00  0.00     0.062 H 
ATOM     49  H   LIG d   1       4.855  -2.756  -3.277  0.00  0.00     0.062 H 
BRANCH  41  50
ATOM     50  O   LIG d   1       6.673   1.239  -4.326  0.00  0.00    -0.506 OA
ATOM     51  H   LIG d   1       7.508   0.824  -4.580  0.00  0.00     0.292 HD
ENDBRANCH  41  50
ENDBRANCH   3  40
TORSDOF 5
ENDMDL
MODEL 2
REMARK VINA RESULT:      -7.3      3.392      6.331
REMARK  5 active torsions:
REMARK  status: ('A' for Active; 'I' for Inactive)
REMARK    1  A    between atoms: C_1  and  N_2 
REMARK    2  A    between atoms: C_11  and  C_12 
REMARK    3  A    between atoms: C_14  and  C_24 
REMARK    4  A    between atoms: N_16  and  C_18 
REMARK    5  A    between atoms: C_29  and  O_30 
ROOT
ATOM      1  C   LIG d   1       4.451  -2.114  -7.489  0.00  0.00     0.073 A 
ATOM      2  C   LIG d   1       5.961  -2.115  -7.548  0.00  0.00     0.017 A 
ATOM      3  C   LIG d   1       6.389  -1.611  -6.156  0.00  0.00     0.080 A 
ATOM      4  H   LIG d   1       6.952  -0.682  -6.240  0.00  0.00     0.058 H 
ATOM      5  N   LIG d   1       5.109  -1.380  -5.465  0.00  0.00    -0.216 N 
ATOM      6  N   LIG d   1       4.066  -1.698  -6.331  0.00  0.00    -0.183 NA
ATOM      7  H   LIG d   1       6.336  -3.124  -7.721  0.00  0.00     0.035 H 
ATOM      8  H   LIG d   1       6.315  -1.437  -8.325  0.00  0.00     0.035 H 
ENDROOT
BRANCH   1   9
ATOM      9  C   LIG d   1       3.558  -2.518  -8.587  0.00  0.00     0.054 A 
ATOM     10  C   LIG d   1       2.935  -1.535  -9.401  0.00  0.00     0.198 A 
ATOM     11  C   LIG d   1       2.050  -1.996 -10.484  0.00  0.00     0.046 A 
ATOM     12  O   LIG d   1       3.128  -0.345  -9.208  0.00  0.00    -0.286 OA
ATOM     13  C   LIG d   1       1.862  -3.377 -10.665  0.00  0.00     0.052 A 
ATOM     14  C   LIG d   1       1.406  -1.086 -11.325  0.00  0.00    -0.049 A 
ATOM     15  N   LIG d   1       2.500  -4.273  -9.834  0.00  0.00    -0.356 N 
ATOM     16  C   LIG d   1       1.028  -3.824 -11.686  0.00  0.00    -0.037 A 
ATOM     17  C   LIG d   1       3.312  -3.863  -8.829  0.00  0.00    -0.023 A 
ATOM     18  O   LIG d   1       3.904  -4.788  -8.045  0.00  0.00    -0.861 OA
ATOM     19  C   LIG d   1       0.398  -2.914 -12.507  0.00  0.00    -0.060 A 
ATOM     20  H   LIG d   1       0.875  -4.883 -11.834  0.00  0.00     0.064 H 
ATOM     21  C   LIG d   1       0.586  -1.550 -12.329  0.00  0.00    -0.061 A 
ATOM     22  H   LIG d   1      -0.248  -3.265 -13.298  0.00  0.00     0.062 H 
ATOM     23  H   LIG d   1       0.086  -0.849 -12.981  0.00  0.00     0.062 H 
ATOM     24  H   LIG d   1       1.551  -0.025 -11.189  0.00  0.00     0.062 H 
BRANCH  15  25
ATOM     25  C   LIG d   1       2.289  -5.709 -10.039  0.00  0.00     0.011 C 
ATOM     26  H   LIG d   1       1.838  -6.141  -9.145  0.00  0.00     0.045 H 
ATOM     27  H   LIG d   1       1.626  -5.861 -10.890  0.00  0.00     0.045 H 
ATOM     28  H   LIG d   1       3.247  -6.192 -10.232  0.00  0.00     0.045 H 
ENDBRANCH  15  25
ENDBRANCH   1   9
BRANCH   5  29
ATOM     29  C   LIG d   1       4.966  -0.915  -4.158  0.00  0.00     0.052 A 
ATOM     30  C   LIG d   1       5.381   0.369  -3.826  0.00  0.00    -0.039 A 
ATOM     31  C   LIG d   1       5.233   0.829  -2.533  0.00  0.00    -0.060 A 
ATOM     32  H   LIG d   1       5.815   1.009  -4.581  0.00  0.00     0.064 H 
ATOM     33  C   LIG d   1       4.683   0.008  -1.565  0.00  0.00    -0.062 A 
ATOM     34  H   LIG d   1       5.550   1.829  -2.276  0.00  0.00     0.062 H 
ATOM     35  C   LIG d   1       4.275  -1.272  -1.890  0.00  0.00    -0.060 A 
ATOM     36  H   LIG d   1       4.572   0.369  -0.552  0.00  0.00     0.062 H 
ATOM     37  C   LIG d   1       4.414  -1.736  -3.182  0.00  0.00    -0.039 A 
ATOM     38  H   LIG d   1       3.845  -1.910  -1.130  0.00  0.00     0.062 H 
ATOM     39  H   LIG d   1       4.094  -2.737  -3.435  0.00  0.00     0.064 H 
ENDBRANCH   5  29
BRANCH   3  40
ATOM     40  C   LIG d   1       7.201  -2.658  -5.438  0.00  0.00     0.017 A 
ATOM     41  C   LIG d   1       8.260  -2.280  -4.626  0.00  0.00     0.122 A 
ATOM     42  C   LIG d   1       9.002  -3.247  -3.963  0.00  0.00    -0.020 A 
ATOM     43  C   LIG d   1       8.692  -4.583  -4.121  0.00  0.00    -0.058 A 
ATOM     44  H   LIG d   1       9.824  -2.954  -3.327  0.00  0.00     0.065 H 
ATOM     45  C   LIG d   1       7.639  -4.958  -4.936  0.00  0.00    -0.061 A 
ATOM     46  H   LIG d   1       9.272  -5.335  -3.608  0.00  0.00     0.062 H 
ATOM     47  C   LIG d   1       6.895  -3.996  -5.594  0.00  0.00    -0.053 A 
ATOM     48  H   LIG d   1       7.398  -6.003  -5.058  0.00  0.00     0.062 H 
ATOM     49  H   LIG d   1       6.073  -4.293  -6.229  0.00  0.00     0.062 H 
BRANCH  41  50
ATOM     50  O   LIG d   1       8.567  -0.965  -4.477  0.00  0.00    -0.506 OA
ATOM     51  H   LIG d   1       9.390  -0.806  -3.996  0.00  0.00     0.292 HD
ENDBRANCH  41  50
ENDBRANCH   3  40
TORSDOF 5
ENDMDL
MODEL 3
REMARK VINA RESULT:      -7.3      5.382      7.666
REMARK  5 active torsions:
REMARK  status: ('A' for Active; 'I' for Inactive)
REMARK    1  A    between atoms: C_1  and  N_2 
REMARK    2  A    between atoms: C_11  and  C_12 
REMARK    3  A    between atoms: C_14  and  C_24 
REMARK    4  A    between atoms: N_16  and  C_18 
REMARK    5  A    between atoms: C_29  and  O_30 
ROOT
ATOM      1  C   LIG d   1       8.797   1.830  -4.421  0.00  0.00     0.073 A 
ATOM      2  C   LIG d   1      10.252   1.806  -4.011  0.00  0.00     0.017 A 
ATOM      3  C   LIG d   1      10.796   3.167  -4.490  0.00  0.00     0.080 A 
ATOM      4  H   LIG d   1      11.589   3.026  -5.224  0.00  0.00     0.058 H 
ATOM      5  N   LIG d   1       9.624   3.809  -5.108  0.00  0.00    -0.216 N 
ATOM      6  N   LIG d   1       8.536   2.945  -5.015  0.00  0.00    -0.183 NA
ATOM      7  H   LIG d   1      10.342   1.718  -2.928  0.00  0.00     0.035 H 
ATOM      8  H   LIG d   1      10.776   0.989  -4.507  0.00  0.00     0.035 H 
ENDROOT
BRANCH   1   9
ATOM      9  C   LIG d   1       7.830   0.745  -4.186  0.00  0.00     0.054 A 
ATOM     10  C   LIG d   1       6.654   0.988  -3.429  0.00  0.00     0.198 A 
ATOM     11  C   LIG d   1       5.722  -0.135  -3.224  0.00  0.00     0.046 A 
ATOM     12  O   LIG d   1       6.423   2.091  -2.961  0.00  0.00    -0.286 OA
ATOM     13  C   LIG d   1       6.033  -1.385  -3.784  0.00  0.00     0.052 A 
ATOM     14  C   LIG d   1       4.545   0.031  -2.492  0.00  0.00    -0.049 A 
ATOM     15  N   LIG d   1       7.196  -1.546  -4.508  0.00  0.00    -0.356 N 
ATOM     16  C   LIG d   1       5.160  -2.453  -3.597  0.00  0.00    -0.037 A 
ATOM     17  C   LIG d   1       8.066  -0.524  -4.698  0.00  0.00    -0.023 A 
ATOM     18  O   LIG d   1       9.190  -0.744  -5.412  0.00  0.00    -0.861 OA
ATOM     19  C   LIG d   1       4.002  -2.275  -2.871  0.00  0.00    -0.060 A 
ATOM     20  H   LIG d   1       5.388  -3.419  -4.022  0.00  0.00     0.064 H 
ATOM     21  C   LIG d   1       3.695  -1.039  -2.319  0.00  0.00    -0.061 A 
ATOM     22  H   LIG d   1       3.327  -3.106  -2.728  0.00  0.00     0.062 H 
ATOM     23  H   LIG d   1       2.784  -0.914  -1.753  0.00  0.00     0.062 H 
ATOM     24  H   LIG d   1       4.303   0.992  -2.062  0.00  0.00     0.062 H 
BRANCH  15  25
ATOM     25  C   LIG d   1       7.502  -2.859  -5.082  0.00  0.00     0.011 C 
ATOM     26  H   LIG d   1       6.596  -3.287  -5.511  0.00  0.00     0.045 H 
ATOM     27  H   LIG d   1       8.256  -2.747  -5.862  0.00  0.00     0.045 H 
ATOM     28  H   LIG d   1       7.881  -3.517  -4.301  0.00  0.00     0.045 H 
ENDBRANCH  15  25
ENDBRANCH   1   9
BRANCH   5  29
ATOM     29  C   LIG d   1       9.609   5.073  -5.695  0.00  0.00     0.052 A 
ATOM     30  C   LIG d   1       9.254   6.187  -4.942  0.00  0.00    -0.039 A 
ATOM     31  C   LIG d   1       9.246   7.438  -5.524  0.00  0.00    -0.060 A 
ATOM     32  H   LIG d   1       8.991   6.073  -3.900  0.00  0.00     0.064 H 
ATOM     33  C   LIG d   1       9.578   7.583  -6.859  0.00  0.00    -0.062 A 
ATOM     34  H   LIG d   1       8.976   8.304  -4.939  0.00  0.00     0.062 H 
ATOM     35  C   LIG d   1       9.924   6.477  -7.614  0.00  0.00    -0.060 A 
ATOM     36  H   LIG d   1       9.566   8.564  -7.314  0.00  0.00     0.062 H 
ATOM     37  C   LIG d   1       9.942   5.224  -7.036  0.00  0.00    -0.039 A 
ATOM     38  H   LIG d   1      10.183   6.595  -8.656  0.00  0.00     0.062 H 
ATOM     39  H   LIG d   1      10.213   4.360  -7.626  0.00  0.00     0.064 H 
ENDBRANCH   5  29
BRANCH   3  40
ATOM     40  C   LIG d   1      11.295   3.979  -3.323  0.00  0.00     0.017 A 
ATOM     41  C   LIG d   1      12.619   4.390  -3.279  0.00  0.00     0.122 A 
ATOM     42  C   LIG d   1      13.075   5.142  -2.205  0.00  0.00    -0.020 A 
ATOM     43  C   LIG d   1      12.211   5.471  -1.179  0.00  0.00    -0.058 A 
ATOM     44  H   LIG d   1      14.104   5.466  -2.171  0.00  0.00     0.065 H 
ATOM     45  C   LIG d   1      10.893   5.055  -1.222  0.00  0.00    -0.061 A 
ATOM     46  H   LIG d   1      12.566   6.053  -0.341  0.00  0.00     0.062 H 
ATOM     47  C   LIG d   1      10.436   4.310  -2.293  0.00  0.00    -0.053 A 
ATOM     48  H   LIG d   1      10.220   5.314  -0.418  0.00  0.00     0.062 H 
ATOM     49  H   LIG d   1       9.406   3.987  -2.324  0.00  0.00     0.062 H 
BRANCH  41  50
ATOM     50  O   LIG d   1      13.468   4.059  -4.287  0.00  0.00    -0.506 OA
ATOM     51  H   LIG d   1      13.096   4.185  -5.170  0.00  0.00     0.292 HD
ENDBRANCH  41  50
ENDBRANCH   3  40
TORSDOF 5
ENDMDL
MODEL 4
REMARK VINA RESULT:      -7.2      5.446      8.214
REMARK  5 active torsions:
REMARK  status: ('A' for Active; 'I' for Inactive)
REMARK    1  A    between atoms: C_1  and  N_2 
REMARK    2  A    between atoms: C_11  and  C_12 
REMARK    3  A    between atoms: C_14  and  C_24 
REMARK    4  A    between atoms: N_16  and  C_18 
REMARK    5  A    between atoms: C_29  and  O_30 
ROOT
ATOM      1  C   LIG d   1       8.312   2.129  -4.167  0.00  0.00     0.073 A 
ATOM      2  C   LIG d   1       8.641   2.834  -5.463  0.00  0.00     0.017 A 
ATOM      3  C   LIG d   1       9.465   4.060  -5.021  0.00  0.00     0.080 A 
ATOM      4  H   LIG d   1       8.961   4.984  -5.306  0.00  0.00     0.058 H 
ATOM      5  N   LIG d   1       9.519   3.929  -3.556  0.00  0.00    -0.216 N 
ATOM      6  N   LIG d   1       8.818   2.786  -3.180  0.00  0.00    -0.183 NA
ATOM      7  H   LIG d   1       9.234   2.189  -6.110  0.00  0.00     0.035 H 
ATOM      8  H   LIG d   1       7.728   3.150  -5.969  0.00  0.00     0.035 H 
ENDROOT
BRANCH   1   9
ATOM      9  C   LIG d   1       7.530   0.888  -4.050  0.00  0.00     0.054 A 
ATOM     10  C   LIG d   1       6.276   0.893  -3.384  0.00  0.00     0.198 A 
ATOM     11  C   LIG d   1       5.537  -0.378  -3.295  0.00  0.00     0.046 A 
ATOM     12  O   LIG d   1       5.826   1.919  -2.899  0.00  0.00    -0.286 OA
ATOM     13  C   LIG d   1       6.098  -1.531  -3.870  0.00  0.00     0.052 A 
ATOM     14  C   LIG d   1       4.297  -0.447  -2.656  0.00  0.00    -0.049 A 
ATOM     15  N   LIG d   1       7.322  -1.459  -4.502  0.00  0.00    -0.356 N 
ATOM     16  C   LIG d   1       5.408  -2.737  -3.793  0.00  0.00    -0.037 A 
ATOM     17  C   LIG d   1       8.016  -0.298  -4.585  0.00  0.00    -0.023 A 
ATOM     18  O   LIG d   1       9.212  -0.292  -5.211  0.00  0.00    -0.861 OA
ATOM     19  C   LIG d   1       4.186  -2.791  -3.158  0.00  0.00    -0.060 A 
ATOM     20  H   LIG d   1       5.829  -3.630  -4.231  0.00  0.00     0.064 H 
ATOM     21  C   LIG d   1       3.631  -1.651  -2.591  0.00  0.00    -0.061 A 
ATOM     22  H   LIG d   1       3.654  -3.729  -3.100  0.00  0.00     0.062 H 
ATOM     23  H   LIG d   1       2.673  -1.708  -2.097  0.00  0.00     0.062 H 
ATOM     24  H   LIG d   1       3.863   0.438  -2.215  0.00  0.00     0.062 H 
BRANCH  15  25
ATOM     25  C   LIG d   1       7.890  -2.673  -5.094  0.00  0.00     0.011 C 
ATOM     26  H   LIG d   1       8.335  -2.432  -6.060  0.00  0.00     0.045 H 
ATOM     27  H   LIG d   1       8.655  -3.077  -4.432  0.00  0.00     0.045 H 
ATOM     28  H   LIG d   1       7.101  -3.413  -5.231  0.00  0.00     0.045 H 
ENDBRANCH  15  25
ENDBRANCH   1   9
BRANCH   5  29
ATOM     29  C   LIG d   1      10.164   4.808  -2.687  0.00  0.00     0.052 A 
ATOM     30  C   LIG d   1       9.727   6.124  -2.576  0.00  0.00    -0.039 A 
ATOM     31  C   LIG d   1      10.363   6.990  -1.711  0.00  0.00    -0.060 A 
ATOM     32  H   LIG d   1       8.887   6.466  -3.163  0.00  0.00     0.064 H 
ATOM     33  C   LIG d   1      11.443   6.554  -0.963  0.00  0.00    -0.062 A 
ATOM     34  H   LIG d   1      10.021   8.011  -1.619  0.00  0.00     0.062 H 
ATOM     35  C   LIG d   1      11.885   5.249  -1.076  0.00  0.00    -0.060 A 
ATOM     36  H   LIG d   1      11.942   7.236  -0.289  0.00  0.00     0.062 H 
ATOM     37  C   LIG d   1      11.248   4.375  -1.934  0.00  0.00    -0.039 A 
ATOM     38  H   LIG d   1      12.728   4.913  -0.489  0.00  0.00     0.062 H 
ATOM     39  H   LIG d   1      11.594   3.355  -2.021  0.00  0.00     0.064 H 
ENDBRANCH   5  29
BRANCH   3  40
ATOM     40  C   LIG d   1      10.850   4.009  -5.613  0.00  0.00     0.017 A 
ATOM     41  C   LIG d   1      11.424   5.158  -6.136  0.00  0.00     0.122 A 
ATOM     42  C   LIG d   1      12.701   5.109  -6.676  0.00  0.00    -0.020 A 
ATOM     43  C   LIG d   1      13.394   3.915  -6.700  0.00  0.00    -0.058 A 
ATOM     44  H   LIG d   1      13.151   6.003  -7.080  0.00  0.00     0.065 H 
ATOM     45  C   LIG d   1      12.818   2.769  -6.182  0.00  0.00    -0.061 A 
ATOM     46  H   LIG d   1      14.386   3.875  -7.123  0.00  0.00     0.062 H 
ATOM     47  C   LIG d   1      11.547   2.817  -5.640  0.00  0.00    -0.053 A 
ATOM     48  H   LIG d   1      13.361   1.836  -6.202  0.00  0.00     0.062 H 
ATOM     49  H   LIG d   1      11.099   1.920  -5.237  0.00  0.00     0.062 H 
BRANCH  41  50
ATOM     50  O   LIG d   1      10.738   6.331  -6.117  0.00  0.00    -0.506 OA
ATOM     51  H   LIG d   1      10.431   6.592  -5.239  0.00  0.00     0.292 HD
ENDBRANCH  41  50
ENDBRANCH   3  40
TORSDOF 5
ENDMDL
MODEL 5
REMARK VINA RESULT:      -7.0      0.606      2.328
REMARK  5 active torsions:
REMARK  status: ('A' for Active; 'I' for Inactive)
REMARK    1  A    between atoms: C_1  and  N_2 
REMARK    2  A    between atoms: C_11  and  C_12 
REMARK    3  A    between atoms: C_14  and  C_24 
REMARK    4  A    between atoms: N_16  and  C_18 
REMARK    5  A    between atoms: C_29  and  O_30 
ROOT
ATOM      1  C   LIG d   1       6.532  -3.738  -5.691  0.00  0.00     0.073 A 
ATOM      2  C   LIG d   1       7.173  -2.823  -4.674  0.00  0.00     0.017 A 
ATOM      3  C   LIG d   1       6.608  -1.430  -5.019  0.00  0.00     0.080 A 
ATOM      4  H   LIG d   1       7.412  -0.749  -5.299  0.00  0.00     0.058 H 
ATOM      5  N   LIG d   1       5.726  -1.691  -6.169  0.00  0.00    -0.216 N 
ATOM      6  N   LIG d   1       5.767  -3.050  -6.468  0.00  0.00    -0.183 NA
ATOM      7  H   LIG d   1       6.885  -3.112  -3.664  0.00  0.00     0.035 H 
ATOM      8  H   LIG d   1       8.258  -2.832  -4.781  0.00  0.00     0.035 H 
ENDROOT
BRANCH   1   9
ATOM      9  C   LIG d   1       6.753  -5.191  -5.785  0.00  0.00     0.054 A 
ATOM     10  C   LIG d   1       8.016  -5.697  -6.190  0.00  0.00     0.198 A 
ATOM     11  C   LIG d   1       8.180  -7.159  -6.268  0.00  0.00     0.046 A 
ATOM     12  O   LIG d   1       8.937  -4.944  -6.466  0.00  0.00    -0.286 OA
ATOM     13  C   LIG d   1       7.090  -7.983  -5.940  0.00  0.00     0.052 A 
ATOM     14  C   LIG d   1       9.395  -7.728  -6.657  0.00  0.00    -0.049 A 
ATOM     15  N   LIG d   1       5.892  -7.418  -5.555  0.00  0.00    -0.356 N 
ATOM     16  C   LIG d   1       7.234  -9.365  -6.009  0.00  0.00    -0.037 A 
ATOM     17  C   LIG d   1       5.725  -6.075  -5.485  0.00  0.00    -0.023 A 
ATOM     18  O   LIG d   1       4.527  -5.582  -5.107  0.00  0.00    -0.861 OA
ATOM     19  C   LIG d   1       8.439  -9.913  -6.395  0.00  0.00    -0.060 A 
ATOM     20  H   LIG d   1       6.403 -10.009  -5.759  0.00  0.00     0.064 H 
ATOM     21  C   LIG d   1       9.515  -9.098  -6.718  0.00  0.00    -0.061 A 
ATOM     22  H   LIG d   1       8.546 -10.986  -6.448  0.00  0.00     0.062 H 
ATOM     23  H   LIG d   1      10.453  -9.541  -7.019  0.00  0.00     0.062 H 
ATOM     24  H   LIG d   1      10.234  -7.097  -6.908  0.00  0.00     0.062 H 
BRANCH  15  25
ATOM     25  C   LIG d   1       4.768  -8.295  -5.217  0.00  0.00     0.011 C 
ATOM     26  H   LIG d   1       4.449  -8.098  -4.193  0.00  0.00     0.045 H 
ATOM     27  H   LIG d   1       3.939  -8.102  -5.899  0.00  0.00     0.045 H 
ATOM     28  H   LIG d   1       5.079  -9.336  -5.308  0.00  0.00     0.045 H 
ENDBRANCH  15  25
ENDBRANCH   1   9
BRANCH   5  29
ATOM     29  C   LIG d   1       4.976  -0.732  -6.848  0.00  0.00     0.052 A 
ATOM     30  C   LIG d   1       3.625  -0.573  -6.562  0.00  0.00    -0.039 A 
ATOM     31  C   LIG d   1       2.886   0.381  -7.232  0.00  0.00    -0.060 A 
ATOM     32  H   LIG d   1       3.155  -1.193  -5.812  0.00  0.00     0.064 H 
ATOM     33  C   LIG d   1       3.487   1.171  -8.196  0.00  0.00    -0.062 A 
ATOM     34  H   LIG d   1       1.838   0.509  -7.006  0.00  0.00     0.062 H 
ATOM     35  C   LIG d   1       4.829   1.011  -8.489  0.00  0.00    -0.060 A 
ATOM     36  H   LIG d   1       2.905   1.914  -8.722  0.00  0.00     0.062 H 
ATOM     37  C   LIG d   1       5.575   0.064  -7.818  0.00  0.00    -0.039 A 
ATOM     38  H   LIG d   1       5.293   1.631  -9.242  0.00  0.00     0.062 H 
ATOM     39  H   LIG d   1       6.624  -0.060  -8.046  0.00  0.00     0.064 H 
ENDBRANCH   5  29
BRANCH   3  40
ATOM     40  C   LIG d   1       5.823  -0.874  -3.859  0.00  0.00     0.017 A 
ATOM     41  C   LIG d   1       5.913   0.473  -3.543  0.00  0.00     0.122 A 
ATOM     42  C   LIG d   1       5.184   0.983  -2.477  0.00  0.00    -0.020 A 
ATOM     43  C   LIG d   1       4.380   0.146  -1.729  0.00  0.00    -0.058 A 
ATOM     44  H   LIG d   1       5.250   2.032  -2.232  0.00  0.00     0.065 H 
ATOM     45  C   LIG d   1       4.297  -1.198  -2.043  0.00  0.00    -0.061 A 
ATOM     46  H   LIG d   1       3.816   0.542  -0.897  0.00  0.00     0.062 H 
ATOM     47  C   LIG d   1       5.018  -1.707  -3.107  0.00  0.00    -0.053 A 
ATOM     48  H   LIG d   1       3.667  -1.850  -1.456  0.00  0.00     0.062 H 
ATOM     49  H   LIG d   1       4.951  -2.758  -3.350  0.00  0.00     0.062 H 
BRANCH  41  50
ATOM     50  O   LIG d   1       6.709   1.293  -4.277  0.00  0.00    -0.506 OA
ATOM     51  H   LIG d   1       7.053   2.051  -3.785  0.00  0.00     0.292 HD
ENDBRANCH  41  50
ENDBRANCH   3  40
TORSDOF 5
ENDMDL
MODEL 6
REMARK VINA RESULT:      -7.0      3.640      6.094
REMARK  5 active torsions:
REMARK  status: ('A' for Active; 'I' for Inactive)
REMARK    1  A    between atoms: C_1  and  N_2 
REMARK    2  A    between atoms: C_11  and  C_12 
REMARK    3  A    between atoms: C_14  and  C_24 
REMARK    4  A    between atoms: N_16  and  C_18 
REMARK    5  A    between atoms: C_29  and  O_30 
ROOT
ATOM      1  C   LIG d   1       4.621  -2.183  -7.595  0.00  0.00     0.073 A 
ATOM      2  C   LIG d   1       6.132  -2.179  -7.589  0.00  0.00     0.017 A 
ATOM      3  C   LIG d   1       6.497  -1.720  -6.164  0.00  0.00     0.080 A 
ATOM      4  H   LIG d   1       7.060  -0.787  -6.194  0.00  0.00     0.058 H 
ATOM      5  N   LIG d   1       5.189  -1.515  -5.521  0.00  0.00    -0.216 N 
ATOM      6  N   LIG d   1       4.185  -1.807  -6.441  0.00  0.00    -0.183 NA
ATOM      7  H   LIG d   1       6.518  -3.180  -7.779  0.00  0.00     0.035 H 
ATOM      8  H   LIG d   1       6.515  -1.474  -8.328  0.00  0.00     0.035 H 
ENDROOT
BRANCH   1   9
ATOM      9  C   LIG d   1       3.776  -2.553  -8.743  0.00  0.00     0.054 A 
ATOM     10  C   LIG d   1       3.325  -3.891  -8.897  0.00  0.00     0.198 A 
ATOM     11  C   LIG d   1       2.484  -4.205 -10.065  0.00  0.00     0.046 A 
ATOM     12  O   LIG d   1       3.626  -4.753  -8.087  0.00  0.00    -0.286 OA
ATOM     13  C   LIG d   1       2.166  -3.176 -10.968  0.00  0.00     0.052 A 
ATOM     14  C   LIG d   1       2.004  -5.498 -10.280  0.00  0.00    -0.049 A 
ATOM     15  N   LIG d   1       2.641  -1.899 -10.753  0.00  0.00    -0.356 N 
ATOM     16  C   LIG d   1       1.372  -3.461 -12.075  0.00  0.00    -0.037 A 
ATOM     17  C   LIG d   1       3.421  -1.598  -9.687  0.00  0.00    -0.023 A 
ATOM     18  O   LIG d   1       3.861  -0.331  -9.532  0.00  0.00    -0.861 OA
ATOM     19  C   LIG d   1       0.905  -4.743 -12.275  0.00  0.00    -0.060 A 
ATOM     20  H   LIG d   1       1.121  -2.679 -12.776  0.00  0.00     0.064 H 
ATOM     21  C   LIG d   1       1.219  -5.758 -11.382  0.00  0.00    -0.061 A 
ATOM     22  H   LIG d   1       0.289  -4.959 -13.135  0.00  0.00     0.062 H 
ATOM     23  H   LIG d   1       0.846  -6.757 -11.551  0.00  0.00     0.062 H 
ATOM     24  H   LIG d   1       2.246  -6.290  -9.586  0.00  0.00     0.062 H 
BRANCH  15  25
ATOM     25  C   LIG d   1       2.298  -0.842 -11.707  0.00  0.00     0.011 C 
ATOM     26  H   LIG d   1       1.222  -0.666 -11.683  0.00  0.00     0.045 H 
ATOM     27  H   LIG d   1       2.821   0.075 -11.436  0.00  0.00     0.045 H 
ATOM     28  H   LIG d   1       2.595  -1.147 -12.710  0.00  0.00     0.045 H 
ENDBRANCH  15  25
ENDBRANCH   1   9
BRANCH   5  29
ATOM     29  C   LIG d   1       4.988  -1.094  -4.208  0.00  0.00     0.052 A 
ATOM     30  C   LIG d   1       4.411  -1.955  -3.280  0.00  0.00    -0.039 A 
ATOM     31  C   LIG d   1       4.220  -1.537  -1.979  0.00  0.00    -0.060 A 
ATOM     32  H   LIG d   1       4.118  -2.951  -3.577  0.00  0.00     0.064 H 
ATOM     33  C   LIG d   1       4.590  -0.260  -1.600  0.00  0.00    -0.062 A 
ATOM     34  H   LIG d   1       3.777  -2.207  -1.256  0.00  0.00     0.062 H 
ATOM     35  C   LIG d   1       5.157   0.602  -2.520  0.00  0.00    -0.060 A 
ATOM     36  H   LIG d   1       4.435   0.066  -0.581  0.00  0.00     0.062 H 
ATOM     37  C   LIG d   1       5.359   0.189  -3.822  0.00  0.00    -0.039 A 
ATOM     38  H   LIG d   1       5.445   1.599  -2.219  0.00  0.00     0.062 H 
ATOM     39  H   LIG d   1       5.803   0.862  -4.541  0.00  0.00     0.064 H 
ENDBRANCH   5  29
BRANCH   3  40
ATOM     40  C   LIG d   1       7.282  -2.788  -5.448  0.00  0.00     0.017 A 
ATOM     41  C   LIG d   1       8.302  -2.434  -4.577  0.00  0.00     0.122 A 
ATOM     42  C   LIG d   1       9.020  -3.421  -3.915  0.00  0.00    -0.020 A 
ATOM     43  C   LIG d   1       8.723  -4.752  -4.132  0.00  0.00    -0.058 A 
ATOM     44  H   LIG d   1       9.811  -3.147  -3.233  0.00  0.00     0.065 H 
ATOM     45  C   LIG d   1       7.710  -5.103  -5.005  0.00  0.00    -0.061 A 
ATOM     46  H   LIG d   1       9.284  -5.519  -3.620  0.00  0.00     0.062 H 
ATOM     47  C   LIG d   1       6.990  -4.122  -5.662  0.00  0.00    -0.053 A 
ATOM     48  H   LIG d   1       7.480  -6.144  -5.173  0.00  0.00     0.062 H 
ATOM     49  H   LIG d   1       6.199  -4.399  -6.343  0.00  0.00     0.062 H 
BRANCH  41  50
ATOM     50  O   LIG d   1       8.595  -1.124  -4.369  0.00  0.00    -0.506 OA
ATOM     51  H   LIG d   1       8.288  -0.782  -3.519  0.00  0.00     0.292 HD
ENDBRANCH  41  50
ENDBRANCH   3  40
TORSDOF 5
ENDMDL
MODEL 7
REMARK VINA RESULT:      -6.9      4.299      9.087
REMARK  5 active torsions:
REMARK  status: ('A' for Active; 'I' for Inactive)
REMARK    1  A    between atoms: C_1  and  N_2 
REMARK    2  A    between atoms: C_11  and  C_12 
REMARK    3  A    between atoms: C_14  and  C_24 
REMARK    4  A    between atoms: N_16  and  C_18 
REMARK    5  A    between atoms: C_29  and  O_30 
ROOT
ATOM      1  C   LIG d   1       8.160   1.292  -4.989  0.00  0.00     0.073 A 
ATOM      2  C   LIG d   1       8.816  -0.070  -5.025  0.00  0.00     0.017 A 
ATOM      3  C   LIG d   1       7.724  -1.022  -4.499  0.00  0.00     0.080 A 
ATOM      4  H   LIG d   1       8.053  -1.516  -3.585  0.00  0.00     0.058 H 
ATOM      5  N   LIG d   1       6.588  -0.127  -4.225  0.00  0.00    -0.216 N 
ATOM      6  N   LIG d   1       6.957   1.178  -4.539  0.00  0.00    -0.183 NA
ATOM      7  H   LIG d   1       9.094  -0.333  -6.045  0.00  0.00     0.035 H 
ATOM      8  H   LIG d   1       9.689  -0.092  -4.372  0.00  0.00     0.035 H 
ENDROOT
BRANCH   1   9
ATOM      9  C   LIG d   1       8.800   2.553  -5.397  0.00  0.00     0.054 A 
ATOM     10  C   LIG d   1       8.944   2.869  -6.774  0.00  0.00     0.198 A 
ATOM     11  C   LIG d   1       9.592   4.144  -7.125  0.00  0.00     0.046 A 
ATOM     12  O   LIG d   1       8.543   2.107  -7.639  0.00  0.00    -0.286 OA
ATOM     13  C   LIG d   1      10.035   4.987  -6.092  0.00  0.00     0.052 A 
ATOM     14  C   LIG d   1       9.766   4.521  -8.458  0.00  0.00    -0.049 A 
ATOM     15  N   LIG d   1       9.861   4.613  -4.776  0.00  0.00    -0.356 N 
ATOM     16  C   LIG d   1      10.648   6.195  -6.412  0.00  0.00    -0.037 A 
ATOM     17  C   LIG d   1       9.272   3.440  -4.438  0.00  0.00    -0.023 A 
ATOM     18  O   LIG d   1       9.135   3.126  -3.133  0.00  0.00    -0.861 OA
ATOM     19  C   LIG d   1      10.814   6.553  -7.732  0.00  0.00    -0.060 A 
ATOM     20  H   LIG d   1      10.993   6.851  -5.626  0.00  0.00     0.064 H 
ATOM     21  C   LIG d   1      10.375   5.720  -8.752  0.00  0.00    -0.061 A 
ATOM     22  H   LIG d   1      11.291   7.491  -7.976  0.00  0.00     0.062 H 
ATOM     23  H   LIG d   1      10.512   6.014  -9.783  0.00  0.00     0.062 H 
ATOM     24  H   LIG d   1       9.425   3.875  -9.254  0.00  0.00     0.062 H 
BRANCH  15  25
ATOM     25  C   LIG d   1      10.331   5.506  -3.713  0.00  0.00     0.011 C 
ATOM     26  H   LIG d   1       9.506   5.729  -3.035  0.00  0.00     0.045 H 
ATOM     27  H   LIG d   1      11.135   5.021  -3.160  0.00  0.00     0.045 H 
ATOM     28  H   LIG d   1      10.699   6.432  -4.154  0.00  0.00     0.045 H 
ENDBRANCH  15  25
ENDBRANCH   1   9
BRANCH   5  29
ATOM     29  C   LIG d   1       5.347  -0.522  -3.729  0.00  0.00     0.052 A 
ATOM     30  C   LIG d   1       4.185   0.086  -4.191  0.00  0.00    -0.039 A 
ATOM     31  C   LIG d   1       2.957  -0.312  -3.702  0.00  0.00    -0.060 A 
ATOM     32  H   LIG d   1       4.244   0.866  -4.937  0.00  0.00     0.064 H 
ATOM     33  C   LIG d   1       2.882  -1.306  -2.744  0.00  0.00    -0.062 A 
ATOM     34  H   LIG d   1       2.054   0.156  -4.066  0.00  0.00     0.062 H 
ATOM     35  C   LIG d   1       4.035  -1.909  -2.275  0.00  0.00    -0.060 A 
ATOM     36  H   LIG d   1       1.920  -1.612  -2.359  0.00  0.00     0.062 H 
ATOM     37  C   LIG d   1       5.266  -1.521  -2.765  0.00  0.00    -0.039 A 
ATOM     38  H   LIG d   1       3.972  -2.685  -1.527  0.00  0.00     0.062 H 
ATOM     39  H   LIG d   1       6.167  -1.993  -2.399  0.00  0.00     0.064 H 
ENDBRANCH   5  29
BRANCH   3  40
ATOM     40  C   LIG d   1       7.359  -2.041  -5.548  0.00  0.00     0.017 A 
ATOM     41  C   LIG d   1       7.475  -3.395  -5.271  0.00  0.00     0.122 A 
ATOM     42  C   LIG d   1       7.133  -4.331  -6.238  0.00  0.00    -0.020 A 
ATOM     43  C   LIG d   1       6.689  -3.911  -7.476  0.00  0.00    -0.058 A 
ATOM     44  H   LIG d   1       7.219  -5.385  -6.022  0.00  0.00     0.065 H 
ATOM     45  C   LIG d   1       6.580  -2.561  -7.752  0.00  0.00    -0.061 A 
ATOM     46  H   LIG d   1       6.427  -4.639  -8.230  0.00  0.00     0.062 H 
ATOM     47  C   LIG d   1       6.915  -1.627  -6.789  0.00  0.00    -0.053 A 
ATOM     48  H   LIG d   1       6.232  -2.235  -8.721  0.00  0.00     0.062 H 
ATOM     49  H   LIG d   1       6.828  -0.573  -7.008  0.00  0.00     0.062 H 
BRANCH  41  50
ATOM     50  O   LIG d   1       7.918  -3.805  -4.054  0.00  0.00    -0.506 OA
ATOM     51  H   LIG d   1       7.807  -3.148  -3.354  0.00  0.00     0.292 HD
ENDBRANCH  41  50
ENDBRANCH   3  40
TORSDOF 5
ENDMDL
MODEL 8
REMARK VINA RESULT:      -6.9      4.341      9.153
REMARK  5 active torsions:
REMARK  status: ('A' for Active; 'I' for Inactive)
REMARK    1  A    between atoms: C_1  and  N_2 
REMARK    2  A    between atoms: C_11  and  C_12 
REMARK    3  A    between atoms: C_14  and  C_24 
REMARK    4  A    between atoms: N_16  and  C_18 
REMARK    5  A    between atoms: C_29  and  O_30 
ROOT
ATOM      1  C   LIG d   1       8.178   1.310  -4.949  0.00  0.00     0.073 A 
ATOM      2  C   LIG d   1       8.836  -0.050  -4.999  0.00  0.00     0.017 A 
ATOM      3  C   LIG d   1       7.741  -1.012  -4.497  0.00  0.00     0.080 A 
ATOM      4  H   LIG d   1       8.063  -1.519  -3.587  0.00  0.00     0.058 H 
ATOM      5  N   LIG d   1       6.601  -0.123  -4.221  0.00  0.00    -0.216 N 
ATOM      6  N   LIG d   1       6.970   1.187  -4.512  0.00  0.00    -0.183 NA
ATOM      7  H   LIG d   1       9.125  -0.298  -6.020  0.00  0.00     0.035 H 
ATOM      8  H   LIG d   1       9.703  -0.079  -4.338  0.00  0.00     0.035 H 
ENDROOT
BRANCH   1   9
ATOM      9  C   LIG d   1       8.818   2.579  -5.333  0.00  0.00     0.054 A 
ATOM     10  C   LIG d   1       9.284   3.475  -4.335  0.00  0.00     0.198 A 
ATOM     11  C   LIG d   1       9.916   4.730  -4.777  0.00  0.00     0.046 A 
ATOM     12  O   LIG d   1       9.165   3.213  -3.149  0.00  0.00    -0.286 OA
ATOM     13  C   LIG d   1      10.029   4.985  -6.154  0.00  0.00     0.052 A 
ATOM     14  C   LIG d   1      10.398   5.657  -3.851  0.00  0.00    -0.049 A 
ATOM     15  N   LIG d   1       9.552   4.067  -7.066  0.00  0.00    -0.356 N 
ATOM     16  C   LIG d   1      10.625   6.168  -6.582  0.00  0.00    -0.037 A 
ATOM     17  C   LIG d   1       8.963   2.911  -6.674  0.00  0.00    -0.023 A 
ATOM     18  O   LIG d   1       8.511   2.054  -7.613  0.00  0.00    -0.861 OA
ATOM     19  C   LIG d   1      11.096   7.075  -5.657  0.00  0.00    -0.060 A 
ATOM     20  H   LIG d   1      10.717   6.375  -7.638  0.00  0.00     0.064 H 
ATOM     21  C   LIG d   1      10.984   6.822  -4.297  0.00  0.00    -0.061 A 
ATOM     22  H   LIG d   1      11.557   7.991  -5.994  0.00  0.00     0.062 H 
ATOM     23  H   LIG d   1      11.358   7.541  -3.584  0.00  0.00     0.062 H 
ATOM     24  H   LIG d   1      10.313   5.463  -2.792  0.00  0.00     0.062 H 
BRANCH  15  25
ATOM     25  C   LIG d   1       9.680   4.352  -8.497  0.00  0.00     0.011 C 
ATOM     26  H   LIG d   1       8.693   4.543  -8.919  0.00  0.00     0.045 H 
ATOM     27  H   LIG d   1      10.312   5.229  -8.638  0.00  0.00     0.045 H 
ATOM     28  H   LIG d   1      10.130   3.495  -8.999  0.00  0.00     0.045 H 
ENDBRANCH  15  25
ENDBRANCH   1   9
BRANCH   5  29
ATOM     29  C   LIG d   1       5.356  -0.528  -3.742  0.00  0.00     0.052 A 
ATOM     30  C   LIG d   1       4.194   0.039  -4.253  0.00  0.00    -0.039 A 
ATOM     31  C   LIG d   1       2.963  -0.368  -3.782  0.00  0.00    -0.060 A 
ATOM     32  H   LIG d   1       4.256   0.795  -5.024  0.00  0.00     0.064 H 
ATOM     33  C   LIG d   1       2.884  -1.331  -2.792  0.00  0.00    -0.062 A 
ATOM     34  H   LIG d   1       2.060   0.069  -4.182  0.00  0.00     0.062 H 
ATOM     35  C   LIG d   1       4.037  -1.893  -2.275  0.00  0.00    -0.060 A 
ATOM     36  H   LIG d   1       1.918  -1.645  -2.421  0.00  0.00     0.062 H 
ATOM     37  C   LIG d   1       5.272  -1.496  -2.747  0.00  0.00    -0.039 A 
ATOM     38  H   LIG d   1       3.971  -2.645  -1.503  0.00  0.00     0.062 H 
ATOM     39  H   LIG d   1       6.172  -1.936  -2.344  0.00  0.00     0.064 H 
ENDBRANCH   5  29
BRANCH   3  40
ATOM     40  C   LIG d   1       7.389  -2.016  -5.565  0.00  0.00     0.017 A 
ATOM     41  C   LIG d   1       7.481  -3.374  -5.298  0.00  0.00     0.122 A 
ATOM     42  C   LIG d   1       7.151  -4.296  -6.281  0.00  0.00    -0.020 A 
ATOM     43  C   LIG d   1       6.741  -3.860  -7.525  0.00  0.00    -0.058 A 
ATOM     44  H   LIG d   1       7.218  -5.354  -6.074  0.00  0.00     0.065 H 
ATOM     45  C   LIG d   1       6.655  -2.505  -7.791  0.00  0.00    -0.061 A 
ATOM     46  H   LIG d   1       6.487  -4.577  -8.292  0.00  0.00     0.062 H 
ATOM     47  C   LIG d   1       6.979  -1.585  -6.811  0.00  0.00    -0.053 A 
ATOM     48  H   LIG d   1       6.334  -2.166  -8.765  0.00  0.00     0.062 H 
ATOM     49  H   LIG d   1       6.911  -0.528  -7.022  0.00  0.00     0.062 H 
BRANCH  41  50
ATOM     50  O   LIG d   1       7.891  -3.801  -4.074  0.00  0.00    -0.506 OA
ATOM     51  H   LIG d   1       8.095  -3.086  -3.457  0.00  0.00     0.292 HD
ENDBRANCH  41  50
ENDBRANCH   3  40
TORSDOF 5
ENDMDL
MODEL 9
REMARK VINA RESULT:      -6.6      5.192      9.896
REMARK  5 active torsions:
REMARK  status: ('A' for Active; 'I' for Inactive)
REMARK    1  A    between atoms: C_1  and  N_2 
REMARK    2  A    between atoms: C_11  and  C_12 
REMARK    3  A    between atoms: C_14  and  C_24 
REMARK    4  A    between atoms: N_16  and  C_18 
REMARK    5  A    between atoms: C_29  and  O_30 
ROOT
ATOM      1  C   LIG d   1       9.146   2.146  -4.220  0.00  0.00     0.073 A 
ATOM      2  C   LIG d   1       9.436   0.902  -5.027  0.00  0.00     0.017 A 
ATOM      3  C   LIG d   1       8.246  -0.028  -4.718  0.00  0.00     0.080 A 
ATOM      4  H   LIG d   1       8.589  -0.945  -4.239  0.00  0.00     0.058 H 
ATOM      5  N   LIG d   1       7.422   0.764  -3.790  0.00  0.00    -0.216 N 
ATOM      6  N   LIG d   1       8.041   1.992  -3.573  0.00  0.00    -0.183 NA
ATOM      7  H   LIG d   1       9.472   1.136  -6.091  0.00  0.00     0.035 H 
ATOM      8  H   LIG d   1      10.372   0.445  -4.703  0.00  0.00     0.035 H 
ENDROOT
BRANCH   1   9
ATOM      9  C   LIG d   1       9.997   3.347  -4.174  0.00  0.00     0.054 A 
ATOM     10  C   LIG d   1      10.825   3.593  -3.046  0.00  0.00     0.198 A 
ATOM     11  C   LIG d   1      11.655   4.810  -3.053  0.00  0.00     0.046 A 
ATOM     12  O   LIG d   1      10.846   2.821  -2.101  0.00  0.00    -0.286 OA
ATOM     13  C   LIG d   1      11.594   5.667  -4.165  0.00  0.00     0.052 A 
ATOM     14  C   LIG d   1      12.493   5.115  -1.979  0.00  0.00    -0.049 A 
ATOM     15  N   LIG d   1      10.766   5.362  -5.225  0.00  0.00    -0.356 N 
ATOM     16  C   LIG d   1      12.375   6.819  -4.182  0.00  0.00    -0.037 A 
ATOM     17  C   LIG d   1       9.991   4.249  -5.229  0.00  0.00    -0.023 A 
ATOM     18  O   LIG d   1       9.197   4.007  -6.292  0.00  0.00    -0.861 OA
ATOM     19  C   LIG d   1      13.197   7.108  -3.115  0.00  0.00    -0.060 A 
ATOM     20  H   LIG d   1      12.336   7.485  -5.031  0.00  0.00     0.064 H 
ATOM     21  C   LIG d   1      13.257   6.261  -2.017  0.00  0.00    -0.061 A 
ATOM     22  H   LIG d   1      13.801   8.004  -3.132  0.00  0.00     0.062 H 
ATOM     23  H   LIG d   1      13.906   6.500  -1.188  0.00  0.00     0.062 H 
ATOM     24  H   LIG d   1      12.542   4.458  -1.124  0.00  0.00     0.062 H 
BRANCH  15  25
ATOM     25  C   LIG d   1      10.717   6.269  -6.374  0.00  0.00     0.011 C 
ATOM     26  H   LIG d   1      10.203   7.187  -6.090  0.00  0.00     0.045 H 
ATOM     27  H   LIG d   1      11.731   6.504  -6.695  0.00  0.00     0.045 H 
ATOM     28  H   LIG d   1      10.179   5.789  -7.192  0.00  0.00     0.045 H 
ENDBRANCH  15  25
ENDBRANCH   1   9
BRANCH   5  29
ATOM     29  C   LIG d   1       6.219   0.350  -3.219  0.00  0.00     0.052 A 
ATOM     30  C   LIG d   1       5.272   1.290  -2.829  0.00  0.00    -0.039 A 
ATOM     31  C   LIG d   1       4.080   0.876  -2.270  0.00  0.00    -0.060 A 
ATOM     32  H   LIG d   1       5.467   2.343  -2.969  0.00  0.00     0.064 H 
ATOM     33  C   LIG d   1       3.832  -0.472  -2.086  0.00  0.00    -0.062 A 
ATOM     34  H   LIG d   1       3.341   1.606  -1.972  0.00  0.00     0.062 H 
ATOM     35  C   LIG d   1       4.774  -1.410  -2.465  0.00  0.00    -0.060 A 
ATOM     36  H   LIG d   1       2.900  -0.793  -1.643  0.00  0.00     0.062 H 
ATOM     37  C   LIG d   1       5.966  -1.004  -3.032  0.00  0.00    -0.039 A 
ATOM     38  H   LIG d   1       4.577  -2.463  -2.320  0.00  0.00     0.062 H 
ATOM     39  H   LIG d   1       6.701  -1.738  -3.329  0.00  0.00     0.064 H 
ENDBRANCH   5  29
BRANCH   3  40
ATOM     40  C   LIG d   1       7.479  -0.343  -5.976  0.00  0.00     0.017 A 
ATOM     41  C   LIG d   1       7.256  -1.663  -6.341  0.00  0.00     0.122 A 
ATOM     42  C   LIG d   1       6.545  -1.950  -7.498  0.00  0.00    -0.020 A 
ATOM     43  C   LIG d   1       6.070  -0.922  -8.288  0.00  0.00    -0.058 A 
ATOM     44  H   LIG d   1       6.367  -2.976  -7.781  0.00  0.00     0.065 H 
ATOM     45  C   LIG d   1       6.299   0.393  -7.926  0.00  0.00    -0.061 A 
ATOM     46  H   LIG d   1       5.520  -1.145  -9.190  0.00  0.00     0.062 H 
ATOM     47  C   LIG d   1       7.002   0.682  -6.771  0.00  0.00    -0.053 A 
ATOM     48  H   LIG d   1       5.926   1.195  -8.545  0.00  0.00     0.062 H 
ATOM     49  H   LIG d   1       7.179   1.710  -6.491  0.00  0.00     0.062 H 
BRANCH  41  50
ATOM     50  O   LIG d   1       7.729  -2.673  -5.565  0.00  0.00    -0.506 OA
ATOM     51  H   LIG d   1       8.236  -2.374  -4.798  0.00  0.00     0.292 HD
ENDBRANCH  41  50
ENDBRANCH   3  40
TORSDOF 5
ENDMDL
