MODEL 1
REMARK VINA RESULT:      -5.2      0.000      0.000
REMARK  24 active torsions:
REMARK  status: ('A' for Active; 'I' for Inactive)
REMARK    1  A    between atoms: C_1  and  C_2 
REMARK    2  A    between atoms: C_1  and  C_16 
REMARK    3  A    between atoms: C_2  and  C_3 
REMARK    4  A    between atoms: C_3  and  C_4 
REMARK    5  A    between atoms: C_4  and  C_5 
REMARK    6  A    between atoms: C_5  and  C_6 
REMARK    7  A    between atoms: C_6  and  C_7 
REMARK    8  A    between atoms: C_7  and  C_8 
REMARK    9  A    between atoms: C_8  and  C_9 
REMARK   10  A    between atoms: C_9  and  C_10 
REMARK   11  A    between atoms: C_10  and  C_11 
REMARK   12  A    between atoms: C_11  and  C_12 
REMARK   13  A    between atoms: C_12  and  C_13 
REMARK   14  A    between atoms: C_16  and  C_17 
REMARK   15  A    between atoms: C_17  and  C_18 
REMARK   16  A    between atoms: C_18  and  C_19 
REMARK   17  A    between atoms: C_19  and  C_20 
REMARK   18  A    between atoms: C_20  and  C_21 
REMARK   19  A    between atoms: C_21  and  C_22 
REMARK   20  A    between atoms: C_22  and  C_23 
REMARK   21  A    between atoms: C_23  and  C_24 
REMARK   22  A    between atoms: C_24  and  C_25 
REMARK   23  A    between atoms: C_25  and  C_26 
REMARK   24  A    between atoms: C_26  and  O_27 
ROOT
ATOM      1  C   LIG d   1       3.060  -0.694  -4.758  0.00  0.00    -0.053 C 
ATOM      2  H   LIG d   1       4.143  -0.799  -4.801  0.00  0.00     0.026 H 
ATOM      3  H   LIG d   1       2.591  -1.595  -5.153  0.00  0.00     0.026 H 
ENDROOT
BRANCH   1   4
ATOM      4  C   LIG d   1       2.625  -0.488  -3.305  0.00  0.00    -0.053 C 
ATOM      5  H   LIG d   1       2.967   0.486  -2.957  0.00  0.00     0.026 H 
ATOM      6  H   LIG d   1       1.538  -0.536  -3.241  0.00  0.00     0.026 H 
BRANCH   4   7
ATOM      7  C   LIG d   1       3.235  -1.585  -2.430  0.00  0.00    -0.053 C 
ATOM      8  H   LIG d   1       2.534  -1.849  -1.637  0.00  0.00     0.026 H 
ATOM      9  H   LIG d   1       3.440  -2.464  -3.040  0.00  0.00     0.026 H 
BRANCH   7  10
ATOM     10  C   LIG d   1       4.539  -1.079  -1.812  0.00  0.00    -0.053 C 
ATOM     11  H   LIG d   1       4.592  -1.391  -0.769  0.00  0.00     0.026 H 
ATOM     12  H   LIG d   1       5.386  -1.496  -2.358  0.00  0.00     0.026 H 
BRANCH  10  13
ATOM     13  C   LIG d   1       4.583   0.448  -1.891  0.00  0.00    -0.053 C 
ATOM     14  H   LIG d   1       3.656   0.816  -2.332  0.00  0.00     0.026 H 
ATOM     15  H   LIG d   1       4.696   0.860  -0.888  0.00  0.00     0.026 H 
BRANCH  13  16
ATOM     16  C   LIG d   1       5.768   0.880  -2.758  0.00  0.00    -0.053 C 
ATOM     17  H   LIG d   1       5.407   1.486  -3.588  0.00  0.00     0.026 H 
ATOM     18  H   LIG d   1       6.464   1.464  -2.156  0.00  0.00     0.026 H 
BRANCH  16  19
ATOM     19  C   LIG d   1       6.479  -0.361  -3.302  0.00  0.00    -0.053 C 
ATOM     20  H   LIG d   1       7.445  -0.471  -2.810  0.00  0.00     0.026 H 
ATOM     21  H   LIG d   1       5.870  -1.243  -3.109  0.00  0.00     0.026 H 
BRANCH  19  22
ATOM     22  C   LIG d   1       6.690  -0.206  -4.810  0.00  0.00    -0.053 C 
ATOM     23  H   LIG d   1       6.023   0.565  -5.194  0.00  0.00     0.026 H 
ATOM     24  H   LIG d   1       7.724   0.078  -5.004  0.00  0.00     0.026 H 
BRANCH  22  25
ATOM     25  C   LIG d   1       6.387  -1.534  -5.506  0.00  0.00    -0.053 C 
ATOM     26  H   LIG d   1       5.425  -1.466  -6.014  0.00  0.00     0.026 H 
ATOM     27  H   LIG d   1       7.169  -1.748  -6.235  0.00  0.00     0.026 H 
BRANCH  25  28
ATOM     28  C   LIG d   1       6.338  -2.656  -4.467  0.00  0.00    -0.053 C 
ATOM     29  H   LIG d   1       7.298  -3.173  -4.445  0.00  0.00     0.026 H 
ATOM     30  H   LIG d   1       6.132  -2.232  -3.484  0.00  0.00     0.026 H 
BRANCH  28  31
ATOM     31  C   LIG d   1       5.233  -3.646  -4.838  0.00  0.00    -0.048 C 
ATOM     32  H   LIG d   1       5.606  -4.664  -4.733  0.00  0.00     0.027 H 
ATOM     33  H   LIG d   1       4.379  -3.503  -4.176  0.00  0.00     0.027 H 
BRANCH  31  34
ATOM     34  C   LIG d   1       4.800  -3.408  -6.286  0.00  0.00    -0.013 C 
ATOM     35  H   LIG d   1       4.180  -2.514  -6.338  0.00  0.00     0.033 H 
ATOM     36  H   LIG d   1       5.683  -3.275  -6.911  0.00  0.00     0.033 H 
BRANCH  34  37
ATOM     37  C   LIG d   1       4.012  -4.595  -6.777  0.00  0.00     0.042 C 
ATOM     38  O   LIG d   1       3.450  -5.326  -5.978  0.00  0.00    -0.550 OA
ATOM     39  O   LIG d   1       3.935  -4.824  -7.971  0.00  0.00    -0.550 OA
ENDBRANCH  34  37
ENDBRANCH  31  34
ENDBRANCH  28  31
ENDBRANCH  25  28
ENDBRANCH  22  25
ENDBRANCH  19  22
ENDBRANCH  16  19
ENDBRANCH  13  16
ENDBRANCH  10  13
ENDBRANCH   7  10
ENDBRANCH   4   7
ENDBRANCH   1   4
BRANCH   1  40
ATOM     40  C   LIG d   1       2.629   0.513  -5.594  0.00  0.00    -0.053 C 
ATOM     41  H   LIG d   1       1.633   0.832  -5.287  0.00  0.00     0.026 H 
ATOM     42  H   LIG d   1       3.334   1.330  -5.442  0.00  0.00     0.026 H 
BRANCH  40  43
ATOM     43  C   LIG d   1       2.608   0.126  -7.074  0.00  0.00    -0.053 C 
ATOM     44  H   LIG d   1       2.799  -0.942  -7.173  0.00  0.00     0.026 H 
ATOM     45  H   LIG d   1       1.631   0.362  -7.498  0.00  0.00     0.026 H 
BRANCH  43  46
ATOM     46  C   LIG d   1       3.690   0.908  -7.821  0.00  0.00    -0.053 C 
ATOM     47  H   LIG d   1       4.415   1.298  -7.107  0.00  0.00     0.026 H 
ATOM     48  H   LIG d   1       4.193   0.247  -8.527  0.00  0.00     0.026 H 
BRANCH  46  49
ATOM     49  C   LIG d   1       3.047   2.071  -8.581  0.00  0.00    -0.053 C 
ATOM     50  H   LIG d   1       1.971   1.914  -8.642  0.00  0.00     0.026 H 
ATOM     51  H   LIG d   1       3.248   3.004  -8.053  0.00  0.00     0.026 H 
BRANCH  49  52
ATOM     52  C   LIG d   1       3.635   2.146  -9.991  0.00  0.00    -0.053 C 
ATOM     53  H   LIG d   1       2.838   2.344 -10.707  0.00  0.00     0.026 H 
ATOM     54  H   LIG d   1       4.372   2.949 -10.034  0.00  0.00     0.026 H 
BRANCH  52  55
ATOM     55  C   LIG d   1       4.310   0.816 -10.333  0.00  0.00    -0.053 C 
ATOM     56  H   LIG d   1       5.388   0.913 -10.208  0.00  0.00     0.026 H 
ATOM     57  H   LIG d   1       3.936   0.037  -9.668  0.00  0.00     0.026 H 
BRANCH  55  58
ATOM     58  C   LIG d   1       3.996   0.443 -11.784  0.00  0.00    -0.053 C 
ATOM     59  H   LIG d   1       3.556   1.302 -12.292  0.00  0.00     0.026 H 
ATOM     60  H   LIG d   1       4.917   0.154 -12.291  0.00  0.00     0.026 H 
BRANCH  58  61
ATOM     61  C   LIG d   1       3.010  -0.725 -11.808  0.00  0.00    -0.053 C 
ATOM     62  H   LIG d   1       2.002  -0.346 -11.975  0.00  0.00     0.026 H 
ATOM     63  H   LIG d   1       3.278  -1.411 -12.611  0.00  0.00     0.026 H 
BRANCH  61  64
ATOM     64  C   LIG d   1       3.061  -1.463 -10.469  0.00  0.00    -0.051 C 
ATOM     65  H   LIG d   1       3.595  -2.405 -10.593  0.00  0.00     0.027 H 
ATOM     66  H   LIG d   1       3.579  -0.846  -9.734  0.00  0.00     0.027 H 
BRANCH  64  67
ATOM     67  C   LIG d   1       1.636  -1.744  -9.986  0.00  0.00    -0.030 C 
ATOM     68  H   LIG d   1       1.617  -1.755  -8.897  0.00  0.00     0.029 H 
ATOM     69  H   LIG d   1       0.969  -0.965 -10.354  0.00  0.00     0.029 H 
BRANCH  67  70
ATOM     70  C   LIG d   1       1.177  -3.103 -10.519  0.00  0.00     0.044 C 
ATOM     71  H   LIG d   1       0.093  -3.180 -10.431  0.00  0.00     0.056 H 
ATOM     72  H   LIG d   1       1.464  -3.199 -11.565  0.00  0.00     0.056 H 
BRANCH  70  73
ATOM     73  O   LIG d   1       1.793  -4.144  -9.758  0.00  0.00    -0.395 OA
ATOM     74  H   LIG d   1       2.594  -3.870  -9.292  0.00  0.00     0.209 HD
ENDBRANCH  70  73
ENDBRANCH  67  70
ENDBRANCH  64  67
ENDBRANCH  61  64
ENDBRANCH  58  61
ENDBRANCH  55  58
ENDBRANCH  52  55
ENDBRANCH  49  52
ENDBRANCH  46  49
ENDBRANCH  43  46
ENDBRANCH  40  43
ENDBRANCH   1  40
TORSDOF 24
ENDMDL
MODEL 2
REMARK VINA RESULT:      -5.1      1.661      6.743
REMARK  24 active torsions:
REMARK  status: ('A' for Active; 'I' for Inactive)
REMARK    1  A    between atoms: C_1  and  C_2 
REMARK    2  A    between atoms: C_1  and  C_16 
REMARK    3  A    between atoms: C_2  and  C_3 
REMARK    4  A    between atoms: C_3  and  C_4 
REMARK    5  A    between atoms: C_4  and  C_5 
REMARK    6  A    between atoms: C_5  and  C_6 
REMARK    7  A    between atoms: C_6  and  C_7 
REMARK    8  A    between atoms: C_7  and  C_8 
REMARK    9  A    between atoms: C_8  and  C_9 
REMARK   10  A    between atoms: C_9  and  C_10 
REMARK   11  A    between atoms: C_10  and  C_11 
REMARK   12  A    between atoms: C_11  and  C_12 
REMARK   13  A    between atoms: C_12  and  C_13 
REMARK   14  A    between atoms: C_16  and  C_17 
REMARK   15  A    between atoms: C_17  and  C_18 
REMARK   16  A    between atoms: C_18  and  C_19 
REMARK   17  A    between atoms: C_19  and  C_20 
REMARK   18  A    between atoms: C_20  and  C_21 
REMARK   19  A    between atoms: C_21  and  C_22 
REMARK   20  A    between atoms: C_22  and  C_23 
REMARK   21  A    between atoms: C_23  and  C_24 
REMARK   22  A    between atoms: C_24  and  C_25 
REMARK   23  A    between atoms: C_25  and  C_26 
REMARK   24  A    between atoms: C_26  and  O_27 
ROOT
ATOM      1  C   LIG d   1       2.918   0.156  -7.556  0.00  0.00    -0.053 C 
ATOM      2  H   LIG d   1       1.911  -0.257  -7.605  0.00  0.00     0.026 H 
ATOM      3  H   LIG d   1       3.552  -0.342  -8.289  0.00  0.00     0.026 H 
ENDROOT
BRANCH   1   4
ATOM      4  C   LIG d   1       2.870   1.655  -7.859  0.00  0.00    -0.053 C 
ATOM      5  H   LIG d   1       1.885   1.916  -8.246  0.00  0.00     0.026 H 
ATOM      6  H   LIG d   1       3.061   2.217  -6.945  0.00  0.00     0.026 H 
BRANCH   4   7
ATOM      7  C   LIG d   1       3.935   2.000  -8.902  0.00  0.00    -0.053 C 
ATOM      8  H   LIG d   1       4.151   3.068  -8.861  0.00  0.00     0.026 H 
ATOM      9  H   LIG d   1       4.844   1.437  -8.692  0.00  0.00     0.026 H 
BRANCH   7  10
ATOM     10  C   LIG d   1       3.422   1.635 -10.295  0.00  0.00    -0.053 C 
ATOM     11  H   LIG d   1       2.474   1.103 -10.207  0.00  0.00     0.026 H 
ATOM     12  H   LIG d   1       3.272   2.546 -10.877  0.00  0.00     0.026 H 
BRANCH  10  13
ATOM     13  C   LIG d   1       4.445   0.743 -11.000  0.00  0.00    -0.053 C 
ATOM     14  H   LIG d   1       5.077   1.354 -11.645  0.00  0.00     0.026 H 
ATOM     15  H   LIG d   1       5.063   0.242 -10.255  0.00  0.00     0.026 H 
BRANCH  13  16
ATOM     16  C   LIG d   1       3.714  -0.304 -11.844  0.00  0.00    -0.053 C 
ATOM     17  H   LIG d   1       3.583   0.075 -12.857  0.00  0.00     0.026 H 
ATOM     18  H   LIG d   1       4.300  -1.222 -11.872  0.00  0.00     0.026 H 
BRANCH  16  19
ATOM     19  C   LIG d   1       2.344  -0.591 -11.225  0.00  0.00    -0.053 C 
ATOM     20  H   LIG d   1       2.119   0.165 -10.473  0.00  0.00     0.026 H 
ATOM     21  H   LIG d   1       1.582  -0.568 -12.004  0.00  0.00     0.026 H 
BRANCH  19  22
ATOM     22  C   LIG d   1       2.361  -1.973 -10.570  0.00  0.00    -0.053 C 
ATOM     23  H   LIG d   1       2.409  -1.862  -9.487  0.00  0.00     0.026 H 
ATOM     24  H   LIG d   1       1.455  -2.514 -10.840  0.00  0.00     0.026 H 
BRANCH  22  25
ATOM     25  C   LIG d   1       3.584  -2.753 -11.056  0.00  0.00    -0.053 C 
ATOM     26  H   LIG d   1       3.258  -3.672 -11.544  0.00  0.00     0.026 H 
ATOM     27  H   LIG d   1       4.144  -2.145 -11.765  0.00  0.00     0.026 H 
BRANCH  25  28
ATOM     28  C   LIG d   1       4.478  -3.099  -9.863  0.00  0.00    -0.053 C 
ATOM     29  H   LIG d   1       4.937  -4.075 -10.025  0.00  0.00     0.026 H 
ATOM     30  H   LIG d   1       5.257  -2.343  -9.762  0.00  0.00     0.026 H 
BRANCH  28  31
ATOM     31  C   LIG d   1       3.634  -3.136  -8.588  0.00  0.00    -0.048 C 
ATOM     32  H   LIG d   1       3.403  -2.119  -8.275  0.00  0.00     0.027 H 
ATOM     33  H   LIG d   1       2.708  -3.677  -8.780  0.00  0.00     0.027 H 
BRANCH  31  34
ATOM     34  C   LIG d   1       4.417  -3.845  -7.480  0.00  0.00    -0.013 C 
ATOM     35  H   LIG d   1       5.425  -4.064  -7.829  0.00  0.00     0.033 H 
ATOM     36  H   LIG d   1       4.469  -3.200  -6.603  0.00  0.00     0.033 H 
BRANCH  34  37
ATOM     37  C   LIG d   1       3.721  -5.131  -7.116  0.00  0.00     0.042 C 
ATOM     38  O   LIG d   1       3.466  -5.951  -7.981  0.00  0.00    -0.550 OA
ATOM     39  O   LIG d   1       3.412  -5.350  -5.958  0.00  0.00    -0.550 OA
ENDBRANCH  34  37
ENDBRANCH  31  34
ENDBRANCH  28  31
ENDBRANCH  25  28
ENDBRANCH  22  25
ENDBRANCH  19  22
ENDBRANCH  16  19
ENDBRANCH  13  16
ENDBRANCH  10  13
ENDBRANCH   7  10
ENDBRANCH   4   7
ENDBRANCH   1   4
BRANCH   1  40
ATOM     40  C   LIG d   1       3.492  -0.062  -6.154  0.00  0.00    -0.053 C 
ATOM     41  H   LIG d   1       3.681  -1.124  -5.999  0.00  0.00     0.026 H 
ATOM     42  H   LIG d   1       4.425   0.493  -6.054  0.00  0.00     0.026 H 
BRANCH  40  43
ATOM     43  C   LIG d   1       2.489   0.435  -5.111  0.00  0.00    -0.053 C 
ATOM     44  H   LIG d   1       1.812   1.155  -5.571  0.00  0.00     0.026 H 
ATOM     45  H   LIG d   1       1.916  -0.409  -4.726  0.00  0.00     0.026 H 
BRANCH  43  46
ATOM     46  C   LIG d   1       3.241   1.107  -3.960  0.00  0.00    -0.053 C 
ATOM     47  H   LIG d   1       4.304   1.150  -4.197  0.00  0.00     0.026 H 
ATOM     48  H   LIG d   1       2.859   2.118  -3.819  0.00  0.00     0.026 H 
BRANCH  46  49
ATOM     49  C   LIG d   1       3.037   0.301  -2.676  0.00  0.00    -0.053 C 
ATOM     50  H   LIG d   1       2.266   0.774  -2.069  0.00  0.00     0.026 H 
ATOM     51  H   LIG d   1       2.726  -0.713  -2.930  0.00  0.00     0.026 H 
BRANCH  49  52
ATOM     52  C   LIG d   1       4.349   0.251  -1.891  0.00  0.00    -0.053 C 
ATOM     53  H   LIG d   1       5.067   0.937  -2.339  0.00  0.00     0.026 H 
ATOM     54  H   LIG d   1       4.164   0.542  -0.857  0.00  0.00     0.026 H 
BRANCH  52  55
ATOM     55  C   LIG d   1       4.910  -1.172  -1.927  0.00  0.00    -0.053 C 
ATOM     56  H   LIG d   1       5.805  -1.194  -2.549  0.00  0.00     0.026 H 
ATOM     57  H   LIG d   1       5.163  -1.489  -0.915  0.00  0.00     0.026 H 
BRANCH  55  58
ATOM     58  C   LIG d   1       3.860  -2.120  -2.510  0.00  0.00    -0.053 C 
ATOM     59  H   LIG d   1       3.540  -2.825  -1.742  0.00  0.00     0.026 H 
ATOM     60  H   LIG d   1       3.001  -1.544  -2.854  0.00  0.00     0.026 H 
BRANCH  58  61
ATOM     61  C   LIG d   1       4.464  -2.888  -3.687  0.00  0.00    -0.053 C 
ATOM     62  H   LIG d   1       4.629  -3.925  -3.397  0.00  0.00     0.026 H 
ATOM     63  H   LIG d   1       3.780  -2.852  -4.534  0.00  0.00     0.026 H 
BRANCH  61  64
ATOM     64  C   LIG d   1       5.797  -2.250  -4.081  0.00  0.00    -0.051 C 
ATOM     65  H   LIG d   1       5.617  -1.434  -4.781  0.00  0.00     0.027 H 
ATOM     66  H   LIG d   1       6.292  -1.862  -3.190  0.00  0.00     0.027 H 
BRANCH  64  67
ATOM     67  C   LIG d   1       6.690  -3.302  -4.743  0.00  0.00    -0.030 C 
ATOM     68  H   LIG d   1       6.197  -4.273  -4.705  0.00  0.00     0.029 H 
ATOM     69  H   LIG d   1       6.868  -3.025  -5.782  0.00  0.00     0.029 H 
BRANCH  67  70
ATOM     70  C   LIG d   1       8.025  -3.378  -3.999  0.00  0.00     0.044 C 
ATOM     71  H   LIG d   1       8.128  -4.359  -3.536  0.00  0.00     0.056 H 
ATOM     72  H   LIG d   1       8.842  -3.220  -4.701  0.00  0.00     0.056 H 
BRANCH  70  73
ATOM     73  O   LIG d   1       8.064  -2.368  -2.988  0.00  0.00    -0.395 OA
ATOM     74  H   LIG d   1       7.318  -1.752  -3.018  0.00  0.00     0.209 HD
ENDBRANCH  70  73
ENDBRANCH  67  70
ENDBRANCH  64  67
ENDBRANCH  61  64
ENDBRANCH  58  61
ENDBRANCH  55  58
ENDBRANCH  52  55
ENDBRANCH  49  52
ENDBRANCH  46  49
ENDBRANCH  43  46
ENDBRANCH  40  43
ENDBRANCH   1  40
TORSDOF 24
ENDMDL
MODEL 3
REMARK VINA RESULT:      -5.0      2.342      3.761
REMARK  24 active torsions:
REMARK  status: ('A' for Active; 'I' for Inactive)
REMARK    1  A    between atoms: C_1  and  C_2 
REMARK    2  A    between atoms: C_1  and  C_16 
REMARK    3  A    between atoms: C_2  and  C_3 
REMARK    4  A    between atoms: C_3  and  C_4 
REMARK    5  A    between atoms: C_4  and  C_5 
REMARK    6  A    between atoms: C_5  and  C_6 
REMARK    7  A    between atoms: C_6  and  C_7 
REMARK    8  A    between atoms: C_7  and  C_8 
REMARK    9  A    between atoms: C_8  and  C_9 
REMARK   10  A    between atoms: C_9  and  C_10 
REMARK   11  A    between atoms: C_10  and  C_11 
REMARK   12  A    between atoms: C_11  and  C_12 
REMARK   13  A    between atoms: C_12  and  C_13 
REMARK   14  A    between atoms: C_16  and  C_17 
REMARK   15  A    between atoms: C_17  and  C_18 
REMARK   16  A    between atoms: C_18  and  C_19 
REMARK   17  A    between atoms: C_19  and  C_20 
REMARK   18  A    between atoms: C_20  and  C_21 
REMARK   19  A    between atoms: C_21  and  C_22 
REMARK   20  A    between atoms: C_22  and  C_23 
REMARK   21  A    between atoms: C_23  and  C_24 
REMARK   22  A    between atoms: C_24  and  C_25 
REMARK   23  A    between atoms: C_25  and  C_26 
REMARK   24  A    between atoms: C_26  and  O_27 
ROOT
ATOM      1  C   LIG d   1       4.556  -1.742  -5.976  0.00  0.00    -0.053 C 
ATOM      2  H   LIG d   1       4.255  -2.425  -6.770  0.00  0.00     0.026 H 
ATOM      3  H   LIG d   1       3.847  -1.808  -5.151  0.00  0.00     0.026 H 
ENDROOT
BRANCH   1   4
ATOM      4  C   LIG d   1       5.953  -2.119  -5.479  0.00  0.00    -0.053 C 
ATOM      5  H   LIG d   1       6.353  -2.924  -6.096  0.00  0.00     0.026 H 
ATOM      6  H   LIG d   1       6.608  -1.251  -5.543  0.00  0.00     0.026 H 
BRANCH   4   7
ATOM      7  C   LIG d   1       5.868  -2.587  -4.025  0.00  0.00    -0.053 C 
ATOM      8  H   LIG d   1       6.436  -3.510  -3.906  0.00  0.00     0.026 H 
ATOM      9  H   LIG d   1       6.282  -1.819  -3.372  0.00  0.00     0.026 H 
BRANCH   7  10
ATOM     10  C   LIG d   1       4.406  -2.836  -3.653  0.00  0.00    -0.053 C 
ATOM     11  H   LIG d   1       3.766  -2.574  -4.496  0.00  0.00     0.026 H 
ATOM     12  H   LIG d   1       4.267  -3.890  -3.407  0.00  0.00     0.026 H 
BRANCH  10  13
ATOM     13  C   LIG d   1       4.033  -1.977  -2.443  0.00  0.00    -0.053 C 
ATOM     14  H   LIG d   1       3.779  -2.625  -1.603  0.00  0.00     0.026 H 
ATOM     15  H   LIG d   1       4.878  -1.345  -2.172  0.00  0.00     0.026 H 
BRANCH  13  16
ATOM     16  C   LIG d   1       2.829  -1.099  -2.792  0.00  0.00    -0.053 C 
ATOM     17  H   LIG d   1       2.534  -1.282  -3.825  0.00  0.00     0.026 H 
ATOM     18  H   LIG d   1       1.999  -1.340  -2.128  0.00  0.00     0.026 H 
BRANCH  16  19
ATOM     19  C   LIG d   1       3.207   0.374  -2.622  0.00  0.00    -0.053 C 
ATOM     20  H   LIG d   1       3.200   0.866  -3.595  0.00  0.00     0.026 H 
ATOM     21  H   LIG d   1       2.488   0.860  -1.963  0.00  0.00     0.026 H 
BRANCH  19  22
ATOM     22  C   LIG d   1       4.607   0.473  -2.011  0.00  0.00    -0.053 C 
ATOM     23  H   LIG d   1       4.534   0.864  -0.997  0.00  0.00     0.026 H 
ATOM     24  H   LIG d   1       5.063  -0.516  -1.987  0.00  0.00     0.026 H 
BRANCH  22  25
ATOM     25  C   LIG d   1       5.468   1.411  -2.858  0.00  0.00    -0.053 C 
ATOM     26  H   LIG d   1       4.919   1.695  -3.757  0.00  0.00     0.026 H 
ATOM     27  H   LIG d   1       5.708   2.304  -2.281  0.00  0.00     0.026 H 
BRANCH  25  28
ATOM     28  C   LIG d   1       6.762   0.698  -3.256  0.00  0.00    -0.053 C 
ATOM     29  H   LIG d   1       7.235   0.283  -2.365  0.00  0.00     0.026 H 
ATOM     30  H   LIG d   1       6.533  -0.108  -3.954  0.00  0.00     0.026 H 
BRANCH  28  31
ATOM     31  C   LIG d   1       7.711   1.696  -3.921  0.00  0.00    -0.048 C 
ATOM     32  H   LIG d   1       7.139   2.384  -4.541  0.00  0.00     0.027 H 
ATOM     33  H   LIG d   1       8.245   2.257  -3.154  0.00  0.00     0.027 H 
BRANCH  31  34
ATOM     34  C   LIG d   1       8.717   0.940  -4.791  0.00  0.00    -0.013 C 
ATOM     35  H   LIG d   1       9.664   1.479  -4.806  0.00  0.00     0.033 H 
ATOM     36  H   LIG d   1       8.874  -0.058  -4.382  0.00  0.00     0.033 H 
BRANCH  34  37
ATOM     37  C   LIG d   1       8.181   0.827  -6.196  0.00  0.00     0.042 C 
ATOM     38  O   LIG d   1       8.500  -0.119  -6.895  0.00  0.00    -0.550 OA
ATOM     39  O   LIG d   1       7.430   1.682  -6.631  0.00  0.00    -0.550 OA
ENDBRANCH  34  37
ENDBRANCH  31  34
ENDBRANCH  28  31
ENDBRANCH  25  28
ENDBRANCH  22  25
ENDBRANCH  19  22
ENDBRANCH  16  19
ENDBRANCH  13  16
ENDBRANCH  10  13
ENDBRANCH   7  10
ENDBRANCH   4   7
ENDBRANCH   1   4
BRANCH   1  40
ATOM     40  C   LIG d   1       4.577  -0.310  -6.516  0.00  0.00    -0.053 C 
ATOM     41  H   LIG d   1       5.220   0.306  -5.888  0.00  0.00     0.026 H 
ATOM     42  H   LIG d   1       4.959  -0.312  -7.537  0.00  0.00     0.026 H 
BRANCH  40  43
ATOM     43  C   LIG d   1       3.157   0.260  -6.505  0.00  0.00    -0.053 C 
ATOM     44  H   LIG d   1       2.493  -0.429  -5.981  0.00  0.00     0.026 H 
ATOM     45  H   LIG d   1       3.155   1.224  -5.996  0.00  0.00     0.026 H 
BRANCH  43  46
ATOM     46  C   LIG d   1       2.669   0.442  -7.943  0.00  0.00    -0.053 C 
ATOM     47  H   LIG d   1       3.213  -0.237  -8.600  0.00  0.00     0.026 H 
ATOM     48  H   LIG d   1       1.602   0.223  -7.996  0.00  0.00     0.026 H 
BRANCH  46  49
ATOM     49  C   LIG d   1       2.915   1.886  -8.387  0.00  0.00    -0.053 C 
ATOM     50  H   LIG d   1       2.033   2.262  -8.904  0.00  0.00     0.026 H 
ATOM     51  H   LIG d   1       3.113   2.505  -7.512  0.00  0.00     0.026 H 
BRANCH  49  52
ATOM     52  C   LIG d   1       4.119   1.932  -9.328  0.00  0.00    -0.053 C 
ATOM     53  H   LIG d   1       4.381   2.970  -9.533  0.00  0.00     0.026 H 
ATOM     54  H   LIG d   1       4.965   1.429  -8.860  0.00  0.00     0.026 H 
BRANCH  52  55
ATOM     55  C   LIG d   1       3.769   1.226 -10.639  0.00  0.00    -0.053 C 
ATOM     56  H   LIG d   1       2.742   0.862 -10.594  0.00  0.00     0.026 H 
ATOM     57  H   LIG d   1       3.869   1.927 -11.468  0.00  0.00     0.026 H 
BRANCH  55  58
ATOM     58  C   LIG d   1       4.719   0.045 -10.853  0.00  0.00    -0.053 C 
ATOM     59  H   LIG d   1       5.226   0.155 -11.811  0.00  0.00     0.026 H 
ATOM     60  H   LIG d   1       5.457   0.024 -10.051  0.00  0.00     0.026 H 
BRANCH  58  61
ATOM     61  C   LIG d   1       3.920  -1.260 -10.845  0.00  0.00    -0.053 C 
ATOM     62  H   LIG d   1       2.875  -1.044 -10.623  0.00  0.00     0.026 H 
ATOM     63  H   LIG d   1       3.992  -1.736 -11.822  0.00  0.00     0.026 H 
BRANCH  61  64
ATOM     64  C   LIG d   1       4.485  -2.198  -9.778  0.00  0.00    -0.051 C 
ATOM     65  H   LIG d   1       5.212  -2.870 -10.233  0.00  0.00     0.027 H 
ATOM     66  H   LIG d   1       4.972  -1.611  -8.999  0.00  0.00     0.027 H 
BRANCH  64  67
ATOM     67  C   LIG d   1       3.348  -3.016  -9.164  0.00  0.00    -0.030 C 
ATOM     68  H   LIG d   1       2.887  -2.450  -8.355  0.00  0.00     0.029 H 
ATOM     69  H   LIG d   1       2.601  -3.230  -9.928  0.00  0.00     0.029 H 
BRANCH  67  70
ATOM     70  C   LIG d   1       3.905  -4.331  -8.613  0.00  0.00     0.044 C 
ATOM     71  H   LIG d   1       3.939  -5.074  -9.410  0.00  0.00     0.056 H 
ATOM     72  H   LIG d   1       4.911  -4.166  -8.228  0.00  0.00     0.056 H 
BRANCH  70  73
ATOM     73  O   LIG d   1       3.062  -4.800  -7.559  0.00  0.00    -0.395 OA
ATOM     74  H   LIG d   1       2.316  -4.217  -7.362  0.00  0.00     0.209 HD
ENDBRANCH  70  73
ENDBRANCH  67  70
ENDBRANCH  64  67
ENDBRANCH  61  64
ENDBRANCH  58  61
ENDBRANCH  55  58
ENDBRANCH  52  55
ENDBRANCH  49  52
ENDBRANCH  46  49
ENDBRANCH  43  46
ENDBRANCH  40  43
ENDBRANCH   1  40
TORSDOF 24
ENDMDL
MODEL 4
REMARK VINA RESULT:      -5.0      3.182      4.575
REMARK  24 active torsions:
REMARK  status: ('A' for Active; 'I' for Inactive)
REMARK    1  A    between atoms: C_1  and  C_2 
REMARK    2  A    between atoms: C_1  and  C_16 
REMARK    3  A    between atoms: C_2  and  C_3 
REMARK    4  A    between atoms: C_3  and  C_4 
REMARK    5  A    between atoms: C_4  and  C_5 
REMARK    6  A    between atoms: C_5  and  C_6 
REMARK    7  A    between atoms: C_6  and  C_7 
REMARK    8  A    between atoms: C_7  and  C_8 
REMARK    9  A    between atoms: C_8  and  C_9 
REMARK   10  A    between atoms: C_9  and  C_10 
REMARK   11  A    between atoms: C_10  and  C_11 
REMARK   12  A    between atoms: C_11  and  C_12 
REMARK   13  A    between atoms: C_12  and  C_13 
REMARK   14  A    between atoms: C_16  and  C_17 
REMARK   15  A    between atoms: C_17  and  C_18 
REMARK   16  A    between atoms: C_18  and  C_19 
REMARK   17  A    between atoms: C_19  and  C_20 
REMARK   18  A    between atoms: C_20  and  C_21 
REMARK   19  A    between atoms: C_21  and  C_22 
REMARK   20  A    between atoms: C_22  and  C_23 
REMARK   21  A    between atoms: C_23  and  C_24 
REMARK   22  A    between atoms: C_24  and  C_25 
REMARK   23  A    between atoms: C_25  and  C_26 
REMARK   24  A    between atoms: C_26  and  O_27 
ROOT
ATOM      1  C   LIG d   1       3.747   0.134  -5.399  0.00  0.00    -0.053 C 
ATOM      2  H   LIG d   1       4.278   1.080  -5.504  0.00  0.00     0.026 H 
ATOM      3  H   LIG d   1       4.347  -0.557  -4.806  0.00  0.00     0.026 H 
ENDROOT
BRANCH   1   4
ATOM      4  C   LIG d   1       2.408   0.375  -4.698  0.00  0.00    -0.053 C 
ATOM      5  H   LIG d   1       2.268   1.445  -4.539  0.00  0.00     0.026 H 
ATOM      6  H   LIG d   1       1.598  -0.008  -5.318  0.00  0.00     0.026 H 
BRANCH   4   7
ATOM      7  C   LIG d   1       2.401  -0.345  -3.349  0.00  0.00    -0.053 C 
ATOM      8  H   LIG d   1       1.423  -0.230  -2.880  0.00  0.00     0.026 H 
ATOM      9  H   LIG d   1       2.608  -1.404  -3.502  0.00  0.00     0.026 H 
BRANCH   7  10
ATOM     10  C   LIG d   1       3.476   0.257  -2.442  0.00  0.00    -0.053 C 
ATOM     11  H   LIG d   1       4.084   0.957  -3.015  0.00  0.00     0.026 H 
ATOM     12  H   LIG d   1       3.000   0.786  -1.615  0.00  0.00     0.026 H 
BRANCH  10  13
ATOM     13  C   LIG d   1       4.364  -0.859  -1.891  0.00  0.00    -0.053 C 
ATOM     14  H   LIG d   1       5.401  -0.666  -2.163  0.00  0.00     0.026 H 
ATOM     15  H   LIG d   1       4.273  -0.892  -0.805  0.00  0.00     0.026 H 
BRANCH  13  16
ATOM     16  C   LIG d   1       3.922  -2.201  -2.480  0.00  0.00    -0.053 C 
ATOM     17  H   LIG d   1       3.811  -2.930  -1.678  0.00  0.00     0.026 H 
ATOM     18  H   LIG d   1       2.969  -2.076  -2.993  0.00  0.00     0.026 H 
BRANCH  16  19
ATOM     19  C   LIG d   1       4.977  -2.692  -3.474  0.00  0.00    -0.053 C 
ATOM     20  H   LIG d   1       5.217  -3.734  -3.265  0.00  0.00     0.026 H 
ATOM     21  H   LIG d   1       4.589  -2.604  -4.489  0.00  0.00     0.026 H 
BRANCH  19  22
ATOM     22  C   LIG d   1       6.241  -1.840  -3.338  0.00  0.00    -0.053 C 
ATOM     23  H   LIG d   1       6.068  -0.858  -3.776  0.00  0.00     0.026 H 
ATOM     24  H   LIG d   1       6.491  -1.728  -2.283  0.00  0.00     0.026 H 
BRANCH  22  25
ATOM     25  C   LIG d   1       7.399  -2.526  -4.065  0.00  0.00    -0.053 C 
ATOM     26  H   LIG d   1       8.057  -2.998  -3.335  0.00  0.00     0.026 H 
ATOM     27  H   LIG d   1       7.005  -3.283  -4.742  0.00  0.00     0.026 H 
BRANCH  25  28
ATOM     28  C   LIG d   1       8.187  -1.486  -4.865  0.00  0.00    -0.053 C 
ATOM     29  H   LIG d   1       9.046  -1.154  -4.281  0.00  0.00     0.026 H 
ATOM     30  H   LIG d   1       8.534  -1.932  -5.798  0.00  0.00     0.026 H 
BRANCH  28  31
ATOM     31  C   LIG d   1       7.286  -0.290  -5.175  0.00  0.00    -0.048 C 
ATOM     32  H   LIG d   1       6.853  -0.408  -6.167  0.00  0.00     0.027 H 
ATOM     33  H   LIG d   1       6.488  -0.235  -4.434  0.00  0.00     0.027 H 
BRANCH  31  34
ATOM     34  C   LIG d   1       8.113   0.996  -5.129  0.00  0.00    -0.013 C 
ATOM     35  H   LIG d   1       9.174   0.748  -5.121  0.00  0.00     0.033 H 
ATOM     36  H   LIG d   1       7.889   1.603  -6.006  0.00  0.00     0.033 H 
BRANCH  34  37
ATOM     37  C   LIG d   1       7.769   1.770  -3.881  0.00  0.00     0.042 C 
ATOM     38  O   LIG d   1       6.653   1.684  -3.399  0.00  0.00    -0.550 OA
ATOM     39  O   LIG d   1       8.607   2.482  -3.356  0.00  0.00    -0.550 OA
ENDBRANCH  34  37
ENDBRANCH  31  34
ENDBRANCH  28  31
ENDBRANCH  25  28
ENDBRANCH  22  25
ENDBRANCH  19  22
ENDBRANCH  16  19
ENDBRANCH  13  16
ENDBRANCH  10  13
ENDBRANCH   7  10
ENDBRANCH   4   7
ENDBRANCH   1   4
BRANCH   1  40
ATOM     40  C   LIG d   1       3.495  -0.467  -6.783  0.00  0.00    -0.053 C 
ATOM     41  H   LIG d   1       2.473  -0.840  -6.838  0.00  0.00     0.026 H 
ATOM     42  H   LIG d   1       3.645   0.298  -7.545  0.00  0.00     0.026 H 
BRANCH  40  43
ATOM     43  C   LIG d   1       4.472  -1.621  -7.022  0.00  0.00    -0.053 C 
ATOM     44  H   LIG d   1       5.417  -1.225  -7.394  0.00  0.00     0.026 H 
ATOM     45  H   LIG d   1       4.644  -2.152  -6.086  0.00  0.00     0.026 H 
BRANCH  43  46
ATOM     46  C   LIG d   1       3.882  -2.584  -8.054  0.00  0.00    -0.053 C 
ATOM     47  H   LIG d   1       4.562  -3.423  -8.198  0.00  0.00     0.026 H 
ATOM     48  H   LIG d   1       2.920  -2.953  -7.697  0.00  0.00     0.026 H 
BRANCH  46  49
ATOM     49  C   LIG d   1       3.685  -1.852  -9.383  0.00  0.00    -0.053 C 
ATOM     50  H   LIG d   1       3.955  -0.804  -9.264  0.00  0.00     0.026 H 
ATOM     51  H   LIG d   1       4.321  -2.306 -10.144  0.00  0.00     0.026 H 
BRANCH  49  52
ATOM     52  C   LIG d   1       2.221  -1.959  -9.812  0.00  0.00    -0.053 C 
ATOM     53  H   LIG d   1       2.162  -2.442 -10.787  0.00  0.00     0.026 H 
ATOM     54  H   LIG d   1       1.670  -2.548  -9.080  0.00  0.00     0.026 H 
BRANCH  52  55
ATOM     55  C   LIG d   1       1.613  -0.557  -9.900  0.00  0.00    -0.053 C 
ATOM     56  H   LIG d   1       0.900  -0.521 -10.723  0.00  0.00     0.026 H 
ATOM     57  H   LIG d   1       1.101  -0.324  -8.966  0.00  0.00     0.026 H 
BRANCH  55  58
ATOM     58  C   LIG d   1       2.724   0.467 -10.141  0.00  0.00    -0.053 C 
ATOM     59  H   LIG d   1       3.692   0.006  -9.942  0.00  0.00     0.026 H 
ATOM     60  H   LIG d   1       2.688   0.805 -11.177  0.00  0.00     0.026 H 
BRANCH  58  61
ATOM     61  C   LIG d   1       2.527   1.662  -9.207  0.00  0.00    -0.053 C 
ATOM     62  H   LIG d   1       1.727   2.295  -9.592  0.00  0.00     0.026 H 
ATOM     63  H   LIG d   1       2.262   1.307  -8.212  0.00  0.00     0.026 H 
BRANCH  61  64
ATOM     64  C   LIG d   1       3.824   2.470  -9.132  0.00  0.00    -0.051 C 
ATOM     65  H   LIG d   1       3.708   3.396  -9.695  0.00  0.00     0.027 H 
ATOM     66  H   LIG d   1       4.046   2.703  -8.091  0.00  0.00     0.027 H 
BRANCH  64  67
ATOM     67  C   LIG d   1       4.971   1.651  -9.728  0.00  0.00    -0.030 C 
ATOM     68  H   LIG d   1       4.634   0.630  -9.906  0.00  0.00     0.029 H 
ATOM     69  H   LIG d   1       5.286   2.100 -10.670  0.00  0.00     0.029 H 
BRANCH  67  70
ATOM     70  C   LIG d   1       6.148   1.637  -8.750  0.00  0.00     0.044 C 
ATOM     71  H   LIG d   1       5.899   2.234  -7.873  0.00  0.00     0.056 H 
ATOM     72  H   LIG d   1       6.355   0.613  -8.445  0.00  0.00     0.056 H 
BRANCH  70  73
ATOM     73  O   LIG d   1       7.302   2.187  -9.389  0.00  0.00    -0.395 OA
ATOM     74  H   LIG d   1       7.102   2.866 -10.049  0.00  0.00     0.209 HD
ENDBRANCH  70  73
ENDBRANCH  67  70
ENDBRANCH  64  67
ENDBRANCH  61  64
ENDBRANCH  58  61
ENDBRANCH  55  58
ENDBRANCH  52  55
ENDBRANCH  49  52
ENDBRANCH  46  49
ENDBRANCH  43  46
ENDBRANCH  40  43
ENDBRANCH   1  40
TORSDOF 24
ENDMDL
MODEL 5
REMARK VINA RESULT:      -4.9      5.560      8.996
REMARK  24 active torsions:
REMARK  status: ('A' for Active; 'I' for Inactive)
REMARK    1  A    between atoms: C_1  and  C_2 
REMARK    2  A    between atoms: C_1  and  C_16 
REMARK    3  A    between atoms: C_2  and  C_3 
REMARK    4  A    between atoms: C_3  and  C_4 
REMARK    5  A    between atoms: C_4  and  C_5 
REMARK    6  A    between atoms: C_5  and  C_6 
REMARK    7  A    between atoms: C_6  and  C_7 
REMARK    8  A    between atoms: C_7  and  C_8 
REMARK    9  A    between atoms: C_8  and  C_9 
REMARK   10  A    between atoms: C_9  and  C_10 
REMARK   11  A    between atoms: C_10  and  C_11 
REMARK   12  A    between atoms: C_11  and  C_12 
REMARK   13  A    between atoms: C_12  and  C_13 
REMARK   14  A    between atoms: C_16  and  C_17 
REMARK   15  A    between atoms: C_17  and  C_18 
REMARK   16  A    between atoms: C_18  and  C_19 
REMARK   17  A    between atoms: C_19  and  C_20 
REMARK   18  A    between atoms: C_20  and  C_21 
REMARK   19  A    between atoms: C_21  and  C_22 
REMARK   20  A    between atoms: C_22  and  C_23 
REMARK   21  A    between atoms: C_23  and  C_24 
REMARK   22  A    between atoms: C_24  and  C_25 
REMARK   23  A    between atoms: C_25  and  C_26 
REMARK   24  A    between atoms: C_26  and  O_27 
ROOT
ATOM      1  C   LIG d   1       7.219   0.139  -3.962  0.00  0.00    -0.053 C 
ATOM      2  H   LIG d   1       6.350   0.727  -3.668  0.00  0.00     0.026 H 
ATOM      3  H   LIG d   1       7.386  -0.653  -3.232  0.00  0.00     0.026 H 
ENDROOT
BRANCH   1   4
ATOM      4  C   LIG d   1       6.973  -0.481  -5.339  0.00  0.00    -0.053 C 
ATOM      5  H   LIG d   1       6.248   0.122  -5.886  0.00  0.00     0.026 H 
ATOM      6  H   LIG d   1       7.910  -0.516  -5.895  0.00  0.00     0.026 H 
BRANCH   4   7
ATOM      7  C   LIG d   1       6.429  -1.901  -5.170  0.00  0.00    -0.053 C 
ATOM      8  H   LIG d   1       5.563  -2.039  -5.819  0.00  0.00     0.026 H 
ATOM      9  H   LIG d   1       7.202  -2.621  -5.438  0.00  0.00     0.026 H 
BRANCH   7  10
ATOM     10  C   LIG d   1       6.014  -2.119  -3.714  0.00  0.00    -0.053 C 
ATOM     11  H   LIG d   1       6.726  -2.786  -3.229  0.00  0.00     0.026 H 
ATOM     12  H   LIG d   1       6.002  -1.161  -3.192  0.00  0.00     0.026 H 
BRANCH  10  13
ATOM     13  C   LIG d   1       4.618  -2.742  -3.668  0.00  0.00    -0.053 C 
ATOM     14  H   LIG d   1       4.127  -2.604  -4.632  0.00  0.00     0.026 H 
ATOM     15  H   LIG d   1       4.702  -3.807  -3.452  0.00  0.00     0.026 H 
BRANCH  13  16
ATOM     16  C   LIG d   1       3.792  -2.063  -2.573  0.00  0.00    -0.053 C 
ATOM     17  H   LIG d   1       3.070  -1.386  -3.030  0.00  0.00     0.026 H 
ATOM     18  H   LIG d   1       3.265  -2.820  -1.993  0.00  0.00     0.026 H 
BRANCH  16  19
ATOM     19  C   LIG d   1       4.722  -1.271  -1.651  0.00  0.00    -0.053 C 
ATOM     20  H   LIG d   1       4.572  -1.591  -0.620  0.00  0.00     0.026 H 
ATOM     21  H   LIG d   1       5.758  -1.448  -1.941  0.00  0.00     0.026 H 
BRANCH  19  22
ATOM     22  C   LIG d   1       4.407   0.222  -1.772  0.00  0.00    -0.053 C 
ATOM     23  H   LIG d   1       4.306   0.654  -0.777  0.00  0.00     0.026 H 
ATOM     24  H   LIG d   1       5.217   0.722  -2.304  0.00  0.00     0.026 H 
BRANCH  22  25
ATOM     25  C   LIG d   1       3.100   0.407  -2.544  0.00  0.00    -0.053 C 
ATOM     26  H   LIG d   1       2.653  -0.568  -2.740  0.00  0.00     0.026 H 
ATOM     27  H   LIG d   1       2.411   1.010  -1.952  0.00  0.00     0.026 H 
BRANCH  25  28
ATOM     28  C   LIG d   1       3.385   1.113  -3.871  0.00  0.00    -0.053 C 
ATOM     29  H   LIG d   1       3.187   2.180  -3.764  0.00  0.00     0.026 H 
ATOM     30  H   LIG d   1       4.430   0.964  -4.144  0.00  0.00     0.026 H 
BRANCH  28  31
ATOM     31  C   LIG d   1       2.483   0.533  -4.962  0.00  0.00    -0.048 C 
ATOM     32  H   LIG d   1       1.868  -0.261  -4.541  0.00  0.00     0.027 H 
ATOM     33  H   LIG d   1       1.841   1.319  -5.358  0.00  0.00     0.027 H 
BRANCH  31  34
ATOM     34  C   LIG d   1       3.348  -0.035  -6.089  0.00  0.00    -0.013 C 
ATOM     35  H   LIG d   1       4.386   0.258  -5.934  0.00  0.00     0.033 H 
ATOM     36  H   LIG d   1       3.274  -1.123  -6.090  0.00  0.00     0.033 H 
BRANCH  34  37
ATOM     37  C   LIG d   1       2.866   0.502  -7.412  0.00  0.00     0.042 C 
ATOM     38  O   LIG d   1       2.300  -0.237  -8.199  0.00  0.00    -0.550 OA
ATOM     39  O   LIG d   1       3.043   1.675  -7.694  0.00  0.00    -0.550 OA
ENDBRANCH  34  37
ENDBRANCH  31  34
ENDBRANCH  28  31
ENDBRANCH  25  28
ENDBRANCH  22  25
ENDBRANCH  19  22
ENDBRANCH  16  19
ENDBRANCH  13  16
ENDBRANCH  10  13
ENDBRANCH   7  10
ENDBRANCH   4   7
ENDBRANCH   1   4
BRANCH   1  40
ATOM     40  C   LIG d   1       8.452   1.043  -4.024  0.00  0.00    -0.053 C 
ATOM     41  H   LIG d   1       8.700   1.390  -3.021  0.00  0.00     0.026 H 
ATOM     42  H   LIG d   1       9.293   0.483  -4.433  0.00  0.00     0.026 H 
BRANCH  40  43
ATOM     43  C   LIG d   1       8.156   2.247  -4.921  0.00  0.00    -0.053 C 
ATOM     44  H   LIG d   1       8.208   1.942  -5.966  0.00  0.00     0.026 H 
ATOM     45  H   LIG d   1       7.158   2.627  -4.702  0.00  0.00     0.026 H 
BRANCH  43  46
ATOM     46  C   LIG d   1       9.188   3.345  -4.659  0.00  0.00    -0.053 C 
ATOM     47  H   LIG d   1      10.038   3.212  -5.329  0.00  0.00     0.026 H 
ATOM     48  H   LIG d   1       8.734   4.320  -4.836  0.00  0.00     0.026 H 
BRANCH  46  49
ATOM     49  C   LIG d   1       9.666   3.261  -3.207  0.00  0.00    -0.053 C 
ATOM     50  H   LIG d   1       8.804   3.214  -2.543  0.00  0.00     0.026 H 
ATOM     51  H   LIG d   1      10.273   2.364  -3.077  0.00  0.00     0.026 H 
BRANCH  49  52
ATOM     52  C   LIG d   1      10.503   4.497  -2.874  0.00  0.00    -0.053 C 
ATOM     53  H   LIG d   1      10.385   4.742  -1.818  0.00  0.00     0.026 H 
ATOM     54  H   LIG d   1      11.553   4.292  -3.085  0.00  0.00     0.026 H 
BRANCH  52  55
ATOM     55  C   LIG d   1      10.033   5.676  -3.728  0.00  0.00    -0.053 C 
ATOM     56  H   LIG d   1      10.852   6.015  -4.362  0.00  0.00     0.026 H 
ATOM     57  H   LIG d   1       9.195   5.363  -4.351  0.00  0.00     0.026 H 
BRANCH  55  58
ATOM     58  C   LIG d   1       9.588   6.822  -2.815  0.00  0.00    -0.053 C 
ATOM     59  H   LIG d   1      10.120   7.733  -3.090  0.00  0.00     0.026 H 
ATOM     60  H   LIG d   1       8.516   6.980  -2.927  0.00  0.00     0.026 H 
BRANCH  58  61
ATOM     61  C   LIG d   1       9.904   6.467  -1.361  0.00  0.00    -0.053 C 
ATOM     62  H   LIG d   1       9.016   6.044  -0.890  0.00  0.00     0.026 H 
ATOM     63  H   LIG d   1      10.712   5.737  -1.331  0.00  0.00     0.026 H 
BRANCH  61  64
ATOM     64  C   LIG d   1      10.328   7.729  -0.608  0.00  0.00    -0.051 C 
ATOM     65  H   LIG d   1       9.853   7.743   0.373  0.00  0.00     0.027 H 
ATOM     66  H   LIG d   1      11.412   7.732  -0.488  0.00  0.00     0.027 H 
BRANCH  64  67
ATOM     67  C   LIG d   1       9.899   8.965  -1.401  0.00  0.00    -0.030 C 
ATOM     68  H   LIG d   1      10.732   9.664  -1.464  0.00  0.00     0.029 H 
ATOM     69  H   LIG d   1       9.598   8.665  -2.405  0.00  0.00     0.029 H 
BRANCH  67  70
ATOM     70  C   LIG d   1       8.720   9.638  -0.695  0.00  0.00     0.044 C 
ATOM     71  H   LIG d   1       8.077   8.877  -0.254  0.00  0.00     0.056 H 
ATOM     72  H   LIG d   1       9.093  10.297   0.088  0.00  0.00     0.056 H 
BRANCH  70  73
ATOM     73  O   LIG d   1       7.971  10.402  -1.643  0.00  0.00    -0.395 OA
ATOM     74  H   LIG d   1       7.153   9.975  -1.935  0.00  0.00     0.209 HD
ENDBRANCH  70  73
ENDBRANCH  67  70
ENDBRANCH  64  67
ENDBRANCH  61  64
ENDBRANCH  58  61
ENDBRANCH  55  58
ENDBRANCH  52  55
ENDBRANCH  49  52
ENDBRANCH  46  49
ENDBRANCH  43  46
ENDBRANCH  40  43
ENDBRANCH   1  40
TORSDOF 24
ENDMDL
MODEL 6
REMARK VINA RESULT:      -4.9      2.122      6.321
REMARK  24 active torsions:
REMARK  status: ('A' for Active; 'I' for Inactive)
REMARK    1  A    between atoms: C_1  and  C_2 
REMARK    2  A    between atoms: C_1  and  C_16 
REMARK    3  A    between atoms: C_2  and  C_3 
REMARK    4  A    between atoms: C_3  and  C_4 
REMARK    5  A    between atoms: C_4  and  C_5 
REMARK    6  A    between atoms: C_5  and  C_6 
REMARK    7  A    between atoms: C_6  and  C_7 
REMARK    8  A    between atoms: C_7  and  C_8 
REMARK    9  A    between atoms: C_8  and  C_9 
REMARK   10  A    between atoms: C_9  and  C_10 
REMARK   11  A    between atoms: C_10  and  C_11 
REMARK   12  A    between atoms: C_11  and  C_12 
REMARK   13  A    between atoms: C_12  and  C_13 
REMARK   14  A    between atoms: C_16  and  C_17 
REMARK   15  A    between atoms: C_17  and  C_18 
REMARK   16  A    between atoms: C_18  and  C_19 
REMARK   17  A    between atoms: C_19  and  C_20 
REMARK   18  A    between atoms: C_20  and  C_21 
REMARK   19  A    between atoms: C_21  and  C_22 
REMARK   20  A    between atoms: C_22  and  C_23 
REMARK   21  A    between atoms: C_23  and  C_24 
REMARK   22  A    between atoms: C_24  and  C_25 
REMARK   23  A    between atoms: C_25  and  C_26 
REMARK   24  A    between atoms: C_26  and  O_27 
ROOT
ATOM      1  C   LIG d   1       2.401   0.432  -4.733  0.00  0.00    -0.053 C 
ATOM      2  H   LIG d   1       2.416   1.520  -4.787  0.00  0.00     0.026 H 
ATOM      3  H   LIG d   1       1.417   0.066  -5.026  0.00  0.00     0.026 H 
ENDROOT
BRANCH   1   4
ATOM      4  C   LIG d   1       3.459  -0.141  -5.678  0.00  0.00    -0.053 C 
ATOM      5  H   LIG d   1       4.405   0.376  -5.521  0.00  0.00     0.026 H 
ATOM      6  H   LIG d   1       3.588  -1.205  -5.477  0.00  0.00     0.026 H 
BRANCH   4   7
ATOM      7  C   LIG d   1       3.007   0.052  -7.127  0.00  0.00    -0.053 C 
ATOM      8  H   LIG d   1       1.918   0.029  -7.174  0.00  0.00     0.026 H 
ATOM      9  H   LIG d   1       3.366   1.014  -7.493  0.00  0.00     0.026 H 
BRANCH   7  10
ATOM     10  C   LIG d   1       3.580  -1.069  -7.994  0.00  0.00    -0.053 C 
ATOM     11  H   LIG d   1       4.502  -0.730  -8.465  0.00  0.00     0.026 H 
ATOM     12  H   LIG d   1       3.791  -1.939  -7.372  0.00  0.00     0.026 H 
BRANCH  10  13
ATOM     13  C   LIG d   1       2.565  -1.448  -9.074  0.00  0.00    -0.053 C 
ATOM     14  H   LIG d   1       3.016  -2.167  -9.759  0.00  0.00     0.026 H 
ATOM     15  H   LIG d   1       1.687  -1.893  -8.607  0.00  0.00     0.026 H 
BRANCH  13  16
ATOM     16  C   LIG d   1       2.151  -0.195  -9.849  0.00  0.00    -0.053 C 
ATOM     17  H   LIG d   1       1.078  -0.222 -10.035  0.00  0.00     0.026 H 
ATOM     18  H   LIG d   1       2.397   0.691  -9.264  0.00  0.00     0.026 H 
BRANCH  16  19
ATOM     19  C   LIG d   1       2.901  -0.150 -11.182  0.00  0.00    -0.053 C 
ATOM     20  H   LIG d   1       3.306  -1.137 -11.405  0.00  0.00     0.026 H 
ATOM     21  H   LIG d   1       2.215   0.149 -11.975  0.00  0.00     0.026 H 
BRANCH  19  22
ATOM     22  C   LIG d   1       4.045   0.862 -11.090  0.00  0.00    -0.053 C 
ATOM     23  H   LIG d   1       4.928   0.376 -10.676  0.00  0.00     0.026 H 
ATOM     24  H   LIG d   1       4.273   1.244 -12.084  0.00  0.00     0.026 H 
BRANCH  22  25
ATOM     25  C   LIG d   1       3.628   2.021 -10.182  0.00  0.00    -0.053 C 
ATOM     26  H   LIG d   1       3.384   2.890 -10.792  0.00  0.00     0.026 H 
ATOM     27  H   LIG d   1       2.755   1.729  -9.598  0.00  0.00     0.026 H 
BRANCH  25  28
ATOM     28  C   LIG d   1       4.780   2.369  -9.237  0.00  0.00    -0.053 C 
ATOM     29  H   LIG d   1       5.140   3.374  -9.459  0.00  0.00     0.026 H 
ATOM     30  H   LIG d   1       4.429   2.329  -8.205  0.00  0.00     0.026 H 
BRANCH  28  31
ATOM     31  C   LIG d   1       5.918   1.366  -9.428  0.00  0.00    -0.048 C 
ATOM     32  H   LIG d   1       5.523   0.444  -9.852  0.00  0.00     0.027 H 
ATOM     33  H   LIG d   1       6.664   1.786 -10.103  0.00  0.00     0.027 H 
BRANCH  31  34
ATOM     34  C   LIG d   1       6.567   1.067  -8.075  0.00  0.00    -0.013 C 
ATOM     35  H   LIG d   1       7.053   1.967  -7.698  0.00  0.00     0.033 H 
ATOM     36  H   LIG d   1       5.803   0.745  -7.369  0.00  0.00     0.033 H 
BRANCH  34  37
ATOM     37  C   LIG d   1       7.592  -0.026  -8.239  0.00  0.00     0.042 C 
ATOM     38  O   LIG d   1       8.740   0.156  -7.872  0.00  0.00    -0.550 OA
ATOM     39  O   LIG d   1       7.273  -1.090  -8.739  0.00  0.00    -0.550 OA
ENDBRANCH  34  37
ENDBRANCH  31  34
ENDBRANCH  28  31
ENDBRANCH  25  28
ENDBRANCH  22  25
ENDBRANCH  19  22
ENDBRANCH  16  19
ENDBRANCH  13  16
ENDBRANCH  10  13
ENDBRANCH   7  10
ENDBRANCH   4   7
ENDBRANCH   1   4
BRANCH   1  40
ATOM     40  C   LIG d   1       2.703  -0.013  -3.300  0.00  0.00    -0.053 C 
ATOM     41  H   LIG d   1       1.769  -0.218  -2.777  0.00  0.00     0.026 H 
ATOM     42  H   LIG d   1       3.314  -0.916  -3.321  0.00  0.00     0.026 H 
BRANCH  40  43
ATOM     43  C   LIG d   1       3.463   1.098  -2.572  0.00  0.00    -0.053 C 
ATOM     44  H   LIG d   1       3.918   1.766  -3.302  0.00  0.00     0.026 H 
ATOM     45  H   LIG d   1       2.771   1.661  -1.945  0.00  0.00     0.026 H 
BRANCH  43  46
ATOM     46  C   LIG d   1       4.555   0.480  -1.696  0.00  0.00    -0.053 C 
ATOM     47  H   LIG d   1       5.428   1.133  -1.690  0.00  0.00     0.026 H 
ATOM     48  H   LIG d   1       4.181   0.364  -0.678  0.00  0.00     0.026 H 
BRANCH  46  49
ATOM     49  C   LIG d   1       4.945  -0.889  -2.256  0.00  0.00    -0.053 C 
ATOM     50  H   LIG d   1       5.150  -1.573  -1.433  0.00  0.00     0.026 H 
ATOM     51  H   LIG d   1       4.126  -1.282  -2.858  0.00  0.00     0.026 H 
BRANCH  49  52
ATOM     52  C   LIG d   1       6.195  -0.747  -3.126  0.00  0.00    -0.053 C 
ATOM     53  H   LIG d   1       6.009  -0.018  -3.915  0.00  0.00     0.026 H 
ATOM     54  H   LIG d   1       7.030  -0.412  -2.511  0.00  0.00     0.026 H 
BRANCH  52  55
ATOM     55  C   LIG d   1       6.536  -2.100  -3.753  0.00  0.00    -0.053 C 
ATOM     56  H   LIG d   1       7.498  -2.445  -3.374  0.00  0.00     0.026 H 
ATOM     57  H   LIG d   1       5.764  -2.825  -3.496  0.00  0.00     0.026 H 
BRANCH  55  58
ATOM     58  C   LIG d   1       6.611  -1.954  -5.275  0.00  0.00    -0.053 C 
ATOM     59  H   LIG d   1       5.637  -1.649  -5.658  0.00  0.00     0.026 H 
ATOM     60  H   LIG d   1       7.354  -1.198  -5.530  0.00  0.00     0.026 H 
BRANCH  58  61
ATOM     61  C   LIG d   1       7.010  -3.292  -5.897  0.00  0.00    -0.053 C 
ATOM     62  H   LIG d   1       6.900  -3.237  -6.980  0.00  0.00     0.026 H 
ATOM     63  H   LIG d   1       8.047  -3.515  -5.649  0.00  0.00     0.026 H 
BRANCH  61  64
ATOM     64  C   LIG d   1       6.105  -4.398  -5.350  0.00  0.00    -0.051 C 
ATOM     65  H   LIG d   1       6.692  -5.069  -4.721  0.00  0.00     0.027 H 
ATOM     66  H   LIG d   1       5.305  -3.953  -4.759  0.00  0.00     0.027 H 
BRANCH  64  67
ATOM     67  C   LIG d   1       5.502  -5.187  -6.514  0.00  0.00    -0.030 C 
ATOM     68  H   LIG d   1       6.197  -5.184  -7.354  0.00  0.00     0.029 H 
ATOM     69  H   LIG d   1       5.317  -6.214  -6.199  0.00  0.00     0.029 H 
BRANCH  67  70
ATOM     70  C   LIG d   1       4.184  -4.539  -6.940  0.00  0.00     0.044 C 
ATOM     71  H   LIG d   1       4.213  -3.473  -6.714  0.00  0.00     0.056 H 
ATOM     72  H   LIG d   1       4.038  -4.679  -8.010  0.00  0.00     0.056 H 
BRANCH  70  73
ATOM     73  O   LIG d   1       3.103  -5.147  -6.229  0.00  0.00    -0.395 OA
ATOM     74  H   LIG d   1       2.256  -4.692  -6.336  0.00  0.00     0.209 HD
ENDBRANCH  70  73
ENDBRANCH  67  70
ENDBRANCH  64  67
ENDBRANCH  61  64
ENDBRANCH  58  61
ENDBRANCH  55  58
ENDBRANCH  52  55
ENDBRANCH  49  52
ENDBRANCH  46  49
ENDBRANCH  43  46
ENDBRANCH  40  43
ENDBRANCH   1  40
TORSDOF 24
ENDMDL
MODEL 7
REMARK VINA RESULT:      -4.9      2.594      4.558
REMARK  24 active torsions:
REMARK  status: ('A' for Active; 'I' for Inactive)
REMARK    1  A    between atoms: C_1  and  C_2 
REMARK    2  A    between atoms: C_1  and  C_16 
REMARK    3  A    between atoms: C_2  and  C_3 
REMARK    4  A    between atoms: C_3  and  C_4 
REMARK    5  A    between atoms: C_4  and  C_5 
REMARK    6  A    between atoms: C_5  and  C_6 
REMARK    7  A    between atoms: C_6  and  C_7 
REMARK    8  A    between atoms: C_7  and  C_8 
REMARK    9  A    between atoms: C_8  and  C_9 
REMARK   10  A    between atoms: C_9  and  C_10 
REMARK   11  A    between atoms: C_10  and  C_11 
REMARK   12  A    between atoms: C_11  and  C_12 
REMARK   13  A    between atoms: C_12  and  C_13 
REMARK   14  A    between atoms: C_16  and  C_17 
REMARK   15  A    between atoms: C_17  and  C_18 
REMARK   16  A    between atoms: C_18  and  C_19 
REMARK   17  A    between atoms: C_19  and  C_20 
REMARK   18  A    between atoms: C_20  and  C_21 
REMARK   19  A    between atoms: C_21  and  C_22 
REMARK   20  A    between atoms: C_22  and  C_23 
REMARK   21  A    between atoms: C_23  and  C_24 
REMARK   22  A    between atoms: C_24  and  C_25 
REMARK   23  A    between atoms: C_25  and  C_26 
REMARK   24  A    between atoms: C_26  and  O_27 
ROOT
ATOM      1  C   LIG d   1       5.560   0.918  -9.137  0.00  0.00    -0.053 C 
ATOM      2  H   LIG d   1       6.577   0.955  -9.526  0.00  0.00     0.026 H 
ATOM      3  H   LIG d   1       4.954   0.263  -9.762  0.00  0.00     0.026 H 
ENDROOT
BRANCH   1   4
ATOM      4  C   LIG d   1       5.581   0.380  -7.705  0.00  0.00    -0.053 C 
ATOM      5  H   LIG d   1       6.613   0.263  -7.375  0.00  0.00     0.026 H 
ATOM      6  H   LIG d   1       5.066   1.079  -7.046  0.00  0.00     0.026 H 
BRANCH   4   7
ATOM      7  C   LIG d   1       4.874  -0.976  -7.660  0.00  0.00    -0.053 C 
ATOM      8  H   LIG d   1       4.277  -1.106  -8.563  0.00  0.00     0.026 H 
ATOM      9  H   LIG d   1       5.618  -1.771  -7.599  0.00  0.00     0.026 H 
BRANCH   7  10
ATOM     10  C   LIG d   1       3.964  -1.037  -6.432  0.00  0.00    -0.053 C 
ATOM     11  H   LIG d   1       3.270  -1.872  -6.535  0.00  0.00     0.026 H 
ATOM     12  H   LIG d   1       4.570  -1.179  -5.537  0.00  0.00     0.026 H 
BRANCH  10  13
ATOM     13  C   LIG d   1       3.177   0.269  -6.315  0.00  0.00    -0.053 C 
ATOM     14  H   LIG d   1       3.792   1.097  -6.669  0.00  0.00     0.026 H 
ATOM     15  H   LIG d   1       2.272   0.204  -6.919  0.00  0.00     0.026 H 
BRANCH  13  16
ATOM     16  C   LIG d   1       2.796   0.505  -4.851  0.00  0.00    -0.053 C 
ATOM     17  H   LIG d   1       3.526   1.171  -4.390  0.00  0.00     0.026 H 
ATOM     18  H   LIG d   1       1.807   0.960  -4.802  0.00  0.00     0.026 H 
BRANCH  16  19
ATOM     19  C   LIG d   1       2.781  -0.831  -4.107  0.00  0.00    -0.053 C 
ATOM     20  H   LIG d   1       1.776  -1.252  -4.134  0.00  0.00     0.026 H 
ATOM     21  H   LIG d   1       3.477  -1.521  -4.584  0.00  0.00     0.026 H 
BRANCH  19  22
ATOM     22  C   LIG d   1       3.202  -0.609  -2.652  0.00  0.00    -0.053 C 
ATOM     23  H   LIG d   1       3.743   0.333  -2.570  0.00  0.00     0.026 H 
ATOM     24  H   LIG d   1       2.315  -0.575  -2.019  0.00  0.00     0.026 H 
BRANCH  22  25
ATOM     25  C   LIG d   1       4.106  -1.758  -2.202  0.00  0.00    -0.053 C 
ATOM     26  H   LIG d   1       4.614  -1.478  -1.278  0.00  0.00     0.026 H 
ATOM     27  H   LIG d   1       3.503  -2.648  -2.029  0.00  0.00     0.026 H 
BRANCH  25  28
ATOM     28  C   LIG d   1       5.145  -2.047  -3.287  0.00  0.00    -0.053 C 
ATOM     29  H   LIG d   1       5.369  -3.114  -3.299  0.00  0.00     0.026 H 
ATOM     30  H   LIG d   1       4.748  -1.750  -4.258  0.00  0.00     0.026 H 
BRANCH  28  31
ATOM     31  C   LIG d   1       6.422  -1.260  -2.995  0.00  0.00    -0.048 C 
ATOM     32  H   LIG d   1       6.288  -0.673  -2.087  0.00  0.00     0.027 H 
ATOM     33  H   LIG d   1       7.253  -1.952  -2.860  0.00  0.00     0.027 H 
BRANCH  31  34
ATOM     34  C   LIG d   1       6.724  -0.324  -4.167  0.00  0.00    -0.013 C 
ATOM     35  H   LIG d   1       7.716  -0.541  -4.561  0.00  0.00     0.033 H 
ATOM     36  H   LIG d   1       5.982  -0.473  -4.951  0.00  0.00     0.033 H 
BRANCH  34  37
ATOM     37  C   LIG d   1       6.673   1.107  -3.694  0.00  0.00     0.042 C 
ATOM     38  O   LIG d   1       7.295   1.968  -4.291  0.00  0.00    -0.550 OA
ATOM     39  O   LIG d   1       6.009   1.401  -2.715  0.00  0.00    -0.550 OA
ENDBRANCH  34  37
ENDBRANCH  31  34
ENDBRANCH  28  31
ENDBRANCH  25  28
ENDBRANCH  22  25
ENDBRANCH  19  22
ENDBRANCH  16  19
ENDBRANCH  13  16
ENDBRANCH  10  13
ENDBRANCH   7  10
ENDBRANCH   4   7
ENDBRANCH   1   4
BRANCH   1  40
ATOM     40  C   LIG d   1       4.960   2.326  -9.143  0.00  0.00    -0.053 C 
ATOM     41  H   LIG d   1       5.042   2.761  -8.148  0.00  0.00     0.026 H 
ATOM     42  H   LIG d   1       5.500   2.948  -9.858  0.00  0.00     0.026 H 
BRANCH  40  43
ATOM     43  C   LIG d   1       3.486   2.250  -9.547  0.00  0.00    -0.053 C 
ATOM     44  H   LIG d   1       2.863   2.269  -8.653  0.00  0.00     0.026 H 
ATOM     45  H   LIG d   1       3.238   3.101 -10.182  0.00  0.00     0.026 H 
BRANCH  43  46
ATOM     46  C   LIG d   1       3.234   0.951 -10.315  0.00  0.00    -0.053 C 
ATOM     47  H   LIG d   1       3.028   1.182 -11.360  0.00  0.00     0.026 H 
ATOM     48  H   LIG d   1       4.117   0.314 -10.251  0.00  0.00     0.026 H 
BRANCH  46  49
ATOM     49  C   LIG d   1       2.035   0.221  -9.707  0.00  0.00    -0.053 C 
ATOM     50  H   LIG d   1       2.297  -0.145  -8.715  0.00  0.00     0.026 H 
ATOM     51  H   LIG d   1       1.194   0.911  -9.628  0.00  0.00     0.026 H 
BRANCH  49  52
ATOM     52  C   LIG d   1       1.647  -0.957 -10.602  0.00  0.00    -0.053 C 
ATOM     53  H   LIG d   1       1.373  -1.810  -9.982  0.00  0.00     0.026 H 
ATOM     54  H   LIG d   1       0.799  -0.674 -11.227  0.00  0.00     0.026 H 
BRANCH  52  55
ATOM     55  C   LIG d   1       2.833  -1.332 -11.493  0.00  0.00    -0.053 C 
ATOM     56  H   LIG d   1       2.562  -1.187 -12.539  0.00  0.00     0.026 H 
ATOM     57  H   LIG d   1       3.686  -0.700 -11.248  0.00  0.00     0.026 H 
BRANCH  55  58
ATOM     58  C   LIG d   1       3.201  -2.799 -11.260  0.00  0.00    -0.053 C 
ATOM     59  H   LIG d   1       3.265  -3.314 -12.219  0.00  0.00     0.026 H 
ATOM     60  H   LIG d   1       4.165  -2.855 -10.753  0.00  0.00     0.026 H 
BRANCH  58  61
ATOM     61  C   LIG d   1       2.130  -3.463 -10.395  0.00  0.00    -0.053 C 
ATOM     62  H   LIG d   1       1.753  -2.743  -9.667  0.00  0.00     0.026 H 
ATOM     63  H   LIG d   1       1.310  -3.802 -11.027  0.00  0.00     0.026 H 
BRANCH  61  64
ATOM     64  C   LIG d   1       2.736  -4.660  -9.660  0.00  0.00    -0.051 C 
ATOM     65  H   LIG d   1       1.937  -5.310  -9.304  0.00  0.00     0.027 H 
ATOM     66  H   LIG d   1       3.380  -5.216 -10.342  0.00  0.00     0.027 H 
BRANCH  64  67
ATOM     67  C   LIG d   1       3.560  -4.165  -8.470  0.00  0.00    -0.030 C 
ATOM     68  H   LIG d   1       4.509  -3.763  -8.827  0.00  0.00     0.029 H 
ATOM     69  H   LIG d   1       3.009  -3.384  -7.947  0.00  0.00     0.029 H 
BRANCH  67  70
ATOM     70  C   LIG d   1       3.826  -5.330  -7.515  0.00  0.00     0.044 C 
ATOM     71  H   LIG d   1       3.464  -6.256  -7.961  0.00  0.00     0.056 H 
ATOM     72  H   LIG d   1       4.897  -5.411  -7.329  0.00  0.00     0.056 H 
BRANCH  70  73
ATOM     73  O   LIG d   1       3.145  -5.097  -6.280  0.00  0.00    -0.395 OA
ATOM     74  H   LIG d   1       3.711  -5.163  -5.499  0.00  0.00     0.209 HD
ENDBRANCH  70  73
ENDBRANCH  67  70
ENDBRANCH  64  67
ENDBRANCH  61  64
ENDBRANCH  58  61
ENDBRANCH  55  58
ENDBRANCH  52  55
ENDBRANCH  49  52
ENDBRANCH  46  49
ENDBRANCH  43  46
ENDBRANCH  40  43
ENDBRANCH   1  40
TORSDOF 24
ENDMDL
MODEL 8
REMARK VINA RESULT:      -4.8      1.588      5.510
REMARK  24 active torsions:
REMARK  status: ('A' for Active; 'I' for Inactive)
REMARK    1  A    between atoms: C_1  and  C_2 
REMARK    2  A    between atoms: C_1  and  C_16 
REMARK    3  A    between atoms: C_2  and  C_3 
REMARK    4  A    between atoms: C_3  and  C_4 
REMARK    5  A    between atoms: C_4  and  C_5 
REMARK    6  A    between atoms: C_5  and  C_6 
REMARK    7  A    between atoms: C_6  and  C_7 
REMARK    8  A    between atoms: C_7  and  C_8 
REMARK    9  A    between atoms: C_8  and  C_9 
REMARK   10  A    between atoms: C_9  and  C_10 
REMARK   11  A    between atoms: C_10  and  C_11 
REMARK   12  A    between atoms: C_11  and  C_12 
REMARK   13  A    between atoms: C_12  and  C_13 
REMARK   14  A    between atoms: C_16  and  C_17 
REMARK   15  A    between atoms: C_17  and  C_18 
REMARK   16  A    between atoms: C_18  and  C_19 
REMARK   17  A    between atoms: C_19  and  C_20 
REMARK   18  A    between atoms: C_20  and  C_21 
REMARK   19  A    between atoms: C_21  and  C_22 
REMARK   20  A    between atoms: C_22  and  C_23 
REMARK   21  A    between atoms: C_23  and  C_24 
REMARK   22  A    between atoms: C_24  and  C_25 
REMARK   23  A    between atoms: C_25  and  C_26 
REMARK   24  A    between atoms: C_26  and  O_27 
ROOT
ATOM      1  C   LIG d   1       2.925   0.060  -4.147  0.00  0.00    -0.053 C 
ATOM      2  H   LIG d   1       3.551   0.923  -3.921  0.00  0.00     0.026 H 
ATOM      3  H   LIG d   1       1.876   0.356  -4.124  0.00  0.00     0.026 H 
ENDROOT
BRANCH   1   4
ATOM      4  C   LIG d   1       3.273  -0.473  -5.538  0.00  0.00    -0.053 C 
ATOM      5  H   LIG d   1       4.350  -0.633  -5.607  0.00  0.00     0.026 H 
ATOM      6  H   LIG d   1       2.754  -1.416  -5.706  0.00  0.00     0.026 H 
BRANCH   4   7
ATOM      7  C   LIG d   1       2.841   0.543  -6.597  0.00  0.00    -0.053 C 
ATOM      8  H   LIG d   1       2.000   1.126  -6.219  0.00  0.00     0.026 H 
ATOM      9  H   LIG d   1       3.673   1.210  -6.821  0.00  0.00     0.026 H 
BRANCH   7  10
ATOM     10  C   LIG d   1       2.422  -0.193  -7.870  0.00  0.00    -0.053 C 
ATOM     11  H   LIG d   1       3.059  -1.066  -8.012  0.00  0.00     0.026 H 
ATOM     12  H   LIG d   1       1.384  -0.515  -7.778  0.00  0.00     0.026 H 
BRANCH  10  13
ATOM     13  C   LIG d   1       2.561   0.743  -9.071  0.00  0.00    -0.053 C 
ATOM     14  H   LIG d   1       3.348   0.375  -9.729  0.00  0.00     0.026 H 
ATOM     15  H   LIG d   1       1.618   0.776  -9.617  0.00  0.00     0.026 H 
BRANCH  13  16
ATOM     16  C   LIG d   1       2.918   2.149  -8.584  0.00  0.00    -0.053 C 
ATOM     17  H   LIG d   1       2.078   2.820  -8.763  0.00  0.00     0.026 H 
ATOM     18  H   LIG d   1       3.138   2.119  -7.517  0.00  0.00     0.026 H 
BRANCH  16  19
ATOM     19  C   LIG d   1       4.146   2.655  -9.344  0.00  0.00    -0.053 C 
ATOM     20  H   LIG d   1       3.832   3.095 -10.290  0.00  0.00     0.026 H 
ATOM     21  H   LIG d   1       4.660   3.407  -8.745  0.00  0.00     0.026 H 
BRANCH  19  22
ATOM     22  C   LIG d   1       5.095   1.485  -9.615  0.00  0.00    -0.053 C 
ATOM     23  H   LIG d   1       4.518   0.568  -9.735  0.00  0.00     0.026 H 
ATOM     24  H   LIG d   1       5.660   1.679 -10.526  0.00  0.00     0.026 H 
BRANCH  22  25
ATOM     25  C   LIG d   1       6.061   1.328  -8.439  0.00  0.00    -0.053 C 
ATOM     26  H   LIG d   1       6.829   2.099  -8.496  0.00  0.00     0.026 H 
ATOM     27  H   LIG d   1       5.512   1.429  -7.503  0.00  0.00     0.026 H 
BRANCH  25  28
ATOM     28  C   LIG d   1       6.718  -0.053  -8.498  0.00  0.00    -0.053 C 
ATOM     29  H   LIG d   1       7.695   0.031  -8.975  0.00  0.00     0.026 H 
ATOM     30  H   LIG d   1       6.840  -0.440  -7.486  0.00  0.00     0.026 H 
BRANCH  28  31
ATOM     31  C   LIG d   1       5.834  -1.004  -9.306  0.00  0.00    -0.048 C 
ATOM     32  H   LIG d   1       4.968  -0.463  -9.685  0.00  0.00     0.027 H 
ATOM     33  H   LIG d   1       6.405  -1.407 -10.143  0.00  0.00     0.027 H 
BRANCH  31  34
ATOM     34  C   LIG d   1       5.367  -2.152  -8.409  0.00  0.00    -0.013 C 
ATOM     35  H   LIG d   1       6.234  -2.664  -7.991  0.00  0.00     0.033 H 
ATOM     36  H   LIG d   1       4.756  -1.754  -7.599  0.00  0.00     0.033 H 
BRANCH  34  37
ATOM     37  C   LIG d   1       4.552  -3.125  -9.221  0.00  0.00     0.042 C 
ATOM     38  O   LIG d   1       5.047  -3.674 -10.191  0.00  0.00    -0.550 OA
ATOM     39  O   LIG d   1       3.398  -3.363  -8.908  0.00  0.00    -0.550 OA
ENDBRANCH  34  37
ENDBRANCH  31  34
ENDBRANCH  28  31
ENDBRANCH  25  28
ENDBRANCH  22  25
ENDBRANCH  19  22
ENDBRANCH  16  19
ENDBRANCH  13  16
ENDBRANCH  10  13
ENDBRANCH   7  10
ENDBRANCH   4   7
ENDBRANCH   1   4
BRANCH   1  40
ATOM     40  C   LIG d   1       3.169  -1.035  -3.106  0.00  0.00    -0.053 C 
ATOM     41  H   LIG d   1       2.218  -1.343  -2.672  0.00  0.00     0.026 H 
ATOM     42  H   LIG d   1       3.646  -1.890  -3.584  0.00  0.00     0.026 H 
BRANCH  40  43
ATOM     43  C   LIG d   1       4.081  -0.494  -2.002  0.00  0.00    -0.053 C 
ATOM     44  H   LIG d   1       3.473  -0.107  -1.185  0.00  0.00     0.026 H 
ATOM     45  H   LIG d   1       4.719  -1.297  -1.632  0.00  0.00     0.026 H 
BRANCH  43  46
ATOM     46  C   LIG d   1       4.952   0.630  -2.566  0.00  0.00    -0.053 C 
ATOM     47  H   LIG d   1       4.498   1.019  -3.476  0.00  0.00     0.026 H 
ATOM     48  H   LIG d   1       5.035   1.429  -1.829  0.00  0.00     0.026 H 
BRANCH  46  49
ATOM     49  C   LIG d   1       6.346   0.085  -2.885  0.00  0.00    -0.053 C 
ATOM     50  H   LIG d   1       7.082   0.575  -2.248  0.00  0.00     0.026 H 
ATOM     51  H   LIG d   1       6.366  -0.990  -2.700  0.00  0.00     0.026 H 
BRANCH  49  52
ATOM     52  C   LIG d   1       6.677   0.357  -4.353  0.00  0.00    -0.053 C 
ATOM     53  H   LIG d   1       5.792   0.741  -4.860  0.00  0.00     0.026 H 
ATOM     54  H   LIG d   1       7.479   1.093  -4.414  0.00  0.00     0.026 H 
BRANCH  52  55
ATOM     55  C   LIG d   1       7.126  -0.943  -5.024  0.00  0.00    -0.053 C 
ATOM     56  H   LIG d   1       6.777  -0.959  -6.056  0.00  0.00     0.026 H 
ATOM     57  H   LIG d   1       8.214  -1.004  -5.007  0.00  0.00     0.026 H 
BRANCH  55  58
ATOM     58  C   LIG d   1       6.537  -2.137  -4.268  0.00  0.00    -0.053 C 
ATOM     59  H   LIG d   1       7.215  -2.427  -3.465  0.00  0.00     0.026 H 
ATOM     60  H   LIG d   1       5.571  -1.858  -3.845  0.00  0.00     0.026 H 
BRANCH  58  61
ATOM     61  C   LIG d   1       6.354  -3.310  -5.231  0.00  0.00    -0.053 C 
ATOM     62  H   LIG d   1       6.396  -2.946  -6.258  0.00  0.00     0.026 H 
ATOM     63  H   LIG d   1       7.148  -4.039  -5.072  0.00  0.00     0.026 H 
BRANCH  61  64
ATOM     64  C   LIG d   1       4.998  -3.971  -4.979  0.00  0.00    -0.051 C 
ATOM     65  H   LIG d   1       4.713  -3.827  -3.937  0.00  0.00     0.027 H 
ATOM     66  H   LIG d   1       4.248  -3.518  -5.627  0.00  0.00     0.027 H 
BRANCH  64  67
ATOM     67  C   LIG d   1       5.096  -5.468  -5.279  0.00  0.00    -0.030 C 
ATOM     68  H   LIG d   1       6.139  -5.738  -5.446  0.00  0.00     0.029 H 
ATOM     69  H   LIG d   1       4.704  -6.034  -4.434  0.00  0.00     0.029 H 
BRANCH  67  70
ATOM     70  C   LIG d   1       4.279  -5.790  -6.532  0.00  0.00     0.044 C 
ATOM     71  H   LIG d   1       4.839  -5.491  -7.418  0.00  0.00     0.056 H 
ATOM     72  H   LIG d   1       4.082  -6.861  -6.572  0.00  0.00     0.056 H 
BRANCH  70  73
ATOM     73  O   LIG d   1       3.040  -5.079  -6.488  0.00  0.00    -0.395 OA
ATOM     74  H   LIG d   1       2.674  -4.982  -5.598  0.00  0.00     0.209 HD
ENDBRANCH  70  73
ENDBRANCH  67  70
ENDBRANCH  64  67
ENDBRANCH  61  64
ENDBRANCH  58  61
ENDBRANCH  55  58
ENDBRANCH  52  55
ENDBRANCH  49  52
ENDBRANCH  46  49
ENDBRANCH  43  46
ENDBRANCH  40  43
ENDBRANCH   1  40
TORSDOF 24
ENDMDL
MODEL 9
REMARK VINA RESULT:      -4.8      1.600      4.368
REMARK  24 active torsions:
REMARK  status: ('A' for Active; 'I' for Inactive)
REMARK    1  A    between atoms: C_1  and  C_2 
REMARK    2  A    between atoms: C_1  and  C_16 
REMARK    3  A    between atoms: C_2  and  C_3 
REMARK    4  A    between atoms: C_3  and  C_4 
REMARK    5  A    between atoms: C_4  and  C_5 
REMARK    6  A    between atoms: C_5  and  C_6 
REMARK    7  A    between atoms: C_6  and  C_7 
REMARK    8  A    between atoms: C_7  and  C_8 
REMARK    9  A    between atoms: C_8  and  C_9 
REMARK   10  A    between atoms: C_9  and  C_10 
REMARK   11  A    between atoms: C_10  and  C_11 
REMARK   12  A    between atoms: C_11  and  C_12 
REMARK   13  A    between atoms: C_12  and  C_13 
REMARK   14  A    between atoms: C_16  and  C_17 
REMARK   15  A    between atoms: C_17  and  C_18 
REMARK   16  A    between atoms: C_18  and  C_19 
REMARK   17  A    between atoms: C_19  and  C_20 
REMARK   18  A    between atoms: C_20  and  C_21 
REMARK   19  A    between atoms: C_21  and  C_22 
REMARK   20  A    between atoms: C_22  and  C_23 
REMARK   21  A    between atoms: C_23  and  C_24 
REMARK   22  A    between atoms: C_24  and  C_25 
REMARK   23  A    between atoms: C_25  and  C_26 
REMARK   24  A    between atoms: C_26  and  O_27 
ROOT
ATOM      1  C   LIG d   1       5.186   1.328  -9.142  0.00  0.00    -0.053 C 
ATOM      2  H   LIG d   1       5.576   2.265  -8.744  0.00  0.00     0.026 H 
ATOM      3  H   LIG d   1       5.883   0.927  -9.877  0.00  0.00     0.026 H 
ENDROOT
BRANCH   1   4
ATOM      4  C   LIG d   1       5.015   0.322  -8.001  0.00  0.00    -0.053 C 
ATOM      5  H   LIG d   1       5.155  -0.689  -8.384  0.00  0.00     0.026 H 
ATOM      6  H   LIG d   1       5.754   0.522  -7.226  0.00  0.00     0.026 H 
BRANCH   4   7
ATOM      7  C   LIG d   1       3.609   0.453  -7.412  0.00  0.00    -0.053 C 
ATOM      8  H   LIG d   1       3.384   1.506  -7.238  0.00  0.00     0.026 H 
ATOM      9  H   LIG d   1       2.883   0.037  -8.110  0.00  0.00     0.026 H 
BRANCH   7  10
ATOM     10  C   LIG d   1       3.537  -0.310  -6.089  0.00  0.00    -0.053 C 
ATOM     11  H   LIG d   1       2.993  -1.243  -6.236  0.00  0.00     0.026 H 
ATOM     12  H   LIG d   1       4.546  -0.530  -5.740  0.00  0.00     0.026 H 
BRANCH  10  13
ATOM     13  C   LIG d   1       2.813   0.544  -5.046  0.00  0.00    -0.053 C 
ATOM     14  H   LIG d   1       3.530   1.203  -4.555  0.00  0.00     0.026 H 
ATOM     15  H   LIG d   1       2.045   1.142  -5.536  0.00  0.00     0.026 H 
BRANCH  13  16
ATOM     16  C   LIG d   1       2.161  -0.368  -4.004  0.00  0.00    -0.053 C 
ATOM     17  H   LIG d   1       1.092  -0.158  -3.957  0.00  0.00     0.026 H 
ATOM     18  H   LIG d   1       2.316  -1.409  -4.284  0.00  0.00     0.026 H 
BRANCH  16  19
ATOM     19  C   LIG d   1       2.793  -0.108  -2.634  0.00  0.00    -0.053 C 
ATOM     20  H   LIG d   1       2.011   0.122  -1.911  0.00  0.00     0.026 H 
ATOM     21  H   LIG d   1       3.338  -0.995  -2.312  0.00  0.00     0.026 H 
BRANCH  19  22
ATOM     22  C   LIG d   1       3.758   1.075  -2.735  0.00  0.00    -0.053 C 
ATOM     23  H   LIG d   1       3.843   1.388  -3.775  0.00  0.00     0.026 H 
ATOM     24  H   LIG d   1       3.381   1.903  -2.136  0.00  0.00     0.026 H 
BRANCH  22  25
ATOM     25  C   LIG d   1       5.135   0.655  -2.215  0.00  0.00    -0.053 C 
ATOM     26  H   LIG d   1       5.387   1.249  -1.336  0.00  0.00     0.026 H 
ATOM     27  H   LIG d   1       5.115  -0.401  -1.947  0.00  0.00     0.026 H 
BRANCH  25  28
ATOM     28  C   LIG d   1       6.184   0.885  -3.304  0.00  0.00    -0.053 C 
ATOM     29  H   LIG d   1       5.780   1.558  -4.061  0.00  0.00     0.026 H 
ATOM     30  H   LIG d   1       7.075   1.332  -2.861  0.00  0.00     0.026 H 
BRANCH  28  31
ATOM     31  C   LIG d   1       6.550  -0.452  -3.951  0.00  0.00    -0.048 C 
ATOM     32  H   LIG d   1       6.095  -0.515  -4.938  0.00  0.00     0.027 H 
ATOM     33  H   LIG d   1       7.633  -0.525  -4.045  0.00  0.00     0.027 H 
BRANCH  31  34
ATOM     34  C   LIG d   1       6.036  -1.598  -3.077  0.00  0.00    -0.013 C 
ATOM     35  H   LIG d   1       6.849  -1.980  -2.462  0.00  0.00     0.033 H 
ATOM     36  H   LIG d   1       5.235  -1.233  -2.434  0.00  0.00     0.033 H 
BRANCH  34  37
ATOM     37  C   LIG d   1       5.509  -2.703  -3.956  0.00  0.00     0.042 C 
ATOM     38  O   LIG d   1       6.251  -3.256  -4.749  0.00  0.00    -0.550 OA
ATOM     39  O   LIG d   1       4.342  -3.042  -3.874  0.00  0.00    -0.550 OA
ENDBRANCH  34  37
ENDBRANCH  31  34
ENDBRANCH  28  31
ENDBRANCH  25  28
ENDBRANCH  22  25
ENDBRANCH  19  22
ENDBRANCH  16  19
ENDBRANCH  13  16
ENDBRANCH  10  13
ENDBRANCH   7  10
ENDBRANCH   4   7
ENDBRANCH   1   4
BRANCH   1  40
ATOM     40  C   LIG d   1       3.831   1.579  -9.807  0.00  0.00    -0.053 C 
ATOM     41  H   LIG d   1       3.052   1.052  -9.256  0.00  0.00     0.026 H 
ATOM     42  H   LIG d   1       3.618   2.648  -9.806  0.00  0.00     0.026 H 
BRANCH  40  43
ATOM     43  C   LIG d   1       3.870   1.069 -11.249  0.00  0.00    -0.053 C 
ATOM     44  H   LIG d   1       3.178   1.650 -11.859  0.00  0.00     0.026 H 
ATOM     45  H   LIG d   1       4.880   1.175 -11.645  0.00  0.00     0.026 H 
BRANCH  43  46
ATOM     46  C   LIG d   1       3.463  -0.405 -11.281  0.00  0.00    -0.053 C 
ATOM     47  H   LIG d   1       3.540  -0.781 -12.301  0.00  0.00     0.026 H 
ATOM     48  H   LIG d   1       4.124  -0.978 -10.630  0.00  0.00     0.026 H 
BRANCH  46  49
ATOM     49  C   LIG d   1       2.019  -0.547 -10.793  0.00  0.00    -0.053 C 
ATOM     50  H   LIG d   1       1.672   0.409 -10.402  0.00  0.00     0.026 H 
ATOM     51  H   LIG d   1       1.384  -0.850 -11.626  0.00  0.00     0.026 H 
BRANCH  49  52
ATOM     52  C   LIG d   1       1.955  -1.605  -9.691  0.00  0.00    -0.053 C 
ATOM     53  H   LIG d   1       2.844  -1.533  -9.065  0.00  0.00     0.026 H 
ATOM     54  H   LIG d   1       1.066  -1.441  -9.082  0.00  0.00     0.026 H 
BRANCH  52  55
ATOM     55  C   LIG d   1       1.888  -2.997 -10.324  0.00  0.00    -0.053 C 
ATOM     56  H   LIG d   1       0.868  -3.376 -10.263  0.00  0.00     0.026 H 
ATOM     57  H   LIG d   1       2.192  -2.936 -11.369  0.00  0.00     0.026 H 
BRANCH  55  58
ATOM     58  C   LIG d   1       2.829  -3.944  -9.574  0.00  0.00    -0.053 C 
ATOM     59  H   LIG d   1       2.287  -4.423  -8.759  0.00  0.00     0.026 H 
ATOM     60  H   LIG d   1       3.201  -4.705 -10.261  0.00  0.00     0.026 H 
BRANCH  58  61
ATOM     61  C   LIG d   1       4.006  -3.149  -9.007  0.00  0.00    -0.053 C 
ATOM     62  H   LIG d   1       4.899  -3.350  -9.599  0.00  0.00     0.026 H 
ATOM     63  H   LIG d   1       3.779  -2.084  -9.045  0.00  0.00     0.026 H 
BRANCH  61  64
ATOM     64  C   LIG d   1       4.251  -3.566  -7.556  0.00  0.00    -0.051 C 
ATOM     65  H   LIG d   1       5.324  -3.596  -7.363  0.00  0.00     0.027 H 
ATOM     66  H   LIG d   1       3.781  -2.845  -6.887  0.00  0.00     0.027 H 
BRANCH  64  67
ATOM     67  C   LIG d   1       3.651  -4.953  -7.315  0.00  0.00    -0.030 C 
ATOM     68  H   LIG d   1       2.676  -4.850  -6.841  0.00  0.00     0.029 H 
ATOM     69  H   LIG d   1       3.539  -5.470  -8.268  0.00  0.00     0.029 H 
BRANCH  67  70
ATOM     70  C   LIG d   1       4.580  -5.758  -6.404  0.00  0.00     0.044 C 
ATOM     71  H   LIG d   1       4.603  -6.796  -6.734  0.00  0.00     0.056 H 
ATOM     72  H   LIG d   1       5.584  -5.341  -6.447  0.00  0.00     0.056 H 
BRANCH  70  73
ATOM     73  O   LIG d   1       4.096  -5.697  -5.060  0.00  0.00    -0.395 OA
ATOM     74  H   LIG d   1       3.794  -4.819  -4.790  0.00  0.00     0.209 HD
ENDBRANCH  70  73
ENDBRANCH  67  70
ENDBRANCH  64  67
ENDBRANCH  61  64
ENDBRANCH  58  61
ENDBRANCH  55  58
ENDBRANCH  52  55
ENDBRANCH  49  52
ENDBRANCH  46  49
ENDBRANCH  43  46
ENDBRANCH  40  43
ENDBRANCH   1  40
TORSDOF 24
ENDMDL
MODEL 10
REMARK VINA RESULT:      -4.8      1.755      6.517
REMARK  24 active torsions:
REMARK  status: ('A' for Active; 'I' for Inactive)
REMARK    1  A    between atoms: C_1  and  C_2 
REMARK    2  A    between atoms: C_1  and  C_16 
REMARK    3  A    between atoms: C_2  and  C_3 
REMARK    4  A    between atoms: C_3  and  C_4 
REMARK    5  A    between atoms: C_4  and  C_5 
REMARK    6  A    between atoms: C_5  and  C_6 
REMARK    7  A    between atoms: C_6  and  C_7 
REMARK    8  A    between atoms: C_7  and  C_8 
REMARK    9  A    between atoms: C_8  and  C_9 
REMARK   10  A    between atoms: C_9  and  C_10 
REMARK   11  A    between atoms: C_10  and  C_11 
REMARK   12  A    between atoms: C_11  and  C_12 
REMARK   13  A    between atoms: C_12  and  C_13 
REMARK   14  A    between atoms: C_16  and  C_17 
REMARK   15  A    between atoms: C_17  and  C_18 
REMARK   16  A    between atoms: C_18  and  C_19 
REMARK   17  A    between atoms: C_19  and  C_20 
REMARK   18  A    between atoms: C_20  and  C_21 
REMARK   19  A    between atoms: C_21  and  C_22 
REMARK   20  A    between atoms: C_22  and  C_23 
REMARK   21  A    between atoms: C_23  and  C_24 
REMARK   22  A    between atoms: C_24  and  C_25 
REMARK   23  A    between atoms: C_25  and  C_26 
REMARK   24  A    between atoms: C_26  and  O_27 
ROOT
ATOM      1  C   LIG d   1       4.628   1.347 -10.232  0.00  0.00    -0.053 C 
ATOM      2  H   LIG d   1       4.759   0.556  -9.494  0.00  0.00     0.026 H 
ATOM      3  H   LIG d   1       5.604   1.728 -10.534  0.00  0.00     0.026 H 
ENDROOT
BRANCH   1   4
ATOM      4  C   LIG d   1       3.899   0.788 -11.456  0.00  0.00    -0.053 C 
ATOM      5  H   LIG d   1       2.999   1.375 -11.642  0.00  0.00     0.026 H 
ATOM      6  H   LIG d   1       4.554   0.841 -12.325  0.00  0.00     0.026 H 
BRANCH   4   7
ATOM      7  C   LIG d   1       3.512  -0.669 -11.197  0.00  0.00    -0.053 C 
ATOM      8  H   LIG d   1       3.888  -1.294 -12.008  0.00  0.00     0.026 H 
ATOM      9  H   LIG d   1       3.947  -0.998 -10.254  0.00  0.00     0.026 H 
BRANCH   7  10
ATOM     10  C   LIG d   1       1.990  -0.788 -11.124  0.00  0.00    -0.053 C 
ATOM     11  H   LIG d   1       1.567   0.155 -10.779  0.00  0.00     0.026 H 
ATOM     12  H   LIG d   1       1.595  -1.020 -12.114  0.00  0.00     0.026 H 
BRANCH  10  13
ATOM     13  C   LIG d   1       1.610  -1.905 -10.150  0.00  0.00    -0.053 C 
ATOM     14  H   LIG d   1       0.879  -1.530  -9.435  0.00  0.00     0.026 H 
ATOM     15  H   LIG d   1       1.182  -2.740 -10.704  0.00  0.00     0.026 H 
BRANCH  13  16
ATOM     16  C   LIG d   1       2.860  -2.376  -9.403  0.00  0.00    -0.053 C 
ATOM     17  H   LIG d   1       3.741  -1.906  -9.838  0.00  0.00     0.026 H 
ATOM     18  H   LIG d   1       2.781  -2.100  -8.352  0.00  0.00     0.026 H 
BRANCH  16  19
ATOM     19  C   LIG d   1       2.981  -3.897  -9.522  0.00  0.00    -0.053 C 
ATOM     20  H   LIG d   1       2.364  -4.372  -8.760  0.00  0.00     0.026 H 
ATOM     21  H   LIG d   1       2.645  -4.212 -10.510  0.00  0.00     0.026 H 
BRANCH  19  22
ATOM     22  C   LIG d   1       4.441  -4.309  -9.325  0.00  0.00    -0.053 C 
ATOM     23  H   LIG d   1       4.505  -5.064  -8.542  0.00  0.00     0.026 H 
ATOM     24  H   LIG d   1       4.832  -4.718 -10.257  0.00  0.00     0.026 H 
BRANCH  22  25
ATOM     25  C   LIG d   1       5.266  -3.085  -8.921  0.00  0.00    -0.053 C 
ATOM     26  H   LIG d   1       6.008  -2.877  -9.692  0.00  0.00     0.026 H 
ATOM     27  H   LIG d   1       4.607  -2.225  -8.808  0.00  0.00     0.026 H 
BRANCH  25  28
ATOM     28  C   LIG d   1       5.974  -3.362  -7.593  0.00  0.00    -0.053 C 
ATOM     29  H   LIG d   1       6.303  -4.401  -7.568  0.00  0.00     0.026 H 
ATOM     30  H   LIG d   1       6.839  -2.705  -7.499  0.00  0.00     0.026 H 
BRANCH  28  31
ATOM     31  C   LIG d   1       5.008  -3.104  -6.436  0.00  0.00    -0.048 C 
ATOM     32  H   LIG d   1       5.193  -2.113  -6.022  0.00  0.00     0.027 H 
ATOM     33  H   LIG d   1       3.982  -3.160  -6.799  0.00  0.00     0.027 H 
BRANCH  31  34
ATOM     34  C   LIG d   1       5.222  -4.158  -5.348  0.00  0.00    -0.013 C 
ATOM     35  H   LIG d   1       6.286  -4.376  -5.256  0.00  0.00     0.033 H 
ATOM     36  H   LIG d   1       4.845  -3.781  -4.398  0.00  0.00     0.033 H 
BRANCH  34  37
ATOM     37  C   LIG d   1       4.482  -5.418  -5.717  0.00  0.00     0.042 C 
ATOM     38  O   LIG d   1       3.346  -5.351  -6.154  0.00  0.00    -0.550 OA
ATOM     39  O   LIG d   1       5.019  -6.503  -5.579  0.00  0.00    -0.550 OA
ENDBRANCH  34  37
ENDBRANCH  31  34
ENDBRANCH  28  31
ENDBRANCH  25  28
ENDBRANCH  22  25
ENDBRANCH  19  22
ENDBRANCH  16  19
ENDBRANCH  13  16
ENDBRANCH  10  13
ENDBRANCH   7  10
ENDBRANCH   4   7
ENDBRANCH   1   4
BRANCH   1  40
ATOM     40  C   LIG d   1       3.803   2.484  -9.623  0.00  0.00    -0.053 C 
ATOM     41  H   LIG d   1       4.472   3.248  -9.228  0.00  0.00     0.026 H 
ATOM     42  H   LIG d   1       3.165   2.920 -10.390  0.00  0.00     0.026 H 
BRANCH  40  43
ATOM     43  C   LIG d   1       2.934   1.932  -8.491  0.00  0.00    -0.053 C 
ATOM     44  H   LIG d   1       2.737   2.721  -7.766  0.00  0.00     0.026 H 
ATOM     45  H   LIG d   1       1.991   1.569  -8.900  0.00  0.00     0.026 H 
BRANCH  43  46
ATOM     46  C   LIG d   1       3.667   0.779  -7.801  0.00  0.00    -0.053 C 
ATOM     47  H   LIG d   1       4.044   0.087  -8.554  0.00  0.00     0.026 H 
ATOM     48  H   LIG d   1       4.500   1.174  -7.220  0.00  0.00     0.026 H 
BRANCH  46  49
ATOM     49  C   LIG d   1       2.700   0.043  -6.871  0.00  0.00    -0.053 C 
ATOM     50  H   LIG d   1       1.729   0.537  -6.891  0.00  0.00     0.026 H 
ATOM     51  H   LIG d   1       2.589  -0.988  -7.206  0.00  0.00     0.026 H 
BRANCH  49  52
ATOM     52  C   LIG d   1       3.253   0.059  -5.445  0.00  0.00    -0.053 C 
ATOM     53  H   LIG d   1       3.810  -0.859  -5.260  0.00  0.00     0.026 H 
ATOM     54  H   LIG d   1       3.914   0.917  -5.322  0.00  0.00     0.026 H 
BRANCH  52  55
ATOM     55  C   LIG d   1       2.095   0.162  -4.450  0.00  0.00    -0.053 C 
ATOM     56  H   LIG d   1       1.954   1.204  -4.163  0.00  0.00     0.026 H 
ATOM     57  H   LIG d   1       1.182  -0.214  -4.914  0.00  0.00     0.026 H 
BRANCH  55  58
ATOM     58  C   LIG d   1       2.414  -0.671  -3.207  0.00  0.00    -0.053 C 
ATOM     59  H   LIG d   1       2.447  -0.021  -2.333  0.00  0.00     0.026 H 
ATOM     60  H   LIG d   1       1.641  -1.427  -3.068  0.00  0.00     0.026 H 
BRANCH  58  61
ATOM     61  C   LIG d   1       3.770  -1.355  -3.386  0.00  0.00    -0.053 C 
ATOM     62  H   LIG d   1       3.624  -2.430  -3.485  0.00  0.00     0.026 H 
ATOM     63  H   LIG d   1       4.256  -0.970  -4.282  0.00  0.00     0.026 H 
BRANCH  61  64
ATOM     64  C   LIG d   1       4.650  -1.071  -2.167  0.00  0.00    -0.051 C 
ATOM     65  H   LIG d   1       4.084  -1.268  -1.257  0.00  0.00     0.027 H 
ATOM     66  H   LIG d   1       5.529  -1.715  -2.196  0.00  0.00     0.027 H 
BRANCH  64  67
ATOM     67  C   LIG d   1       5.091   0.395  -2.187  0.00  0.00    -0.030 C 
ATOM     68  H   LIG d   1       4.252   1.023  -2.487  0.00  0.00     0.029 H 
ATOM     69  H   LIG d   1       5.426   0.686  -1.191  0.00  0.00     0.029 H 
BRANCH  67  70
ATOM     70  C   LIG d   1       6.240   0.567  -3.183  0.00  0.00     0.044 C 
ATOM     71  H   LIG d   1       5.838   0.634  -4.193  0.00  0.00     0.056 H 
ATOM     72  H   LIG d   1       6.789   1.478  -2.950  0.00  0.00     0.056 H 
BRANCH  70  73
ATOM     73  O   LIG d   1       7.119  -0.556  -3.093  0.00  0.00    -0.395 OA
ATOM     74  H   LIG d   1       7.211  -0.913  -2.199  0.00  0.00     0.209 HD
ENDBRANCH  70  73
ENDBRANCH  67  70
ENDBRANCH  64  67
ENDBRANCH  61  64
ENDBRANCH  58  61
ENDBRANCH  55  58
ENDBRANCH  52  55
ENDBRANCH  49  52
ENDBRANCH  46  49
ENDBRANCH  43  46
ENDBRANCH  40  43
ENDBRANCH   1  40
TORSDOF 24
ENDMDL
