MODEL 1
REMARK VINA RESULT:      -6.2      0.000      0.000
REMARK  8 active torsions:
REMARK  status: ('A' for Active; 'I' for Inactive)
REMARK    1  A    between atoms: C_1  and  C_2 
REMARK    2  A    between atoms: C_2  and  C_4 
REMARK    3  A    between atoms: C_4  and  C_5 
REMARK    4  A    between atoms: C_4  and  C_6 
REMARK    5  A    between atoms: C_4  and  O_22 
REMARK    6  A    between atoms: C_7  and  C_8 
REMARK    7  A    between atoms: C_8  and  N_9 
REMARK    8  A    between atoms: C_14  and  C_16 
ROOT
ATOM      1  N   LIG d   1       5.205  -1.770  -7.814  0.00  0.00    -0.284 N 
ATOM      2  C   LIG d   1       5.298  -3.112  -7.223  0.00  0.00     0.000 C 
ATOM      3  C   LIG d   1       4.876  -4.157  -8.258  0.00  0.00    -0.040 C 
ATOM      4  C   LIG d   1       3.440  -3.876  -8.705  0.00  0.00    -0.050 C 
ATOM      5  C   LIG d   1       3.359  -2.456  -9.272  0.00  0.00    -0.033 C 
ATOM      6  C   LIG d   1       3.824  -1.459  -8.207  0.00  0.00     0.038 C 
ATOM      7  H   LIG d   1       3.174  -1.529  -7.336  0.00  0.00     0.051 H 
ATOM      8  H   LIG d   1       6.326  -3.302  -6.914  0.00  0.00     0.043 H 
ATOM      9  H   LIG d   1       4.641  -3.173  -6.355  0.00  0.00     0.043 H 
ATOM     10  H   LIG d   1       5.543  -4.105  -9.120  0.00  0.00     0.028 H 
ATOM     11  H   LIG d   1       4.931  -5.151  -7.815  0.00  0.00     0.028 H 
ATOM     12  H   LIG d   1       3.150  -4.591  -9.474  0.00  0.00     0.027 H 
ATOM     13  H   LIG d   1       2.769  -3.965  -7.850  0.00  0.00     0.027 H 
ATOM     14  H   LIG d   1       4.001  -2.377 -10.149  0.00  0.00     0.028 H 
ATOM     15  H   LIG d   1       2.329  -2.233  -9.553  0.00  0.00     0.028 H 
ENDROOT
BRANCH   1  16
ATOM     16  C   LIG d   1       5.733  -0.753  -6.896  0.00  0.00     0.061 C 
ATOM     17  H   LIG d   1       5.664   0.229  -7.363  0.00  0.00     0.056 H 
ATOM     18  H   LIG d   1       6.777  -0.974  -6.670  0.00  0.00     0.056 H 
BRANCH  16  19
ATOM     19  C   LIG d   1       4.950  -0.762  -5.650  0.00  0.00    -0.084 C 
ATOM     20  C   LIG d   1       4.325  -0.771  -4.656  0.00  0.00    -0.062 C 
BRANCH  20  21
ATOM     21  C   LIG d   1       3.541  -0.781  -3.410  0.00  0.00     0.145 C 
BRANCH  21  22
ATOM     22  C   LIG d   1       3.869   0.446  -2.599  0.00  0.00    -0.037 C 
ATOM     23  C   LIG d   1       4.605   0.340  -1.520  0.00  0.00    -0.096 C 
ATOM     24  H   LIG d   1       4.840   1.219  -0.939  0.00  0.00     0.053 H 
ATOM     25  H   LIG d   1       4.975  -0.627  -1.211  0.00  0.00     0.053 H 
BRANCH  22  26
ATOM     26  C   LIG d   1       3.353   1.794  -3.030  0.00  0.00    -0.040 C 
ATOM     27  H   LIG d   1       2.293   1.718  -3.268  0.00  0.00     0.028 H 
ATOM     28  H   LIG d   1       3.494   2.512  -2.223  0.00  0.00     0.028 H 
ATOM     29  H   LIG d   1       3.901   2.127  -3.912  0.00  0.00     0.028 H 
ENDBRANCH  22  26
ENDBRANCH  21  22
BRANCH  21  30
ATOM     30  C   LIG d   1       3.883  -2.034  -2.603  0.00  0.00    -0.021 C 
ATOM     31  H   LIG d   1       3.486  -2.913  -3.110  0.00  0.00     0.027 H 
ATOM     32  H   LIG d   1       4.965  -2.125  -2.512  0.00  0.00     0.027 H 
ATOM     33  H   LIG d   1       3.440  -1.958  -1.609  0.00  0.00     0.027 H 
ENDBRANCH  21  30
BRANCH  21  34
ATOM     34  O   LIG d   1       2.146  -0.784  -3.726  0.00  0.00    -0.373 OA
ATOM     35  H   LIG d   1       1.717  -1.641  -3.602  0.00  0.00     0.212 HD
ENDBRANCH  21  34
ENDBRANCH  20  21
ENDBRANCH  16  19
ENDBRANCH   1  16
BRANCH   6  36
ATOM     36  C   LIG d   1       3.766  -0.062  -8.768  0.00  0.00    -0.012 A 
ATOM     37  C   LIG d   1       4.534   0.286  -9.863  0.00  0.00     0.032 A 
ATOM     38  N   LIG d   1       4.483   1.505 -10.363  0.00  0.00    -0.263 NA
ATOM     39  H   LIG d   1       5.178  -0.451 -10.318  0.00  0.00     0.083 H 
ATOM     40  C   LIG d   1       3.714   2.439  -9.837  0.00  0.00     0.028 A 
ATOM     41  C   LIG d   1       2.923   2.166  -8.736  0.00  0.00    -0.043 A 
ATOM     42  H   LIG d   1       3.703   3.428 -10.271  0.00  0.00     0.083 H 
ATOM     43  C   LIG d   1       2.946   0.894  -8.187  0.00  0.00    -0.054 A 
ATOM     44  H   LIG d   1       2.296   2.936  -8.310  0.00  0.00     0.063 H 
ATOM     45  H   LIG d   1       2.338   0.652  -7.327  0.00  0.00     0.062 H 
ENDBRANCH   6  36
TORSDOF 8
ENDMDL
MODEL 2
REMARK VINA RESULT:      -6.0      2.043      3.340
REMARK  8 active torsions:
REMARK  status: ('A' for Active; 'I' for Inactive)
REMARK    1  A    between atoms: C_1  and  C_2 
REMARK    2  A    between atoms: C_2  and  C_4 
REMARK    3  A    between atoms: C_4  and  C_5 
REMARK    4  A    between atoms: C_4  and  C_6 
REMARK    5  A    between atoms: C_4  and  O_22 
REMARK    6  A    between atoms: C_7  and  C_8 
REMARK    7  A    between atoms: C_8  and  N_9 
REMARK    8  A    between atoms: C_14  and  C_16 
ROOT
ATOM      1  N   LIG d   1       6.641   0.596  -7.001  0.00  0.00    -0.284 N 
ATOM      2  C   LIG d   1       7.762   0.455  -6.062  0.00  0.00     0.000 C 
ATOM      3  C   LIG d   1       8.525   1.778  -5.973  0.00  0.00    -0.040 C 
ATOM      4  C   LIG d   1       9.045   2.156  -7.361  0.00  0.00    -0.050 C 
ATOM      5  C   LIG d   1       7.864   2.250  -8.332  0.00  0.00    -0.033 C 
ATOM      6  C   LIG d   1       7.120   0.913  -8.353  0.00  0.00     0.038 C 
ATOM      7  H   LIG d   1       7.794   0.128  -8.693  0.00  0.00     0.051 H 
ATOM      8  H   LIG d   1       7.378   0.189  -5.076  0.00  0.00     0.043 H 
ATOM      9  H   LIG d   1       8.433  -0.330  -6.412  0.00  0.00     0.043 H 
ATOM     10  H   LIG d   1       7.857   2.559  -5.608  0.00  0.00     0.028 H 
ATOM     11  H   LIG d   1       9.365   1.668  -5.287  0.00  0.00     0.028 H 
ATOM     12  H   LIG d   1       9.552   3.120  -7.311  0.00  0.00     0.027 H 
ATOM     13  H   LIG d   1       9.742   1.394  -7.709  0.00  0.00     0.027 H 
ATOM     14  H   LIG d   1       7.186   3.039  -8.005  0.00  0.00     0.028 H 
ATOM     15  H   LIG d   1       8.232   2.478  -9.332  0.00  0.00     0.028 H 
ENDROOT
BRANCH   1  16
ATOM     16  C   LIG d   1       5.804  -0.611  -7.008  0.00  0.00     0.061 C 
ATOM     17  H   LIG d   1       6.440  -1.494  -7.062  0.00  0.00     0.056 H 
ATOM     18  H   LIG d   1       5.141  -0.588  -7.873  0.00  0.00     0.056 H 
BRANCH  16  19
ATOM     19  C   LIG d   1       5.001  -0.658  -5.775  0.00  0.00    -0.084 C 
ATOM     20  C   LIG d   1       4.361  -0.695  -4.792  0.00  0.00    -0.062 C 
BRANCH  20  21
ATOM     21  C   LIG d   1       3.558  -0.741  -3.559  0.00  0.00     0.145 C 
BRANCH  21  22
ATOM     22  C   LIG d   1       3.885   0.453  -2.701  0.00  0.00    -0.037 C 
ATOM     23  C   LIG d   1       4.593   0.301  -1.609  0.00  0.00    -0.096 C 
ATOM     24  H   LIG d   1       4.827   1.157  -0.994  0.00  0.00     0.053 H 
ATOM     25  H   LIG d   1       4.941  -0.681  -1.324  0.00  0.00     0.053 H 
BRANCH  22  26
ATOM     26  C   LIG d   1       3.399   1.823  -3.099  0.00  0.00    -0.040 C 
ATOM     27  H   LIG d   1       4.105   2.270  -3.798  0.00  0.00     0.028 H 
ATOM     28  H   LIG d   1       2.422   1.738  -3.575  0.00  0.00     0.028 H 
ATOM     29  H   LIG d   1       3.318   2.451  -2.212  0.00  0.00     0.028 H 
ENDBRANCH  22  26
ENDBRANCH  21  22
BRANCH  21  30
ATOM     30  C   LIG d   1       3.876  -2.025  -2.791  0.00  0.00    -0.021 C 
ATOM     31  H   LIG d   1       3.392  -2.870  -3.279  0.00  0.00     0.027 H 
ATOM     32  H   LIG d   1       4.954  -2.183  -2.778  0.00  0.00     0.027 H 
ATOM     33  H   LIG d   1       3.509  -1.937  -1.769  0.00  0.00     0.027 H 
ENDBRANCH  21  30
BRANCH  21  34
ATOM     34  O   LIG d   1       2.168  -0.720  -3.896  0.00  0.00    -0.373 OA
ATOM     35  H   LIG d   1       1.900  -1.423  -4.503  0.00  0.00     0.212 HD
ENDBRANCH  21  34
ENDBRANCH  20  21
ENDBRANCH  16  19
ENDBRANCH   1  16
BRANCH   6  36
ATOM     36  C   LIG d   1       5.945   1.007  -9.292  0.00  0.00    -0.012 A 
ATOM     37  C   LIG d   1       5.829   0.137 -10.359  0.00  0.00     0.032 A 
ATOM     38  N   LIG d   1       4.801   0.209 -11.181  0.00  0.00    -0.263 NA
ATOM     39  H   LIG d   1       6.588  -0.615 -10.518  0.00  0.00     0.083 H 
ATOM     40  C   LIG d   1       3.854   1.115 -11.029  0.00  0.00     0.028 A 
ATOM     41  C   LIG d   1       3.906   2.024  -9.988  0.00  0.00    -0.043 A 
ATOM     42  H   LIG d   1       3.030   1.146 -11.726  0.00  0.00     0.083 H 
ATOM     43  C   LIG d   1       4.969   1.974  -9.100  0.00  0.00    -0.054 A 
ATOM     44  H   LIG d   1       3.127   2.763  -9.869  0.00  0.00     0.063 H 
ATOM     45  H   LIG d   1       5.036   2.671  -8.278  0.00  0.00     0.062 H 
ENDBRANCH   6  36
TORSDOF 8
ENDMDL
MODEL 3
REMARK VINA RESULT:      -5.9      2.741      6.640
REMARK  8 active torsions:
REMARK  status: ('A' for Active; 'I' for Inactive)
REMARK    1  A    between atoms: C_1  and  C_2 
REMARK    2  A    between atoms: C_2  and  C_4 
REMARK    3  A    between atoms: C_4  and  C_5 
REMARK    4  A    between atoms: C_4  and  C_6 
REMARK    5  A    between atoms: C_4  and  O_22 
REMARK    6  A    between atoms: C_7  and  C_8 
REMARK    7  A    between atoms: C_8  and  N_9 
REMARK    8  A    between atoms: C_14  and  C_16 
ROOT
ATOM      1  N   LIG d   1       4.407  -0.035  -4.533  0.00  0.00    -0.284 N 
ATOM      2  C   LIG d   1       3.137   0.499  -4.022  0.00  0.00     0.000 C 
ATOM      3  C   LIG d   1       3.421   1.577  -2.973  0.00  0.00    -0.040 C 
ATOM      4  C   LIG d   1       4.235   0.967  -1.830  0.00  0.00    -0.050 C 
ATOM      5  C   LIG d   1       5.529   0.375  -2.394  0.00  0.00    -0.033 C 
ATOM      6  C   LIG d   1       5.185  -0.668  -3.460  0.00  0.00     0.038 C 
ATOM      7  H   LIG d   1       4.598  -1.467  -3.009  0.00  0.00     0.051 H 
ATOM      8  H   LIG d   1       2.569   0.934  -4.845  0.00  0.00     0.043 H 
ATOM      9  H   LIG d   1       2.560  -0.307  -3.569  0.00  0.00     0.043 H 
ATOM     10  H   LIG d   1       3.986   2.390  -3.430  0.00  0.00     0.028 H 
ATOM     11  H   LIG d   1       2.479   1.962  -2.584  0.00  0.00     0.028 H 
ATOM     12  H   LIG d   1       4.477   1.741  -1.101  0.00  0.00     0.027 H 
ATOM     13  H   LIG d   1       3.654   0.180  -1.348  0.00  0.00     0.027 H 
ATOM     14  H   LIG d   1       6.128   1.168  -2.842  0.00  0.00     0.028 H 
ATOM     15  H   LIG d   1       6.094  -0.098  -1.591  0.00  0.00     0.028 H 
ENDROOT
BRANCH   1  16
ATOM     16  C   LIG d   1       4.176  -0.973  -5.640  0.00  0.00     0.061 C 
ATOM     17  H   LIG d   1       3.326  -1.613  -5.403  0.00  0.00     0.056 H 
ATOM     18  H   LIG d   1       5.064  -1.588  -5.785  0.00  0.00     0.056 H 
BRANCH  16  19
ATOM     19  C   LIG d   1       3.895  -0.218  -6.871  0.00  0.00    -0.084 C 
ATOM     20  C   LIG d   1       3.670   0.384  -7.854  0.00  0.00    -0.062 C 
BRANCH  20  21
ATOM     21  C   LIG d   1       3.388   1.139  -9.086  0.00  0.00     0.145 C 
BRANCH  21  22
ATOM     22  C   LIG d   1       2.861   0.201 -10.141  0.00  0.00    -0.037 C 
ATOM     23  C   LIG d   1       3.501   0.065 -11.275  0.00  0.00    -0.096 C 
ATOM     24  H   LIG d   1       3.123  -0.608 -12.031  0.00  0.00     0.053 H 
ATOM     25  H   LIG d   1       4.406   0.626 -11.456  0.00  0.00     0.053 H 
BRANCH  22  26
ATOM     26  C   LIG d   1       1.598  -0.582  -9.889  0.00  0.00    -0.040 C 
ATOM     27  H   LIG d   1       1.119  -0.814 -10.839  0.00  0.00     0.028 H 
ATOM     28  H   LIG d   1       1.841  -1.508  -9.368  0.00  0.00     0.028 H 
ATOM     29  H   LIG d   1       0.920   0.012  -9.276  0.00  0.00     0.028 H 
ENDBRANCH  22  26
ENDBRANCH  21  22
BRANCH  21  30
ATOM     30  C   LIG d   1       4.675   1.798  -9.586  0.00  0.00    -0.021 C 
ATOM     31  H   LIG d   1       5.457   1.683  -8.836  0.00  0.00     0.027 H 
ATOM     32  H   LIG d   1       4.990   1.324 -10.515  0.00  0.00     0.027 H 
ATOM     33  H   LIG d   1       4.494   2.859  -9.762  0.00  0.00     0.027 H 
ENDBRANCH  21  30
BRANCH  21  34
ATOM     34  O   LIG d   1       2.412   2.147  -8.813  0.00  0.00    -0.373 OA
ATOM     35  H   LIG d   1       1.552   1.798  -8.539  0.00  0.00     0.212 HD
ENDBRANCH  21  34
ENDBRANCH  20  21
ENDBRANCH  16  19
ENDBRANCH   1  16
BRANCH   6  36
ATOM     36  C   LIG d   1       6.456  -1.239  -4.032  0.00  0.00    -0.012 A 
ATOM     37  C   LIG d   1       7.412  -0.407  -4.585  0.00  0.00     0.032 A 
ATOM     38  N   LIG d   1       8.529  -0.899  -5.082  0.00  0.00    -0.263 NA
ATOM     39  H   LIG d   1       7.242   0.659  -4.604  0.00  0.00     0.083 H 
ATOM     40  C   LIG d   1       8.776  -2.194  -5.086  0.00  0.00     0.028 A 
ATOM     41  C   LIG d   1       7.864  -3.089  -4.556  0.00  0.00    -0.043 A 
ATOM     42  H   LIG d   1       9.700  -2.560  -5.506  0.00  0.00     0.083 H 
ATOM     43  C   LIG d   1       6.680  -2.608  -4.019  0.00  0.00    -0.054 A 
ATOM     44  H   LIG d   1       8.072  -4.149  -4.562  0.00  0.00     0.063 H 
ATOM     45  H   LIG d   1       5.949  -3.283  -3.598  0.00  0.00     0.062 H 
ENDBRANCH   6  36
TORSDOF 8
ENDMDL
MODEL 4
REMARK VINA RESULT:      -5.8      2.731      6.408
REMARK  8 active torsions:
REMARK  status: ('A' for Active; 'I' for Inactive)
REMARK    1  A    between atoms: C_1  and  C_2 
REMARK    2  A    between atoms: C_2  and  C_4 
REMARK    3  A    between atoms: C_4  and  C_5 
REMARK    4  A    between atoms: C_4  and  C_6 
REMARK    5  A    between atoms: C_4  and  O_22 
REMARK    6  A    between atoms: C_7  and  C_8 
REMARK    7  A    between atoms: C_8  and  N_9 
REMARK    8  A    between atoms: C_14  and  C_16 
ROOT
ATOM      1  N   LIG d   1       4.504  -0.328  -4.603  0.00  0.00    -0.284 N 
ATOM      2  C   LIG d   1       3.175   0.074  -4.122  0.00  0.00     0.000 C 
ATOM      3  C   LIG d   1       3.297   1.353  -3.292  0.00  0.00    -0.040 C 
ATOM      4  C   LIG d   1       4.233   1.101  -2.108  0.00  0.00    -0.050 C 
ATOM      5  C   LIG d   1       5.594   0.638  -2.633  0.00  0.00    -0.033 C 
ATOM      6  C   LIG d   1       5.407  -0.621  -3.482  0.00  0.00     0.038 C 
ATOM      7  H   LIG d   1       4.978  -1.412  -2.868  0.00  0.00     0.051 H 
ATOM      8  H   LIG d   1       2.520   0.254  -4.975  0.00  0.00     0.043 H 
ATOM      9  H   LIG d   1       2.757  -0.722  -3.506  0.00  0.00     0.043 H 
ATOM     10  H   LIG d   1       3.702   2.153  -3.914  0.00  0.00     0.028 H 
ATOM     11  H   LIG d   1       2.313   1.642  -2.923  0.00  0.00     0.028 H 
ATOM     12  H   LIG d   1       4.357   2.022  -1.538  0.00  0.00     0.027 H 
ATOM     13  H   LIG d   1       3.809   0.329  -1.467  0.00  0.00     0.027 H 
ATOM     14  H   LIG d   1       6.036   1.426  -3.244  0.00  0.00     0.028 H 
ATOM     15  H   LIG d   1       6.253   0.416  -1.793  0.00  0.00     0.028 H 
ENDROOT
BRANCH   1  16
ATOM     16  C   LIG d   1       4.409  -1.474  -5.517  0.00  0.00     0.061 C 
ATOM     17  H   LIG d   1       3.685  -2.189  -5.129  0.00  0.00     0.056 H 
ATOM     18  H   LIG d   1       5.385  -1.954  -5.600  0.00  0.00     0.056 H 
BRANCH  16  19
ATOM     19  C   LIG d   1       3.977  -1.008  -6.845  0.00  0.00    -0.084 C 
ATOM     20  C   LIG d   1       3.633  -0.636  -7.904  0.00  0.00    -0.062 C 
BRANCH  20  21
ATOM     21  C   LIG d   1       3.202  -0.170  -9.232  0.00  0.00     0.145 C 
BRANCH  21  22
ATOM     22  C   LIG d   1       3.307   1.332  -9.296  0.00  0.00    -0.037 C 
ATOM     23  C   LIG d   1       3.884   1.905 -10.323  0.00  0.00    -0.096 C 
ATOM     24  H   LIG d   1       3.960   2.981 -10.369  0.00  0.00     0.053 H 
ATOM     25  H   LIG d   1       4.285   1.301 -11.124  0.00  0.00     0.053 H 
BRANCH  22  26
ATOM     26  C   LIG d   1       2.748   2.174  -8.178  0.00  0.00    -0.040 C 
ATOM     27  H   LIG d   1       1.812   1.741  -7.830  0.00  0.00     0.028 H 
ATOM     28  H   LIG d   1       3.462   2.207  -7.356  0.00  0.00     0.028 H 
ATOM     29  H   LIG d   1       2.567   3.186  -8.543  0.00  0.00     0.028 H 
ENDBRANCH  22  26
ENDBRANCH  21  22
BRANCH  21  30
ATOM     30  C   LIG d   1       1.752  -0.591  -9.474  0.00  0.00    -0.021 C 
ATOM     31  H   LIG d   1       1.126  -0.224  -8.661  0.00  0.00     0.027 H 
ATOM     32  H   LIG d   1       1.403  -0.172 -10.417  0.00  0.00     0.027 H 
ATOM     33  H   LIG d   1       1.691  -1.679  -9.515  0.00  0.00     0.027 H 
ENDBRANCH  21  30
BRANCH  21  34
ATOM     34  O   LIG d   1       4.040  -0.750 -10.235  0.00  0.00    -0.373 OA
ATOM     35  H   LIG d   1       3.702  -1.581 -10.597  0.00  0.00     0.212 HD
ENDBRANCH  21  34
ENDBRANCH  20  21
ENDBRANCH  16  19
ENDBRANCH   1  16
BRANCH   6  36
ATOM     36  C   LIG d   1       6.742  -1.069  -4.018  0.00  0.00    -0.012 A 
ATOM     37  C   LIG d   1       7.524  -0.205  -4.761  0.00  0.00     0.032 A 
ATOM     38  N   LIG d   1       8.696  -0.587  -5.228  0.00  0.00    -0.263 NA
ATOM     39  H   LIG d   1       7.173   0.797  -4.957  0.00  0.00     0.083 H 
ATOM     40  C   LIG d   1       9.163  -1.803  -5.019  0.00  0.00     0.028 A 
ATOM     41  C   LIG d   1       8.434  -2.724  -4.289  0.00  0.00    -0.043 A 
ATOM     42  H   LIG d   1      10.126  -2.081  -5.421  0.00  0.00     0.083 H 
ATOM     43  C   LIG d   1       7.199  -2.356  -3.778  0.00  0.00    -0.054 A 
ATOM     44  H   LIG d   1       8.822  -3.718  -4.121  0.00  0.00     0.063 H 
ATOM     45  H   LIG d   1       6.608  -3.054  -3.204  0.00  0.00     0.062 H 
ENDBRANCH   6  36
TORSDOF 8
ENDMDL
MODEL 5
REMARK VINA RESULT:      -5.8      4.870      7.117
REMARK  8 active torsions:
REMARK  status: ('A' for Active; 'I' for Inactive)
REMARK    1  A    between atoms: C_1  and  C_2 
REMARK    2  A    between atoms: C_2  and  C_4 
REMARK    3  A    between atoms: C_4  and  C_5 
REMARK    4  A    between atoms: C_4  and  C_6 
REMARK    5  A    between atoms: C_4  and  O_22 
REMARK    6  A    between atoms: C_7  and  C_8 
REMARK    7  A    between atoms: C_8  and  N_9 
REMARK    8  A    between atoms: C_14  and  C_16 
ROOT
ATOM      1  N   LIG d   1       6.399   0.176  -3.421  0.00  0.00    -0.284 N 
ATOM      2  C   LIG d   1       5.507   1.271  -3.017  0.00  0.00     0.000 C 
ATOM      3  C   LIG d   1       4.791   0.894  -1.718  0.00  0.00    -0.040 C 
ATOM      4  C   LIG d   1       3.987  -0.389  -1.937  0.00  0.00    -0.050 C 
ATOM      5  C   LIG d   1       4.932  -1.501  -2.403  0.00  0.00    -0.033 C 
ATOM      6  C   LIG d   1       5.643  -1.055  -3.683  0.00  0.00     0.038 C 
ATOM      7  H   LIG d   1       4.905  -0.869  -4.462  0.00  0.00     0.051 H 
ATOM      8  H   LIG d   1       6.092   2.177  -2.860  0.00  0.00     0.043 H 
ATOM      9  H   LIG d   1       4.769   1.446  -3.801  0.00  0.00     0.043 H 
ATOM     10  H   LIG d   1       5.528   0.733  -0.930  0.00  0.00     0.028 H 
ATOM     11  H   LIG d   1       4.118   1.700  -1.426  0.00  0.00     0.028 H 
ATOM     12  H   LIG d   1       3.511  -0.686  -1.002  0.00  0.00     0.027 H 
ATOM     13  H   LIG d   1       3.226  -0.217  -2.697  0.00  0.00     0.027 H 
ATOM     14  H   LIG d   1       5.671  -1.700  -1.627  0.00  0.00     0.028 H 
ATOM     15  H   LIG d   1       4.359  -2.406  -2.602  0.00  0.00     0.028 H 
ENDROOT
BRANCH   1  16
ATOM     16  C   LIG d   1       7.205   0.558  -4.588  0.00  0.00     0.061 C 
ATOM     17  H   LIG d   1       6.581   1.098  -5.300  0.00  0.00     0.056 H 
ATOM     18  H   LIG d   1       7.603  -0.339  -5.064  0.00  0.00     0.056 H 
BRANCH  16  19
ATOM     19  C   LIG d   1       8.317   1.419  -4.156  0.00  0.00    -0.084 C 
ATOM     20  C   LIG d   1       9.204   2.106  -3.810  0.00  0.00    -0.062 C 
BRANCH  20  21
ATOM     21  C   LIG d   1      10.316   2.969  -3.377  0.00  0.00     0.145 C 
BRANCH  21  22
ATOM     22  C   LIG d   1       9.885   4.411  -3.431  0.00  0.00    -0.037 C 
ATOM     23  C   LIG d   1       9.996   5.169  -2.368  0.00  0.00    -0.096 C 
ATOM     24  H   LIG d   1       9.686   6.202  -2.407  0.00  0.00     0.053 H 
ATOM     25  H   LIG d   1      10.396   4.759  -1.453  0.00  0.00     0.053 H 
BRANCH  22  26
ATOM     26  C   LIG d   1       9.326   4.983  -4.709  0.00  0.00    -0.040 C 
ATOM     27  H   LIG d   1       8.501   4.361  -5.055  0.00  0.00     0.028 H 
ATOM     28  H   LIG d   1       8.967   5.995  -4.528  0.00  0.00     0.028 H 
ATOM     29  H   LIG d   1      10.108   5.005  -5.469  0.00  0.00     0.028 H 
ENDBRANCH  22  26
ENDBRANCH  21  22
BRANCH  21  30
ATOM     30  C   LIG d   1      11.515   2.759  -4.304  0.00  0.00    -0.021 C 
ATOM     31  H   LIG d   1      12.356   3.355  -3.952  0.00  0.00     0.027 H 
ATOM     32  H   LIG d   1      11.793   1.706  -4.308  0.00  0.00     0.027 H 
ATOM     33  H   LIG d   1      11.250   3.068  -5.316  0.00  0.00     0.027 H 
ENDBRANCH  21  30
BRANCH  21  34
ATOM     34  O   LIG d   1      10.686   2.631  -2.038  0.00  0.00    -0.373 OA
ATOM     35  H   LIG d   1      10.097   1.990  -1.617  0.00  0.00     0.212 HD
ENDBRANCH  21  34
ENDBRANCH  20  21
ENDBRANCH  16  19
ENDBRANCH   1  16
BRANCH   6  36
ATOM     36  C   LIG d   1       6.589  -2.138  -4.135  0.00  0.00    -0.012 A 
ATOM     37  C   LIG d   1       6.388  -2.786  -5.339  0.00  0.00     0.032 A 
ATOM     38  N   LIG d   1       7.214  -3.730  -5.744  0.00  0.00    -0.263 NA
ATOM     39  H   LIG d   1       5.547  -2.511  -5.958  0.00  0.00     0.083 H 
ATOM     40  C   LIG d   1       8.251  -4.102  -5.018  0.00  0.00     0.028 A 
ATOM     41  C   LIG d   1       8.512  -3.503  -3.799  0.00  0.00    -0.043 A 
ATOM     42  H   LIG d   1       8.903  -4.882  -5.380  0.00  0.00     0.083 H 
ATOM     43  C   LIG d   1       7.668  -2.503  -3.343  0.00  0.00    -0.054 A 
ATOM     44  H   LIG d   1       9.362  -3.813  -3.209  0.00  0.00     0.063 H 
ATOM     45  H   LIG d   1       7.847  -2.017  -2.395  0.00  0.00     0.062 H 
ENDBRANCH   6  36
TORSDOF 8
ENDMDL
MODEL 6
REMARK VINA RESULT:      -5.6      2.792      6.202
REMARK  8 active torsions:
REMARK  status: ('A' for Active; 'I' for Inactive)
REMARK    1  A    between atoms: C_1  and  C_2 
REMARK    2  A    between atoms: C_2  and  C_4 
REMARK    3  A    between atoms: C_4  and  C_5 
REMARK    4  A    between atoms: C_4  and  C_6 
REMARK    5  A    between atoms: C_4  and  O_22 
REMARK    6  A    between atoms: C_7  and  C_8 
REMARK    7  A    between atoms: C_8  and  N_9 
REMARK    8  A    between atoms: C_14  and  C_16 
ROOT
ATOM      1  N   LIG d   1       4.910  -0.788  -4.683  0.00  0.00    -0.284 N 
ATOM      2  C   LIG d   1       3.777  -1.667  -4.364  0.00  0.00     0.000 C 
ATOM      3  C   LIG d   1       3.159  -1.240  -3.031  0.00  0.00    -0.040 C 
ATOM      4  C   LIG d   1       4.220  -1.326  -1.931  0.00  0.00    -0.050 C 
ATOM      5  C   LIG d   1       5.409  -0.439  -2.310  0.00  0.00    -0.033 C 
ATOM      6  C   LIG d   1       5.963  -0.889  -3.664  0.00  0.00     0.038 C 
ATOM      7  H   LIG d   1       6.301  -1.922  -3.593  0.00  0.00     0.051 H 
ATOM      8  H   LIG d   1       3.027  -1.594  -5.152  0.00  0.00     0.043 H 
ATOM      9  H   LIG d   1       4.126  -2.697  -4.290  0.00  0.00     0.043 H 
ATOM     10  H   LIG d   1       2.797  -0.215  -3.109  0.00  0.00     0.028 H 
ATOM     11  H   LIG d   1       2.328  -1.902  -2.787  0.00  0.00     0.028 H 
ATOM     12  H   LIG d   1       3.796  -0.981  -0.987  0.00  0.00     0.027 H 
ATOM     13  H   LIG d   1       4.554  -2.358  -1.827  0.00  0.00     0.027 H 
ATOM     14  H   LIG d   1       5.084   0.599  -2.377  0.00  0.00     0.028 H 
ATOM     15  H   LIG d   1       6.187  -0.528  -1.552  0.00  0.00     0.028 H 
ENDROOT
BRANCH   1  16
ATOM     16  C   LIG d   1       5.441  -1.079  -6.021  0.00  0.00     0.061 C 
ATOM     17  H   LIG d   1       5.219  -2.114  -6.283  0.00  0.00     0.056 H 
ATOM     18  H   LIG d   1       6.521  -0.929  -6.024  0.00  0.00     0.056 H 
BRANCH  16  19
ATOM     19  C   LIG d   1       4.818  -0.179  -7.004  0.00  0.00    -0.084 C 
ATOM     20  C   LIG d   1       4.320   0.539  -7.788  0.00  0.00    -0.062 C 
BRANCH  20  21
ATOM     21  C   LIG d   1       3.697   1.440  -8.772  0.00  0.00     0.145 C 
BRANCH  21  22
ATOM     22  C   LIG d   1       3.164   0.633  -9.926  0.00  0.00    -0.037 C 
ATOM     23  C   LIG d   1       2.089  -0.100  -9.773  0.00  0.00    -0.096 C 
ATOM     24  H   LIG d   1       1.708  -0.679 -10.600  0.00  0.00     0.053 H 
ATOM     25  H   LIG d   1       1.586  -0.126  -8.817  0.00  0.00     0.053 H 
BRANCH  22  26
ATOM     26  C   LIG d   1       3.868   0.669 -11.259  0.00  0.00    -0.040 C 
ATOM     27  H   LIG d   1       4.200  -0.335 -11.522  0.00  0.00     0.028 H 
ATOM     28  H   LIG d   1       3.182   1.037 -12.022  0.00  0.00     0.028 H 
ATOM     29  H   LIG d   1       4.731   1.332 -11.195  0.00  0.00     0.028 H 
ENDBRANCH  22  26
ENDBRANCH  21  22
BRANCH  21  30
ATOM     30  C   LIG d   1       4.739   2.436  -9.283  0.00  0.00    -0.021 C 
ATOM     31  H   LIG d   1       4.251   3.190  -9.900  0.00  0.00     0.027 H 
ATOM     32  H   LIG d   1       5.226   2.921  -8.437  0.00  0.00     0.027 H 
ATOM     33  H   LIG d   1       5.485   1.908  -9.877  0.00  0.00     0.027 H 
ENDBRANCH  21  30
BRANCH  21  34
ATOM     34  O   LIG d   1       2.623   2.152  -8.151  0.00  0.00    -0.373 OA
ATOM     35  H   LIG d   1       2.782   3.101  -8.059  0.00  0.00     0.212 HD
ENDBRANCH  21  34
ENDBRANCH  20  21
ENDBRANCH  16  19
ENDBRANCH   1  16
BRANCH   6  36
ATOM     36  C   LIG d   1       7.121  -0.006  -4.051  0.00  0.00    -0.012 A 
ATOM     37  C   LIG d   1       8.212  -0.534  -4.717  0.00  0.00     0.032 A 
ATOM     38  N   LIG d   1       9.226   0.233  -5.064  0.00  0.00    -0.263 NA
ATOM     39  H   LIG d   1       8.230  -1.586  -4.960  0.00  0.00     0.083 H 
ATOM     40  C   LIG d   1       9.250   1.522  -4.783  0.00  0.00     0.028 A 
ATOM     41  C   LIG d   1       8.197   2.118  -4.114  0.00  0.00    -0.043 A 
ATOM     42  H   LIG d   1      10.101   2.117  -5.079  0.00  0.00     0.083 H 
ATOM     43  C   LIG d   1       7.110   1.345  -3.738  0.00  0.00    -0.054 A 
ATOM     44  H   LIG d   1       8.222   3.174  -3.886  0.00  0.00     0.063 H 
ATOM     45  H   LIG d   1       6.274   1.784  -3.214  0.00  0.00     0.062 H 
ENDBRANCH   6  36
TORSDOF 8
ENDMDL
MODEL 7
REMARK VINA RESULT:      -5.6      2.427      5.880
REMARK  8 active torsions:
REMARK  status: ('A' for Active; 'I' for Inactive)
REMARK    1  A    between atoms: C_1  and  C_2 
REMARK    2  A    between atoms: C_2  and  C_4 
REMARK    3  A    between atoms: C_4  and  C_5 
REMARK    4  A    between atoms: C_4  and  C_6 
REMARK    5  A    between atoms: C_4  and  O_22 
REMARK    6  A    between atoms: C_7  and  C_8 
REMARK    7  A    between atoms: C_8  and  N_9 
REMARK    8  A    between atoms: C_14  and  C_16 
ROOT
ATOM      1  N   LIG d   1       4.954  -1.718  -5.981  0.00  0.00    -0.284 N 
ATOM      2  C   LIG d   1       5.371  -2.790  -6.895  0.00  0.00     0.000 C 
ATOM      3  C   LIG d   1       4.702  -4.103  -6.483  0.00  0.00    -0.040 C 
ATOM      4  C   LIG d   1       5.106  -4.446  -5.047  0.00  0.00    -0.050 C 
ATOM      5  C   LIG d   1       4.705  -3.294  -4.122  0.00  0.00    -0.033 C 
ATOM      6  C   LIG d   1       5.373  -2.004  -4.603  0.00  0.00     0.038 C 
ATOM      7  H   LIG d   1       6.456  -2.122  -4.570  0.00  0.00     0.051 H 
ATOM      8  H   LIG d   1       5.074  -2.535  -7.913  0.00  0.00     0.043 H 
ATOM      9  H   LIG d   1       6.454  -2.903  -6.852  0.00  0.00     0.043 H 
ATOM     10  H   LIG d   1       3.619  -3.993  -6.540  0.00  0.00     0.028 H 
ATOM     11  H   LIG d   1       5.023  -4.900  -7.152  0.00  0.00     0.028 H 
ATOM     12  H   LIG d   1       4.597  -5.358  -4.733  0.00  0.00     0.027 H 
ATOM     13  H   LIG d   1       6.185  -4.593  -4.997  0.00  0.00     0.027 H 
ATOM     14  H   LIG d   1       3.622  -3.171  -4.142  0.00  0.00     0.028 H 
ATOM     15  H   LIG d   1       5.027  -3.514  -3.105  0.00  0.00     0.028 H 
ENDROOT
BRANCH   1  16
ATOM     16  C   LIG d   1       5.467  -0.416  -6.428  0.00  0.00     0.061 C 
ATOM     17  H   LIG d   1       6.503  -0.523  -6.747  0.00  0.00     0.056 H 
ATOM     18  H   LIG d   1       5.412   0.298  -5.606  0.00  0.00     0.056 H 
BRANCH  16  19
ATOM     19  C   LIG d   1       4.654   0.071  -7.555  0.00  0.00    -0.084 C 
ATOM     20  C   LIG d   1       4.005   0.459  -8.453  0.00  0.00    -0.062 C 
BRANCH  20  21
ATOM     21  C   LIG d   1       3.191   0.946  -9.579  0.00  0.00     0.145 C 
BRANCH  21  22
ATOM     22  C   LIG d   1       2.428  -0.204 -10.182  0.00  0.00    -0.037 C 
ATOM     23  C   LIG d   1       1.512  -0.824  -9.478  0.00  0.00    -0.096 C 
ATOM     24  H   LIG d   1       0.966  -1.648  -9.910  0.00  0.00     0.053 H 
ATOM     25  H   LIG d   1       1.305  -0.510  -8.465  0.00  0.00     0.053 H 
BRANCH  22  26
ATOM     26  C   LIG d   1       2.717  -0.642 -11.594  0.00  0.00    -0.040 C 
ATOM     27  H   LIG d   1       2.438  -1.689 -11.715  0.00  0.00     0.028 H 
ATOM     28  H   LIG d   1       2.142  -0.030 -12.289  0.00  0.00     0.028 H 
ATOM     29  H   LIG d   1       3.781  -0.524 -11.800  0.00  0.00     0.028 H 
ENDBRANCH  22  26
ENDBRANCH  21  22
BRANCH  21  30
ATOM     30  C   LIG d   1       4.105   1.564 -10.638  0.00  0.00    -0.021 C 
ATOM     31  H   LIG d   1       4.903   2.122 -10.150  0.00  0.00     0.027 H 
ATOM     32  H   LIG d   1       4.538   0.774 -11.252  0.00  0.00     0.027 H 
ATOM     33  H   LIG d   1       3.525   2.237 -11.270  0.00  0.00     0.027 H 
ENDBRANCH  21  30
BRANCH  21  34
ATOM     34  O   LIG d   1       2.272   1.935  -9.109  0.00  0.00    -0.373 OA
ATOM     35  H   LIG d   1       1.864   2.459  -9.812  0.00  0.00     0.212 HD
ENDBRANCH  21  34
ENDBRANCH  20  21
ENDBRANCH  16  19
ENDBRANCH   1  16
BRANCH   6  36
ATOM     36  C   LIG d   1       4.965  -0.863  -3.707  0.00  0.00    -0.012 A 
ATOM     37  C   LIG d   1       5.914   0.006  -3.203  0.00  0.00     0.032 A 
ATOM     38  N   LIG d   1       5.564   1.010  -2.424  0.00  0.00    -0.263 NA
ATOM     39  H   LIG d   1       6.954  -0.137  -3.455  0.00  0.00     0.083 H 
ATOM     40  C   LIG d   1       4.306   1.220  -2.086  0.00  0.00     0.028 A 
ATOM     41  C   LIG d   1       3.302   0.388  -2.547  0.00  0.00    -0.043 A 
ATOM     42  H   LIG d   1       4.058   2.050  -1.441  0.00  0.00     0.083 H 
ATOM     43  C   LIG d   1       3.632  -0.675  -3.373  0.00  0.00    -0.054 A 
ATOM     44  H   LIG d   1       2.274   0.565  -2.266  0.00  0.00     0.063 H 
ATOM     45  H   LIG d   1       2.869  -1.341  -3.749  0.00  0.00     0.062 H 
ENDBRANCH   6  36
TORSDOF 8
ENDMDL
MODEL 8
REMARK VINA RESULT:      -5.6      1.172      3.602
REMARK  8 active torsions:
REMARK  status: ('A' for Active; 'I' for Inactive)
REMARK    1  A    between atoms: C_1  and  C_2 
REMARK    2  A    between atoms: C_2  and  C_4 
REMARK    3  A    between atoms: C_4  and  C_5 
REMARK    4  A    between atoms: C_4  and  C_6 
REMARK    5  A    between atoms: C_4  and  O_22 
REMARK    6  A    between atoms: C_7  and  C_8 
REMARK    7  A    between atoms: C_8  and  N_9 
REMARK    8  A    between atoms: C_14  and  C_16 
ROOT
ATOM      1  N   LIG d   1       4.645   0.117  -8.329  0.00  0.00    -0.284 N 
ATOM      2  C   LIG d   1       4.759   1.554  -8.610  0.00  0.00     0.000 C 
ATOM      3  C   LIG d   1       3.678   1.967  -9.611  0.00  0.00    -0.040 C 
ATOM      4  C   LIG d   1       3.849   1.161 -10.901  0.00  0.00    -0.050 C 
ATOM      5  C   LIG d   1       3.774  -0.333 -10.574  0.00  0.00    -0.033 C 
ATOM      6  C   LIG d   1       4.853  -0.679  -9.545  0.00  0.00     0.038 C 
ATOM      7  H   LIG d   1       5.835  -0.457  -9.961  0.00  0.00     0.051 H 
ATOM      8  H   LIG d   1       4.631   2.116  -7.685  0.00  0.00     0.043 H 
ATOM      9  H   LIG d   1       5.743   1.765  -9.029  0.00  0.00     0.043 H 
ATOM     10  H   LIG d   1       2.693   1.769  -9.185  0.00  0.00     0.028 H 
ATOM     11  H   LIG d   1       3.772   3.030  -9.831  0.00  0.00     0.028 H 
ATOM     12  H   LIG d   1       3.054   1.420 -11.601  0.00  0.00     0.027 H 
ATOM     13  H   LIG d   1       4.817   1.388 -11.346  0.00  0.00     0.027 H 
ATOM     14  H   LIG d   1       2.792  -0.568 -10.164  0.00  0.00     0.028 H 
ATOM     15  H   LIG d   1       3.938  -0.913 -11.482  0.00  0.00     0.028 H 
ENDROOT
BRANCH   1  16
ATOM     16  C   LIG d   1       5.578  -0.287  -7.269  0.00  0.00     0.061 C 
ATOM     17  H   LIG d   1       6.346   0.476  -7.150  0.00  0.00     0.056 H 
ATOM     18  H   LIG d   1       6.046  -1.234  -7.538  0.00  0.00     0.056 H 
BRANCH  16  19
ATOM     19  C   LIG d   1       4.843  -0.446  -6.003  0.00  0.00    -0.084 C 
ATOM     20  C   LIG d   1       4.257  -0.573  -4.994  0.00  0.00    -0.062 C 
BRANCH  20  21
ATOM     21  C   LIG d   1       3.521  -0.731  -3.729  0.00  0.00     0.145 C 
BRANCH  21  22
ATOM     22  C   LIG d   1       3.881   0.395  -2.794  0.00  0.00    -0.037 C 
ATOM     23  C   LIG d   1       4.562   0.147  -1.703  0.00  0.00    -0.096 C 
ATOM     24  H   LIG d   1       4.820   0.954  -1.033  0.00  0.00     0.053 H 
ATOM     25  H   LIG d   1       4.865  -0.864  -1.472  0.00  0.00     0.053 H 
BRANCH  22  26
ATOM     26  C   LIG d   1       3.458   1.805  -3.115  0.00  0.00    -0.040 C 
ATOM     27  H   LIG d   1       3.956   2.135  -4.026  0.00  0.00     0.028 H 
ATOM     28  H   LIG d   1       2.378   1.837  -3.259  0.00  0.00     0.028 H 
ATOM     29  H   LIG d   1       3.735   2.463  -2.291  0.00  0.00     0.028 H 
ENDBRANCH  22  26
ENDBRANCH  21  22
BRANCH  21  30
ATOM     30  C   LIG d   1       3.894  -2.068  -3.086  0.00  0.00    -0.021 C 
ATOM     31  H   LIG d   1       3.256  -2.246  -2.221  0.00  0.00     0.027 H 
ATOM     32  H   LIG d   1       3.756  -2.871  -3.810  0.00  0.00     0.027 H 
ATOM     33  H   LIG d   1       4.937  -2.040  -2.769  0.00  0.00     0.027 H 
ENDBRANCH  21  30
BRANCH  21  34
ATOM     34  O   LIG d   1       2.115  -0.703  -3.989  0.00  0.00    -0.373 OA
ATOM     35  H   LIG d   1       1.673  -1.552  -3.850  0.00  0.00     0.212 HD
ENDBRANCH  21  34
ENDBRANCH  20  21
ENDBRANCH  16  19
ENDBRANCH   1  16
BRANCH   6  36
ATOM     36  C   LIG d   1       4.771  -2.145  -9.206  0.00  0.00    -0.012 A 
ATOM     37  C   LIG d   1       5.869  -2.967  -9.378  0.00  0.00     0.032 A 
ATOM     38  N   LIG d   1       5.806  -4.249  -9.077  0.00  0.00    -0.263 NA
ATOM     39  H   LIG d   1       6.790  -2.552  -9.758  0.00  0.00     0.083 H 
ATOM     40  C   LIG d   1       4.700  -4.800  -8.615  0.00  0.00     0.028 A 
ATOM     41  C   LIG d   1       3.559  -4.041  -8.423  0.00  0.00    -0.043 A 
ATOM     42  H   LIG d   1       4.685  -5.854  -8.384  0.00  0.00     0.083 H 
ATOM     43  C   LIG d   1       3.589  -2.688  -8.723  0.00  0.00    -0.054 A 
ATOM     44  H   LIG d   1       2.657  -4.498  -8.045  0.00  0.00     0.063 H 
ATOM     45  H   LIG d   1       2.714  -2.072  -8.583  0.00  0.00     0.062 H 
ENDBRANCH   6  36
TORSDOF 8
ENDMDL
MODEL 9
REMARK VINA RESULT:      -5.5      2.007      3.411
REMARK  8 active torsions:
REMARK  status: ('A' for Active; 'I' for Inactive)
REMARK    1  A    between atoms: C_1  and  C_2 
REMARK    2  A    between atoms: C_2  and  C_4 
REMARK    3  A    between atoms: C_4  and  C_5 
REMARK    4  A    between atoms: C_4  and  C_6 
REMARK    5  A    between atoms: C_4  and  O_22 
REMARK    6  A    between atoms: C_7  and  C_8 
REMARK    7  A    between atoms: C_8  and  N_9 
REMARK    8  A    between atoms: C_14  and  C_16 
ROOT
ATOM      1  N   LIG d   1       4.490  -0.312  -8.365  0.00  0.00    -0.284 N 
ATOM      2  C   LIG d   1       3.043  -0.314  -8.116  0.00  0.00     0.000 C 
ATOM      3  C   LIG d   1       2.345   0.579  -9.144  0.00  0.00    -0.040 C 
ATOM      4  C   LIG d   1       2.897   2.002  -9.034  0.00  0.00    -0.050 C 
ATOM      5  C   LIG d   1       4.412   1.972  -9.249  0.00  0.00    -0.033 C 
ATOM      6  C   LIG d   1       5.051   1.038  -8.218  0.00  0.00     0.038 C 
ATOM      7  H   LIG d   1       4.844   1.410  -7.215  0.00  0.00     0.051 H 
ATOM      8  H   LIG d   1       2.662  -1.332  -8.201  0.00  0.00     0.043 H 
ATOM      9  H   LIG d   1       2.846   0.063  -7.112  0.00  0.00     0.043 H 
ATOM     10  H   LIG d   1       2.530   0.193 -10.147  0.00  0.00     0.028 H 
ATOM     11  H   LIG d   1       1.273   0.588  -8.949  0.00  0.00     0.028 H 
ATOM     12  H   LIG d   1       2.434   2.633  -9.794  0.00  0.00     0.027 H 
ATOM     13  H   LIG d   1       2.678   2.402  -8.044  0.00  0.00     0.027 H 
ATOM     14  H   LIG d   1       4.630   1.608 -10.254  0.00  0.00     0.028 H 
ATOM     15  H   LIG d   1       4.818   2.977  -9.131  0.00  0.00     0.028 H 
ENDROOT
BRANCH   1  16
ATOM     16  C   LIG d   1       5.178  -1.266  -7.485  0.00  0.00     0.061 C 
ATOM     17  H   LIG d   1       6.248  -1.061  -7.493  0.00  0.00     0.056 H 
ATOM     18  H   LIG d   1       5.001  -2.281  -7.841  0.00  0.00     0.056 H 
BRANCH  16  19
ATOM     19  C   LIG d   1       4.661  -1.129  -6.114  0.00  0.00    -0.084 C 
ATOM     20  C   LIG d   1       4.248  -1.020  -5.021  0.00  0.00    -0.062 C 
BRANCH  20  21
ATOM     21  C   LIG d   1       3.729  -0.884  -3.649  0.00  0.00     0.145 C 
BRANCH  21  22
ATOM     22  C   LIG d   1       4.362   0.315  -2.990  0.00  0.00    -0.037 C 
ATOM     23  C   LIG d   1       3.612   1.198  -2.379  0.00  0.00    -0.096 C 
ATOM     24  H   LIG d   1       4.066   2.057  -1.907  0.00  0.00     0.053 H 
ATOM     25  H   LIG d   1       2.540   1.068  -2.348  0.00  0.00     0.053 H 
BRANCH  22  26
ATOM     26  C   LIG d   1       5.857   0.496  -3.034  0.00  0.00    -0.040 C 
ATOM     27  H   LIG d   1       6.342  -0.372  -2.588  0.00  0.00     0.028 H 
ATOM     28  H   LIG d   1       6.180   0.602  -4.069  0.00  0.00     0.028 H 
ATOM     29  H   LIG d   1       6.130   1.392  -2.475  0.00  0.00     0.028 H 
ENDBRANCH  22  26
ENDBRANCH  21  22
BRANCH  21  30
ATOM     30  C   LIG d   1       4.065  -2.143  -2.850  0.00  0.00    -0.021 C 
ATOM     31  H   LIG d   1       3.886  -3.024  -3.465  0.00  0.00     0.027 H 
ATOM     32  H   LIG d   1       5.113  -2.117  -2.551  0.00  0.00     0.027 H 
ATOM     33  H   LIG d   1       3.435  -2.188  -1.961  0.00  0.00     0.027 H 
ENDBRANCH  21  30
BRANCH  21  34
ATOM     34  O   LIG d   1       2.311  -0.711  -3.692  0.00  0.00    -0.373 OA
ATOM     35  H   LIG d   1       1.881  -0.768  -2.827  0.00  0.00     0.212 HD
ENDBRANCH  21  34
ENDBRANCH  20  21
ENDBRANCH  16  19
ENDBRANCH   1  16
BRANCH   6  36
ATOM     36  C   LIG d   1       6.540   0.990  -8.439  0.00  0.00    -0.012 A 
ATOM     37  C   LIG d   1       7.054   0.678  -9.684  0.00  0.00     0.032 A 
ATOM     38  N   LIG d   1       8.356   0.640  -9.887  0.00  0.00    -0.263 NA
ATOM     39  H   LIG d   1       6.380   0.469 -10.502  0.00  0.00     0.083 H 
ATOM     40  C   LIG d   1       9.216   0.882  -8.917  0.00  0.00     0.028 A 
ATOM     41  C   LIG d   1       8.776   1.194  -7.644  0.00  0.00    -0.043 A 
ATOM     42  H   LIG d   1      10.276   0.836  -9.120  0.00  0.00     0.083 H 
ATOM     43  C   LIG d   1       7.414   1.250  -7.394  0.00  0.00    -0.054 A 
ATOM     44  H   LIG d   1       9.486   1.392  -6.854  0.00  0.00     0.063 H 
ATOM     45  H   LIG d   1       7.042   1.491  -6.410  0.00  0.00     0.062 H 
ENDBRANCH   6  36
TORSDOF 8
ENDMDL
MODEL 10
REMARK VINA RESULT:      -5.5      2.859      6.085
REMARK  8 active torsions:
REMARK  status: ('A' for Active; 'I' for Inactive)
REMARK    1  A    between atoms: C_1  and  C_2 
REMARK    2  A    between atoms: C_2  and  C_4 
REMARK    3  A    between atoms: C_4  and  C_5 
REMARK    4  A    between atoms: C_4  and  C_6 
REMARK    5  A    between atoms: C_4  and  O_22 
REMARK    6  A    between atoms: C_7  and  C_8 
REMARK    7  A    between atoms: C_8  and  N_9 
REMARK    8  A    between atoms: C_14  and  C_16 
ROOT
ATOM      1  N   LIG d   1       6.800  -1.410  -5.578  0.00  0.00    -0.284 N 
ATOM      2  C   LIG d   1       7.773  -2.086  -6.447  0.00  0.00     0.000 C 
ATOM      3  C   LIG d   1       7.951  -3.534  -5.987  0.00  0.00    -0.040 C 
ATOM      4  C   LIG d   1       8.439  -3.548  -4.536  0.00  0.00    -0.050 C 
ATOM      5  C   LIG d   1       7.433  -2.797  -3.660  0.00  0.00    -0.033 C 
ATOM      6  C   LIG d   1       7.270  -1.369  -4.187  0.00  0.00     0.038 C 
ATOM      7  H   LIG d   1       8.229  -0.855  -4.143  0.00  0.00     0.051 H 
ATOM      8  H   LIG d   1       7.412  -2.073  -7.475  0.00  0.00     0.043 H 
ATOM      9  H   LIG d   1       8.730  -1.566  -6.392  0.00  0.00     0.043 H 
ATOM     10  H   LIG d   1       6.996  -4.057  -6.055  0.00  0.00     0.028 H 
ATOM     11  H   LIG d   1       8.684  -4.030  -6.622  0.00  0.00     0.028 H 
ATOM     12  H   LIG d   1       8.525  -4.578  -4.190  0.00  0.00     0.027 H 
ATOM     13  H   LIG d   1       9.411  -3.058  -4.475  0.00  0.00     0.027 H 
ATOM     14  H   LIG d   1       6.470  -3.308  -3.691  0.00  0.00     0.028 H 
ATOM     15  H   LIG d   1       7.795  -2.766  -2.633  0.00  0.00     0.028 H 
ENDROOT
BRANCH   1  16
ATOM     16  C   LIG d   1       6.500  -0.060  -6.073  0.00  0.00     0.061 C 
ATOM     17  H   LIG d   1       7.416   0.404  -6.439  0.00  0.00     0.056 H 
ATOM     18  H   LIG d   1       6.088   0.541  -5.262  0.00  0.00     0.056 H 
BRANCH  16  19
ATOM     19  C   LIG d   1       5.520  -0.145  -7.168  0.00  0.00    -0.084 C 
ATOM     20  C   LIG d   1       4.739  -0.213  -8.042  0.00  0.00    -0.062 C 
BRANCH  20  21
ATOM     21  C   LIG d   1       3.760  -0.298  -9.137  0.00  0.00     0.145 C 
BRANCH  21  22
ATOM     22  C   LIG d   1       3.670   1.034  -9.836  0.00  0.00    -0.037 C 
ATOM     23  C   LIG d   1       3.928   1.121 -11.117  0.00  0.00    -0.096 C 
ATOM     24  H   LIG d   1       3.864   2.076 -11.617  0.00  0.00     0.053 H 
ATOM     25  H   LIG d   1       4.206   0.237 -11.673  0.00  0.00     0.053 H 
BRANCH  22  26
ATOM     26  C   LIG d   1       3.283   2.267  -9.060  0.00  0.00    -0.040 C 
ATOM     27  H   LIG d   1       3.024   3.066  -9.753  0.00  0.00     0.028 H 
ATOM     28  H   LIG d   1       2.425   2.043  -8.426  0.00  0.00     0.028 H 
ATOM     29  H   LIG d   1       4.122   2.582  -8.438  0.00  0.00     0.028 H 
ENDBRANCH  22  26
ENDBRANCH  21  22
BRANCH  21  30
ATOM     30  C   LIG d   1       2.389  -0.670  -8.569  0.00  0.00    -0.021 C 
ATOM     31  H   LIG d   1       2.071   0.094  -7.859  0.00  0.00     0.027 H 
ATOM     32  H   LIG d   1       1.664  -0.737  -9.379  0.00  0.00     0.027 H 
ATOM     33  H   LIG d   1       2.456  -1.632  -8.060  0.00  0.00     0.027 H 
ENDBRANCH  21  30
BRANCH  21  34
ATOM     34  O   LIG d   1       4.175  -1.299 -10.070  0.00  0.00    -0.373 OA
ATOM     35  H   LIG d   1       4.540  -0.943 -10.892  0.00  0.00     0.212 HD
ENDBRANCH  21  34
ENDBRANCH  20  21
ENDBRANCH  16  19
ENDBRANCH   1  16
BRANCH   6  36
ATOM     36  C   LIG d   1       6.265  -0.633  -3.340  0.00  0.00    -0.012 A 
ATOM     37  C   LIG d   1       6.388   0.728  -3.131  0.00  0.00     0.032 A 
ATOM     38  N   LIG d   1       5.509   1.380  -2.396  0.00  0.00    -0.263 NA
ATOM     39  H   LIG d   1       7.210   1.264  -3.581  0.00  0.00     0.083 H 
ATOM     40  C   LIG d   1       4.492   0.766  -1.824  0.00  0.00     0.028 A 
ATOM     41  C   LIG d   1       4.308  -0.595  -1.982  0.00  0.00    -0.043 A 
ATOM     42  H   LIG d   1       3.795   1.333  -1.224  0.00  0.00     0.083 H 
ATOM     43  C   LIG d   1       5.208  -1.313  -2.753  0.00  0.00    -0.054 A 
ATOM     44  H   LIG d   1       3.472  -1.092  -1.510  0.00  0.00     0.063 H 
ATOM     45  H   LIG d   1       5.089  -2.377  -2.894  0.00  0.00     0.062 H 
ENDBRANCH   6  36
TORSDOF 8
ENDMDL
