MODEL 1
REMARK VINA RESULT:      -6.8      0.000      0.000
REMARK  10 active torsions:
REMARK  status: ('A' for Active; 'I' for Inactive)
REMARK    1  A    between atoms: C_1  and  C_2 
REMARK    2  A    between atoms: C_2  and  C_3 
REMARK    3  A    between atoms: C_3  and  C_4 
REMARK    4  A    between atoms: C_4  and  O_5 
REMARK    5  A    between atoms: O_5  and  C_6 
REMARK    6  A    between atoms: C_9  and  N_12 
REMARK    7  A    between atoms: C_17  and  C_28 
REMARK    8  A    between atoms: C_23  and  C_27 
REMARK    9  A    between atoms: C_31  and  O_34 
REMARK   10  A    between atoms: O_34  and  C_35 
ROOT
ATOM      1  N   LIG d   1       7.874   1.896  -5.905  0.00  0.00    -0.293 NA
ATOM      2  C   LIG d   1       8.685   2.621  -4.917  0.00  0.00     0.044 C 
ATOM      3  C   LIG d   1       9.386   3.775  -5.588  0.00  0.00     0.013 A 
ATOM      4  C   LIG d   1       9.894   4.784  -4.816  0.00  0.00    -0.042 A 
ATOM      5  C   LIG d   1      10.548   5.860  -5.415  0.00  0.00     0.026 A 
ATOM      6  C   LIG d   1      11.104   6.959  -4.607  0.00  0.00    -0.000 A 
ATOM      7  C   LIG d   1      11.738   7.993  -5.270  0.00  0.00     0.031 A 
ATOM      8  C   LIG d   1      11.833   7.962  -6.670  0.00  0.00     0.338 A 
ATOM      9  O   LIG d   1      12.395   8.877  -7.246  0.00  0.00    -0.245 OA
ATOM     10  O   LIG d   1      11.317   6.955  -7.393  0.00  0.00    -0.422 OA
ATOM     11  C   LIG d   1      10.687   5.911  -6.813  0.00  0.00     0.146 A 
ATOM     12  C   LIG d   1      10.168   4.882  -7.583  0.00  0.00     0.035 A 
ATOM     13  C   LIG d   1       9.517   3.818  -6.973  0.00  0.00     0.134 A 
ATOM     14  O   LIG d   1       9.011   2.824  -7.750  0.00  0.00    -0.473 OA
ATOM     15  C   LIG d   1       8.679   1.596  -7.100  0.00  0.00     0.157 C 
ATOM     16  H   LIG d   1       9.425   1.945  -4.489  0.00  0.00     0.051 H 
ATOM     17  H   LIG d   1       8.038   3.000  -4.125  0.00  0.00     0.051 H 
ATOM     18  H   LIG d   1       9.788   4.746  -3.741  0.00  0.00     0.063 H 
ATOM     19  H   LIG d   1      12.159   8.819  -4.715  0.00  0.00     0.070 H 
ATOM     20  H   LIG d   1       9.593   1.079  -6.805  0.00  0.00     0.091 H 
ATOM     21  H   LIG d   1       8.107   0.963  -7.778  0.00  0.00     0.091 H 
ENDROOT
BRANCH   1  22
ATOM     22  C   LIG d   1       7.338   0.727  -5.354  0.00  0.00     0.033 A 
ATOM     23  C   LIG d   1       6.614  -0.150  -6.152  0.00  0.00    -0.037 A 
ATOM     24  C   LIG d   1       6.086  -1.303  -5.607  0.00  0.00    -0.018 A 
ATOM     25  H   LIG d   1       6.465   0.072  -7.198  0.00  0.00     0.064 H 
ATOM     26  C   LIG d   1       6.277  -1.587  -4.262  0.00  0.00     0.121 A 
ATOM     27  H   LIG d   1       5.523  -1.984  -6.227  0.00  0.00     0.066 H 
ATOM     28  C   LIG d   1       7.001  -0.712  -3.465  0.00  0.00    -0.018 A 
ATOM     29  C   LIG d   1       7.535   0.439  -4.010  0.00  0.00    -0.037 A 
ATOM     30  H   LIG d   1       7.150  -0.933  -2.418  0.00  0.00     0.066 H 
ATOM     31  H   LIG d   1       8.102   1.117  -3.390  0.00  0.00     0.064 H 
BRANCH  26  32
ATOM     32  O   LIG d   1       5.758  -2.724  -3.726  0.00  0.00    -0.492 OA
BRANCH  32  33
ATOM     33  C   LIG d   1       4.334  -2.811  -3.648  0.00  0.00     0.090 C 
ATOM     34  H   LIG d   1       3.894  -2.400  -4.556  0.00  0.00     0.070 H 
ATOM     35  H   LIG d   1       4.039  -3.855  -3.542  0.00  0.00     0.070 H 
BRANCH  33  36
ATOM     36  C   LIG d   1       3.840  -2.017  -2.437  0.00  0.00    -0.019 C 
ATOM     37  H   LIG d   1       3.287  -2.678  -1.770  0.00  0.00     0.030 H 
ATOM     38  H   LIG d   1       4.695  -1.597  -1.906  0.00  0.00     0.030 H 
BRANCH  36  39
ATOM     39  C   LIG d   1       2.925  -0.885  -2.908  0.00  0.00    -0.053 C 
ATOM     40  H   LIG d   1       2.819  -0.929  -3.992  0.00  0.00     0.026 H 
ATOM     41  H   LIG d   1       1.946  -0.992  -2.442  0.00  0.00     0.026 H 
BRANCH  39  42
ATOM     42  C   LIG d   1       3.535   0.462  -2.510  0.00  0.00    -0.065 C 
ATOM     43  H   LIG d   1       2.837   1.002  -1.870  0.00  0.00     0.023 H 
ATOM     44  H   LIG d   1       4.466   0.293  -1.969  0.00  0.00     0.023 H 
ATOM     45  H   LIG d   1       3.736   1.048  -3.407  0.00  0.00     0.023 H 
ENDBRANCH  39  42
ENDBRANCH  36  39
ENDBRANCH  33  36
ENDBRANCH  32  33
ENDBRANCH  26  32
ENDBRANCH   1  22
BRANCH  12  46
ATOM     46  C   LIG d   1      10.308   4.919  -9.083  0.00  0.00    -0.033 C 
ATOM     47  H   LIG d   1      11.262   4.475  -9.370  0.00  0.00     0.028 H 
ATOM     48  H   LIG d   1       9.494   4.354  -9.538  0.00  0.00     0.028 H 
ATOM     49  H   LIG d   1      10.269   5.952  -9.426  0.00  0.00     0.028 H 
ENDBRANCH  12  46
BRANCH   6  50
ATOM     50  C   LIG d   1      10.984   6.956  -3.133  0.00  0.00    -0.017 A 
ATOM     51  C   LIG d   1       9.866   7.527  -2.520  0.00  0.00    -0.051 A 
ATOM     52  C   LIG d   1       9.759   7.522  -1.147  0.00  0.00    -0.019 A 
ATOM     53  H   LIG d   1       9.088   7.971  -3.122  0.00  0.00     0.062 H 
ATOM     54  C   LIG d   1      10.760   6.951  -0.372  0.00  0.00     0.120 A 
ATOM     55  H   LIG d   1       8.895   7.963  -0.672  0.00  0.00     0.065 H 
ATOM     56  C   LIG d   1      11.873   6.380  -0.978  0.00  0.00    -0.019 A 
ATOM     57  C   LIG d   1      11.986   6.377  -2.351  0.00  0.00    -0.051 A 
ATOM     58  H   LIG d   1      12.649   5.936  -0.372  0.00  0.00     0.065 H 
ATOM     59  H   LIG d   1      12.850   5.931  -2.821  0.00  0.00     0.062 H 
BRANCH  54  60
ATOM     60  O   LIG d   1      10.650   6.948   0.982  0.00  0.00    -0.495 OA
BRANCH  60  61
ATOM     61  C   LIG d   1      11.011   5.743   1.659  0.00  0.00     0.079 C 
ATOM     62  H   LIG d   1      11.482   5.988   2.612  0.00  0.00     0.066 H 
ATOM     63  H   LIG d   1      10.117   5.145   1.839  0.00  0.00     0.066 H 
ATOM     64  H   LIG d   1      11.710   5.175   1.045  0.00  0.00     0.066 H 
ENDBRANCH  60  61
ENDBRANCH  54  60
ENDBRANCH   6  50
TORSDOF 10
ENDMDL
MODEL 2
REMARK VINA RESULT:      -6.7      6.417     13.287
REMARK  10 active torsions:
REMARK  status: ('A' for Active; 'I' for Inactive)
REMARK    1  A    between atoms: C_1  and  C_2 
REMARK    2  A    between atoms: C_2  and  C_3 
REMARK    3  A    between atoms: C_3  and  C_4 
REMARK    4  A    between atoms: C_4  and  O_5 
REMARK    5  A    between atoms: O_5  and  C_6 
REMARK    6  A    between atoms: C_9  and  N_12 
REMARK    7  A    between atoms: C_17  and  C_28 
REMARK    8  A    between atoms: C_23  and  C_27 
REMARK    9  A    between atoms: C_31  and  O_34 
REMARK   10  A    between atoms: O_34  and  C_35 
ROOT
ATOM      1  N   LIG d   1       5.798  -3.840  -6.332  0.00  0.00    -0.293 NA
ATOM      2  C   LIG d   1       5.470  -5.016  -5.515  0.00  0.00     0.044 C 
ATOM      3  C   LIG d   1       5.095  -6.167  -6.417  0.00  0.00     0.013 A 
ATOM      4  C   LIG d   1       5.104  -7.437  -5.909  0.00  0.00    -0.042 A 
ATOM      5  C   LIG d   1       4.759  -8.517  -6.724  0.00  0.00     0.026 A 
ATOM      6  C   LIG d   1       4.760  -9.894  -6.203  0.00  0.00    -0.000 A 
ATOM      7  C   LIG d   1       4.408 -10.913  -7.068  0.00  0.00     0.031 A 
ATOM      8  C   LIG d   1       4.063 -10.606  -8.394  0.00  0.00     0.338 A 
ATOM      9  O   LIG d   1       3.753 -11.511  -9.150  0.00  0.00    -0.245 OA
ATOM     10  O   LIG d   1       4.071  -9.345  -8.855  0.00  0.00    -0.422 OA
ATOM     11  C   LIG d   1       4.401  -8.300  -8.066  0.00  0.00     0.146 A 
ATOM     12  C   LIG d   1       4.396  -7.007  -8.566  0.00  0.00     0.035 A 
ATOM     13  C   LIG d   1       4.744  -5.944  -7.745  0.00  0.00     0.134 A 
ATOM     14  O   LIG d   1       4.738  -4.686  -8.260  0.00  0.00    -0.473 OA
ATOM     15  C   LIG d   1       4.742  -3.602  -7.329  0.00  0.00     0.157 C 
ATOM     16  H   LIG d   1       4.631  -4.780  -4.860  0.00  0.00     0.051 H 
ATOM     17  H   LIG d   1       6.335  -5.293  -4.914  0.00  0.00     0.051 H 
ATOM     18  H   LIG d   1       5.378  -7.605  -4.878  0.00  0.00     0.063 H 
ATOM     19  H   LIG d   1       4.397 -11.938  -6.727  0.00  0.00     0.070 H 
ATOM     20  H   LIG d   1       3.775  -3.544  -6.830  0.00  0.00     0.091 H 
ATOM     21  H   LIG d   1       4.937  -2.667  -7.854  0.00  0.00     0.091 H 
ENDROOT
BRANCH   1  22
ATOM     22  C   LIG d   1       5.994  -2.711  -5.529  0.00  0.00     0.033 A 
ATOM     23  C   LIG d   1       5.602  -1.458  -5.982  0.00  0.00    -0.037 A 
ATOM     24  C   LIG d   1       5.795  -0.345  -5.189  0.00  0.00    -0.018 A 
ATOM     25  H   LIG d   1       5.146  -1.355  -6.956  0.00  0.00     0.064 H 
ATOM     26  C   LIG d   1       6.383  -0.477  -3.939  0.00  0.00     0.121 A 
ATOM     27  H   LIG d   1       5.491   0.629  -5.542  0.00  0.00     0.066 H 
ATOM     28  C   LIG d   1       6.774  -1.728  -3.485  0.00  0.00    -0.018 A 
ATOM     29  C   LIG d   1       6.576  -2.843  -4.275  0.00  0.00    -0.037 A 
ATOM     30  H   LIG d   1       7.231  -1.830  -2.511  0.00  0.00     0.066 H 
ATOM     31  H   LIG d   1       6.877  -3.817  -3.919  0.00  0.00     0.064 H 
BRANCH  26  32
ATOM     32  O   LIG d   1       6.572   0.620  -3.157  0.00  0.00    -0.492 OA
BRANCH  32  33
ATOM     33  C   LIG d   1       5.415   1.392  -2.833  0.00  0.00     0.090 C 
ATOM     34  H   LIG d   1       5.722   2.336  -2.381  0.00  0.00     0.070 H 
ATOM     35  H   LIG d   1       4.845   1.592  -3.740  0.00  0.00     0.070 H 
BRANCH  33  36
ATOM     36  C   LIG d   1       4.543   0.614  -1.845  0.00  0.00    -0.019 C 
ATOM     37  H   LIG d   1       5.047  -0.311  -1.567  0.00  0.00     0.030 H 
ATOM     38  H   LIG d   1       4.377   1.219  -0.954  0.00  0.00     0.030 H 
BRANCH  36  39
ATOM     39  C   LIG d   1       3.199   0.288  -2.499  0.00  0.00    -0.053 C 
ATOM     40  H   LIG d   1       2.389   0.602  -1.841  0.00  0.00     0.026 H 
ATOM     41  H   LIG d   1       3.120   0.815  -3.450  0.00  0.00     0.026 H 
BRANCH  39  42
ATOM     42  C   LIG d   1       3.104  -1.220  -2.743  0.00  0.00    -0.065 C 
ATOM     43  H   LIG d   1       3.711  -1.746  -2.006  0.00  0.00     0.023 H 
ATOM     44  H   LIG d   1       2.065  -1.538  -2.652  0.00  0.00     0.023 H 
ATOM     45  H   LIG d   1       3.468  -1.449  -3.745  0.00  0.00     0.023 H 
ENDBRANCH  39  42
ENDBRANCH  36  39
ENDBRANCH  33  36
ENDBRANCH  32  33
ENDBRANCH  26  32
ENDBRANCH   1  22
BRANCH  12  46
ATOM     46  C   LIG d   1       4.015  -6.756 -10.003  0.00  0.00    -0.033 C 
ATOM     47  H   LIG d   1       4.270  -5.731 -10.272  0.00  0.00     0.028 H 
ATOM     48  H   LIG d   1       4.558  -7.446 -10.648  0.00  0.00     0.028 H 
ATOM     49  H   LIG d   1       2.944  -6.910 -10.126  0.00  0.00     0.028 H 
ENDBRANCH  12  46
BRANCH   6  50
ATOM     50  C   LIG d   1       5.129 -10.177  -4.800  0.00  0.00    -0.017 A 
ATOM     51  C   LIG d   1       4.140 -10.245  -3.816  0.00  0.00    -0.051 A 
ATOM     52  C   LIG d   1       4.487 -10.510  -2.510  0.00  0.00    -0.019 A 
ATOM     53  H   LIG d   1       3.104 -10.090  -4.079  0.00  0.00     0.062 H 
ATOM     54  C   LIG d   1       5.819 -10.710  -2.170  0.00  0.00     0.120 A 
ATOM     55  H   LIG d   1       3.723 -10.563  -1.748  0.00  0.00     0.065 H 
ATOM     56  C   LIG d   1       6.807 -10.645  -3.146  0.00  0.00    -0.019 A 
ATOM     57  C   LIG d   1       6.467 -10.384  -4.455  0.00  0.00    -0.051 A 
ATOM     58  H   LIG d   1       7.841 -10.801  -2.878  0.00  0.00     0.065 H 
ATOM     59  H   LIG d   1       7.234 -10.337  -5.214  0.00  0.00     0.062 H 
BRANCH  54  60
ATOM     60  O   LIG d   1       6.158 -10.971  -0.881  0.00  0.00    -0.495 OA
BRANCH  60  61
ATOM     61  C   LIG d   1       7.490 -11.429  -0.640  0.00  0.00     0.079 C 
ATOM     62  H   LIG d   1       7.874 -10.967   0.270  0.00  0.00     0.066 H 
ATOM     63  H   LIG d   1       7.486 -12.513  -0.524  0.00  0.00     0.066 H 
ATOM     64  H   LIG d   1       8.126 -11.156  -1.482  0.00  0.00     0.066 H 
ENDBRANCH  60  61
ENDBRANCH  54  60
ENDBRANCH   6  50
TORSDOF 10
ENDMDL
MODEL 3
REMARK VINA RESULT:      -6.3      9.080     14.131
REMARK  10 active torsions:
REMARK  status: ('A' for Active; 'I' for Inactive)
REMARK    1  A    between atoms: C_1  and  C_2 
REMARK    2  A    between atoms: C_2  and  C_3 
REMARK    3  A    between atoms: C_3  and  C_4 
REMARK    4  A    between atoms: C_4  and  O_5 
REMARK    5  A    between atoms: O_5  and  C_6 
REMARK    6  A    between atoms: C_9  and  N_12 
REMARK    7  A    between atoms: C_17  and  C_28 
REMARK    8  A    between atoms: C_23  and  C_27 
REMARK    9  A    between atoms: C_31  and  O_34 
REMARK   10  A    between atoms: O_34  and  C_35 
ROOT
ATOM      1  N   LIG d   1       3.106  -1.586 -10.218  0.00  0.00    -0.293 NA
ATOM      2  C   LIG d   1       1.678  -1.532 -10.561  0.00  0.00     0.044 C 
ATOM      3  C   LIG d   1       1.502  -1.822 -12.032  0.00  0.00     0.013 A 
ATOM      4  C   LIG d   1       0.265  -2.178 -12.494  0.00  0.00    -0.042 A 
ATOM      5  C   LIG d   1       0.078  -2.448 -13.850  0.00  0.00     0.026 A 
ATOM      6  C   LIG d   1      -1.243  -2.833 -14.374  0.00  0.00    -0.000 A 
ATOM      7  C   LIG d   1      -1.353  -3.087 -15.729  0.00  0.00     0.031 A 
ATOM      8  C   LIG d   1      -0.219  -2.968 -16.549  0.00  0.00     0.338 A 
ATOM      9  O   LIG d   1      -0.325  -3.192 -17.742  0.00  0.00    -0.245 OA
ATOM     10  O   LIG d   1       0.979  -2.619 -16.054  0.00  0.00    -0.422 OA
ATOM     11  C   LIG d   1       1.160  -2.353 -14.743  0.00  0.00     0.146 A 
ATOM     12  C   LIG d   1       2.408  -1.991 -14.260  0.00  0.00     0.035 A 
ATOM     13  C   LIG d   1       2.579  -1.728 -12.908  0.00  0.00     0.134 A 
ATOM     14  O   LIG d   1       3.813  -1.381 -12.457  0.00  0.00    -0.473 OA
ATOM     15  C   LIG d   1       3.888  -0.775 -11.165  0.00  0.00     0.157 C 
ATOM     16  H   LIG d   1       1.289  -0.540 -10.337  0.00  0.00     0.051 H 
ATOM     17  H   LIG d   1       1.137  -2.276  -9.977  0.00  0.00     0.051 H 
ATOM     18  H   LIG d   1      -0.567  -2.250 -11.809  0.00  0.00     0.063 H 
ATOM     19  H   LIG d   1      -2.304  -3.374 -16.154  0.00  0.00     0.070 H 
ATOM     20  H   LIG d   1       3.475   0.233 -11.209  0.00  0.00     0.091 H 
ATOM     21  H   LIG d   1       4.926  -0.729 -10.839  0.00  0.00     0.091 H 
ENDROOT
BRANCH   1  22
ATOM     22  C   LIG d   1       3.321  -1.166  -8.900  0.00  0.00     0.033 A 
ATOM     23  C   LIG d   1       2.638  -0.065  -8.401  0.00  0.00    -0.037 A 
ATOM     24  C   LIG d   1       2.851   0.348  -7.101  0.00  0.00    -0.018 A 
ATOM     25  H   LIG d   1       1.940   0.468  -9.030  0.00  0.00     0.064 H 
ATOM     26  C   LIG d   1       3.748  -0.335  -6.293  0.00  0.00     0.121 A 
ATOM     27  H   LIG d   1       2.320   1.205  -6.713  0.00  0.00     0.066 H 
ATOM     28  C   LIG d   1       4.430  -1.436  -6.791  0.00  0.00    -0.018 A 
ATOM     29  C   LIG d   1       4.214  -1.854  -8.090  0.00  0.00    -0.037 A 
ATOM     30  H   LIG d   1       5.129  -1.968  -6.162  0.00  0.00     0.066 H 
ATOM     31  H   LIG d   1       4.742  -2.713  -8.475  0.00  0.00     0.064 H 
BRANCH  26  32
ATOM     32  O   LIG d   1       3.957   0.072  -5.012  0.00  0.00    -0.492 OA
BRANCH  32  33
ATOM     33  C   LIG d   1       2.799   0.337  -4.220  0.00  0.00     0.090 C 
ATOM     34  H   LIG d   1       2.832   1.365  -3.859  0.00  0.00     0.070 H 
ATOM     35  H   LIG d   1       1.903   0.194  -4.825  0.00  0.00     0.070 H 
BRANCH  33  36
ATOM     36  C   LIG d   1       2.766  -0.621  -3.027  0.00  0.00    -0.019 C 
ATOM     37  H   LIG d   1       1.954  -0.338  -2.357  0.00  0.00     0.030 H 
ATOM     38  H   LIG d   1       2.605  -1.638  -3.384  0.00  0.00     0.030 H 
BRANCH  36  39
ATOM     39  C   LIG d   1       4.098  -0.547  -2.278  0.00  0.00    -0.053 C 
ATOM     40  H   LIG d   1       4.082  -1.242  -1.438  0.00  0.00     0.026 H 
ATOM     41  H   LIG d   1       4.910  -0.813  -2.954  0.00  0.00     0.026 H 
BRANCH  39  42
ATOM     42  C   LIG d   1       4.311   0.876  -1.758  0.00  0.00    -0.065 C 
ATOM     43  H   LIG d   1       3.355   1.398  -1.723  0.00  0.00     0.023 H 
ATOM     44  H   LIG d   1       4.740   0.836  -0.756  0.00  0.00     0.023 H 
ATOM     45  H   LIG d   1       4.992   1.407  -2.424  0.00  0.00     0.023 H 
ENDBRANCH  39  42
ENDBRANCH  36  39
ENDBRANCH  33  36
ENDBRANCH  32  33
ENDBRANCH  26  32
ENDBRANCH   1  22
BRANCH  12  46
ATOM     46  C   LIG d   1       3.579  -1.885 -15.203  0.00  0.00    -0.033 C 
ATOM     47  H   LIG d   1       4.507  -2.014 -14.645  0.00  0.00     0.028 H 
ATOM     48  H   LIG d   1       3.503  -2.660 -15.964  0.00  0.00     0.028 H 
ATOM     49  H   LIG d   1       3.573  -0.905 -15.679  0.00  0.00     0.028 H 
ENDBRANCH  12  46
BRANCH   6  50
ATOM     50  C   LIG d   1      -2.414  -2.948 -13.479  0.00  0.00    -0.017 A 
ATOM     51  C   LIG d   1      -3.250  -1.847 -13.275  0.00  0.00    -0.051 A 
ATOM     52  C   LIG d   1      -4.340  -1.959 -12.441  0.00  0.00    -0.019 A 
ATOM     53  H   LIG d   1      -3.041  -0.911 -13.771  0.00  0.00     0.062 H 
ATOM     54  C   LIG d   1      -4.609  -3.163 -11.802  0.00  0.00     0.120 A 
ATOM     55  H   LIG d   1      -4.987  -1.108 -12.282  0.00  0.00     0.065 H 
ATOM     56  C   LIG d   1      -3.781  -4.261 -12.004  0.00  0.00    -0.019 A 
ATOM     57  C   LIG d   1      -2.691  -4.159 -12.840  0.00  0.00    -0.051 A 
ATOM     58  H   LIG d   1      -3.994  -5.195 -11.507  0.00  0.00     0.065 H 
ATOM     59  H   LIG d   1      -2.050  -5.014 -12.999  0.00  0.00     0.062 H 
BRANCH  54  60
ATOM     60  O   LIG d   1      -5.685  -3.268 -10.981  0.00  0.00    -0.495 OA
BRANCH  60  61
ATOM     61  C   LIG d   1      -5.424  -3.523  -9.600  0.00  0.00     0.079 C 
ATOM     62  H   LIG d   1      -4.449  -4.000  -9.495  0.00  0.00     0.066 H 
ATOM     63  H   LIG d   1      -5.429  -2.582  -9.049  0.00  0.00     0.066 H 
ATOM     64  H   LIG d   1      -6.195  -4.182  -9.199  0.00  0.00     0.066 H 
ENDBRANCH  60  61
ENDBRANCH  54  60
ENDBRANCH   6  50
TORSDOF 10
ENDMDL
MODEL 4
REMARK VINA RESULT:      -6.1      7.568     12.131
REMARK  10 active torsions:
REMARK  status: ('A' for Active; 'I' for Inactive)
REMARK    1  A    between atoms: C_1  and  C_2 
REMARK    2  A    between atoms: C_2  and  C_3 
REMARK    3  A    between atoms: C_3  and  C_4 
REMARK    4  A    between atoms: C_4  and  O_5 
REMARK    5  A    between atoms: O_5  and  C_6 
REMARK    6  A    between atoms: C_9  and  N_12 
REMARK    7  A    between atoms: C_17  and  C_28 
REMARK    8  A    between atoms: C_23  and  C_27 
REMARK    9  A    between atoms: C_31  and  O_34 
REMARK   10  A    between atoms: O_34  and  C_35 
ROOT
ATOM      1  N   LIG d   1       3.655  -6.290  -7.764  0.00  0.00    -0.293 NA
ATOM      2  C   LIG d   1       3.912  -4.979  -8.375  0.00  0.00     0.044 C 
ATOM      3  C   LIG d   1       2.858  -4.693  -9.416  0.00  0.00     0.013 A 
ATOM      4  C   LIG d   1       2.684  -3.406  -9.847  0.00  0.00    -0.042 A 
ATOM      5  C   LIG d   1       1.717  -3.119 -10.811  0.00  0.00     0.026 A 
ATOM      6  C   LIG d   1       1.509  -1.743 -11.293  0.00  0.00    -0.000 A 
ATOM      7  C   LIG d   1       0.531  -1.532 -12.249  0.00  0.00     0.031 A 
ATOM      8  C   LIG d   1      -0.217  -2.622 -12.723  0.00  0.00     0.338 A 
ATOM      9  O   LIG d   1      -1.076  -2.428 -13.566  0.00  0.00    -0.245 OA
ATOM     10  O   LIG d   1      -0.018  -3.870 -12.270  0.00  0.00    -0.422 OA
ATOM     11  C   LIG d   1       0.921  -4.150 -11.341  0.00  0.00     0.146 A 
ATOM     12  C   LIG d   1       1.109  -5.448 -10.894  0.00  0.00     0.035 A 
ATOM     13  C   LIG d   1       2.073  -5.719  -9.933  0.00  0.00     0.134 A 
ATOM     14  O   LIG d   1       2.234  -6.999  -9.506  0.00  0.00    -0.473 OA
ATOM     15  C   LIG d   1       3.444  -7.305  -8.809  0.00  0.00     0.157 C 
ATOM     16  H   LIG d   1       4.895  -4.984  -8.845  0.00  0.00     0.051 H 
ATOM     17  H   LIG d   1       3.881  -4.208  -7.605  0.00  0.00     0.051 H 
ATOM     18  H   LIG d   1       3.295  -2.613  -9.442  0.00  0.00     0.063 H 
ATOM     19  H   LIG d   1       0.345  -0.538 -12.628  0.00  0.00     0.070 H 
ATOM     20  H   LIG d   1       4.282  -7.292  -9.506  0.00  0.00     0.091 H 
ATOM     21  H   LIG d   1       3.366  -8.291  -8.351  0.00  0.00     0.091 H 
ENDROOT
BRANCH   1  22
ATOM     22  C   LIG d   1       4.701  -6.659  -6.910  0.00  0.00     0.033 A 
ATOM     23  C   LIG d   1       5.685  -5.738  -6.577  0.00  0.00    -0.037 A 
ATOM     24  C   LIG d   1       6.716  -6.103  -5.734  0.00  0.00    -0.018 A 
ATOM     25  H   LIG d   1       5.643  -4.735  -6.977  0.00  0.00     0.064 H 
ATOM     26  C   LIG d   1       6.770  -7.391  -5.221  0.00  0.00     0.121 A 
ATOM     27  H   LIG d   1       7.481  -5.386  -5.476  0.00  0.00     0.066 H 
ATOM     28  C   LIG d   1       5.786  -8.311  -5.552  0.00  0.00    -0.018 A 
ATOM     29  C   LIG d   1       4.752  -7.946  -6.390  0.00  0.00    -0.037 A 
ATOM     30  H   LIG d   1       5.829  -9.314  -5.152  0.00  0.00     0.066 H 
ATOM     31  H   LIG d   1       3.985  -8.662  -6.645  0.00  0.00     0.064 H 
BRANCH  26  32
ATOM     32  O   LIG d   1       7.785  -7.750  -4.390  0.00  0.00    -0.492 OA
BRANCH  32  33
ATOM     33  C   LIG d   1       7.661  -9.005  -3.719  0.00  0.00     0.090 C 
ATOM     34  H   LIG d   1       6.615  -9.312  -3.713  0.00  0.00     0.070 H 
ATOM     35  H   LIG d   1       8.257  -9.755  -4.239  0.00  0.00     0.070 H 
BRANCH  33  36
ATOM     36  C   LIG d   1       8.160  -8.865  -2.279  0.00  0.00    -0.019 C 
ATOM     37  H   LIG d   1       9.208  -9.162  -2.228  0.00  0.00     0.030 H 
ATOM     38  H   LIG d   1       8.060  -7.828  -1.960  0.00  0.00     0.030 H 
BRANCH  36  39
ATOM     39  C   LIG d   1       7.330  -9.765  -1.362  0.00  0.00    -0.053 C 
ATOM     40  H   LIG d   1       7.926 -10.625  -1.057  0.00  0.00     0.026 H 
ATOM     41  H   LIG d   1       7.025  -9.202  -0.480  0.00  0.00     0.026 H 
BRANCH  39  42
ATOM     42  C   LIG d   1       6.086 -10.248  -2.113  0.00  0.00    -0.065 C 
ATOM     43  H   LIG d   1       5.194  -9.829  -1.645  0.00  0.00     0.023 H 
ATOM     44  H   LIG d   1       6.139  -9.921  -3.151  0.00  0.00     0.023 H 
ATOM     45  H   LIG d   1       6.039 -11.337  -2.075  0.00  0.00     0.023 H 
ENDBRANCH  39  42
ENDBRANCH  36  39
ENDBRANCH  33  36
ENDBRANCH  32  33
ENDBRANCH  26  32
ENDBRANCH   1  22
BRANCH  12  46
ATOM     46  C   LIG d   1       0.265  -6.566 -11.450  0.00  0.00    -0.033 C 
ATOM     47  H   LIG d   1       0.901  -7.421 -11.681  0.00  0.00     0.028 H 
ATOM     48  H   LIG d   1      -0.482  -6.859 -10.713  0.00  0.00     0.028 H 
ATOM     49  H   LIG d   1      -0.234  -6.227 -12.358  0.00  0.00     0.028 H 
ENDBRANCH  12  46
BRANCH   6  50
ATOM     50  C   LIG d   1       2.317  -0.621 -10.769  0.00  0.00    -0.017 A 
ATOM     51  C   LIG d   1       1.962  -0.003  -9.568  0.00  0.00    -0.051 A 
ATOM     52  C   LIG d   1       2.718   1.041  -9.083  0.00  0.00    -0.019 A 
ATOM     53  H   LIG d   1       1.096  -0.343  -9.021  0.00  0.00     0.062 H 
ATOM     54  C   LIG d   1       3.833   1.479  -9.787  0.00  0.00     0.120 A 
ATOM     55  H   LIG d   1       2.444   1.520  -8.155  0.00  0.00     0.065 H 
ATOM     56  C   LIG d   1       4.191   0.866 -10.982  0.00  0.00    -0.019 A 
ATOM     57  C   LIG d   1       3.442  -0.182 -11.471  0.00  0.00    -0.051 A 
ATOM     58  H   LIG d   1       5.059   1.208 -11.525  0.00  0.00     0.065 H 
ATOM     59  H   LIG d   1       3.723  -0.661 -12.398  0.00  0.00     0.062 H 
BRANCH  54  60
ATOM     60  O   LIG d   1       4.576   2.509  -9.306  0.00  0.00    -0.495 OA
BRANCH  60  61
ATOM     61  C   LIG d   1       5.957   2.248  -9.051  0.00  0.00     0.079 C 
ATOM     62  H   LIG d   1       6.387   1.702  -9.891  0.00  0.00     0.066 H 
ATOM     63  H   LIG d   1       6.488   3.192  -8.922  0.00  0.00     0.066 H 
ATOM     64  H   LIG d   1       6.054   1.652  -8.143  0.00  0.00     0.066 H 
ENDBRANCH  60  61
ENDBRANCH  54  60
ENDBRANCH   6  50
TORSDOF 10
ENDMDL
MODEL 5
REMARK VINA RESULT:      -6.1      7.583     11.692
REMARK  10 active torsions:
REMARK  status: ('A' for Active; 'I' for Inactive)
REMARK    1  A    between atoms: C_1  and  C_2 
REMARK    2  A    between atoms: C_2  and  C_3 
REMARK    3  A    between atoms: C_3  and  C_4 
REMARK    4  A    between atoms: C_4  and  O_5 
REMARK    5  A    between atoms: O_5  and  C_6 
REMARK    6  A    between atoms: C_9  and  N_12 
REMARK    7  A    between atoms: C_17  and  C_28 
REMARK    8  A    between atoms: C_23  and  C_27 
REMARK    9  A    between atoms: C_31  and  O_34 
REMARK   10  A    between atoms: O_34  and  C_35 
ROOT
ATOM      1  N   LIG d   1       5.101  -5.094  -6.713  0.00  0.00    -0.293 NA
ATOM      2  C   LIG d   1       4.168  -4.603  -7.736  0.00  0.00     0.044 C 
ATOM      3  C   LIG d   1       4.079  -3.099  -7.658  0.00  0.00     0.013 A 
ATOM      4  C   LIG d   1       3.566  -2.408  -8.721  0.00  0.00    -0.042 A 
ATOM      5  C   LIG d   1       3.473  -1.017  -8.670  0.00  0.00     0.026 A 
ATOM      6  C   LIG d   1       2.925  -0.249  -9.801  0.00  0.00    -0.000 A 
ATOM      7  C   LIG d   1       2.864   1.127  -9.680  0.00  0.00     0.031 A 
ATOM      8  C   LIG d   1       3.318   1.738  -8.499  0.00  0.00     0.338 A 
ATOM      9  O   LIG d   1       3.259   2.951  -8.400  0.00  0.00    -0.245 OA
ATOM     10  O   LIG d   1       3.819   1.023  -7.479  0.00  0.00    -0.422 OA
ATOM     11  C   LIG d   1       3.905  -0.323  -7.526  0.00  0.00     0.146 A 
ATOM     12  C   LIG d   1       4.423  -1.037  -6.456  0.00  0.00     0.035 A 
ATOM     13  C   LIG d   1       4.512  -2.420  -6.522  0.00  0.00     0.134 A 
ATOM     14  O   LIG d   1       5.029  -3.097  -5.463  0.00  0.00    -0.473 OA
ATOM     15  C   LIG d   1       4.779  -4.503  -5.404  0.00  0.00     0.157 C 
ATOM     16  H   LIG d   1       3.182  -5.034  -7.563  0.00  0.00     0.051 H 
ATOM     17  H   LIG d   1       4.525  -4.895  -8.723  0.00  0.00     0.051 H 
ATOM     18  H   LIG d   1       3.233  -2.940  -9.600  0.00  0.00     0.063 H 
ATOM     19  H   LIG d   1       2.470   1.728 -10.486  0.00  0.00     0.070 H 
ATOM     20  H   LIG d   1       3.728  -4.678  -5.173  0.00  0.00     0.091 H 
ATOM     21  H   LIG d   1       5.402  -4.956  -4.634  0.00  0.00     0.091 H 
ENDROOT
BRANCH   1  22
ATOM     22  C   LIG d   1       5.086  -6.492  -6.650  0.00  0.00     0.033 A 
ATOM     23  C   LIG d   1       5.777  -7.150  -5.640  0.00  0.00    -0.037 A 
ATOM     24  C   LIG d   1       5.760  -8.529  -5.578  0.00  0.00    -0.018 A 
ATOM     25  H   LIG d   1       6.326  -6.582  -4.903  0.00  0.00     0.064 H 
ATOM     26  C   LIG d   1       5.056  -9.258  -6.525  0.00  0.00     0.121 A 
ATOM     27  H   LIG d   1       6.298  -9.041  -4.794  0.00  0.00     0.066 H 
ATOM     28  C   LIG d   1       4.365  -8.602  -7.533  0.00  0.00    -0.018 A 
ATOM     29  C   LIG d   1       4.376  -7.222  -7.593  0.00  0.00    -0.037 A 
ATOM     30  H   LIG d   1       3.817  -9.170  -8.271  0.00  0.00     0.066 H 
ATOM     31  H   LIG d   1       3.835  -6.712  -8.375  0.00  0.00     0.064 H 
BRANCH  26  32
ATOM     32  O   LIG d   1       5.040 -10.617  -6.463  0.00  0.00    -0.492 OA
BRANCH  32  33
ATOM     33  C   LIG d   1       4.196 -11.211  -5.475  0.00  0.00     0.090 C 
ATOM     34  H   LIG d   1       3.484 -10.470  -5.112  0.00  0.00     0.070 H 
ATOM     35  H   LIG d   1       3.657 -12.050  -5.913  0.00  0.00     0.070 H 
BRANCH  33  36
ATOM     36  C   LIG d   1       5.052 -11.709  -4.308  0.00  0.00    -0.019 C 
ATOM     37  H   LIG d   1       4.881 -12.776  -4.162  0.00  0.00     0.030 H 
ATOM     38  H   LIG d   1       6.105 -11.537  -4.531  0.00  0.00     0.030 H 
BRANCH  36  39
ATOM     39  C   LIG d   1       4.669 -10.951  -3.035  0.00  0.00    -0.053 C 
ATOM     40  H   LIG d   1       4.601 -11.650  -2.202  0.00  0.00     0.026 H 
ATOM     41  H   LIG d   1       5.428 -10.199  -2.818  0.00  0.00     0.026 H 
BRANCH  39  42
ATOM     42  C   LIG d   1       3.316 -10.265  -3.238  0.00  0.00    -0.065 C 
ATOM     43  H   LIG d   1       3.466  -9.303  -3.727  0.00  0.00     0.023 H 
ATOM     44  H   LIG d   1       2.680 -10.894  -3.862  0.00  0.00     0.023 H 
ATOM     45  H   LIG d   1       2.838 -10.111  -2.270  0.00  0.00     0.023 H 
ENDBRANCH  39  42
ENDBRANCH  36  39
ENDBRANCH  33  36
ENDBRANCH  32  33
ENDBRANCH  26  32
ENDBRANCH   1  22
BRANCH  12  46
ATOM     46  C   LIG d   1       4.891  -0.310  -5.222  0.00  0.00    -0.033 C 
ATOM     47  H   LIG d   1       5.484  -0.986  -4.605  0.00  0.00     0.028 H 
ATOM     48  H   LIG d   1       5.502   0.545  -5.513  0.00  0.00     0.028 H 
ATOM     49  H   LIG d   1       4.027   0.038  -4.656  0.00  0.00     0.028 H 
ENDBRANCH  12  46
BRANCH   6  50
ATOM     50  C   LIG d   1       2.457  -0.929 -11.027  0.00  0.00    -0.017 A 
ATOM     51  C   LIG d   1       3.336  -1.133 -12.094  0.00  0.00    -0.051 A 
ATOM     52  C   LIG d   1       2.896  -1.766 -13.235  0.00  0.00    -0.019 A 
ATOM     53  H   LIG d   1       4.359  -0.794 -12.023  0.00  0.00     0.062 H 
ATOM     54  C   LIG d   1       1.580  -2.203 -13.326  0.00  0.00     0.120 A 
ATOM     55  H   LIG d   1       3.575  -1.924 -14.060  0.00  0.00     0.065 H 
ATOM     56  C   LIG d   1       0.703  -2.003 -12.267  0.00  0.00    -0.019 A 
ATOM     57  C   LIG d   1       1.136  -1.374 -11.121  0.00  0.00    -0.051 A 
ATOM     58  H   LIG d   1      -0.319  -2.344 -12.341  0.00  0.00     0.065 H 
ATOM     59  H   LIG d   1       0.454  -1.222 -10.297  0.00  0.00     0.062 H 
BRANCH  54  60
ATOM     60  O   LIG d   1       1.150  -2.827 -14.453  0.00  0.00    -0.495 OA
BRANCH  60  61
ATOM     61  C   LIG d   1       1.783  -2.460 -15.679  0.00  0.00     0.079 C 
ATOM     62  H   LIG d   1       1.084  -1.893 -16.295  0.00  0.00     0.066 H 
ATOM     63  H   LIG d   1       2.660  -1.847 -15.468  0.00  0.00     0.066 H 
ATOM     64  H   LIG d   1       2.090  -3.360 -16.214  0.00  0.00     0.066 H 
ENDBRANCH  60  61
ENDBRANCH  54  60
ENDBRANCH   6  50
TORSDOF 10
ENDMDL
MODEL 6
REMARK VINA RESULT:      -6.1      6.714     12.122
REMARK  10 active torsions:
REMARK  status: ('A' for Active; 'I' for Inactive)
REMARK    1  A    between atoms: C_1  and  C_2 
REMARK    2  A    between atoms: C_2  and  C_3 
REMARK    3  A    between atoms: C_3  and  C_4 
REMARK    4  A    between atoms: C_4  and  O_5 
REMARK    5  A    between atoms: O_5  and  C_6 
REMARK    6  A    between atoms: C_9  and  N_12 
REMARK    7  A    between atoms: C_17  and  C_28 
REMARK    8  A    between atoms: C_23  and  C_27 
REMARK    9  A    between atoms: C_31  and  O_34 
REMARK   10  A    between atoms: O_34  and  C_35 
ROOT
ATOM      1  N   LIG d   1       8.499  -2.962  -4.123  0.00  0.00    -0.293 NA
ATOM      2  C   LIG d   1       8.120  -4.378  -4.214  0.00  0.00     0.044 C 
ATOM      3  C   LIG d   1       9.309  -5.242  -3.871  0.00  0.00     0.013 A 
ATOM      4  C   LIG d   1       9.103  -6.554  -3.541  0.00  0.00    -0.042 A 
ATOM      5  C   LIG d   1      10.188  -7.372  -3.222  0.00  0.00     0.026 A 
ATOM      6  C   LIG d   1       9.994  -8.786  -2.863  0.00  0.00    -0.000 A 
ATOM      7  C   LIG d   1      11.115  -9.536  -2.558  0.00  0.00     0.031 A 
ATOM      8  C   LIG d   1      12.383  -8.933  -2.603  0.00  0.00     0.338 A 
ATOM      9  O   LIG d   1      13.366  -9.601  -2.334  0.00  0.00    -0.245 OA
ATOM     10  O   LIG d   1      12.542  -7.640  -2.928  0.00  0.00    -0.422 OA
ATOM     11  C   LIG d   1      11.493  -6.850  -3.241  0.00  0.00     0.146 A 
ATOM     12  C   LIG d   1      11.686  -5.519  -3.577  0.00  0.00     0.035 A 
ATOM     13  C   LIG d   1      10.597  -4.717  -3.890  0.00  0.00     0.134 A 
ATOM     14  O   LIG d   1      10.811  -3.413  -4.210  0.00  0.00    -0.473 OA
ATOM     15  C   LIG d   1       9.747  -2.721  -4.866  0.00  0.00     0.157 C 
ATOM     16  H   LIG d   1       7.790  -4.601  -5.228  0.00  0.00     0.051 H 
ATOM     17  H   LIG d   1       7.309  -4.582  -3.514  0.00  0.00     0.051 H 
ATOM     18  H   LIG d   1       8.101  -6.956  -3.527  0.00  0.00     0.063 H 
ATOM     19  H   LIG d   1      11.018 -10.578  -2.289  0.00  0.00     0.070 H 
ATOM     20  H   LIG d   1       9.642  -3.092  -5.885  0.00  0.00     0.091 H 
ATOM     21  H   LIG d   1       9.960  -1.653  -4.887  0.00  0.00     0.091 H 
ENDROOT
BRANCH   1  22
ATOM     22  C   LIG d   1       7.470  -2.136  -4.589  0.00  0.00     0.033 A 
ATOM     23  C   LIG d   1       7.526  -0.765  -4.372  0.00  0.00    -0.037 A 
ATOM     24  C   LIG d   1       6.510   0.048  -4.833  0.00  0.00    -0.018 A 
ATOM     25  H   LIG d   1       8.365  -0.337  -3.843  0.00  0.00     0.064 H 
ATOM     26  C   LIG d   1       5.433  -0.503  -5.511  0.00  0.00     0.121 A 
ATOM     27  H   LIG d   1       6.554   1.114  -4.663  0.00  0.00     0.066 H 
ATOM     28  C   LIG d   1       5.377  -1.871  -5.729  0.00  0.00    -0.018 A 
ATOM     29  C   LIG d   1       6.395  -2.686  -5.274  0.00  0.00    -0.037 A 
ATOM     30  H   LIG d   1       4.537  -2.300  -6.257  0.00  0.00     0.066 H 
ATOM     31  H   LIG d   1       6.353  -3.751  -5.447  0.00  0.00     0.064 H 
BRANCH  26  32
ATOM     32  O   LIG d   1       4.433   0.300  -5.965  0.00  0.00    -0.492 OA
BRANCH  32  33
ATOM     33  C   LIG d   1       3.123   0.057  -5.451  0.00  0.00     0.090 C 
ATOM     34  H   LIG d   1       2.399   0.657  -6.002  0.00  0.00     0.070 H 
ATOM     35  H   LIG d   1       2.878  -1.000  -5.562  0.00  0.00     0.070 H 
BRANCH  33  36
ATOM     36  C   LIG d   1       3.078   0.436  -3.969  0.00  0.00    -0.019 C 
ATOM     37  H   LIG d   1       4.063   0.780  -3.653  0.00  0.00     0.030 H 
ATOM     38  H   LIG d   1       2.349   1.233  -3.821  0.00  0.00     0.030 H 
BRANCH  36  39
ATOM     39  C   LIG d   1       2.673  -0.785  -3.142  0.00  0.00    -0.053 C 
ATOM     40  H   LIG d   1       1.858  -0.517  -2.470  0.00  0.00     0.026 H 
ATOM     41  H   LIG d   1       2.346  -1.584  -3.809  0.00  0.00     0.026 H 
BRANCH  39  42
ATOM     42  C   LIG d   1       3.873  -1.266  -2.322  0.00  0.00    -0.065 C 
ATOM     43  H   LIG d   1       3.764  -2.328  -2.106  0.00  0.00     0.023 H 
ATOM     44  H   LIG d   1       4.789  -1.103  -2.890  0.00  0.00     0.023 H 
ATOM     45  H   LIG d   1       3.920  -0.707  -1.387  0.00  0.00     0.023 H 
ENDBRANCH  39  42
ENDBRANCH  36  39
ENDBRANCH  33  36
ENDBRANCH  32  33
ENDBRANCH  26  32
ENDBRANCH   1  22
BRANCH  12  46
ATOM     46  C   LIG d   1      13.078  -4.942  -3.603  0.00  0.00    -0.033 C 
ATOM     47  H   LIG d   1      13.393  -4.798  -4.636  0.00  0.00     0.028 H 
ATOM     48  H   LIG d   1      13.084  -3.984  -3.085  0.00  0.00     0.028 H 
ATOM     49  H   LIG d   1      13.764  -5.628  -3.106  0.00  0.00     0.028 H 
ENDBRANCH  12  46
BRANCH   6  50
ATOM     50  C   LIG d   1       8.643  -9.385  -2.828  0.00  0.00    -0.017 A 
ATOM     51  C   LIG d   1       7.929  -9.430  -1.628  0.00  0.00    -0.051 A 
ATOM     52  C   LIG d   1       6.670  -9.989  -1.599  0.00  0.00    -0.019 A 
ATOM     53  H   LIG d   1       8.363  -9.028  -0.725  0.00  0.00     0.062 H 
ATOM     54  C   LIG d   1       6.110 -10.507  -2.760  0.00  0.00     0.120 A 
ATOM     55  H   LIG d   1       6.117 -10.025  -0.671  0.00  0.00     0.065 H 
ATOM     56  C   LIG d   1       6.817 -10.463  -3.956  0.00  0.00    -0.019 A 
ATOM     57  C   LIG d   1       8.075  -9.902  -3.994  0.00  0.00    -0.051 A 
ATOM     58  H   LIG d   1       6.379 -10.865  -4.857  0.00  0.00     0.065 H 
ATOM     59  H   LIG d   1       8.622  -9.864  -4.925  0.00  0.00     0.062 H 
BRANCH  54  60
ATOM     60  O   LIG d   1       4.869 -11.057  -2.728  0.00  0.00    -0.495 OA
BRANCH  60  61
ATOM     61  C   LIG d   1       3.791 -10.254  -3.210  0.00  0.00     0.079 C 
ATOM     62  H   LIG d   1       3.079 -10.883  -3.745  0.00  0.00     0.066 H 
ATOM     63  H   LIG d   1       3.290  -9.773  -2.369  0.00  0.00     0.066 H 
ATOM     64  H   LIG d   1       4.179  -9.491  -3.885  0.00  0.00     0.066 H 
ENDBRANCH  60  61
ENDBRANCH  54  60
ENDBRANCH   6  50
TORSDOF 10
ENDMDL
MODEL 7
REMARK VINA RESULT:      -6.1      9.842     14.331
REMARK  10 active torsions:
REMARK  status: ('A' for Active; 'I' for Inactive)
REMARK    1  A    between atoms: C_1  and  C_2 
REMARK    2  A    between atoms: C_2  and  C_3 
REMARK    3  A    between atoms: C_3  and  C_4 
REMARK    4  A    between atoms: C_4  and  O_5 
REMARK    5  A    between atoms: O_5  and  C_6 
REMARK    6  A    between atoms: C_9  and  N_12 
REMARK    7  A    between atoms: C_17  and  C_28 
REMARK    8  A    between atoms: C_23  and  C_27 
REMARK    9  A    between atoms: C_31  and  O_34 
REMARK   10  A    between atoms: O_34  and  C_35 
ROOT
ATOM      1  N   LIG d   1       1.911  -2.158 -10.303  0.00  0.00    -0.293 NA
ATOM      2  C   LIG d   1       1.079  -1.179 -11.016  0.00  0.00     0.044 C 
ATOM      3  C   LIG d   1       0.538  -1.801 -12.279  0.00  0.00     0.013 A 
ATOM      4  C   LIG d   1      -0.530  -1.216 -12.903  0.00  0.00    -0.042 A 
ATOM      5  C   LIG d   1      -1.045  -1.773 -14.074  0.00  0.00     0.026 A 
ATOM      6  C   LIG d   1      -2.194  -1.164 -14.765  0.00  0.00    -0.000 A 
ATOM      7  C   LIG d   1      -2.651  -1.771 -15.920  0.00  0.00     0.031 A 
ATOM      8  C   LIG d   1      -2.012  -2.930 -16.390  0.00  0.00     0.338 A 
ATOM      9  O   LIG d   1      -2.421  -3.459 -17.410  0.00  0.00    -0.245 OA
ATOM     10  O   LIG d   1      -0.968  -3.476 -15.746  0.00  0.00    -0.422 OA
ATOM     11  C   LIG d   1      -0.467  -2.935 -14.615  0.00  0.00     0.146 A 
ATOM     12  C   LIG d   1       0.615  -3.516 -13.972  0.00  0.00     0.035 A 
ATOM     13  C   LIG d   1       1.115  -2.953 -12.807  0.00  0.00     0.134 A 
ATOM     14  O   LIG d   1       2.172  -3.545 -12.191  0.00  0.00    -0.473 OA
ATOM     15  C   LIG d   1       2.883  -2.766 -11.227  0.00  0.00     0.157 C 
ATOM     16  H   LIG d   1       1.681  -0.307 -11.269  0.00  0.00     0.051 H 
ATOM     17  H   LIG d   1       0.249  -0.875 -10.377  0.00  0.00     0.051 H 
ATOM     18  H   LIG d   1      -0.974  -0.323 -12.489  0.00  0.00     0.063 H 
ATOM     19  H   LIG d   1      -3.492  -1.358 -16.457  0.00  0.00     0.070 H 
ATOM     20  H   LIG d   1       3.447  -1.982 -11.732  0.00  0.00     0.091 H 
ATOM     21  H   LIG d   1       3.567  -3.405 -10.669  0.00  0.00     0.091 H 
ENDROOT
BRANCH   1  22
ATOM     22  C   LIG d   1       2.558  -1.567  -9.212  0.00  0.00     0.033 A 
ATOM     23  C   LIG d   1       2.193  -0.294  -8.794  0.00  0.00    -0.037 A 
ATOM     24  C   LIG d   1       2.832   0.288  -7.716  0.00  0.00    -0.018 A 
ATOM     25  H   LIG d   1       1.410   0.241  -9.311  0.00  0.00     0.064 H 
ATOM     26  C   LIG d   1       3.838  -0.398  -7.052  0.00  0.00     0.121 A 
ATOM     27  H   LIG d   1       2.549   1.278  -7.392  0.00  0.00     0.066 H 
ATOM     28  C   LIG d   1       4.202  -1.670  -7.469  0.00  0.00    -0.018 A 
ATOM     29  C   LIG d   1       3.560  -2.255  -8.543  0.00  0.00    -0.037 A 
ATOM     30  H   LIG d   1       4.986  -2.204  -6.952  0.00  0.00     0.066 H 
ATOM     31  H   LIG d   1       3.842  -3.247  -8.864  0.00  0.00     0.064 H 
BRANCH  26  32
ATOM     32  O   LIG d   1       4.466   0.175  -5.991  0.00  0.00    -0.492 OA
BRANCH  32  33
ATOM     33  C   LIG d   1       4.377  -0.507  -4.739  0.00  0.00     0.090 C 
ATOM     34  H   LIG d   1       4.499  -1.578  -4.899  0.00  0.00     0.070 H 
ATOM     35  H   LIG d   1       5.160  -0.147  -4.072  0.00  0.00     0.070 H 
BRANCH  33  36
ATOM     36  C   LIG d   1       3.008  -0.239  -4.109  0.00  0.00    -0.019 C 
ATOM     37  H   LIG d   1       2.906   0.827  -3.903  0.00  0.00     0.030 H 
ATOM     38  H   LIG d   1       2.224  -0.553  -4.798  0.00  0.00     0.030 H 
BRANCH  36  39
ATOM     39  C   LIG d   1       2.886  -1.026  -2.803  0.00  0.00    -0.053 C 
ATOM     40  H   LIG d   1       3.025  -0.352  -1.957  0.00  0.00     0.026 H 
ATOM     41  H   LIG d   1       1.897  -1.482  -2.744  0.00  0.00     0.026 H 
BRANCH  39  42
ATOM     42  C   LIG d   1       3.955  -2.120  -2.765  0.00  0.00    -0.065 C 
ATOM     43  H   LIG d   1       4.932  -1.680  -2.964  0.00  0.00     0.023 H 
ATOM     44  H   LIG d   1       3.961  -2.588  -1.781  0.00  0.00     0.023 H 
ATOM     45  H   LIG d   1       3.733  -2.871  -3.524  0.00  0.00     0.023 H 
ENDBRANCH  39  42
ENDBRANCH  36  39
ENDBRANCH  33  36
ENDBRANCH  32  33
ENDBRANCH  26  32
ENDBRANCH   1  22
BRANCH  12  46
ATOM     46  C   LIG d   1       1.247  -4.762 -14.538  0.00  0.00    -0.033 C 
ATOM     47  H   LIG d   1       2.202  -4.941 -14.044  0.00  0.00     0.028 H 
ATOM     48  H   LIG d   1       0.587  -5.613 -14.371  0.00  0.00     0.028 H 
ATOM     49  H   LIG d   1       1.409  -4.633 -15.608  0.00  0.00     0.028 H 
ENDBRANCH  12  46
BRANCH   6  50
ATOM     50  C   LIG d   1      -2.839   0.057 -14.238  0.00  0.00    -0.017 A 
ATOM     51  C   LIG d   1      -2.327   1.316 -14.564  0.00  0.00    -0.051 A 
ATOM     52  C   LIG d   1      -2.931   2.451 -14.072  0.00  0.00    -0.019 A 
ATOM     53  H   LIG d   1      -1.459   1.397 -15.201  0.00  0.00     0.062 H 
ATOM     54  C   LIG d   1      -4.049   2.347 -13.254  0.00  0.00     0.120 A 
ATOM     55  H   LIG d   1      -2.536   3.425 -14.323  0.00  0.00     0.065 H 
ATOM     56  C   LIG d   1      -4.563   1.097 -12.928  0.00  0.00    -0.019 A 
ATOM     57  C   LIG d   1      -3.966  -0.043 -13.420  0.00  0.00    -0.051 A 
ATOM     58  H   LIG d   1      -5.432   1.019 -12.293  0.00  0.00     0.065 H 
ATOM     59  H   LIG d   1      -4.368  -1.014 -13.169  0.00  0.00     0.062 H 
BRANCH  54  60
ATOM     60  O   LIG d   1      -4.642   3.469 -12.771  0.00  0.00    -0.495 OA
BRANCH  60  61
ATOM     61  C   LIG d   1      -5.412   3.332 -11.575  0.00  0.00     0.079 C 
ATOM     62  H   LIG d   1      -6.457   3.563 -11.786  0.00  0.00     0.066 H 
ATOM     63  H   LIG d   1      -5.333   2.309 -11.206  0.00  0.00     0.066 H 
ATOM     64  H   LIG d   1      -5.034   4.020 -10.818  0.00  0.00     0.066 H 
ENDBRANCH  60  61
ENDBRANCH  54  60
ENDBRANCH   6  50
TORSDOF 10
ENDMDL
MODEL 8
REMARK VINA RESULT:      -5.9      6.957     10.876
REMARK  10 active torsions:
REMARK  status: ('A' for Active; 'I' for Inactive)
REMARK    1  A    between atoms: C_1  and  C_2 
REMARK    2  A    between atoms: C_2  and  C_3 
REMARK    3  A    between atoms: C_3  and  C_4 
REMARK    4  A    between atoms: C_4  and  O_5 
REMARK    5  A    between atoms: O_5  and  C_6 
REMARK    6  A    between atoms: C_9  and  N_12 
REMARK    7  A    between atoms: C_17  and  C_28 
REMARK    8  A    between atoms: C_23  and  C_27 
REMARK    9  A    between atoms: C_31  and  O_34 
REMARK   10  A    between atoms: O_34  and  C_35 
ROOT
ATOM      1  N   LIG d   1       4.393  -7.813  -5.790  0.00  0.00    -0.293 NA
ATOM      2  C   LIG d   1       4.879  -6.443  -5.576  0.00  0.00     0.044 C 
ATOM      3  C   LIG d   1       4.394  -5.555  -6.696  0.00  0.00     0.013 A 
ATOM      4  C   LIG d   1       4.415  -4.198  -6.523  0.00  0.00    -0.042 A 
ATOM      5  C   LIG d   1       3.973  -3.357  -7.546  0.00  0.00     0.026 A 
ATOM      6  C   LIG d   1       3.985  -1.894  -7.385  0.00  0.00    -0.000 A 
ATOM      7  C   LIG d   1       3.530  -1.124  -8.441  0.00  0.00     0.031 A 
ATOM      8  C   LIG d   1       3.082  -1.753  -9.613  0.00  0.00     0.338 A 
ATOM      9  O   LIG d   1       2.684  -1.067 -10.538  0.00  0.00    -0.245 OA
ATOM     10  O   LIG d   1       3.073  -3.090  -9.741  0.00  0.00    -0.422 OA
ATOM     11  C   LIG d   1       3.505  -3.903  -8.754  0.00  0.00     0.146 A 
ATOM     12  C   LIG d   1       3.490  -5.280  -8.914  0.00  0.00     0.035 A 
ATOM     13  C   LIG d   1       3.931  -6.104  -7.888  0.00  0.00     0.134 A 
ATOM     14  O   LIG d   1       3.900  -7.451  -8.066  0.00  0.00    -0.473 OA
ATOM     15  C   LIG d   1       4.677  -8.244  -7.168  0.00  0.00     0.157 C 
ATOM     16  H   LIG d   1       5.969  -6.443  -5.560  0.00  0.00     0.051 H 
ATOM     17  H   LIG d   1       4.502  -6.067  -4.626  0.00  0.00     0.051 H 
ATOM     18  H   LIG d   1       4.774  -3.777  -5.596  0.00  0.00     0.063 H 
ATOM     19  H   LIG d   1       3.521  -0.046  -8.365  0.00  0.00     0.070 H 
ATOM     20  H   LIG d   1       5.737  -8.107  -7.382  0.00  0.00     0.091 H 
ATOM     21  H   LIG d   1       4.415  -9.296  -7.284  0.00  0.00     0.091 H 
ENDROOT
BRANCH   1  22
ATOM     22  C   LIG d   1       4.955  -8.695  -4.861  0.00  0.00     0.033 A 
ATOM     23  C   LIG d   1       6.323  -8.673  -4.620  0.00  0.00    -0.037 A 
ATOM     24  C   LIG d   1       6.876  -9.544  -3.703  0.00  0.00    -0.018 A 
ATOM     25  H   LIG d   1       6.953  -7.975  -5.151  0.00  0.00     0.064 H 
ATOM     26  C   LIG d   1       6.067 -10.442  -3.022  0.00  0.00     0.121 A 
ATOM     27  H   LIG d   1       7.940  -9.528  -3.517  0.00  0.00     0.066 H 
ATOM     28  C   LIG d   1       4.701 -10.464  -3.261  0.00  0.00    -0.018 A 
ATOM     29  C   LIG d   1       4.145  -9.589  -4.174  0.00  0.00    -0.037 A 
ATOM     30  H   LIG d   1       4.071 -11.163  -2.730  0.00  0.00     0.066 H 
ATOM     31  H   LIG d   1       3.081  -9.604  -4.356  0.00  0.00     0.064 H 
BRANCH  26  32
ATOM     32  O   LIG d   1       6.613 -11.299  -2.118  0.00  0.00    -0.492 OA
BRANCH  32  33
ATOM     33  C   LIG d   1       7.019 -10.747  -0.865  0.00  0.00     0.090 C 
ATOM     34  H   LIG d   1       6.989  -9.659  -0.920  0.00  0.00     0.070 H 
ATOM     35  H   LIG d   1       6.344 -11.090  -0.080  0.00  0.00     0.070 H 
BRANCH  33  36
ATOM     36  C   LIG d   1       8.445 -11.203  -0.545  0.00  0.00    -0.019 C 
ATOM     37  H   LIG d   1       8.479 -11.606   0.467  0.00  0.00     0.030 H 
ATOM     38  H   LIG d   1       8.746 -11.974  -1.254  0.00  0.00     0.030 H 
BRANCH  36  39
ATOM     39  C   LIG d   1       9.397 -10.010  -0.652  0.00  0.00    -0.053 C 
ATOM     40  H   LIG d   1       9.965 -10.080  -1.580  0.00  0.00     0.026 H 
ATOM     41  H   LIG d   1       8.822  -9.084  -0.648  0.00  0.00     0.026 H 
BRANCH  39  42
ATOM     42  C   LIG d   1      10.360 -10.018   0.538  0.00  0.00    -0.065 C 
ATOM     43  H   LIG d   1      10.072 -10.808   1.232  0.00  0.00     0.023 H 
ATOM     44  H   LIG d   1      11.374 -10.198   0.183  0.00  0.00     0.023 H 
ATOM     45  H   LIG d   1      10.317  -9.054   1.045  0.00  0.00     0.023 H 
ENDBRANCH  39  42
ENDBRANCH  36  39
ENDBRANCH  33  36
ENDBRANCH  32  33
ENDBRANCH  26  32
ENDBRANCH   1  22
BRANCH  12  46
ATOM     46  C   LIG d   1       2.992  -5.883 -10.203  0.00  0.00    -0.033 C 
ATOM     47  H   LIG d   1       3.534  -5.445 -11.041  0.00  0.00     0.028 H 
ATOM     48  H   LIG d   1       3.157  -6.960 -10.187  0.00  0.00     0.028 H 
ATOM     49  H   LIG d   1       1.927  -5.680 -10.311  0.00  0.00     0.028 H 
ENDBRANCH  12  46
BRANCH   6  50
ATOM     50  C   LIG d   1       4.465  -1.268  -6.135  0.00  0.00    -0.017 A 
ATOM     51  C   LIG d   1       3.549  -0.818  -5.181  0.00  0.00    -0.051 A 
ATOM     52  C   LIG d   1       4.001  -0.235  -4.018  0.00  0.00    -0.019 A 
ATOM     53  H   LIG d   1       2.489  -0.927  -5.356  0.00  0.00     0.062 H 
ATOM     54  C   LIG d   1       5.365  -0.095  -3.792  0.00  0.00     0.120 A 
ATOM     55  H   LIG d   1       3.294   0.113  -3.279  0.00  0.00     0.065 H 
ATOM     56  C   LIG d   1       6.279  -0.543  -4.738  0.00  0.00    -0.019 A 
ATOM     57  C   LIG d   1       5.835  -1.130  -5.903  0.00  0.00    -0.051 A 
ATOM     58  H   LIG d   1       7.338  -0.433  -4.559  0.00  0.00     0.065 H 
ATOM     59  H   LIG d   1       6.547  -1.481  -6.636  0.00  0.00     0.062 H 
BRANCH  54  60
ATOM     60  O   LIG d   1       5.806   0.479  -2.644  0.00  0.00    -0.495 OA
BRANCH  60  61
ATOM     61  C   LIG d   1       4.816   0.860  -1.687  0.00  0.00     0.079 C 
ATOM     62  H   LIG d   1       3.953   1.282  -2.203  0.00  0.00     0.066 H 
ATOM     63  H   LIG d   1       4.505  -0.016  -1.116  0.00  0.00     0.066 H 
ATOM     64  H   LIG d   1       5.233   1.605  -1.009  0.00  0.00     0.066 H 
ENDBRANCH  60  61
ENDBRANCH  54  60
ENDBRANCH   6  50
TORSDOF 10
ENDMDL
MODEL 9
REMARK VINA RESULT:      -5.9      7.325     10.037
REMARK  10 active torsions:
REMARK  status: ('A' for Active; 'I' for Inactive)
REMARK    1  A    between atoms: C_1  and  C_2 
REMARK    2  A    between atoms: C_2  and  C_3 
REMARK    3  A    between atoms: C_3  and  C_4 
REMARK    4  A    between atoms: C_4  and  O_5 
REMARK    5  A    between atoms: O_5  and  C_6 
REMARK    6  A    between atoms: C_9  and  N_12 
REMARK    7  A    between atoms: C_17  and  C_28 
REMARK    8  A    between atoms: C_23  and  C_27 
REMARK    9  A    between atoms: C_31  and  O_34 
REMARK   10  A    between atoms: O_34  and  C_35 
ROOT
ATOM      1  N   LIG d   1       4.356  -6.693  -7.825  0.00  0.00    -0.293 NA
ATOM      2  C   LIG d   1       4.548  -5.434  -7.092  0.00  0.00     0.044 C 
ATOM      3  C   LIG d   1       4.506  -4.276  -8.059  0.00  0.00     0.013 A 
ATOM      4  C   LIG d   1       4.301  -3.014  -7.574  0.00  0.00    -0.042 A 
ATOM      5  C   LIG d   1       4.261  -1.928  -8.449  0.00  0.00     0.026 A 
ATOM      6  C   LIG d   1       4.042  -0.559  -7.953  0.00  0.00    -0.000 A 
ATOM      7  C   LIG d   1       4.013   0.468  -8.879  0.00  0.00     0.031 A 
ATOM      8  C   LIG d   1       4.193   0.176 -10.240  0.00  0.00     0.338 A 
ATOM      9  O   LIG d   1       4.168   1.087 -11.050  0.00  0.00    -0.245 OA
ATOM     10  O   LIG d   1       4.388  -1.079 -10.677  0.00  0.00    -0.422 OA
ATOM     11  C   LIG d   1       4.431  -2.129  -9.830  0.00  0.00     0.146 A 
ATOM     12  C   LIG d   1       4.638  -3.414 -10.307  0.00  0.00     0.035 A 
ATOM     13  C   LIG d   1       4.673  -4.485  -9.425  0.00  0.00     0.134 A 
ATOM     14  O   LIG d   1       4.871  -5.736  -9.917  0.00  0.00    -0.473 OA
ATOM     15  C   LIG d   1       5.260  -6.748  -8.986  0.00  0.00     0.157 C 
ATOM     16  H   LIG d   1       5.514  -5.451  -6.588  0.00  0.00     0.051 H 
ATOM     17  H   LIG d   1       3.754  -5.319  -6.354  0.00  0.00     0.051 H 
ATOM     18  H   LIG d   1       4.171  -2.857  -6.513  0.00  0.00     0.063 H 
ATOM     19  H   LIG d   1       3.854   1.487  -8.558  0.00  0.00     0.070 H 
ATOM     20  H   LIG d   1       6.284  -6.571  -8.660  0.00  0.00     0.091 H 
ATOM     21  H   LIG d   1       5.191  -7.728  -9.457  0.00  0.00     0.091 H 
ENDROOT
BRANCH   1  22
ATOM     22  C   LIG d   1       4.549  -7.796  -6.986  0.00  0.00     0.033 A 
ATOM     23  C   LIG d   1       4.464  -9.084  -7.500  0.00  0.00    -0.037 A 
ATOM     24  C   LIG d   1       4.655 -10.171  -6.671  0.00  0.00    -0.018 A 
ATOM     25  H   LIG d   1       4.248  -9.234  -8.548  0.00  0.00     0.064 H 
ATOM     26  C   LIG d   1       4.931  -9.979  -5.325  0.00  0.00     0.121 A 
ATOM     27  H   LIG d   1       4.587 -11.172  -7.070  0.00  0.00     0.066 H 
ATOM     28  C   LIG d   1       5.017  -8.693  -4.812  0.00  0.00    -0.018 A 
ATOM     29  C   LIG d   1       4.832  -7.604  -5.641  0.00  0.00    -0.037 A 
ATOM     30  H   LIG d   1       5.232  -8.544  -3.763  0.00  0.00     0.066 H 
ATOM     31  H   LIG d   1       4.903  -6.603  -5.241  0.00  0.00     0.064 H 
BRANCH  26  32
ATOM     32  O   LIG d   1       5.119 -11.051  -4.509  0.00  0.00    -0.492 OA
BRANCH  32  33
ATOM     33  C   LIG d   1       4.796 -10.879  -3.128  0.00  0.00     0.090 C 
ATOM     34  H   LIG d   1       4.544  -9.836  -2.941  0.00  0.00     0.070 H 
ATOM     35  H   LIG d   1       3.945 -11.511  -2.873  0.00  0.00     0.070 H 
BRANCH  33  36
ATOM     36  C   LIG d   1       5.999 -11.276  -2.270  0.00  0.00    -0.019 C 
ATOM     37  H   LIG d   1       5.681 -11.980  -1.502  0.00  0.00     0.030 H 
ATOM     38  H   LIG d   1       6.756 -11.743  -2.900  0.00  0.00     0.030 H 
BRANCH  36  39
ATOM     39  C   LIG d   1       6.586 -10.028  -1.608  0.00  0.00    -0.053 C 
ATOM     40  H   LIG d   1       5.809  -9.270  -1.505  0.00  0.00     0.026 H 
ATOM     41  H   LIG d   1       6.974 -10.287  -0.622  0.00  0.00     0.026 H 
BRANCH  39  42
ATOM     42  C   LIG d   1       7.723  -9.479  -2.474  0.00  0.00    -0.065 C 
ATOM     43  H   LIG d   1       8.513 -10.225  -2.552  0.00  0.00     0.023 H 
ATOM     44  H   LIG d   1       7.342  -9.247  -3.468  0.00  0.00     0.023 H 
ATOM     45  H   LIG d   1       8.122  -8.573  -2.016  0.00  0.00     0.023 H 
ENDBRANCH  39  42
ENDBRANCH  36  39
ENDBRANCH  33  36
ENDBRANCH  32  33
ENDBRANCH  26  32
ENDBRANCH   1  22
BRANCH  12  46
ATOM     46  C   LIG d   1       4.823  -3.649 -11.784  0.00  0.00    -0.033 C 
ATOM     47  H   LIG d   1       3.904  -4.059 -12.204  0.00  0.00     0.028 H 
ATOM     48  H   LIG d   1       5.055  -2.704 -12.276  0.00  0.00     0.028 H 
ATOM     49  H   LIG d   1       5.641  -4.351 -11.941  0.00  0.00     0.028 H 
ENDBRANCH  12  46
BRANCH   6  50
ATOM     50  C   LIG d   1       3.856  -0.291  -6.511  0.00  0.00    -0.017 A 
ATOM     51  C   LIG d   1       4.897  -0.542  -5.613  0.00  0.00    -0.051 A 
ATOM     52  C   LIG d   1       4.720  -0.291  -4.270  0.00  0.00    -0.019 A 
ATOM     53  H   LIG d   1       5.838  -0.932  -5.971  0.00  0.00     0.062 H 
ATOM     54  C   LIG d   1       3.510   0.211  -3.809  0.00  0.00     0.120 A 
ATOM     55  H   LIG d   1       5.524  -0.485  -3.575  0.00  0.00     0.065 H 
ATOM     56  C   LIG d   1       2.473   0.463  -4.699  0.00  0.00    -0.019 A 
ATOM     57  C   LIG d   1       2.643   0.219  -6.044  0.00  0.00    -0.051 A 
ATOM     58  H   LIG d   1       1.534   0.854  -4.337  0.00  0.00     0.065 H 
ATOM     59  H   LIG d   1       1.838   0.418  -6.736  0.00  0.00     0.062 H 
BRANCH  54  60
ATOM     60  O   LIG d   1       3.340   0.457  -2.484  0.00  0.00    -0.495 OA
BRANCH  60  61
ATOM     61  C   LIG d   1       4.504   0.810  -1.735  0.00  0.00     0.079 C 
ATOM     62  H   LIG d   1       5.396   0.502  -2.282  0.00  0.00     0.066 H 
ATOM     63  H   LIG d   1       4.525   1.890  -1.583  0.00  0.00     0.066 H 
ATOM     64  H   LIG d   1       4.479   0.308  -0.768  0.00  0.00     0.066 H 
ENDBRANCH  60  61
ENDBRANCH  54  60
ENDBRANCH   6  50
TORSDOF 10
ENDMDL
MODEL 10
REMARK VINA RESULT:      -5.8      3.612      6.488
REMARK  10 active torsions:
REMARK  status: ('A' for Active; 'I' for Inactive)
REMARK    1  A    between atoms: C_1  and  C_2 
REMARK    2  A    between atoms: C_2  and  C_3 
REMARK    3  A    between atoms: C_3  and  C_4 
REMARK    4  A    between atoms: C_4  and  O_5 
REMARK    5  A    between atoms: O_5  and  C_6 
REMARK    6  A    between atoms: C_9  and  N_12 
REMARK    7  A    between atoms: C_17  and  C_28 
REMARK    8  A    between atoms: C_23  and  C_27 
REMARK    9  A    between atoms: C_31  and  O_34 
REMARK   10  A    between atoms: O_34  and  C_35 
ROOT
ATOM      1  N   LIG d   1      10.259   4.552  -4.174  0.00  0.00    -0.293 NA
ATOM      2  C   LIG d   1       9.840   5.960  -4.158  0.00  0.00     0.044 C 
ATOM      3  C   LIG d   1      10.229   6.587  -2.842  0.00  0.00     0.013 A 
ATOM      4  C   LIG d   1      10.269   7.951  -2.743  0.00  0.00    -0.042 A 
ATOM      5  C   LIG d   1      10.623   8.552  -1.534  0.00  0.00     0.026 A 
ATOM      6  C   LIG d   1      10.674  10.018  -1.401  0.00  0.00    -0.000 A 
ATOM      7  C   LIG d   1      11.034  10.543  -0.173  0.00  0.00     0.031 A 
ATOM      8  C   LIG d   1      11.333   9.675   0.889  0.00  0.00     0.338 A 
ATOM      9  O   LIG d   1      11.649  10.147   1.968  0.00  0.00    -0.245 OA
ATOM     10  O   LIG d   1      11.286   8.341   0.749  0.00  0.00    -0.422 OA
ATOM     11  C   LIG d   1      10.940   7.758  -0.418  0.00  0.00     0.146 A 
ATOM     12  C   LIG d   1      10.895   6.378  -0.534  0.00  0.00     0.035 A 
ATOM     13  C   LIG d   1      10.543   5.793  -1.743  0.00  0.00     0.134 A 
ATOM     14  O   LIG d   1      10.512   4.438  -1.834  0.00  0.00    -0.473 OA
ATOM     15  C   LIG d   1       9.813   3.875  -2.945  0.00  0.00     0.157 C 
ATOM     16  H   LIG d   1       8.760   6.019  -4.283  0.00  0.00     0.051 H 
ATOM     17  H   LIG d   1      10.331   6.493  -4.973  0.00  0.00     0.051 H 
ATOM     18  H   LIG d   1      10.025   8.562  -3.599  0.00  0.00     0.063 H 
ATOM     19  H   LIG d   1      11.085  11.613  -0.032  0.00  0.00     0.070 H 
ATOM     20  H   LIG d   1       8.741   4.023  -2.816  0.00  0.00     0.091 H 
ATOM     21  H   LIG d   1      10.028   2.809  -3.015  0.00  0.00     0.091 H 
ENDROOT
BRANCH   1  22
ATOM     22  C   LIG d   1       9.773   3.897  -5.312  0.00  0.00     0.033 A 
ATOM     23  C   LIG d   1       9.035   2.728  -5.180  0.00  0.00    -0.037 A 
ATOM     24  C   LIG d   1       8.556   2.084  -6.303  0.00  0.00    -0.018 A 
ATOM     25  H   LIG d   1       8.836   2.324  -4.198  0.00  0.00     0.064 H 
ATOM     26  C   LIG d   1       8.814   2.602  -7.564  0.00  0.00     0.121 A 
ATOM     27  H   LIG d   1       7.983   1.174  -6.200  0.00  0.00     0.066 H 
ATOM     28  C   LIG d   1       9.550   3.770  -7.696  0.00  0.00    -0.018 A 
ATOM     29  C   LIG d   1      10.024   4.419  -6.573  0.00  0.00    -0.037 A 
ATOM     30  H   LIG d   1       9.750   4.174  -8.679  0.00  0.00     0.066 H 
ATOM     31  H   LIG d   1      10.594   5.331  -6.677  0.00  0.00     0.064 H 
BRANCH  26  32
ATOM     32  O   LIG d   1       8.341   1.967  -8.670  0.00  0.00    -0.492 OA
BRANCH  32  33
ATOM     33  C   LIG d   1       7.074   1.319  -8.553  0.00  0.00     0.090 C 
ATOM     34  H   LIG d   1       7.070   0.415  -9.162  0.00  0.00     0.070 H 
ATOM     35  H   LIG d   1       6.894   1.055  -7.511  0.00  0.00     0.070 H 
BRANCH  33  36
ATOM     36  C   LIG d   1       5.971   2.264  -9.036  0.00  0.00    -0.019 C 
ATOM     37  H   LIG d   1       5.894   3.111  -8.354  0.00  0.00     0.030 H 
ATOM     38  H   LIG d   1       6.214   2.623 -10.036  0.00  0.00     0.030 H 
BRANCH  36  39
ATOM     39  C   LIG d   1       4.637   1.515  -9.072  0.00  0.00    -0.053 C 
ATOM     40  H   LIG d   1       4.757   0.585  -9.628  0.00  0.00     0.026 H 
ATOM     41  H   LIG d   1       4.318   1.291  -8.054  0.00  0.00     0.026 H 
BRANCH  39  42
ATOM     42  C   LIG d   1       3.582   2.387  -9.757  0.00  0.00    -0.065 C 
ATOM     43  H   LIG d   1       2.779   1.755 -10.136  0.00  0.00     0.023 H 
ATOM     44  H   LIG d   1       3.176   3.098  -9.037  0.00  0.00     0.023 H 
ATOM     45  H   LIG d   1       4.040   2.929 -10.584  0.00  0.00     0.023 H 
ENDBRANCH  39  42
ENDBRANCH  36  39
ENDBRANCH  33  36
ENDBRANCH  32  33
ENDBRANCH  26  32
ENDBRANCH   1  22
BRANCH  12  46
ATOM     46  C   LIG d   1      11.231   5.511   0.652  0.00  0.00    -0.033 C 
ATOM     47  H   LIG d   1      10.329   5.005   0.999  0.00  0.00     0.028 H 
ATOM     48  H   LIG d   1      11.974   4.769   0.361  0.00  0.00     0.028 H 
ATOM     49  H   LIG d   1      11.631   6.131   1.453  0.00  0.00     0.028 H 
ENDBRANCH  12  46
BRANCH   6  50
ATOM     50  C   LIG d   1      10.351  10.899  -2.543  0.00  0.00    -0.017 A 
ATOM     51  C   LIG d   1       9.041  11.344  -2.736  0.00  0.00    -0.051 A 
ATOM     52  C   LIG d   1       8.745  12.165  -3.801  0.00  0.00    -0.019 A 
ATOM     53  H   LIG d   1       8.262  11.044  -2.051  0.00  0.00     0.062 H 
ATOM     54  C   LIG d   1       9.747  12.552  -4.683  0.00  0.00     0.120 A 
ATOM     55  H   LIG d   1       7.732  12.510  -3.951  0.00  0.00     0.065 H 
ATOM     56  C   LIG d   1      11.052  12.113  -4.493  0.00  0.00    -0.019 A 
ATOM     57  C   LIG d   1      11.357  11.294  -3.428  0.00  0.00    -0.051 A 
ATOM     58  H   LIG d   1      11.828  12.416  -5.180  0.00  0.00     0.065 H 
ATOM     59  H   LIG d   1      12.372  10.956  -3.279  0.00  0.00     0.062 H 
BRANCH  54  60
ATOM     60  O   LIG d   1       9.451  13.362  -5.731  0.00  0.00    -0.495 OA
BRANCH  60  61
ATOM     61  C   LIG d   1       9.417  14.767  -5.477  0.00  0.00     0.079 C 
ATOM     62  H   LIG d   1       9.889  14.974  -4.516  0.00  0.00     0.066 H 
ATOM     63  H   LIG d   1       9.955  15.293  -6.266  0.00  0.00     0.066 H 
ATOM     64  H   LIG d   1       8.382  15.108  -5.454  0.00  0.00     0.066 H 
ENDBRANCH  60  61
ENDBRANCH  54  60
ENDBRANCH   6  50
TORSDOF 10
ENDMDL
