MODEL 1
REMARK VINA RESULT:      -6.3      0.000      0.000
REMARK  11 active torsions:
REMARK  status: ('A' for Active; 'I' for Inactive)
REMARK    1  A    between atoms: C_1  and  C_2 
REMARK    2  A    between atoms: C_2  and  C_3 
REMARK    3  A    between atoms: C_3  and  C_4 
REMARK    4  A    between atoms: C_4  and  C_5 
REMARK    5  A    between atoms: C_5  and  C_6 
REMARK    6  A    between atoms: C_6  and  O_8 
REMARK    7  A    between atoms: O_8  and  C_9 
REMARK    8  A    between atoms: C_9  and  C_32 
REMARK    9  A    between atoms: C_14  and  C_31 
REMARK   10  A    between atoms: C_29  and  C_30 
REMARK   11  A    between atoms: C_32  and  C_34 
ROOT
ATOM      1  C   LIG d   1       4.669  -0.171  -4.131  0.00  0.00     0.176 C 
ATOM      2  C   LIG d   1       5.566   0.213  -5.320  0.00  0.00    -0.005 C 
ATOM      3  C   LIG d   1       6.887  -0.566  -5.144  0.00  0.00    -0.045 C 
ATOM      4  C   LIG d   1       6.660  -1.546  -3.996  0.00  0.00    -0.028 C 
ATOM      5  H   LIG d   1       7.143  -1.090  -3.097  0.00  0.00     0.031 H 
ATOM      6  C   LIG d   1       5.158  -1.580  -3.701  0.00  0.00     0.018 C 
ATOM      7  C   LIG d   1       4.429  -2.580  -4.591  0.00  0.00    -0.043 C 
ATOM      8  C   LIG d   1       5.063  -3.953  -4.613  0.00  0.00    -0.049 C 
ATOM      9  C   LIG d   1       6.555  -3.952  -4.913  0.00  0.00    -0.029 C 
ATOM     10  H   LIG d   1       6.920  -4.933  -4.457  0.00  0.00     0.031 H 
ATOM     11  C   LIG d   1       7.300  -2.892  -4.155  0.00  0.00    -0.034 C 
ATOM     12  H   LIG d   1       7.324  -3.283  -3.090  0.00  0.00     0.031 H 
ATOM     13  C   LIG d   1       8.778  -2.797  -4.510  0.00  0.00    -0.046 C 
ATOM     14  C   LIG d   1       9.004  -2.702  -6.014  0.00  0.00    -0.030 C 
ATOM     15  C   LIG d   1       8.296  -3.854  -6.700  0.00  0.00    -0.060 C 
ATOM     16  C   LIG d   1       9.007  -4.566  -7.582  0.00  0.00    -0.019 C 
ATOM     17  C   LIG d   1       8.325  -5.674  -8.265  0.00  0.00     0.156 C 
ATOM     18  O   LIG d   1       8.529  -5.957  -9.422  0.00  0.00    -0.293 OA
ATOM     19  C   LIG d   1       7.341  -6.428  -7.390  0.00  0.00     0.011 C 
ATOM     20  C   LIG d   1       6.304  -5.441  -6.882  0.00  0.00    -0.037 C 
ATOM     21  C   LIG d   1       6.860  -4.114  -6.389  0.00  0.00    -0.007 C 
ATOM     22  H   LIG d   1       5.757   1.284  -5.317  0.00  0.00     0.031 H 
ATOM     23  H   LIG d   1       5.089  -0.073  -6.259  0.00  0.00     0.031 H 
ATOM     24  H   LIG d   1       7.137  -1.077  -6.071  0.00  0.00     0.027 H 
ATOM     25  H   LIG d   1       7.698   0.134  -4.895  0.00  0.00     0.027 H 
ATOM     26  H   LIG d   1       3.401  -2.691  -4.193  0.00  0.00     0.027 H 
ATOM     27  H   LIG d   1       4.323  -2.175  -5.596  0.00  0.00     0.027 H 
ATOM     28  H   LIG d   1       4.903  -4.434  -3.634  0.00  0.00     0.027 H 
ATOM     29  H   LIG d   1       4.541  -4.585  -5.344  0.00  0.00     0.027 H 
ATOM     30  H   LIG d   1       9.296  -3.684  -4.124  0.00  0.00     0.027 H 
ATOM     31  H   LIG d   1       9.211  -1.920  -4.016  0.00  0.00     0.027 H 
ATOM     32  H   LIG d   1      10.084  -2.771  -6.219  0.00  0.00     0.031 H 
ATOM     33  H   LIG d   1       8.662  -1.747  -6.403  0.00  0.00     0.031 H 
ATOM     34  H   LIG d   1      10.036  -4.332  -7.783  0.00  0.00     0.065 H 
ATOM     35  H   LIG d   1       7.829  -6.848  -6.624  0.00  0.00     0.035 H 
ATOM     36  H   LIG d   1       6.850  -7.202  -7.987  0.00  0.00     0.035 H 
ATOM     37  H   LIG d   1       5.755  -5.900  -6.055  0.00  0.00     0.028 H 
ATOM     38  H   LIG d   1       5.596  -5.221  -7.686  0.00  0.00     0.028 H 
ENDROOT
BRANCH   1  39
ATOM     39  O   LIG d   1       3.279  -0.222  -4.547  0.00  0.00    -0.450 OA
BRANCH  39  40
ATOM     40  C   LIG d   1       2.911   0.597  -5.545  0.00  0.00     0.308 C 
ATOM     41  O   LIG d   1       2.574   1.731  -5.302  0.00  0.00    -0.251 OA
BRANCH  40  42
ATOM     42  C   LIG d   1       2.917   0.101  -6.968  0.00  0.00     0.045 C 
ATOM     43  H   LIG d   1       3.830  -0.465  -7.151  0.00  0.00     0.038 H 
ATOM     44  H   LIG d   1       2.052  -0.543  -7.132  0.00  0.00     0.038 H 
BRANCH  42  45
ATOM     45  C   LIG d   1       2.854   1.293  -7.924  0.00  0.00    -0.043 C 
ATOM     46  H   LIG d   1       1.956   1.875  -7.721  0.00  0.00     0.027 H 
ATOM     47  H   LIG d   1       3.734   1.920  -7.780  0.00  0.00     0.027 H 
BRANCH  45  48
ATOM     48  C   LIG d   1       2.819   0.788  -9.367  0.00  0.00    -0.053 C 
ATOM     49  H   LIG d   1       3.168  -0.244  -9.400  0.00  0.00     0.026 H 
ATOM     50  H   LIG d   1       1.798   0.838  -9.746  0.00  0.00     0.026 H 
BRANCH  48  51
ATOM     51  C   LIG d   1       3.727   1.660 -10.236  0.00  0.00    -0.056 C 
ATOM     52  H   LIG d   1       4.503   1.041 -10.688  0.00  0.00     0.026 H 
ATOM     53  H   LIG d   1       3.136   2.133 -11.021  0.00  0.00     0.026 H 
BRANCH  51  54
ATOM     54  C   LIG d   1       4.379   2.740  -9.369  0.00  0.00    -0.065 C 
ATOM     55  H   LIG d   1       4.471   2.377  -8.345  0.00  0.00     0.023 H 
ATOM     56  H   LIG d   1       5.369   2.973  -9.761  0.00  0.00     0.023 H 
ATOM     57  H   LIG d   1       3.761   3.638  -9.382  0.00  0.00     0.023 H 
ENDBRANCH  51  54
ENDBRANCH  48  51
ENDBRANCH  45  48
ENDBRANCH  42  45
ENDBRANCH  40  42
ENDBRANCH  39  40
ENDBRANCH   1  39
BRANCH   1  58
ATOM     58  C   LIG d   1       4.837   0.811  -3.005  0.00  0.00     0.174 C 
ATOM     59  O   LIG d   1       5.907   1.341  -2.820  0.00  0.00    -0.293 OA
BRANCH  58  60
ATOM     60  C   LIG d   1       3.670   1.136  -2.108  0.00  0.00    -0.002 C 
ATOM     61  H   LIG d   1       2.932   0.483  -2.273  0.00  0.00     0.031 H 
ATOM     62  H   LIG d   1       3.985   1.071  -1.066  0.00  0.00     0.031 H 
ATOM     63  H   LIG d   1       3.319   2.145  -2.319  0.00  0.00     0.031 H 
ENDBRANCH  58  60
ENDBRANCH   1  58
BRANCH   6  64
ATOM     64  C   LIG d   1       4.874  -1.831  -2.212  0.00  0.00    -0.055 C 
ATOM     65  H   LIG d   1       5.085  -2.874  -1.973  0.00  0.00     0.024 H 
ATOM     66  H   LIG d   1       3.828  -1.615  -2.000  0.00  0.00     0.024 H 
ATOM     67  H   LIG d   1       5.511  -1.185  -1.608  0.00  0.00     0.024 H 
ENDBRANCH   6  64
BRANCH  21  68
ATOM     68  C   LIG d   1       6.073  -3.070  -7.188  0.00  0.00    -0.056 C 
ATOM     69  H   LIG d   1       6.512  -2.965  -8.180  0.00  0.00     0.024 H 
ATOM     70  H   LIG d   1       5.035  -3.391  -7.283  0.00  0.00     0.024 H 
ATOM     71  H   LIG d   1       6.111  -2.111  -6.671  0.00  0.00     0.024 H 
ENDBRANCH  21  68
TORSDOF 11
ENDMDL
MODEL 2
REMARK VINA RESULT:      -6.3      2.968      6.059
REMARK  11 active torsions:
REMARK  status: ('A' for Active; 'I' for Inactive)
REMARK    1  A    between atoms: C_1  and  C_2 
REMARK    2  A    between atoms: C_2  and  C_3 
REMARK    3  A    between atoms: C_3  and  C_4 
REMARK    4  A    between atoms: C_4  and  C_5 
REMARK    5  A    between atoms: C_5  and  C_6 
REMARK    6  A    between atoms: C_6  and  O_8 
REMARK    7  A    between atoms: O_8  and  C_9 
REMARK    8  A    between atoms: C_9  and  C_32 
REMARK    9  A    between atoms: C_14  and  C_31 
REMARK   10  A    between atoms: C_29  and  C_30 
REMARK   11  A    between atoms: C_32  and  C_34 
ROOT
ATOM      1  C   LIG d   1       5.891  -1.296  -6.047  0.00  0.00     0.176 C 
ATOM      2  C   LIG d   1       4.423  -0.840  -6.014  0.00  0.00    -0.005 C 
ATOM      3  C   LIG d   1       4.183  -0.035  -7.308  0.00  0.00    -0.045 C 
ATOM      4  C   LIG d   1       5.431  -0.219  -8.168  0.00  0.00    -0.028 C 
ATOM      5  H   LIG d   1       6.037   0.712  -8.041  0.00  0.00     0.031 H 
ATOM      6  C   LIG d   1       6.258  -1.352  -7.554  0.00  0.00     0.018 C 
ATOM      7  C   LIG d   1       5.809  -2.719  -8.058  0.00  0.00    -0.043 C 
ATOM      8  C   LIG d   1       5.700  -2.809  -9.564  0.00  0.00    -0.049 C 
ATOM      9  C   LIG d   1       4.876  -1.700 -10.203  0.00  0.00    -0.029 C 
ATOM     10  H   LIG d   1       5.267  -1.659 -11.275  0.00  0.00     0.031 H 
ATOM     11  C   LIG d   1       5.191  -0.344  -9.643  0.00  0.00    -0.034 C 
ATOM     12  H   LIG d   1       6.208  -0.096 -10.082  0.00  0.00     0.031 H 
ATOM     13  C   LIG d   1       4.311   0.773 -10.187  0.00  0.00    -0.046 C 
ATOM     14  C   LIG d   1       2.828   0.436 -10.091  0.00  0.00    -0.030 C 
ATOM     15  C   LIG d   1       2.575  -0.902 -10.756  0.00  0.00    -0.060 C 
ATOM     16  C   LIG d   1       1.574  -0.962 -11.641  0.00  0.00    -0.019 C 
ATOM     17  C   LIG d   1       1.310  -2.260 -12.277  0.00  0.00     0.156 C 
ATOM     18  O   LIG d   1       0.195  -2.651 -12.535  0.00  0.00    -0.293 OA
ATOM     19  C   LIG d   1       2.558  -3.067 -12.580  0.00  0.00     0.011 C 
ATOM     20  C   LIG d   1       3.304  -3.293 -11.275  0.00  0.00    -0.037 C 
ATOM     21  C   LIG d   1       3.417  -2.074 -10.373  0.00  0.00    -0.007 C 
ATOM     22  H   LIG d   1       4.242  -0.215  -5.142  0.00  0.00     0.031 H 
ATOM     23  H   LIG d   1       3.759  -1.707  -5.988  0.00  0.00     0.031 H 
ATOM     24  H   LIG d   1       3.288  -0.400  -7.807  0.00  0.00     0.027 H 
ATOM     25  H   LIG d   1       4.042   1.028  -7.062  0.00  0.00     0.027 H 
ATOM     26  H   LIG d   1       6.564  -3.458  -7.730  0.00  0.00     0.027 H 
ATOM     27  H   LIG d   1       4.876  -3.004  -7.575  0.00  0.00     0.027 H 
ATOM     28  H   LIG d   1       6.715  -2.783  -9.995  0.00  0.00     0.027 H 
ATOM     29  H   LIG d   1       5.282  -3.786  -9.843  0.00  0.00     0.027 H 
ATOM     30  H   LIG d   1       4.571   0.954 -11.237  0.00  0.00     0.027 H 
ATOM     31  H   LIG d   1       4.516   1.696  -9.633  0.00  0.00     0.027 H 
ATOM     32  H   LIG d   1       2.250   1.213 -10.617  0.00  0.00     0.031 H 
ATOM     33  H   LIG d   1       2.493   0.429  -9.058  0.00  0.00     0.031 H 
ATOM     34  H   LIG d   1       0.986  -0.094 -11.874  0.00  0.00     0.065 H 
ATOM     35  H   LIG d   1       3.132  -2.565 -13.227  0.00  0.00     0.035 H 
ATOM     36  H   LIG d   1       2.269  -4.031 -13.009  0.00  0.00     0.035 H 
ATOM     37  H   LIG d   1       4.318  -3.633 -11.503  0.00  0.00     0.028 H 
ATOM     38  H   LIG d   1       2.798  -4.077 -10.706  0.00  0.00     0.028 H 
ENDROOT
BRANCH   1  39
ATOM     39  O   LIG d   1       6.022  -2.611  -5.445  0.00  0.00    -0.450 OA
BRANCH  39  40
ATOM     40  C   LIG d   1       5.159  -2.922  -4.465  0.00  0.00     0.308 C 
ATOM     41  O   LIG d   1       4.313  -3.765  -4.650  0.00  0.00    -0.251 OA
BRANCH  40  42
ATOM     42  C   LIG d   1       5.244  -2.219  -3.135  0.00  0.00     0.045 C 
ATOM     43  H   LIG d   1       5.964  -2.734  -2.498  0.00  0.00     0.038 H 
ATOM     44  H   LIG d   1       5.568  -1.190  -3.288  0.00  0.00     0.038 H 
BRANCH  42  45
ATOM     45  C   LIG d   1       3.870  -2.228  -2.464  0.00  0.00    -0.043 C 
ATOM     46  H   LIG d   1       3.242  -2.986  -2.931  0.00  0.00     0.027 H 
ATOM     47  H   LIG d   1       3.985  -2.454  -1.404  0.00  0.00     0.027 H 
BRANCH  45  48
ATOM     48  C   LIG d   1       3.216  -0.855  -2.624  0.00  0.00    -0.053 C 
ATOM     49  H   LIG d   1       2.977  -0.686  -3.675  0.00  0.00     0.026 H 
ATOM     50  H   LIG d   1       2.301  -0.816  -2.034  0.00  0.00     0.026 H 
BRANCH  48  51
ATOM     51  C   LIG d   1       4.180   0.230  -2.141  0.00  0.00    -0.056 C 
ATOM     52  H   LIG d   1       4.139   0.294  -1.053  0.00  0.00     0.026 H 
ATOM     53  H   LIG d   1       5.195  -0.021  -2.451  0.00  0.00     0.026 H 
BRANCH  51  54
ATOM     54  C   LIG d   1       3.779   1.576  -2.747  0.00  0.00    -0.065 C 
ATOM     55  H   LIG d   1       2.915   1.973  -2.213  0.00  0.00     0.023 H 
ATOM     56  H   LIG d   1       4.611   2.276  -2.660  0.00  0.00     0.023 H 
ATOM     57  H   LIG d   1       3.526   1.441  -3.798  0.00  0.00     0.023 H 
ENDBRANCH  51  54
ENDBRANCH  48  51
ENDBRANCH  45  48
ENDBRANCH  42  45
ENDBRANCH  40  42
ENDBRANCH  39  40
ENDBRANCH   1  39
BRANCH   1  58
ATOM     58  C   LIG d   1       6.766  -0.309  -5.327  0.00  0.00     0.174 C 
ATOM     59  O   LIG d   1       6.381   0.822  -5.148  0.00  0.00    -0.293 OA
BRANCH  58  60
ATOM     60  C   LIG d   1       8.125  -0.729  -4.829  0.00  0.00    -0.002 C 
ATOM     61  H   LIG d   1       8.292  -0.320  -3.933  0.00  0.00     0.031 H 
ATOM     62  H   LIG d   1       8.161  -1.815  -4.744  0.00  0.00     0.031 H 
ATOM     63  H   LIG d   1       8.889  -0.394  -5.531  0.00  0.00     0.031 H 
ENDBRANCH  58  60
ENDBRANCH   1  58
BRANCH   6  64
ATOM     64  C   LIG d   1       7.764  -1.137  -7.763  0.00  0.00    -0.055 C 
ATOM     65  H   LIG d   1       8.226  -2.074  -8.073  0.00  0.00     0.024 H 
ATOM     66  H   LIG d   1       8.216  -0.800  -6.831  0.00  0.00     0.024 H 
ATOM     67  H   LIG d   1       7.920  -0.383  -8.536  0.00  0.00     0.024 H 
ENDBRANCH   6  64
BRANCH  21  68
ATOM     68  C   LIG d   1       2.856  -2.560  -9.033  0.00  0.00    -0.056 C 
ATOM     69  H   LIG d   1       2.502  -1.707  -8.456  0.00  0.00     0.024 H 
ATOM     70  H   LIG d   1       2.027  -3.246  -9.212  0.00  0.00     0.024 H 
ATOM     71  H   LIG d   1       3.639  -3.077  -8.476  0.00  0.00     0.024 H 
ENDBRANCH  21  68
TORSDOF 11
ENDMDL
MODEL 3
REMARK VINA RESULT:      -5.9      2.074      4.479
REMARK  11 active torsions:
REMARK  status: ('A' for Active; 'I' for Inactive)
REMARK    1  A    between atoms: C_1  and  C_2 
REMARK    2  A    between atoms: C_2  and  C_3 
REMARK    3  A    between atoms: C_3  and  C_4 
REMARK    4  A    between atoms: C_4  and  C_5 
REMARK    5  A    between atoms: C_5  and  C_6 
REMARK    6  A    between atoms: C_6  and  O_8 
REMARK    7  A    between atoms: O_8  and  C_9 
REMARK    8  A    between atoms: C_9  and  C_32 
REMARK    9  A    between atoms: C_14  and  C_31 
REMARK   10  A    between atoms: C_29  and  C_30 
REMARK   11  A    between atoms: C_32  and  C_34 
ROOT
ATOM      1  C   LIG d   1       4.853  -0.364  -6.876  0.00  0.00     0.176 C 
ATOM      2  C   LIG d   1       4.315  -1.804  -6.866  0.00  0.00    -0.005 C 
ATOM      3  C   LIG d   1       5.437  -2.697  -7.436  0.00  0.00    -0.045 C 
ATOM      4  C   LIG d   1       6.674  -1.810  -7.559  0.00  0.00    -0.028 C 
ATOM      5  H   LIG d   1       6.746  -1.524  -8.637  0.00  0.00     0.031 H 
ATOM      6  C   LIG d   1       6.396  -0.514  -6.792  0.00  0.00     0.018 C 
ATOM      7  C   LIG d   1       6.739  -0.646  -5.313  0.00  0.00    -0.043 C 
ATOM      8  C   LIG d   1       8.119  -1.208  -5.054  0.00  0.00    -0.049 C 
ATOM      9  C   LIG d   1       8.421  -2.502  -5.795  0.00  0.00    -0.029 C 
ATOM     10  H   LIG d   1       9.561  -2.518  -5.852  0.00  0.00     0.031 H 
ATOM     11  C   LIG d   1       7.981  -2.467  -7.230  0.00  0.00    -0.034 C 
ATOM     12  H   LIG d   1       8.735  -1.784  -7.732  0.00  0.00     0.031 H 
ATOM     13  C   LIG d   1       8.174  -3.783  -7.972  0.00  0.00    -0.046 C 
ATOM     14  C   LIG d   1       7.585  -4.965  -7.212  0.00  0.00    -0.030 C 
ATOM     15  C   LIG d   1       8.144  -4.984  -5.803  0.00  0.00    -0.060 C 
ATOM     16  C   LIG d   1       8.637  -6.146  -5.360  0.00  0.00    -0.019 C 
ATOM     17  C   LIG d   1       9.166  -6.179  -3.990  0.00  0.00     0.156 C 
ATOM     18  O   LIG d   1       9.035  -7.131  -3.258  0.00  0.00    -0.293 OA
ATOM     19  C   LIG d   1       9.888  -4.911  -3.574  0.00  0.00     0.011 C 
ATOM     20  C   LIG d   1       8.919  -3.748  -3.708  0.00  0.00    -0.037 C 
ATOM     21  C   LIG d   1       8.090  -3.738  -4.982  0.00  0.00    -0.007 C 
ATOM     22  H   LIG d   1       3.424  -1.878  -7.486  0.00  0.00     0.031 H 
ATOM     23  H   LIG d   1       4.078  -2.112  -5.846  0.00  0.00     0.031 H 
ATOM     24  H   LIG d   1       5.608  -3.541  -6.772  0.00  0.00     0.027 H 
ATOM     25  H   LIG d   1       5.141  -3.078  -8.425  0.00  0.00     0.027 H 
ATOM     26  H   LIG d   1       6.699   0.368  -4.871  0.00  0.00     0.027 H 
ATOM     27  H   LIG d   1       5.971  -1.228  -4.805  0.00  0.00     0.027 H 
ATOM     28  H   LIG d   1       8.869  -0.454  -5.345  0.00  0.00     0.027 H 
ATOM     29  H   LIG d   1       8.254  -1.362  -3.974  0.00  0.00     0.027 H 
ATOM     30  H   LIG d   1       9.247  -3.953  -8.123  0.00  0.00     0.027 H 
ATOM     31  H   LIG d   1       7.709  -3.711  -8.961  0.00  0.00     0.027 H 
ATOM     32  H   LIG d   1       7.870  -5.898  -7.724  0.00  0.00     0.031 H 
ATOM     33  H   LIG d   1       6.499  -4.922  -7.200  0.00  0.00     0.031 H 
ATOM     34  H   LIG d   1       8.642  -7.020  -5.984  0.00  0.00     0.065 H 
ATOM     35  H   LIG d   1      10.684  -4.772  -4.164  0.00  0.00     0.035 H 
ATOM     36  H   LIG d   1      10.208  -5.004  -2.532  0.00  0.00     0.035 H 
ATOM     37  H   LIG d   1       9.484  -2.812  -3.671  0.00  0.00     0.028 H 
ATOM     38  H   LIG d   1       8.224  -3.763  -2.865  0.00  0.00     0.028 H 
ENDROOT
BRANCH   1  39
ATOM     39  O   LIG d   1       4.353   0.366  -5.724  0.00  0.00    -0.450 OA
BRANCH  39  40
ATOM     40  C   LIG d   1       3.222  -0.086  -5.160  0.00  0.00     0.308 C 
ATOM     41  O   LIG d   1       2.160   0.407  -5.457  0.00  0.00    -0.251 OA
BRANCH  40  42
ATOM     42  C   LIG d   1       3.277  -1.208  -4.156  0.00  0.00     0.045 C 
ATOM     43  H   LIG d   1       2.530  -1.960  -4.411  0.00  0.00     0.038 H 
ATOM     44  H   LIG d   1       4.268  -1.662  -4.172  0.00  0.00     0.038 H 
BRANCH  42  45
ATOM     45  C   LIG d   1       2.991  -0.657  -2.758  0.00  0.00    -0.043 C 
ATOM     46  H   LIG d   1       2.589   0.352  -2.841  0.00  0.00     0.027 H 
ATOM     47  H   LIG d   1       2.265  -1.297  -2.257  0.00  0.00     0.027 H 
BRANCH  45  48
ATOM     48  C   LIG d   1       4.288  -0.625  -1.948  0.00  0.00    -0.053 C 
ATOM     49  H   LIG d   1       4.160  -1.204  -1.033  0.00  0.00     0.026 H 
ATOM     50  H   LIG d   1       5.097  -1.054  -2.539  0.00  0.00     0.026 H 
BRANCH  48  51
ATOM     51  C   LIG d   1       4.631   0.823  -1.590  0.00  0.00    -0.056 C 
ATOM     52  H   LIG d   1       3.711   1.400  -1.491  0.00  0.00     0.026 H 
ATOM     53  H   LIG d   1       5.177   0.845  -0.647  0.00  0.00     0.026 H 
BRANCH  51  54
ATOM     54  C   LIG d   1       5.496   1.430  -2.695  0.00  0.00    -0.065 C 
ATOM     55  H   LIG d   1       4.970   2.269  -3.151  0.00  0.00     0.023 H 
ATOM     56  H   LIG d   1       6.437   1.781  -2.269  0.00  0.00     0.023 H 
ATOM     57  H   LIG d   1       5.701   0.675  -3.454  0.00  0.00     0.023 H 
ENDBRANCH  51  54
ENDBRANCH  48  51
ENDBRANCH  45  48
ENDBRANCH  42  45
ENDBRANCH  40  42
ENDBRANCH  39  40
ENDBRANCH   1  39
BRANCH   1  58
ATOM     58  C   LIG d   1       4.459   0.338  -8.145  0.00  0.00     0.174 C 
ATOM     59  O   LIG d   1       4.378   1.543  -8.169  0.00  0.00    -0.293 OA
BRANCH  58  60
ATOM     60  C   LIG d   1       4.165  -0.462  -9.388  0.00  0.00    -0.002 C 
ATOM     61  H   LIG d   1       3.209  -0.332  -9.649  0.00  0.00     0.031 H 
ATOM     62  H   LIG d   1       4.811  -0.123 -10.199  0.00  0.00     0.031 H 
ATOM     63  H   LIG d   1       4.351  -1.517  -9.194  0.00  0.00     0.031 H 
ENDBRANCH  58  60
ENDBRANCH   1  58
BRANCH   6  64
ATOM     64  C   LIG d   1       7.102   0.691  -7.433  0.00  0.00    -0.055 C 
ATOM     65  H   LIG d   1       7.288   0.484  -8.488  0.00  0.00     0.024 H 
ATOM     66  H   LIG d   1       8.049   0.869  -6.927  0.00  0.00     0.024 H 
ATOM     67  H   LIG d   1       6.468   1.573  -7.343  0.00  0.00     0.024 H 
ENDBRANCH   6  64
BRANCH  21  68
ATOM     68  C   LIG d   1       6.647  -3.644  -4.477  0.00  0.00    -0.056 C 
ATOM     69  H   LIG d   1       6.437  -4.485  -3.818  0.00  0.00     0.024 H 
ATOM     70  H   LIG d   1       6.514  -2.711  -3.929  0.00  0.00     0.024 H 
ATOM     71  H   LIG d   1       5.962  -3.667  -5.325  0.00  0.00     0.024 H 
ENDBRANCH  21  68
TORSDOF 11
ENDMDL
MODEL 4
REMARK VINA RESULT:      -5.8      2.590      5.986
REMARK  11 active torsions:
REMARK  status: ('A' for Active; 'I' for Inactive)
REMARK    1  A    between atoms: C_1  and  C_2 
REMARK    2  A    between atoms: C_2  and  C_3 
REMARK    3  A    between atoms: C_3  and  C_4 
REMARK    4  A    between atoms: C_4  and  C_5 
REMARK    5  A    between atoms: C_5  and  C_6 
REMARK    6  A    between atoms: C_6  and  O_8 
REMARK    7  A    between atoms: O_8  and  C_9 
REMARK    8  A    between atoms: C_9  and  C_32 
REMARK    9  A    between atoms: C_14  and  C_31 
REMARK   10  A    between atoms: C_29  and  C_30 
REMARK   11  A    between atoms: C_32  and  C_34 
ROOT
ATOM      1  C   LIG d   1       4.714  -2.920  -9.687  0.00  0.00     0.176 C 
ATOM      2  C   LIG d   1       3.549  -3.144  -8.707  0.00  0.00    -0.005 C 
ATOM      3  C   LIG d   1       4.171  -3.665  -7.395  0.00  0.00    -0.045 C 
ATOM      4  C   LIG d   1       5.684  -3.528  -7.551  0.00  0.00    -0.028 C 
ATOM      5  H   LIG d   1       6.065  -4.549  -7.802  0.00  0.00     0.031 H 
ATOM      6  C   LIG d   1       5.949  -2.659  -8.784  0.00  0.00     0.018 C 
ATOM      7  C   LIG d   1       5.932  -1.174  -8.444  0.00  0.00    -0.043 C 
ATOM      8  C   LIG d   1       6.798  -0.808  -7.260  0.00  0.00    -0.049 C 
ATOM      9  C   LIG d   1       6.551  -1.649  -6.016  0.00  0.00    -0.029 C 
ATOM     10  H   LIG d   1       7.530  -1.562  -5.435  0.00  0.00     0.031 H 
ATOM     11  C   LIG d   1       6.430  -3.114  -6.318  0.00  0.00    -0.034 C 
ATOM     12  H   LIG d   1       7.493  -3.435  -6.551  0.00  0.00     0.031 H 
ATOM     13  C   LIG d   1       6.079  -3.971  -5.110  0.00  0.00    -0.046 C 
ATOM     14  C   LIG d   1       4.871  -3.433  -4.352  0.00  0.00    -0.030 C 
ATOM     15  C   LIG d   1       5.107  -1.976  -4.005  0.00  0.00    -0.060 C 
ATOM     16  C   LIG d   1       4.889  -1.611  -2.737  0.00  0.00    -0.019 C 
ATOM     17  C   LIG d   1       5.098  -0.197  -2.394  0.00  0.00     0.156 C 
ATOM     18  O   LIG d   1       4.400   0.398  -1.608  0.00  0.00    -0.293 OA
ATOM     19  C   LIG d   1       6.266   0.449  -3.116  0.00  0.00     0.011 C 
ATOM     20  C   LIG d   1       6.023   0.328  -4.612  0.00  0.00    -0.037 C 
ATOM     21  C   LIG d   1       5.530  -1.032  -5.080  0.00  0.00    -0.007 C 
ATOM     22  H   LIG d   1       2.853  -3.876  -9.111  0.00  0.00     0.031 H 
ATOM     23  H   LIG d   1       3.026  -2.204  -8.521  0.00  0.00     0.031 H 
ATOM     24  H   LIG d   1       3.796  -3.086  -6.555  0.00  0.00     0.027 H 
ATOM     25  H   LIG d   1       3.897  -4.721  -7.249  0.00  0.00     0.027 H 
ATOM     26  H   LIG d   1       6.318  -0.627  -9.326  0.00  0.00     0.027 H 
ATOM     27  H   LIG d   1       4.906  -0.837  -8.305  0.00  0.00     0.027 H 
ATOM     28  H   LIG d   1       7.857  -0.913  -7.549  0.00  0.00     0.027 H 
ATOM     29  H   LIG d   1       6.660   0.255  -7.019  0.00  0.00     0.027 H 
ATOM     30  H   LIG d   1       6.942  -4.004  -4.433  0.00  0.00     0.027 H 
ATOM     31  H   LIG d   1       5.880  -4.997  -5.440  0.00  0.00     0.027 H 
ATOM     32  H   LIG d   1       4.747  -4.009  -3.421  0.00  0.00     0.031 H 
ATOM     33  H   LIG d   1       3.960  -3.554  -4.930  0.00  0.00     0.031 H 
ATOM     34  H   LIG d   1       4.572  -2.325  -2.000  0.00  0.00     0.065 H 
ATOM     35  H   LIG d   1       7.114  -0.015  -2.862  0.00  0.00     0.035 H 
ATOM     36  H   LIG d   1       6.321   1.505  -2.838  0.00  0.00     0.035 H 
ATOM     37  H   LIG d   1       6.957   0.543  -5.139  0.00  0.00     0.028 H 
ATOM     38  H   LIG d   1       5.279   1.069  -4.914  0.00  0.00     0.028 H 
ENDROOT
BRANCH   1  39
ATOM     39  O   LIG d   1       4.448  -1.765 -10.526  0.00  0.00    -0.450 OA
BRANCH  39  40
ATOM     40  C   LIG d   1       3.160  -1.470 -10.768  0.00  0.00     0.308 C 
ATOM     41  O   LIG d   1       2.416  -2.320 -11.196  0.00  0.00    -0.251 OA
BRANCH  40  42
ATOM     42  C   LIG d   1       2.644  -0.079 -10.505  0.00  0.00     0.045 C 
ATOM     43  H   LIG d   1       3.360   0.651 -10.882  0.00  0.00     0.038 H 
ATOM     44  H   LIG d   1       1.688   0.055 -11.013  0.00  0.00     0.038 H 
BRANCH  42  45
ATOM     45  C   LIG d   1       2.455   0.119  -9.001  0.00  0.00    -0.043 C 
ATOM     46  H   LIG d   1       1.423  -0.102  -8.732  0.00  0.00     0.027 H 
ATOM     47  H   LIG d   1       3.123  -0.550  -8.460  0.00  0.00     0.027 H 
BRANCH  45  48
ATOM     48  C   LIG d   1       2.778   1.569  -8.633  0.00  0.00    -0.053 C 
ATOM     49  H   LIG d   1       1.851   2.137  -8.548  0.00  0.00     0.026 H 
ATOM     50  H   LIG d   1       3.308   1.594  -7.681  0.00  0.00     0.026 H 
BRANCH  48  51
ATOM     51  C   LIG d   1       3.656   2.188  -9.722  0.00  0.00    -0.056 C 
ATOM     52  H   LIG d   1       3.674   1.531 -10.592  0.00  0.00     0.026 H 
ATOM     53  H   LIG d   1       3.250   3.159 -10.008  0.00  0.00     0.026 H 
BRANCH  51  54
ATOM     54  C   LIG d   1       5.079   2.368  -9.189  0.00  0.00    -0.065 C 
ATOM     55  H   LIG d   1       5.634   3.033  -9.850  0.00  0.00     0.023 H 
ATOM     56  H   LIG d   1       5.040   2.799  -8.188  0.00  0.00     0.023 H 
ATOM     57  H   LIG d   1       5.577   1.399  -9.148  0.00  0.00     0.023 H 
ENDBRANCH  51  54
ENDBRANCH  48  51
ENDBRANCH  45  48
ENDBRANCH  42  45
ENDBRANCH  40  42
ENDBRANCH  39  40
ENDBRANCH   1  39
BRANCH   1  58
ATOM     58  C   LIG d   1       4.929  -4.139 -10.538  0.00  0.00     0.174 C 
ATOM     59  O   LIG d   1       4.657  -5.234 -10.105  0.00  0.00    -0.293 OA
BRANCH  58  60
ATOM     60  C   LIG d   1       5.485  -3.998 -11.932  0.00  0.00    -0.002 C 
ATOM     61  H   LIG d   1       5.570  -3.028 -12.159  0.00  0.00     0.031 H 
ATOM     62  H   LIG d   1       6.467  -4.469 -11.981  0.00  0.00     0.031 H 
ATOM     63  H   LIG d   1       4.814  -4.481 -12.641  0.00  0.00     0.031 H 
ENDBRANCH  58  60
ENDBRANCH   1  58
BRANCH   6  64
ATOM     64  C   LIG d   1       7.248  -3.064  -9.498  0.00  0.00    -0.055 C 
ATOM     65  H   LIG d   1       7.742  -3.854  -8.934  0.00  0.00     0.024 H 
ATOM     66  H   LIG d   1       7.908  -2.201  -9.569  0.00  0.00     0.024 H 
ATOM     67  H   LIG d   1       7.014  -3.426 -10.500  0.00  0.00     0.024 H 
ENDBRANCH   6  64
BRANCH  21  68
ATOM     68  C   LIG d   1       4.254  -0.706  -5.864  0.00  0.00    -0.056 C 
ATOM     69  H   LIG d   1       3.417  -0.613  -5.173  0.00  0.00     0.024 H 
ATOM     70  H   LIG d   1       4.387   0.234  -6.400  0.00  0.00     0.024 H 
ATOM     71  H   LIG d   1       4.050  -1.505  -6.577  0.00  0.00     0.024 H 
ENDBRANCH  21  68
TORSDOF 11
ENDMDL
MODEL 5
REMARK VINA RESULT:      -5.7      6.710      9.954
REMARK  11 active torsions:
REMARK  status: ('A' for Active; 'I' for Inactive)
REMARK    1  A    between atoms: C_1  and  C_2 
REMARK    2  A    between atoms: C_2  and  C_3 
REMARK    3  A    between atoms: C_3  and  C_4 
REMARK    4  A    between atoms: C_4  and  C_5 
REMARK    5  A    between atoms: C_5  and  C_6 
REMARK    6  A    between atoms: C_6  and  O_8 
REMARK    7  A    between atoms: O_8  and  C_9 
REMARK    8  A    between atoms: C_9  and  C_32 
REMARK    9  A    between atoms: C_14  and  C_31 
REMARK   10  A    between atoms: C_29  and  C_30 
REMARK   11  A    between atoms: C_32  and  C_34 
ROOT
ATOM      1  C   LIG d   1       9.988   2.884  -5.957  0.00  0.00     0.176 C 
ATOM      2  C   LIG d   1      10.712   2.247  -4.759  0.00  0.00    -0.005 C 
ATOM      3  C   LIG d   1      11.856   3.207  -4.374  0.00  0.00    -0.045 C 
ATOM      4  C   LIG d   1      11.649   4.477  -5.197  0.00  0.00    -0.028 C 
ATOM      5  H   LIG d   1      12.371   4.417  -6.049  0.00  0.00     0.031 H 
ATOM      6  C   LIG d   1      10.251   4.408  -5.817  0.00  0.00     0.018 C 
ATOM      7  C   LIG d   1       9.184   4.946  -4.871  0.00  0.00    -0.043 C 
ATOM      8  C   LIG d   1       9.512   6.303  -4.289  0.00  0.00    -0.049 C 
ATOM      9  C   LIG d   1      10.893   6.400  -3.657  0.00  0.00    -0.029 C 
ATOM     10  H   LIG d   1      11.129   7.516  -3.699  0.00  0.00     0.031 H 
ATOM     11  C   LIG d   1      11.963   5.764  -4.496  0.00  0.00    -0.034 C 
ATOM     12  H   LIG d   1      12.102   6.489  -5.358  0.00  0.00     0.031 H 
ATOM     13  C   LIG d   1      13.339   5.752  -3.844  0.00  0.00    -0.046 C 
ATOM     14  C   LIG d   1      13.301   5.190  -2.429  0.00  0.00    -0.030 C 
ATOM     15  C   LIG d   1      12.262   5.940  -1.619  0.00  0.00    -0.060 C 
ATOM     16  C   LIG d   1      12.641   6.402  -0.423  0.00  0.00    -0.019 C 
ATOM     17  C   LIG d   1      11.635   7.117   0.376  0.00  0.00     0.156 C 
ATOM     18  O   LIG d   1      11.563   7.020   1.579  0.00  0.00    -0.293 OA
ATOM     19  C   LIG d   1      10.696   7.983  -0.441  0.00  0.00     0.011 C 
ATOM     20  C   LIG d   1       9.991   7.095  -1.452  0.00  0.00    -0.037 C 
ATOM     21  C   LIG d   1      10.884   6.096  -2.172  0.00  0.00    -0.007 C 
ATOM     22  H   LIG d   1      11.113   1.274  -5.035  0.00  0.00     0.031 H 
ATOM     23  H   LIG d   1      10.023   2.135  -3.919  0.00  0.00     0.031 H 
ATOM     24  H   LIG d   1      11.825   3.407  -3.306  0.00  0.00     0.027 H 
ATOM     25  H   LIG d   1      12.824   2.747  -4.620  0.00  0.00     0.027 H 
ATOM     26  H   LIG d   1       8.246   5.045  -5.450  0.00  0.00     0.027 H 
ATOM     27  H   LIG d   1       8.981   4.217  -4.088  0.00  0.00     0.027 H 
ATOM     28  H   LIG d   1       9.440   7.059  -5.089  0.00  0.00     0.027 H 
ATOM     29  H   LIG d   1       8.748   6.578  -3.549  0.00  0.00     0.027 H 
ATOM     30  H   LIG d   1      13.728   6.777  -3.813  0.00  0.00     0.027 H 
ATOM     31  H   LIG d   1      14.024   5.158  -4.459  0.00  0.00     0.027 H 
ATOM     32  H   LIG d   1      14.289   5.329  -1.962  0.00  0.00     0.031 H 
ATOM     33  H   LIG d   1      13.095   4.123  -2.435  0.00  0.00     0.031 H 
ATOM     34  H   LIG d   1      13.642   6.254  -0.062  0.00  0.00     0.065 H 
ATOM     35  H   LIG d   1      11.220   8.696  -0.908  0.00  0.00     0.035 H 
ATOM     36  H   LIG d   1       9.958   8.440   0.224  0.00  0.00     0.035 H 
ATOM     37  H   LIG d   1       9.521   7.727  -2.210  0.00  0.00     0.028 H 
ATOM     38  H   LIG d   1       9.208   6.527  -0.944  0.00  0.00     0.028 H 
ENDROOT
BRANCH   1  39
ATOM     39  O   LIG d   1       8.564   2.608  -5.888  0.00  0.00    -0.450 OA
BRANCH  39  40
ATOM     40  C   LIG d   1       8.184   1.544  -5.164  0.00  0.00     0.308 C 
ATOM     41  O   LIG d   1       8.281   0.432  -5.628  0.00  0.00    -0.251 OA
BRANCH  40  42
ATOM     42  C   LIG d   1       7.636   1.734  -3.774  0.00  0.00     0.045 C 
ATOM     43  H   LIG d   1       8.435   1.597  -3.047  0.00  0.00     0.038 H 
ATOM     44  H   LIG d   1       7.228   2.741  -3.679  0.00  0.00     0.038 H 
BRANCH  42  45
ATOM     45  C   LIG d   1       6.529   0.710  -3.517  0.00  0.00    -0.043 C 
ATOM     46  H   LIG d   1       6.138   0.352  -4.468  0.00  0.00     0.027 H 
ATOM     47  H   LIG d   1       6.935  -0.128  -2.952  0.00  0.00     0.027 H 
BRANCH  45  48
ATOM     48  C   LIG d   1       5.402   1.367  -2.718  0.00  0.00    -0.053 C 
ATOM     49  H   LIG d   1       5.824   2.100  -2.029  0.00  0.00     0.026 H 
ATOM     50  H   LIG d   1       4.714   1.865  -3.400  0.00  0.00     0.026 H 
BRANCH  48  51
ATOM     51  C   LIG d   1       4.649   0.298  -1.924  0.00  0.00    -0.056 C 
ATOM     52  H   LIG d   1       5.267  -0.598  -1.844  0.00  0.00     0.026 H 
ATOM     53  H   LIG d   1       4.425   0.675  -0.926  0.00  0.00     0.026 H 
BRANCH  51  54
ATOM     54  C   LIG d   1       3.344  -0.047  -2.643  0.00  0.00    -0.065 C 
ATOM     55  H   LIG d   1       3.300   0.487  -3.593  0.00  0.00     0.023 H 
ATOM     56  H   LIG d   1       3.303  -1.120  -2.828  0.00  0.00     0.023 H 
ATOM     57  H   LIG d   1       2.498   0.248  -2.022  0.00  0.00     0.023 H 
ENDBRANCH  51  54
ENDBRANCH  48  51
ENDBRANCH  45  48
ENDBRANCH  42  45
ENDBRANCH  40  42
ENDBRANCH  39  40
ENDBRANCH   1  39
BRANCH   1  58
ATOM     58  C   LIG d   1      10.554   2.368  -7.250  0.00  0.00     0.174 C 
ATOM     59  O   LIG d   1      11.726   2.087  -7.328  0.00  0.00    -0.293 OA
BRANCH  58  60
ATOM     60  C   LIG d   1       9.658   2.201  -8.451  0.00  0.00    -0.002 C 
ATOM     61  H   LIG d   1       9.091   1.386  -8.332  0.00  0.00     0.031 H 
ATOM     62  H   LIG d   1       9.018   3.077  -8.552  0.00  0.00     0.031 H 
ATOM     63  H   LIG d   1      10.269   2.093  -9.347  0.00  0.00     0.031 H 
ENDBRANCH  58  60
ENDBRANCH   1  58
BRANCH   6  64
ATOM     64  C   LIG d   1      10.199   5.104  -7.186  0.00  0.00    -0.055 C 
ATOM     65  H   LIG d   1       9.265   4.851  -7.687  0.00  0.00     0.024 H 
ATOM     66  H   LIG d   1      11.039   4.771  -7.795  0.00  0.00     0.024 H 
ATOM     67  H   LIG d   1      10.255   6.184  -7.047  0.00  0.00     0.024 H 
ENDBRANCH   6  64
BRANCH  21  68
ATOM     68  C   LIG d   1      10.193   4.750  -1.932  0.00  0.00    -0.056 C 
ATOM     69  H   LIG d   1      10.835   3.944  -2.284  0.00  0.00     0.024 H 
ATOM     70  H   LIG d   1      10.004   4.623  -0.866  0.00  0.00     0.024 H 
ATOM     71  H   LIG d   1       9.247   4.725  -2.473  0.00  0.00     0.024 H 
ENDBRANCH  21  68
TORSDOF 11
ENDMDL
MODEL 6
REMARK VINA RESULT:      -5.7      2.500      5.093
REMARK  11 active torsions:
REMARK  status: ('A' for Active; 'I' for Inactive)
REMARK    1  A    between atoms: C_1  and  C_2 
REMARK    2  A    between atoms: C_2  and  C_3 
REMARK    3  A    between atoms: C_3  and  C_4 
REMARK    4  A    between atoms: C_4  and  C_5 
REMARK    5  A    between atoms: C_5  and  C_6 
REMARK    6  A    between atoms: C_6  and  O_8 
REMARK    7  A    between atoms: O_8  and  C_9 
REMARK    8  A    between atoms: C_9  and  C_32 
REMARK    9  A    between atoms: C_14  and  C_31 
REMARK   10  A    between atoms: C_29  and  C_30 
REMARK   11  A    between atoms: C_32  and  C_34 
ROOT
ATOM      1  C   LIG d   1       4.552  -0.485  -8.255  0.00  0.00     0.176 C 
ATOM      2  C   LIG d   1       3.293  -1.369  -8.264  0.00  0.00    -0.005 C 
ATOM      3  C   LIG d   1       3.685  -2.687  -8.963  0.00  0.00    -0.045 C 
ATOM      4  C   LIG d   1       5.200  -2.642  -9.149  0.00  0.00    -0.028 C 
ATOM      5  H   LIG d   1       5.374  -2.358 -10.216  0.00  0.00     0.031 H 
ATOM      6  C   LIG d   1       5.740  -1.484  -8.306  0.00  0.00     0.018 C 
ATOM      7  C   LIG d   1       6.011  -1.908  -6.868  0.00  0.00    -0.043 C 
ATOM      8  C   LIG d   1       6.839  -3.167  -6.748  0.00  0.00    -0.049 C 
ATOM      9  C   LIG d   1       6.322  -4.341  -7.568  0.00  0.00    -0.029 C 
ATOM     10  H   LIG d   1       7.248  -4.991  -7.720  0.00  0.00     0.031 H 
ATOM     11  C   LIG d   1       5.917  -3.945  -8.959  0.00  0.00    -0.034 C 
ATOM     12  H   LIG d   1       6.903  -3.767  -9.491  0.00  0.00     0.031 H 
ATOM     13  C   LIG d   1       5.297  -5.075  -9.771  0.00  0.00    -0.046 C 
ATOM     14  C   LIG d   1       4.176  -5.779  -9.017  0.00  0.00    -0.030 C 
ATOM     15  C   LIG d   1       4.687  -6.226  -7.662  0.00  0.00    -0.060 C 
ATOM     16  C   LIG d   1       4.452  -7.496  -7.312  0.00  0.00    -0.019 C 
ATOM     17  C   LIG d   1       4.929  -7.934  -5.993  0.00  0.00     0.156 C 
ATOM     18  O   LIG d   1       4.312  -8.704  -5.295  0.00  0.00    -0.293 OA
ATOM     19  C   LIG d   1       6.260  -7.332  -5.584  0.00  0.00     0.011 C 
ATOM     20  C   LIG d   1       6.116  -5.819  -5.586  0.00  0.00    -0.037 C 
ATOM     21  C   LIG d   1       5.384  -5.239  -6.786  0.00  0.00    -0.007 C 
ATOM     22  H   LIG d   1       2.492  -0.876  -8.811  0.00  0.00     0.031 H 
ATOM     23  H   LIG d   1       2.968  -1.573  -7.242  0.00  0.00     0.031 H 
ATOM     24  H   LIG d   1       3.376  -3.532  -8.353  0.00  0.00     0.027 H 
ATOM     25  H   LIG d   1       3.182  -2.752  -9.940  0.00  0.00     0.027 H 
ATOM     26  H   LIG d   1       6.573  -1.088  -6.380  0.00  0.00     0.027 H 
ATOM     27  H   LIG d   1       5.072  -1.996  -6.324  0.00  0.00     0.027 H 
ATOM     28  H   LIG d   1       7.871  -2.945  -7.067  0.00  0.00     0.027 H 
ATOM     29  H   LIG d   1       6.911  -3.460  -5.692  0.00  0.00     0.027 H 
ATOM     30  H   LIG d   1       6.078  -5.806 -10.018  0.00  0.00     0.027 H 
ATOM     31  H   LIG d   1       4.912  -4.672 -10.714  0.00  0.00     0.027 H 
ATOM     32  H   LIG d   1       3.859  -6.664  -9.591  0.00  0.00     0.031 H 
ATOM     33  H   LIG d   1       3.308  -5.134  -8.913  0.00  0.00     0.031 H 
ATOM     34  H   LIG d   1       3.933  -8.166  -7.972  0.00  0.00     0.065 H 
ATOM     35  H   LIG d   1       6.968  -7.616  -6.230  0.00  0.00     0.035 H 
ATOM     36  H   LIG d   1       6.515  -7.675  -4.577  0.00  0.00     0.035 H 
ATOM     37  H   LIG d   1       7.113  -5.370  -5.555  0.00  0.00     0.028 H 
ATOM     38  H   LIG d   1       5.572  -5.510  -4.690  0.00  0.00     0.028 H 
ENDROOT
BRANCH   1  39
ATOM     39  O   LIG d   1       4.605   0.301  -7.036  0.00  0.00    -0.450 OA
BRANCH  39  40
ATOM     40  C   LIG d   1       3.431   0.656  -6.488  0.00  0.00     0.308 C 
ATOM     41  O   LIG d   1       2.764   1.524  -6.999  0.00  0.00    -0.251 OA
BRANCH  40  42
ATOM     42  C   LIG d   1       2.946  -0.028  -5.236  0.00  0.00     0.045 C 
ATOM     43  H   LIG d   1       1.938  -0.408  -5.398  0.00  0.00     0.038 H 
ATOM     44  H   LIG d   1       3.612  -0.857  -4.994  0.00  0.00     0.038 H 
BRANCH  42  45
ATOM     45  C   LIG d   1       2.937   0.972  -4.079  0.00  0.00    -0.043 C 
ATOM     46  H   LIG d   1       3.657   1.765  -4.278  0.00  0.00     0.027 H 
ATOM     47  H   LIG d   1       1.940   1.402  -3.980  0.00  0.00     0.027 H 
BRANCH  45  48
ATOM     48  C   LIG d   1       3.314   0.254  -2.782  0.00  0.00    -0.053 C 
ATOM     49  H   LIG d   1       4.391   0.324  -2.627  0.00  0.00     0.026 H 
ATOM     50  H   LIG d   1       2.796   0.721  -1.944  0.00  0.00     0.026 H 
BRANCH  48  51
ATOM     51  C   LIG d   1       2.907  -1.217  -2.875  0.00  0.00    -0.056 C 
ATOM     52  H   LIG d   1       1.981  -1.374  -2.322  0.00  0.00     0.026 H 
ATOM     53  H   LIG d   1       2.756  -1.487  -3.921  0.00  0.00     0.026 H 
BRANCH  51  54
ATOM     54  C   LIG d   1       4.012  -2.091  -2.278  0.00  0.00    -0.065 C 
ATOM     55  H   LIG d   1       4.724  -2.360  -3.058  0.00  0.00     0.023 H 
ATOM     56  H   LIG d   1       4.527  -1.539  -1.492  0.00  0.00     0.023 H 
ATOM     57  H   LIG d   1       3.573  -2.996  -1.859  0.00  0.00     0.023 H 
ENDBRANCH  51  54
ENDBRANCH  48  51
ENDBRANCH  45  48
ENDBRANCH  42  45
ENDBRANCH  40  42
ENDBRANCH  39  40
ENDBRANCH   1  39
BRANCH   1  58
ATOM     58  C   LIG d   1       4.571   0.419  -9.455  0.00  0.00     0.174 C 
ATOM     59  O   LIG d   1       4.023   0.079 -10.477  0.00  0.00    -0.293 OA
BRANCH  58  60
ATOM     60  C   LIG d   1       5.273   1.751  -9.385  0.00  0.00    -0.002 C 
ATOM     61  H   LIG d   1       6.101   1.662  -8.833  0.00  0.00     0.031 H 
ATOM     62  H   LIG d   1       5.541   2.074 -10.391  0.00  0.00     0.031 H 
ATOM     63  H   LIG d   1       4.610   2.488  -8.932  0.00  0.00     0.031 H 
ENDBRANCH  58  60
ENDBRANCH   1  58
BRANCH   6  64
ATOM     64  C   LIG d   1       6.975  -0.837  -8.951  0.00  0.00    -0.055 C 
ATOM     65  H   LIG d   1       7.264   0.045  -8.379  0.00  0.00     0.024 H 
ATOM     66  H   LIG d   1       6.741  -0.545  -9.974  0.00  0.00     0.024 H 
ATOM     67  H   LIG d   1       7.799  -1.552  -8.955  0.00  0.00     0.024 H 
ENDBRANCH   6  64
BRANCH  21  68
ATOM     68  C   LIG d   1       4.273  -4.391  -6.159  0.00  0.00    -0.056 C 
ATOM     69  H   LIG d   1       3.823  -4.936  -5.330  0.00  0.00     0.024 H 
ATOM     70  H   LIG d   1       4.693  -3.454  -5.792  0.00  0.00     0.024 H 
ATOM     71  H   LIG d   1       3.510  -4.178  -6.909  0.00  0.00     0.024 H 
ENDBRANCH  21  68
TORSDOF 11
ENDMDL
MODEL 7
REMARK VINA RESULT:      -5.6      2.336      3.237
REMARK  11 active torsions:
REMARK  status: ('A' for Active; 'I' for Inactive)
REMARK    1  A    between atoms: C_1  and  C_2 
REMARK    2  A    between atoms: C_2  and  C_3 
REMARK    3  A    between atoms: C_3  and  C_4 
REMARK    4  A    between atoms: C_4  and  C_5 
REMARK    5  A    between atoms: C_5  and  C_6 
REMARK    6  A    between atoms: C_6  and  O_8 
REMARK    7  A    between atoms: O_8  and  C_9 
REMARK    8  A    between atoms: C_9  and  C_32 
REMARK    9  A    between atoms: C_14  and  C_31 
REMARK   10  A    between atoms: C_29  and  C_30 
REMARK   11  A    between atoms: C_32  and  C_34 
ROOT
ATOM      1  C   LIG d   1       7.700   0.705  -5.879  0.00  0.00     0.176 C 
ATOM      2  C   LIG d   1       8.613  -0.286  -6.622  0.00  0.00    -0.005 C 
ATOM      3  C   LIG d   1       8.862  -1.463  -5.656  0.00  0.00    -0.045 C 
ATOM      4  C   LIG d   1       7.927  -1.251  -4.468  0.00  0.00    -0.028 C 
ATOM      5  H   LIG d   1       8.555  -0.821  -3.650  0.00  0.00     0.031 H 
ATOM      6  C   LIG d   1       6.923  -0.161  -4.853  0.00  0.00     0.018 C 
ATOM      7  C   LIG d   1       5.720  -0.734  -5.593  0.00  0.00    -0.043 C 
ATOM      8  C   LIG d   1       5.080  -1.914  -4.896  0.00  0.00    -0.049 C 
ATOM      9  C   LIG d   1       6.053  -3.020  -4.510  0.00  0.00    -0.029 C 
ATOM     10  H   LIG d   1       5.523  -3.554  -3.651  0.00  0.00     0.031 H 
ATOM     11  C   LIG d   1       7.316  -2.494  -3.893  0.00  0.00    -0.034 C 
ATOM     12  H   LIG d   1       6.996  -2.157  -2.857  0.00  0.00     0.031 H 
ATOM     13  C   LIG d   1       8.353  -3.567  -3.590  0.00  0.00    -0.046 C 
ATOM     14  C   LIG d   1       8.623  -4.463  -4.792  0.00  0.00    -0.030 C 
ATOM     15  C   LIG d   1       7.312  -5.025  -5.302  0.00  0.00    -0.060 C 
ATOM     16  C   LIG d   1       7.257  -6.345  -5.512  0.00  0.00    -0.019 C 
ATOM     17  C   LIG d   1       5.995  -6.898  -6.023  0.00  0.00     0.156 C 
ATOM     18  O   LIG d   1       5.950  -7.805  -6.820  0.00  0.00    -0.293 OA
ATOM     19  C   LIG d   1       4.754  -6.228  -5.463  0.00  0.00     0.011 C 
ATOM     20  C   LIG d   1       4.822  -4.747  -5.798  0.00  0.00    -0.037 C 
ATOM     21  C   LIG d   1       6.177  -4.094  -5.572  0.00  0.00    -0.007 C 
ATOM     22  H   LIG d   1       9.554   0.193  -6.884  0.00  0.00     0.031 H 
ATOM     23  H   LIG d   1       8.120  -0.646  -7.527  0.00  0.00     0.031 H 
ATOM     24  H   LIG d   1       8.665  -2.403  -6.165  0.00  0.00     0.027 H 
ATOM     25  H   LIG d   1       9.911  -1.452  -5.323  0.00  0.00     0.027 H 
ATOM     26  H   LIG d   1       4.960   0.068  -5.662  0.00  0.00     0.027 H 
ATOM     27  H   LIG d   1       5.997  -0.979  -6.617  0.00  0.00     0.027 H 
ATOM     28  H   LIG d   1       4.576  -1.557  -3.983  0.00  0.00     0.027 H 
ATOM     29  H   LIG d   1       4.286  -2.329  -5.533  0.00  0.00     0.027 H 
ATOM     30  H   LIG d   1       7.996  -4.183  -2.756  0.00  0.00     0.027 H 
ATOM     31  H   LIG d   1       9.285  -3.087  -3.270  0.00  0.00     0.027 H 
ATOM     32  H   LIG d   1       9.274  -5.295  -4.479  0.00  0.00     0.031 H 
ATOM     33  H   LIG d   1       9.147  -3.922  -5.575  0.00  0.00     0.031 H 
ATOM     34  H   LIG d   1       8.105  -6.974  -5.315  0.00  0.00     0.065 H 
ATOM     35  H   LIG d   1       4.721  -6.360  -4.472  0.00  0.00     0.035 H 
ATOM     36  H   LIG d   1       3.867  -6.669  -5.927  0.00  0.00     0.035 H 
ATOM     37  H   LIG d   1       4.089  -4.213  -5.187  0.00  0.00     0.028 H 
ATOM     38  H   LIG d   1       4.562  -4.607  -6.850  0.00  0.00     0.028 H 
ENDROOT
BRANCH   1  39
ATOM     39  O   LIG d   1       6.780   1.334  -6.810  0.00  0.00    -0.450 OA
BRANCH  39  40
ATOM     40  C   LIG d   1       7.218   1.525  -8.065  0.00  0.00     0.308 C 
ATOM     41  O   LIG d   1       8.002   2.413  -8.302  0.00  0.00    -0.251 OA
BRANCH  40  42
ATOM     42  C   LIG d   1       6.731   0.633  -9.177  0.00  0.00     0.045 C 
ATOM     43  H   LIG d   1       7.007   1.067 -10.138  0.00  0.00     0.038 H 
ATOM     44  H   LIG d   1       7.187  -0.352  -9.079  0.00  0.00     0.038 H 
BRANCH  42  45
ATOM     45  C   LIG d   1       5.209   0.500  -9.095  0.00  0.00    -0.043 C 
ATOM     46  H   LIG d   1       4.920  -0.523  -9.330  0.00  0.00     0.027 H 
ATOM     47  H   LIG d   1       4.877   0.749  -8.087  0.00  0.00     0.027 H 
BRANCH  45  48
ATOM     48  C   LIG d   1       4.559   1.457 -10.097  0.00  0.00    -0.053 C 
ATOM     49  H   LIG d   1       5.317   1.835 -10.783  0.00  0.00     0.026 H 
ATOM     50  H   LIG d   1       3.792   0.927 -10.661  0.00  0.00     0.026 H 
BRANCH  48  51
ATOM     51  C   LIG d   1       3.922   2.627  -9.346  0.00  0.00    -0.056 C 
ATOM     52  H   LIG d   1       4.685   3.141  -8.759  0.00  0.00     0.026 H 
ATOM     53  H   LIG d   1       3.485   3.324 -10.061  0.00  0.00     0.026 H 
BRANCH  51  54
ATOM     54  C   LIG d   1       2.830   2.101  -8.413  0.00  0.00    -0.065 C 
ATOM     55  H   LIG d   1       2.985   1.037  -8.234  0.00  0.00     0.023 H 
ATOM     56  H   LIG d   1       2.872   2.638  -7.465  0.00  0.00     0.023 H 
ATOM     57  H   LIG d   1       1.854   2.253  -8.874  0.00  0.00     0.023 H 
ENDBRANCH  51  54
ENDBRANCH  48  51
ENDBRANCH  45  48
ENDBRANCH  42  45
ENDBRANCH  40  42
ENDBRANCH  39  40
ENDBRANCH   1  39
BRANCH   1  58
ATOM     58  C   LIG d   1       8.519   1.750  -5.175  0.00  0.00     0.174 C 
ATOM     59  O   LIG d   1       8.009   2.792  -4.837  0.00  0.00    -0.293 OA
BRANCH  58  60
ATOM     60  C   LIG d   1       9.978   1.499  -4.891  0.00  0.00    -0.002 C 
ATOM     61  H   LIG d   1      10.099   1.306  -3.918  0.00  0.00     0.031 H 
ATOM     62  H   LIG d   1      10.320   0.645  -5.475  0.00  0.00     0.031 H 
ATOM     63  H   LIG d   1      10.558   2.380  -5.163  0.00  0.00     0.031 H 
ENDBRANCH  58  60
ENDBRANCH   1  58
BRANCH   6  64
ATOM     64  C   LIG d   1       6.496   0.676  -3.637  0.00  0.00    -0.055 C 
ATOM     65  H   LIG d   1       5.658   0.190  -3.137  0.00  0.00     0.024 H 
ATOM     66  H   LIG d   1       6.196   1.669  -3.967  0.00  0.00     0.024 H 
ATOM     67  H   LIG d   1       7.333   0.760  -2.943  0.00  0.00     0.024 H 
ENDBRANCH   6  64
BRANCH  21  68
ATOM     68  C   LIG d   1       6.496  -3.441  -6.921  0.00  0.00    -0.056 C 
ATOM     69  H   LIG d   1       7.148  -4.096  -7.497  0.00  0.00     0.024 H 
ATOM     70  H   LIG d   1       5.570  -3.275  -7.472  0.00  0.00     0.024 H 
ATOM     71  H   LIG d   1       6.995  -2.486  -6.754  0.00  0.00     0.024 H 
ENDBRANCH  21  68
TORSDOF 11
ENDMDL
MODEL 8
REMARK VINA RESULT:      -5.4      6.551      9.893
REMARK  11 active torsions:
REMARK  status: ('A' for Active; 'I' for Inactive)
REMARK    1  A    between atoms: C_1  and  C_2 
REMARK    2  A    between atoms: C_2  and  C_3 
REMARK    3  A    between atoms: C_3  and  C_4 
REMARK    4  A    between atoms: C_4  and  C_5 
REMARK    5  A    between atoms: C_5  and  C_6 
REMARK    6  A    between atoms: C_6  and  O_8 
REMARK    7  A    between atoms: O_8  and  C_9 
REMARK    8  A    between atoms: C_9  and  C_32 
REMARK    9  A    between atoms: C_14  and  C_31 
REMARK   10  A    between atoms: C_29  and  C_30 
REMARK   11  A    between atoms: C_32  and  C_34 
ROOT
ATOM      1  C   LIG d   1      10.354   2.118  -4.744  0.00  0.00     0.176 C 
ATOM      2  C   LIG d   1      10.033   2.895  -3.455  0.00  0.00    -0.005 C 
ATOM      3  C   LIG d   1      11.032   4.068  -3.387  0.00  0.00    -0.045 C 
ATOM      4  C   LIG d   1      11.764   4.089  -4.727  0.00  0.00    -0.028 C 
ATOM      5  H   LIG d   1      12.757   3.607  -4.548  0.00  0.00     0.031 H 
ATOM      6  C   LIG d   1      11.009   3.163  -5.686  0.00  0.00     0.018 C 
ATOM      7  C   LIG d   1       9.868   3.887  -6.390  0.00  0.00    -0.043 C 
ATOM      8  C   LIG d   1      10.276   5.197  -7.025  0.00  0.00    -0.049 C 
ATOM      9  C   LIG d   1      11.020   6.143  -6.094  0.00  0.00    -0.029 C 
ATOM     10  H   LIG d   1      11.613   6.810  -6.807  0.00  0.00     0.031 H 
ATOM     11  C   LIG d   1      12.072   5.448  -5.279  0.00  0.00    -0.034 C 
ATOM     12  H   LIG d   1      12.899   5.232  -6.025  0.00  0.00     0.031 H 
ATOM     13  C   LIG d   1      12.764   6.346  -4.262  0.00  0.00    -0.046 C 
ATOM     14  C   LIG d   1      11.770   7.111  -3.397  0.00  0.00    -0.030 C 
ATOM     15  C   LIG d   1      10.799   7.856  -4.290  0.00  0.00    -0.060 C 
ATOM     16  C   LIG d   1      10.599   9.151  -4.023  0.00  0.00    -0.019 C 
ATOM     17  C   LIG d   1       9.646   9.879  -4.873  0.00  0.00     0.156 C 
ATOM     18  O   LIG d   1       8.903  10.731  -4.446  0.00  0.00    -0.293 OA
ATOM     19  C   LIG d   1       9.674   9.463  -6.332  0.00  0.00     0.011 C 
ATOM     20  C   LIG d   1       9.376   7.975  -6.407  0.00  0.00    -0.037 C 
ATOM     21  C   LIG d   1      10.101   7.116  -5.383  0.00  0.00    -0.007 C 
ATOM     22  H   LIG d   1      10.150   2.249  -2.588  0.00  0.00     0.031 H 
ATOM     23  H   LIG d   1       9.012   3.279  -3.491  0.00  0.00     0.031 H 
ATOM     24  H   LIG d   1      10.497   4.996  -3.203  0.00  0.00     0.027 H 
ATOM     25  H   LIG d   1      11.745   3.900  -2.566  0.00  0.00     0.027 H 
ATOM     26  H   LIG d   1       9.501   3.222  -7.196  0.00  0.00     0.027 H 
ATOM     27  H   LIG d   1       9.033   4.020  -5.704  0.00  0.00     0.027 H 
ATOM     28  H   LIG d   1      10.918   4.986  -7.896  0.00  0.00     0.027 H 
ATOM     29  H   LIG d   1       9.386   5.702  -7.427  0.00  0.00     0.027 H 
ATOM     30  H   LIG d   1      13.402   7.063  -4.794  0.00  0.00     0.027 H 
ATOM     31  H   LIG d   1      13.414   5.736  -3.625  0.00  0.00     0.027 H 
ATOM     32  H   LIG d   1      12.320   7.838  -2.778  0.00  0.00     0.031 H 
ATOM     33  H   LIG d   1      11.244   6.443  -2.720  0.00  0.00     0.031 H 
ATOM     34  H   LIG d   1      11.115   9.638  -3.217  0.00  0.00     0.065 H 
ATOM     35  H   LIG d   1      10.577   9.657  -6.717  0.00  0.00     0.035 H 
ATOM     36  H   LIG d   1       8.908  10.019  -6.880  0.00  0.00     0.035 H 
ATOM     37  H   LIG d   1       9.649   7.610  -7.401  0.00  0.00     0.028 H 
ATOM     38  H   LIG d   1       8.303   7.818  -6.266  0.00  0.00     0.028 H 
ENDROOT
BRANCH   1  39
ATOM     39  O   LIG d   1       9.133   1.600  -5.335  0.00  0.00    -0.450 OA
BRANCH  39  40
ATOM     40  C   LIG d   1       8.043   1.565  -4.551  0.00  0.00     0.308 C 
ATOM     41  O   LIG d   1       7.410   2.574  -4.351  0.00  0.00    -0.251 OA
BRANCH  40  42
ATOM     42  C   LIG d   1       7.610   0.267  -3.920  0.00  0.00     0.045 C 
ATOM     43  H   LIG d   1       7.784  -0.552  -4.618  0.00  0.00     0.038 H 
ATOM     44  H   LIG d   1       8.186   0.095  -3.010  0.00  0.00     0.038 H 
BRANCH  42  45
ATOM     45  C   LIG d   1       6.122   0.338  -3.576  0.00  0.00    -0.043 C 
ATOM     46  H   LIG d   1       5.937   1.205  -2.942  0.00  0.00     0.027 H 
ATOM     47  H   LIG d   1       5.541   0.429  -4.494  0.00  0.00     0.027 H 
BRANCH  45  48
ATOM     48  C   LIG d   1       5.708  -0.934  -2.833  0.00  0.00    -0.053 C 
ATOM     49  H   LIG d   1       5.453  -1.709  -3.555  0.00  0.00     0.026 H 
ATOM     50  H   LIG d   1       6.534  -1.276  -2.209  0.00  0.00     0.026 H 
BRANCH  48  51
ATOM     51  C   LIG d   1       4.493  -0.638  -1.953  0.00  0.00    -0.056 C 
ATOM     52  H   LIG d   1       3.586  -0.969  -2.461  0.00  0.00     0.026 H 
ATOM     53  H   LIG d   1       4.592  -1.169  -1.005  0.00  0.00     0.026 H 
BRANCH  51  54
ATOM     54  C   LIG d   1       4.408   0.866  -1.688  0.00  0.00    -0.065 C 
ATOM     55  H   LIG d   1       5.275   1.183  -1.108  0.00  0.00     0.023 H 
ATOM     56  H   LIG d   1       4.391   1.402  -2.637  0.00  0.00     0.023 H 
ATOM     57  H   LIG d   1       3.498   1.086  -1.130  0.00  0.00     0.023 H 
ENDBRANCH  51  54
ENDBRANCH  48  51
ENDBRANCH  45  48
ENDBRANCH  42  45
ENDBRANCH  40  42
ENDBRANCH  39  40
ENDBRANCH   1  39
BRANCH   1  58
ATOM     58  C   LIG d   1      11.308   0.993  -4.457  0.00  0.00     0.174 C 
ATOM     59  O   LIG d   1      12.167   1.128  -3.618  0.00  0.00    -0.293 OA
BRANCH  58  60
ATOM     60  C   LIG d   1      11.194  -0.304  -5.217  0.00  0.00    -0.002 C 
ATOM     61  H   LIG d   1      11.750  -0.253  -6.046  0.00  0.00     0.031 H 
ATOM     62  H   LIG d   1      11.549  -1.123  -4.592  0.00  0.00     0.031 H 
ATOM     63  H   LIG d   1      10.153  -0.477  -5.487  0.00  0.00     0.031 H 
ENDBRANCH  58  60
ENDBRANCH   1  58
BRANCH   6  64
ATOM     64  C   LIG d   1      11.956   2.484  -6.687  0.00  0.00    -0.055 C 
ATOM     65  H   LIG d   1      12.365   1.577  -6.243  0.00  0.00     0.024 H 
ATOM     66  H   LIG d   1      12.769   3.164  -6.937  0.00  0.00     0.024 H 
ATOM     67  H   LIG d   1      11.404   2.228  -7.592  0.00  0.00     0.024 H 
ENDBRANCH   6  64
BRANCH  21  68
ATOM     68  C   LIG d   1       8.973   6.340  -4.695  0.00  0.00    -0.056 C 
ATOM     69  H   LIG d   1       8.796   6.757  -3.705  0.00  0.00     0.024 H 
ATOM     70  H   LIG d   1       8.063   6.417  -5.290  0.00  0.00     0.024 H 
ATOM     71  H   LIG d   1       9.257   5.291  -4.601  0.00  0.00     0.024 H 
ENDBRANCH  21  68
TORSDOF 11
ENDMDL
MODEL 9
REMARK VINA RESULT:      -5.3      3.166      6.679
REMARK  11 active torsions:
REMARK  status: ('A' for Active; 'I' for Inactive)
REMARK    1  A    between atoms: C_1  and  C_2 
REMARK    2  A    between atoms: C_2  and  C_3 
REMARK    3  A    between atoms: C_3  and  C_4 
REMARK    4  A    between atoms: C_4  and  C_5 
REMARK    5  A    between atoms: C_5  and  C_6 
REMARK    6  A    between atoms: C_6  and  O_8 
REMARK    7  A    between atoms: O_8  and  C_9 
REMARK    8  A    between atoms: C_9  and  C_32 
REMARK    9  A    between atoms: C_14  and  C_31 
REMARK   10  A    between atoms: C_29  and  C_30 
REMARK   11  A    between atoms: C_32  and  C_34 
ROOT
ATOM      1  C   LIG d   1       4.337  -0.198  -7.148  0.00  0.00     0.176 C 
ATOM      2  C   LIG d   1       4.607  -1.660  -7.540  0.00  0.00    -0.005 C 
ATOM      3  C   LIG d   1       3.463  -2.082  -8.484  0.00  0.00    -0.045 C 
ATOM      4  C   LIG d   1       2.675  -0.812  -8.801  0.00  0.00    -0.028 C 
ATOM      5  H   LIG d   1       1.766  -0.839  -8.152  0.00  0.00     0.031 H 
ATOM      6  C   LIG d   1       3.505   0.383  -8.323  0.00  0.00     0.018 C 
ATOM      7  C   LIG d   1       4.506   0.837  -9.378  0.00  0.00    -0.043 C 
ATOM      8  C   LIG d   1       3.897   1.045 -10.747  0.00  0.00    -0.049 C 
ATOM      9  C   LIG d   1       3.074  -0.130 -11.255  0.00  0.00    -0.029 C 
ATOM     10  H   LIG d   1       2.365   0.346 -12.013  0.00  0.00     0.031 H 
ATOM     11  C   LIG d   1       2.163  -0.699 -10.206  0.00  0.00    -0.034 C 
ATOM     12  H   LIG d   1       1.340   0.077 -10.108  0.00  0.00     0.031 H 
ATOM     13  C   LIG d   1       1.402  -1.941 -10.650  0.00  0.00    -0.046 C 
ATOM     14  C   LIG d   1       2.321  -2.995 -11.253  0.00  0.00    -0.030 C 
ATOM     15  C   LIG d   1       3.143  -2.367 -12.362  0.00  0.00    -0.060 C 
ATOM     16  C   LIG d   1       3.177  -3.013 -13.533  0.00  0.00    -0.019 C 
ATOM     17  C   LIG d   1       3.985  -2.422 -14.609  0.00  0.00     0.156 C 
ATOM     18  O   LIG d   1       4.624  -3.085 -15.391  0.00  0.00    -0.293 OA
ATOM     19  C   LIG d   1       3.947  -0.906 -14.649  0.00  0.00     0.011 C 
ATOM     20  C   LIG d   1       4.441  -0.383 -13.310  0.00  0.00    -0.037 C 
ATOM     21  C   LIG d   1       3.884  -1.101 -12.090  0.00  0.00    -0.007 C 
ATOM     22  H   LIG d   1       4.617  -2.292  -6.654  0.00  0.00     0.031 H 
ATOM     23  H   LIG d   1       5.565  -1.741  -8.059  0.00  0.00     0.031 H 
ATOM     24  H   LIG d   1       3.875  -2.538  -9.381  0.00  0.00     0.027 H 
ATOM     25  H   LIG d   1       2.816  -2.815  -7.979  0.00  0.00     0.027 H 
ATOM     26  H   LIG d   1       4.923   1.807  -9.045  0.00  0.00     0.027 H 
ATOM     27  H   LIG d   1       5.344   0.144  -9.417  0.00  0.00     0.027 H 
ATOM     28  H   LIG d   1       3.251   1.938 -10.716  0.00  0.00     0.027 H 
ATOM     29  H   LIG d   1       4.691   1.277 -11.470  0.00  0.00     0.027 H 
ATOM     30  H   LIG d   1       0.650  -1.651 -11.395  0.00  0.00     0.027 H 
ATOM     31  H   LIG d   1       0.869  -2.364  -9.791  0.00  0.00     0.027 H 
ATOM     32  H   LIG d   1       1.707  -3.806 -11.676  0.00  0.00     0.031 H 
ATOM     33  H   LIG d   1       2.962  -3.437 -10.496  0.00  0.00     0.031 H 
ATOM     34  H   LIG d   1       2.637  -3.930 -13.677  0.00  0.00     0.065 H 
ATOM     35  H   LIG d   1       3.011  -0.599 -14.820  0.00  0.00     0.035 H 
ATOM     36  H   LIG d   1       4.606  -0.551 -15.447  0.00  0.00     0.035 H 
ATOM     37  H   LIG d   1       4.175   0.674 -13.224  0.00  0.00     0.028 H 
ATOM     38  H   LIG d   1       5.529  -0.469 -13.272  0.00  0.00     0.028 H 
ENDROOT
BRANCH   1  39
ATOM     39  O   LIG d   1       5.589   0.524  -7.009  0.00  0.00    -0.450 OA
BRANCH  39  40
ATOM     40  C   LIG d   1       6.582  -0.097  -6.353  0.00  0.00     0.308 C 
ATOM     41  O   LIG d   1       7.266  -0.913  -6.926  0.00  0.00    -0.251 OA
BRANCH  40  42
ATOM     42  C   LIG d   1       6.844   0.222  -4.904  0.00  0.00     0.045 C 
ATOM     43  H   LIG d   1       7.842   0.648  -4.801  0.00  0.00     0.038 H 
ATOM     44  H   LIG d   1       6.104   0.941  -4.552  0.00  0.00     0.038 H 
BRANCH  42  45
ATOM     45  C   LIG d   1       6.747  -1.059  -4.075  0.00  0.00    -0.043 C 
ATOM     46  H   LIG d   1       6.276  -1.842  -4.668  0.00  0.00     0.027 H 
ATOM     47  H   LIG d   1       7.748  -1.378  -3.782  0.00  0.00     0.027 H 
BRANCH  45  48
ATOM     48  C   LIG d   1       5.909  -0.794  -2.822  0.00  0.00    -0.053 C 
ATOM     49  H   LIG d   1       4.978  -1.358  -2.882  0.00  0.00     0.026 H 
ATOM     50  H   LIG d   1       6.466  -1.104  -1.939  0.00  0.00     0.026 H 
BRANCH  48  51
ATOM     51  C   LIG d   1       5.594   0.700  -2.727  0.00  0.00    -0.056 C 
ATOM     52  H   LIG d   1       6.412   1.212  -2.219  0.00  0.00     0.026 H 
ATOM     53  H   LIG d   1       5.475   1.112  -3.729  0.00  0.00     0.026 H 
BRANCH  51  54
ATOM     54  C   LIG d   1       4.300   0.899  -1.936  0.00  0.00    -0.065 C 
ATOM     55  H   LIG d   1       3.450   0.884  -2.619  0.00  0.00     0.023 H 
ATOM     56  H   LIG d   1       4.192   0.096  -1.207  0.00  0.00     0.023 H 
ATOM     57  H   LIG d   1       4.333   1.858  -1.420  0.00  0.00     0.023 H 
ENDBRANCH  51  54
ENDBRANCH  48  51
ENDBRANCH  45  48
ENDBRANCH  42  45
ENDBRANCH  40  42
ENDBRANCH  39  40
ENDBRANCH   1  39
BRANCH   1  58
ATOM     58  C   LIG d   1       3.557  -0.132  -5.865  0.00  0.00     0.174 C 
ATOM     59  O   LIG d   1       3.442  -1.117  -5.176  0.00  0.00    -0.293 OA
BRANCH  58  60
ATOM     60  C   LIG d   1       2.917   1.165  -5.438  0.00  0.00    -0.002 C 
ATOM     61  H   LIG d   1       3.327   1.471  -4.580  0.00  0.00     0.031 H 
ATOM     62  H   LIG d   1       3.079   1.920  -6.207  0.00  0.00     0.031 H 
ATOM     63  H   LIG d   1       1.847   1.013  -5.297  0.00  0.00     0.031 H 
ENDBRANCH  58  60
ENDBRANCH   1  58
BRANCH   6  64
ATOM     64  C   LIG d   1       2.615   1.541  -7.847  0.00  0.00    -0.055 C 
ATOM     65  H   LIG d   1       3.238   2.326  -7.418  0.00  0.00     0.024 H 
ATOM     66  H   LIG d   1       1.918   1.178  -7.093  0.00  0.00     0.024 H 
ATOM     67  H   LIG d   1       2.058   1.943  -8.694  0.00  0.00     0.024 H 
ENDBRANCH   6  64
BRANCH  21  68
ATOM     68  C   LIG d   1       5.136  -1.520 -11.312  0.00  0.00    -0.056 C 
ATOM     69  H   LIG d   1       5.563  -2.414 -11.764  0.00  0.00     0.024 H 
ATOM     70  H   LIG d   1       5.869  -0.713 -11.341  0.00  0.00     0.024 H 
ATOM     71  H   LIG d   1       4.868  -1.729 -10.276  0.00  0.00     0.024 H 
ENDBRANCH  21  68
TORSDOF 11
ENDMDL
