MODEL 1
REMARK VINA RESULT:      -7.0      0.000      0.000
REMARK  9 active torsions:
REMARK  status: ('A' for Active; 'I' for Inactive)
REMARK    1  A    between atoms: C_1  and  C_2 
REMARK       I    between atoms: C_2  and  N_4 
REMARK    2  A    between atoms: N_4  and  C_5 
REMARK    3  A    between atoms: C_5  and  C_6 
REMARK    4  A    between atoms: C_6  and  N_7 
REMARK    5  A    between atoms: N_7  and  C_8 
REMARK    6  A    between atoms: C_11  and  C_34 
REMARK    7  A    between atoms: C_14  and  C_30 
REMARK    8  A    between atoms: C_30  and  O_32 
REMARK    9  A    between atoms: O_32  and  C_33 
ROOT
ATOM      1  C   LIG d   1       4.446  -4.261  -9.138  0.00  0.00    -0.019 C 
ATOM      2  H   LIG d   1       4.651  -5.336  -9.234  0.00  0.00     0.085 H 
ATOM      3  C   LIG d   1       5.432  -3.447  -9.981  0.00  0.00     0.010 C 
ATOM      4  C   LIG d   1       5.134  -1.954  -9.815  0.00  0.00     0.042 C 
ATOM      5  H   LIG d   1       5.860  -1.346 -10.376  0.00  0.00     0.051 H 
ATOM      6  N   LIG d   1       5.245  -1.584  -8.400  0.00  0.00    -0.274 N 
ATOM      7  C   LIG d   1       5.140  -0.134  -8.199  0.00  0.00     0.113 C 
ATOM      8  H   LIG d   1       4.081   0.139  -8.315  0.00  0.00     0.058 H 
ATOM      9  C   LIG d   1       5.652   0.229  -6.799  0.00  0.00     0.001 C 
ATOM     10  C   LIG d   1       5.017  -0.710  -5.805  0.00  0.00    -0.016 A 
ATOM     11  C   LIG d   1       4.936  -0.602  -4.365  0.00  0.00     0.003 A 
ATOM     12  C   LIG d   1       5.397   0.356  -3.456  0.00  0.00    -0.052 A 
ATOM     13  C   LIG d   1       5.134   0.129  -2.127  0.00  0.00    -0.061 A 
ATOM     14  C   LIG d   1       4.447  -0.993  -1.694  0.00  0.00    -0.060 A 
ATOM     15  C   LIG d   1       3.978  -1.956  -2.571  0.00  0.00    -0.038 A 
ATOM     16  C   LIG d   1       4.230  -1.752  -3.926  0.00  0.00     0.047 A 
ATOM     17  N   LIG d   1       3.916  -2.485  -5.035  0.00  0.00    -0.356 N 
ATOM     18  H   LIG d   1       3.361  -3.428  -4.931  0.00  0.00     0.166 HD
ATOM     19  C   LIG d   1       4.390  -1.858  -6.154  0.00  0.00     0.038 A 
ATOM     20  C   LIG d   1       4.266  -2.319  -7.585  0.00  0.00     0.057 C 
ATOM     21  H   LIG d   1       3.259  -2.097  -7.969  0.00  0.00     0.053 H 
ATOM     22  C   LIG d   1       4.547  -3.819  -7.675  0.00  0.00     0.011 C 
ATOM     23  H   LIG d   1       6.459  -3.656  -9.649  0.00  0.00     0.034 H 
ATOM     24  H   LIG d   1       5.325  -3.726 -11.041  0.00  0.00     0.034 H 
ATOM     25  H   LIG d   1       6.747   0.124  -6.770  0.00  0.00     0.033 H 
ATOM     26  H   LIG d   1       5.376   1.268  -6.566  0.00  0.00     0.033 H 
ATOM     27  H   LIG d   1       5.933   1.234  -3.785  0.00  0.00     0.062 H 
ATOM     28  H   LIG d   1       5.475   0.849  -1.397  0.00  0.00     0.062 H 
ATOM     29  H   LIG d   1       4.270  -1.120  -0.636  0.00  0.00     0.062 H 
ATOM     30  H   LIG d   1       3.444  -2.826  -2.220  0.00  0.00     0.064 H 
ATOM     31  H   LIG d   1       3.809  -4.371  -7.074  0.00  0.00     0.034 H 
ATOM     32  H   LIG d   1       5.559  -4.031  -7.297  0.00  0.00     0.034 H 
ENDROOT
BRANCH   1  33
ATOM     33  N   LIG d   1       3.079  -4.032  -9.626  0.00  0.00     0.230 N 
ATOM     34  H   LIG d   1       3.122  -3.359 -10.494  0.00  0.00     0.202 HD
ATOM     35  H   LIG d   1       2.494  -3.559  -8.824  0.00  0.00     0.202 HD
BRANCH  33  36
ATOM     36  C   LIG d   1       2.442  -5.297 -10.016  0.00  0.00    -0.018 C 
ATOM     37  H   LIG d   1       2.344  -5.945  -9.134  0.00  0.00     0.083 H 
ATOM     38  H   LIG d   1       3.060  -5.800 -10.774  0.00  0.00     0.083 H 
BRANCH  36  39
ATOM     39  C   LIG d   1       1.055  -5.011 -10.597  0.00  0.00     0.052 C 
ATOM     40  H   LIG d   1       1.023  -5.340 -11.647  0.00  0.00     0.051 H 
ATOM     41  H   LIG d   1       0.851  -3.932 -10.545  0.00  0.00     0.051 H 
BRANCH  39  42
ATOM     42  N   LIG d   1       0.044  -5.738  -9.825  0.00  0.00    -0.310 N 
ATOM     43  C   LIG d   1      -1.265  -5.499 -10.038  0.00  0.00     0.210 C 
ATOM     44  O   LIG d   1      -1.606  -4.683 -10.869  0.00  0.00    -0.276 OA
ATOM     45  H   LIG d   1       0.353  -6.477  -9.073  0.00  0.00     0.149 HD
BRANCH  43  46
ATOM     46  C   LIG d   1      -2.306  -6.245  -9.246  0.00  0.00     0.012 C 
ATOM     47  H   LIG d   1      -2.788  -5.557  -8.534  0.00  0.00     0.032 H 
ATOM     48  H   LIG d   1      -1.827  -7.067  -8.694  0.00  0.00     0.032 H 
ATOM     49  H   LIG d   1      -3.064  -6.655  -9.929  0.00  0.00     0.032 H 
ENDBRANCH  43  46
ENDBRANCH  39  42
ENDBRANCH  36  39
ENDBRANCH  33  36
ENDBRANCH   1  33
BRANCH   4  50
ATOM     50  C   LIG d   1       3.736  -1.662 -10.295  0.00  0.00    -0.029 A 
ATOM     51  C   LIG d   1       3.380  -1.948 -11.598  0.00  0.00    -0.039 A 
ATOM     52  C   LIG d   1       2.093  -1.685 -12.038  0.00  0.00     0.041 A 
ATOM     53  H   LIG d   1       4.102  -2.381 -12.274  0.00  0.00     0.064 H 
ATOM     54  C   LIG d   1       1.170  -1.124 -11.174  0.00  0.00    -0.043 A 
ATOM     55 CL   LIG d   1       1.643  -2.051 -13.673  0.00  0.00    -0.084 Cl
ATOM     56  C   LIG d   1       1.531  -0.833  -9.872  0.00  0.00    -0.060 A 
ATOM     57  H   LIG d   1       0.168  -0.914 -11.518  0.00  0.00     0.063 H 
ATOM     58  C   LIG d   1       2.812  -1.101  -9.433  0.00  0.00    -0.057 A 
ATOM     59  H   LIG d   1       0.809  -0.394  -9.197  0.00  0.00     0.062 H 
ATOM     60  H   LIG d   1       3.093  -0.874  -8.415  0.00  0.00     0.062 H 
ENDBRANCH   4  50
BRANCH   7  61
ATOM     61  C   LIG d   1       5.966   0.578  -9.237  0.00  0.00     0.325 C 
ATOM     62  O   LIG d   1       7.149   0.351  -9.329  0.00  0.00    -0.249 OA
BRANCH  61  63
ATOM     63  O   LIG d   1       5.388   1.466 -10.062  0.00  0.00    -0.467 OA
BRANCH  63  64
ATOM     64  C   LIG d   1       4.297   2.256  -9.519  0.00  0.00     0.082 C 
ATOM     65  H   LIG d   1       3.717   1.643  -8.813  0.00  0.00     0.066 H 
ATOM     66  H   LIG d   1       3.644   2.590 -10.339  0.00  0.00     0.066 H 
ATOM     67  H   LIG d   1       4.705   3.132  -8.994  0.00  0.00     0.066 H 
ENDBRANCH  63  64
ENDBRANCH  61  63
ENDBRANCH   7  61
TORSDOF 9
ENDMDL
MODEL 2
REMARK VINA RESULT:      -6.9      2.680      5.362
REMARK  9 active torsions:
REMARK  status: ('A' for Active; 'I' for Inactive)
REMARK    1  A    between atoms: C_1  and  C_2 
REMARK       I    between atoms: C_2  and  N_4 
REMARK    2  A    between atoms: N_4  and  C_5 
REMARK    3  A    between atoms: C_5  and  C_6 
REMARK    4  A    between atoms: C_6  and  N_7 
REMARK    5  A    between atoms: N_7  and  C_8 
REMARK    6  A    between atoms: C_11  and  C_34 
REMARK    7  A    between atoms: C_14  and  C_30 
REMARK    8  A    between atoms: C_30  and  O_32 
REMARK    9  A    between atoms: O_32  and  C_33 
ROOT
ATOM      1  C   LIG d   1       2.903  -1.678  -9.636  0.00  0.00    -0.019 C 
ATOM      2  H   LIG d   1       2.060  -1.230 -10.182  0.00  0.00     0.085 H 
ATOM      3  C   LIG d   1       2.771  -3.202  -9.598  0.00  0.00     0.010 C 
ATOM      4  C   LIG d   1       3.947  -3.797  -8.817  0.00  0.00     0.042 C 
ATOM      5  H   LIG d   1       3.849  -4.890  -8.736  0.00  0.00     0.051 H 
ATOM      6  N   LIG d   1       3.961  -3.250  -7.456  0.00  0.00    -0.274 N 
ATOM      7  C   LIG d   1       4.960  -3.909  -6.606  0.00  0.00     0.113 C 
ATOM      8  H   LIG d   1       5.947  -3.527  -6.902  0.00  0.00     0.058 H 
ATOM      9  C   LIG d   1       4.668  -3.598  -5.133  0.00  0.00     0.001 C 
ATOM     10  C   LIG d   1       4.439  -2.113  -5.000  0.00  0.00    -0.016 A 
ATOM     11  C   LIG d   1       4.425  -1.292  -3.810  0.00  0.00     0.003 A 
ATOM     12  C   LIG d   1       4.608  -1.579  -2.453  0.00  0.00    -0.052 A 
ATOM     13  C   LIG d   1       4.525  -0.525  -1.578  0.00  0.00    -0.061 A 
ATOM     14  C   LIG d   1       4.273   0.768  -2.005  0.00  0.00    -0.060 A 
ATOM     15  C   LIG d   1       4.090   1.082  -3.340  0.00  0.00    -0.038 A 
ATOM     16  C   LIG d   1       4.169   0.033  -4.252  0.00  0.00     0.047 A 
ATOM     17  N   LIG d   1       4.042  -0.010  -5.612  0.00  0.00    -0.356 N 
ATOM     18  H   LIG d   1       3.839   0.913  -6.174  0.00  0.00     0.166 HD
ATOM     19  C   LIG d   1       4.203  -1.295  -6.053  0.00  0.00     0.038 A 
ATOM     20  C   LIG d   1       4.141  -1.791  -7.475  0.00  0.00     0.057 C 
ATOM     21  H   LIG d   1       5.084  -1.565  -7.997  0.00  0.00     0.053 H 
ATOM     22  C   LIG d   1       2.966  -1.138  -8.203  0.00  0.00     0.011 C 
ATOM     23  H   LIG d   1       1.827  -3.477  -9.106  0.00  0.00     0.034 H 
ATOM     24  H   LIG d   1       2.777  -3.596 -10.625  0.00  0.00     0.034 H 
ATOM     25  H   LIG d   1       3.771  -4.148  -4.812  0.00  0.00     0.033 H 
ATOM     26  H   LIG d   1       5.526  -3.903  -4.516  0.00  0.00     0.033 H 
ATOM     27  H   LIG d   1       4.805  -2.584  -2.111  0.00  0.00     0.062 H 
ATOM     28  H   LIG d   1       4.662  -0.710  -0.522  0.00  0.00     0.062 H 
ATOM     29  H   LIG d   1       4.218   1.559  -1.271  0.00  0.00     0.062 H 
ATOM     30  H   LIG d   1       3.894   2.095  -3.661  0.00  0.00     0.064 H 
ATOM     31  H   LIG d   1       3.105  -0.047  -8.228  0.00  0.00     0.034 H 
ATOM     32  H   LIG d   1       2.027  -1.376  -7.680  0.00  0.00     0.034 H 
ENDROOT
BRANCH   1  33
ATOM     33  N   LIG d   1       4.131  -1.310 -10.353  0.00  0.00     0.230 N 
ATOM     34  H   LIG d   1       4.522  -2.201 -10.864  0.00  0.00     0.202 HD
ATOM     35  H   LIG d   1       4.872  -0.953  -9.622  0.00  0.00     0.202 HD
BRANCH  33  36
ATOM     36  C   LIG d   1       3.869  -0.254 -11.339  0.00  0.00    -0.018 C 
ATOM     37  H   LIG d   1       2.790  -0.206 -11.547  0.00  0.00     0.083 H 
ATOM     38  H   LIG d   1       4.411  -0.478 -12.270  0.00  0.00     0.083 H 
BRANCH  36  39
ATOM     39  C   LIG d   1       4.342   1.092 -10.785  0.00  0.00     0.052 C 
ATOM     40  H   LIG d   1       3.576   1.498 -10.107  0.00  0.00     0.051 H 
ATOM     41  H   LIG d   1       4.505   1.794 -11.616  0.00  0.00     0.051 H 
BRANCH  39  42
ATOM     42  N   LIG d   1       5.595   0.903 -10.051  0.00  0.00    -0.310 N 
ATOM     43  C   LIG d   1       5.682   1.280  -8.759  0.00  0.00     0.210 C 
ATOM     44  O   LIG d   1       4.724   1.776  -8.206  0.00  0.00    -0.276 OA
ATOM     45  H   LIG d   1       6.464   0.454 -10.552  0.00  0.00     0.149 HD
BRANCH  43  46
ATOM     46  C   LIG d   1       6.971   1.086  -8.003  0.00  0.00     0.012 C 
ATOM     47  H   LIG d   1       6.961   0.102  -7.508  0.00  0.00     0.032 H 
ATOM     48  H   LIG d   1       7.074   1.876  -7.246  0.00  0.00     0.032 H 
ATOM     49  H   LIG d   1       7.818   1.134  -8.703  0.00  0.00     0.032 H 
ENDBRANCH  43  46
ENDBRANCH  39  42
ENDBRANCH  36  39
ENDBRANCH  33  36
ENDBRANCH   1  33
BRANCH   4  50
ATOM     50  C   LIG d   1       5.240  -3.443  -9.506  0.00  0.00    -0.029 A 
ATOM     51  C   LIG d   1       5.472  -3.870 -10.799  0.00  0.00    -0.039 A 
ATOM     52  C   LIG d   1       6.658  -3.540 -11.433  0.00  0.00     0.041 A 
ATOM     53  H   LIG d   1       4.728  -4.456 -11.316  0.00  0.00     0.064 H 
ATOM     54  C   LIG d   1       7.613  -2.794 -10.767  0.00  0.00    -0.043 A 
ATOM     55 CL   LIG d   1       6.947  -4.069 -13.060  0.00  0.00    -0.084 Cl
ATOM     56  C   LIG d   1       7.381  -2.374  -9.471  0.00  0.00    -0.060 A 
ATOM     57  H   LIG d   1       8.540  -2.541 -11.260  0.00  0.00     0.063 H 
ATOM     58  C   LIG d   1       6.195  -2.698  -8.840  0.00  0.00    -0.057 A 
ATOM     59  H   LIG d   1       8.128  -1.791  -8.950  0.00  0.00     0.062 H 
ATOM     60  H   LIG d   1       6.014  -2.368  -7.828  0.00  0.00     0.062 H 
ENDBRANCH   4  50
BRANCH   7  61
ATOM     61  C   LIG d   1       4.902  -5.398  -6.827  0.00  0.00     0.325 C 
ATOM     62  O   LIG d   1       3.921  -6.021  -6.498  0.00  0.00    -0.249 OA
BRANCH  61  63
ATOM     63  O   LIG d   1       5.943  -6.034  -7.390  0.00  0.00    -0.467 OA
BRANCH  63  64
ATOM     64  C   LIG d   1       7.266  -5.699  -6.894  0.00  0.00     0.082 C 
ATOM     65  H   LIG d   1       7.173  -5.037  -6.020  0.00  0.00     0.066 H 
ATOM     66  H   LIG d   1       7.834  -5.186  -7.685  0.00  0.00     0.066 H 
ATOM     67  H   LIG d   1       7.793  -6.620  -6.603  0.00  0.00     0.066 H 
ENDBRANCH  63  64
ENDBRANCH  61  63
ENDBRANCH   7  61
TORSDOF 9
ENDMDL
MODEL 3
REMARK VINA RESULT:      -6.8      3.982      7.555
REMARK  9 active torsions:
REMARK  status: ('A' for Active; 'I' for Inactive)
REMARK    1  A    between atoms: C_1  and  C_2 
REMARK       I    between atoms: C_2  and  N_4 
REMARK    2  A    between atoms: N_4  and  C_5 
REMARK    3  A    between atoms: C_5  and  C_6 
REMARK    4  A    between atoms: C_6  and  N_7 
REMARK    5  A    between atoms: N_7  and  C_8 
REMARK    6  A    between atoms: C_11  and  C_34 
REMARK    7  A    between atoms: C_14  and  C_30 
REMARK    8  A    between atoms: C_30  and  O_32 
REMARK    9  A    between atoms: O_32  and  C_33 
ROOT
ATOM      1  C   LIG d   1       4.660  -1.383  -6.903  0.00  0.00    -0.019 C 
ATOM      2  H   LIG d   1       4.295  -0.753  -7.726  0.00  0.00     0.085 H 
ATOM      3  C   LIG d   1       6.077  -0.972  -6.497  0.00  0.00     0.010 C 
ATOM      4  C   LIG d   1       6.565  -1.877  -5.361  0.00  0.00     0.042 C 
ATOM      5  H   LIG d   1       7.601  -1.631  -5.083  0.00  0.00     0.051 H 
ATOM      6  N   LIG d   1       6.545  -3.276  -5.803  0.00  0.00    -0.274 N 
ATOM      7  C   LIG d   1       7.162  -4.174  -4.820  0.00  0.00     0.113 C 
ATOM      8  H   LIG d   1       6.450  -4.296  -3.992  0.00  0.00     0.058 H 
ATOM      9  C   LIG d   1       7.474  -5.523  -5.481  0.00  0.00     0.001 C 
ATOM     10  C   LIG d   1       6.250  -5.973  -6.237  0.00  0.00    -0.016 A 
ATOM     11  C   LIG d   1       5.930  -7.280  -6.767  0.00  0.00     0.003 A 
ATOM     12  C   LIG d   1       6.612  -8.502  -6.761  0.00  0.00    -0.052 A 
ATOM     13  C   LIG d   1       5.992  -9.562  -7.375  0.00  0.00    -0.061 A 
ATOM     14  C   LIG d   1       4.751  -9.441  -7.977  0.00  0.00    -0.060 A 
ATOM     15  C   LIG d   1       4.053  -8.246  -7.997  0.00  0.00    -0.038 A 
ATOM     16  C   LIG d   1       4.657  -7.152  -7.381  0.00  0.00     0.047 A 
ATOM     17  N   LIG d   1       4.256  -5.856  -7.220  0.00  0.00    -0.356 N 
ATOM     18  H   LIG d   1       3.287  -5.527  -7.621  0.00  0.00     0.166 HD
ATOM     19  C   LIG d   1       5.213  -5.157  -6.536  0.00  0.00     0.038 A 
ATOM     20  C   LIG d   1       5.179  -3.701  -6.145  0.00  0.00     0.057 C 
ATOM     21  H   LIG d   1       4.540  -3.561  -5.259  0.00  0.00     0.053 H 
ATOM     22  C   LIG d   1       4.657  -2.860  -7.311  0.00  0.00     0.011 C 
ATOM     23  H   LIG d   1       6.750  -1.072  -7.360  0.00  0.00     0.034 H 
ATOM     24  H   LIG d   1       6.072   0.073  -6.154  0.00  0.00     0.034 H 
ATOM     25  H   LIG d   1       8.322  -5.406  -6.172  0.00  0.00     0.033 H 
ATOM     26  H   LIG d   1       7.732  -6.260  -4.706  0.00  0.00     0.033 H 
ATOM     27  H   LIG d   1       7.580  -8.606  -6.293  0.00  0.00     0.062 H 
ATOM     28  H   LIG d   1       6.490 -10.521  -7.389  0.00  0.00     0.062 H 
ATOM     29  H   LIG d   1       4.312 -10.310  -8.446  0.00  0.00     0.062 H 
ATOM     30  H   LIG d   1       3.086  -8.165  -8.470  0.00  0.00     0.064 H 
ATOM     31  H   LIG d   1       3.632  -3.169  -7.561  0.00  0.00     0.034 H 
ATOM     32  H   LIG d   1       5.307  -2.999  -8.188  0.00  0.00     0.034 H 
ENDROOT
BRANCH   1  33
ATOM     33  N   LIG d   1       3.748  -1.187  -5.768  0.00  0.00     0.230 N 
ATOM     34  H   LIG d   1       4.343  -1.113  -4.846  0.00  0.00     0.202 HD
ATOM     35  H   LIG d   1       3.076  -2.055  -5.701  0.00  0.00     0.202 HD
BRANCH  33  36
ATOM     36  C   LIG d   1       2.953   0.037  -5.937  0.00  0.00    -0.018 C 
ATOM     37  H   LIG d   1       3.526   0.900  -5.568  0.00  0.00     0.083 H 
ATOM     38  H   LIG d   1       2.017  -0.053  -5.366  0.00  0.00     0.083 H 
BRANCH  36  39
ATOM     39  C   LIG d   1       2.629   0.234  -7.419  0.00  0.00     0.052 C 
ATOM     40  H   LIG d   1       1.544   0.135  -7.574  0.00  0.00     0.051 H 
ATOM     41  H   LIG d   1       3.154  -0.528  -8.014  0.00  0.00     0.051 H 
BRANCH  39  42
ATOM     42  N   LIG d   1       3.064   1.568  -7.840  0.00  0.00    -0.310 N 
ATOM     43  C   LIG d   1       3.838   1.709  -8.935  0.00  0.00     0.210 C 
ATOM     44  O   LIG d   1       4.173   0.732  -9.571  0.00  0.00    -0.276 OA
ATOM     45  H   LIG d   1       2.759   2.453  -7.264  0.00  0.00     0.149 HD
BRANCH  43  46
ATOM     46  C   LIG d   1       4.285   3.081  -9.369  0.00  0.00     0.012 C 
ATOM     47  H   LIG d   1       5.252   3.003  -9.890  0.00  0.00     0.032 H 
ATOM     48  H   LIG d   1       4.395   3.727  -8.487  0.00  0.00     0.032 H 
ATOM     49  H   LIG d   1       3.536   3.512 -10.050  0.00  0.00     0.032 H 
ENDBRANCH  43  46
ENDBRANCH  39  42
ENDBRANCH  36  39
ENDBRANCH  33  36
ENDBRANCH   1  33
BRANCH   4  50
ATOM     50  C   LIG d   1       5.659  -1.722  -4.168  0.00  0.00    -0.029 A 
ATOM     51  C   LIG d   1       5.607  -0.518  -3.493  0.00  0.00    -0.039 A 
ATOM     52  C   LIG d   1       4.770  -0.374  -2.399  0.00  0.00     0.041 A 
ATOM     53  H   LIG d   1       6.215   0.312  -3.820  0.00  0.00     0.064 H 
ATOM     54  C   LIG d   1       3.996  -1.439  -1.977  0.00  0.00    -0.043 A 
ATOM     55 CL   LIG d   1       4.699   1.141  -1.555  0.00  0.00    -0.084 Cl
ATOM     56  C   LIG d   1       4.054  -2.644  -2.650  0.00  0.00    -0.060 A 
ATOM     57  H   LIG d   1       3.347  -1.328  -1.120  0.00  0.00     0.063 H 
ATOM     58  C   LIG d   1       4.885  -2.786  -3.744  0.00  0.00    -0.057 A 
ATOM     59  H   LIG d   1       3.449  -3.477  -2.319  0.00  0.00     0.062 H 
ATOM     60  H   LIG d   1       4.929  -3.729  -4.270  0.00  0.00     0.062 H 
ENDBRANCH   4  50
BRANCH   7  61
ATOM     61  C   LIG d   1       8.438  -3.557  -4.308  0.00  0.00     0.325 C 
ATOM     62  O   LIG d   1       9.296  -3.212  -5.085  0.00  0.00    -0.249 OA
BRANCH  61  63
ATOM     63  O   LIG d   1       8.620  -3.391  -2.988  0.00  0.00    -0.467 OA
BRANCH  63  64
ATOM     64  C   LIG d   1       9.649  -4.200  -2.359  0.00  0.00     0.082 C 
ATOM     65  H   LIG d   1       9.339  -5.255  -2.362  0.00  0.00     0.066 H 
ATOM     66  H   LIG d   1       9.796  -3.864  -1.322  0.00  0.00     0.066 H 
ATOM     67  H   LIG d   1      10.592  -4.093  -2.916  0.00  0.00     0.066 H 
ENDBRANCH  63  64
ENDBRANCH  61  63
ENDBRANCH   7  61
TORSDOF 9
ENDMDL
MODEL 4
REMARK VINA RESULT:      -6.7      3.434      5.341
REMARK  9 active torsions:
REMARK  status: ('A' for Active; 'I' for Inactive)
REMARK    1  A    between atoms: C_1  and  C_2 
REMARK       I    between atoms: C_2  and  N_4 
REMARK    2  A    between atoms: N_4  and  C_5 
REMARK    3  A    between atoms: C_5  and  C_6 
REMARK    4  A    between atoms: C_6  and  N_7 
REMARK    5  A    between atoms: N_7  and  C_8 
REMARK    6  A    between atoms: C_11  and  C_34 
REMARK    7  A    between atoms: C_14  and  C_30 
REMARK    8  A    between atoms: C_30  and  O_32 
REMARK    9  A    between atoms: O_32  and  C_33 
ROOT
ATOM      1  C   LIG d   1       4.784  -6.157  -6.250  0.00  0.00    -0.019 C 
ATOM      2  H   LIG d   1       4.030  -6.956  -6.200  0.00  0.00     0.085 H 
ATOM      3  C   LIG d   1       6.133  -6.657  -5.726  0.00  0.00     0.010 C 
ATOM      4  C   LIG d   1       7.158  -5.521  -5.791  0.00  0.00     0.042 C 
ATOM      5  H   LIG d   1       8.125  -5.843  -5.376  0.00  0.00     0.051 H 
ATOM      6  N   LIG d   1       6.687  -4.386  -4.990  0.00  0.00    -0.274 N 
ATOM      7  C   LIG d   1       7.703  -3.334  -4.873  0.00  0.00     0.113 C 
ATOM      8  H   LIG d   1       7.738  -2.800  -5.833  0.00  0.00     0.058 H 
ATOM      9  C   LIG d   1       7.330  -2.383  -3.729  0.00  0.00     0.001 C 
ATOM     10  C   LIG d   1       5.878  -2.004  -3.883  0.00  0.00    -0.016 A 
ATOM     11  C   LIG d   1       5.141  -0.929  -3.259  0.00  0.00     0.003 A 
ATOM     12  C   LIG d   1       5.502   0.069  -2.347  0.00  0.00    -0.052 A 
ATOM     13  C   LIG d   1       4.518   0.944  -1.961  0.00  0.00    -0.061 A 
ATOM     14  C   LIG d   1       3.222   0.854  -2.443  0.00  0.00    -0.060 A 
ATOM     15  C   LIG d   1       2.837  -0.121  -3.346  0.00  0.00    -0.038 A 
ATOM     16  C   LIG d   1       3.815  -1.023  -3.757  0.00  0.00     0.047 A 
ATOM     17  N   LIG d   1       3.778  -2.083  -4.618  0.00  0.00    -0.356 N 
ATOM     18  H   LIG d   1       2.840  -2.345  -5.128  0.00  0.00     0.166 HD
ATOM     19  C   LIG d   1       5.014  -2.666  -4.689  0.00  0.00     0.038 A 
ATOM     20  C   LIG d   1       5.418  -3.861  -5.515  0.00  0.00     0.057 C 
ATOM     21  H   LIG d   1       5.574  -3.562  -6.563  0.00  0.00     0.053 H 
ATOM     22  C   LIG d   1       4.341  -4.942  -5.429  0.00  0.00     0.011 C 
ATOM     23  H   LIG d   1       6.021  -6.992  -4.685  0.00  0.00     0.034 H 
ATOM     24  H   LIG d   1       6.478  -7.498  -6.347  0.00  0.00     0.034 H 
ATOM     25  H   LIG d   1       7.486  -2.889  -2.764  0.00  0.00     0.033 H 
ATOM     26  H   LIG d   1       7.961  -1.484  -3.777  0.00  0.00     0.033 H 
ATOM     27  H   LIG d   1       6.510   0.146  -1.966  0.00  0.00     0.062 H 
ATOM     28  H   LIG d   1       4.761   1.728  -1.258  0.00  0.00     0.062 H 
ATOM     29  H   LIG d   1       2.488   1.570  -2.103  0.00  0.00     0.062 H 
ATOM     30  H   LIG d   1       1.823  -0.180  -3.715  0.00  0.00     0.064 H 
ATOM     31  H   LIG d   1       3.393  -4.554  -5.831  0.00  0.00     0.034 H 
ATOM     32  H   LIG d   1       4.198  -5.241  -4.379  0.00  0.00     0.034 H 
ENDROOT
BRANCH   1  33
ATOM     33  N   LIG d   1       4.919  -5.773  -7.661  0.00  0.00     0.230 N 
ATOM     34  H   LIG d   1       5.377  -6.606  -8.212  0.00  0.00     0.202 HD
ATOM     35  H   LIG d   1       5.571  -4.889  -7.725  0.00  0.00     0.202 HD
BRANCH  33  36
ATOM     36  C   LIG d   1       3.609  -5.458  -8.248  0.00  0.00    -0.018 C 
ATOM     37  H   LIG d   1       2.875  -5.303  -7.444  0.00  0.00     0.083 H 
ATOM     38  H   LIG d   1       3.283  -6.293  -8.886  0.00  0.00     0.083 H 
BRANCH  36  39
ATOM     39  C   LIG d   1       3.720  -4.186  -9.091  0.00  0.00     0.052 C 
ATOM     40  H   LIG d   1       2.964  -4.209  -9.889  0.00  0.00     0.051 H 
ATOM     41  H   LIG d   1       4.723  -4.128  -9.538  0.00  0.00     0.051 H 
BRANCH  39  42
ATOM     42  N   LIG d   1       3.497  -3.016  -8.238  0.00  0.00    -0.310 N 
ATOM     43  C   LIG d   1       3.319  -1.801  -8.796  0.00  0.00     0.210 C 
ATOM     44  O   LIG d   1       3.343  -1.678 -10.002  0.00  0.00    -0.276 OA
ATOM     45  H   LIG d   1       3.474  -3.128  -7.145  0.00  0.00     0.149 HD
BRANCH  43  46
ATOM     46  C   LIG d   1       3.088  -0.597  -7.920  0.00  0.00     0.012 C 
ATOM     47  H   LIG d   1       3.903   0.129  -8.073  0.00  0.00     0.032 H 
ATOM     48  H   LIG d   1       3.068  -0.908  -6.866  0.00  0.00     0.032 H 
ATOM     49  H   LIG d   1       2.128  -0.130  -8.184  0.00  0.00     0.032 H 
ENDBRANCH  43  46
ENDBRANCH  39  42
ENDBRANCH  36  39
ENDBRANCH  33  36
ENDBRANCH   1  33
BRANCH   4  50
ATOM     50  C   LIG d   1       7.332  -5.080  -7.221  0.00  0.00    -0.029 A 
ATOM     51  C   LIG d   1       7.084  -3.767  -7.573  0.00  0.00    -0.039 A 
ATOM     52  C   LIG d   1       7.248  -3.360  -8.886  0.00  0.00     0.041 A 
ATOM     53  H   LIG d   1       6.766  -3.057  -6.824  0.00  0.00     0.064 H 
ATOM     54  C   LIG d   1       7.649  -4.271  -9.846  0.00  0.00    -0.043 A 
ATOM     55 CL   LIG d   1       6.945  -1.709  -9.327  0.00  0.00    -0.084 Cl
ATOM     56  C   LIG d   1       7.890  -5.585  -9.493  0.00  0.00    -0.060 A 
ATOM     57  H   LIG d   1       7.773  -3.955 -10.872  0.00  0.00     0.063 H 
ATOM     58  C   LIG d   1       7.732  -5.990  -8.182  0.00  0.00    -0.057 A 
ATOM     59  H   LIG d   1       8.203  -6.297 -10.244  0.00  0.00     0.062 H 
ATOM     60  H   LIG d   1       7.921  -7.017  -7.907  0.00  0.00     0.062 H 
ENDBRANCH   4  50
BRANCH   7  61
ATOM     61  C   LIG d   1       9.044  -3.960  -4.590  0.00  0.00     0.325 C 
ATOM     62  O   LIG d   1       9.962  -3.796  -5.359  0.00  0.00    -0.249 OA
BRANCH  61  63
ATOM     63  O   LIG d   1       9.220  -4.700  -3.483  0.00  0.00    -0.467 OA
BRANCH  63  64
ATOM     64  C   LIG d   1      10.359  -4.372  -2.645  0.00  0.00     0.082 C 
ATOM     65  H   LIG d   1      10.007  -3.898  -1.716  0.00  0.00     0.066 H 
ATOM     66  H   LIG d   1      11.022  -3.678  -3.183  0.00  0.00     0.066 H 
ATOM     67  H   LIG d   1      10.911  -5.291  -2.400  0.00  0.00     0.066 H 
ENDBRANCH  63  64
ENDBRANCH  61  63
ENDBRANCH   7  61
TORSDOF 9
ENDMDL
MODEL 5
REMARK VINA RESULT:      -6.7      3.840      8.808
REMARK  9 active torsions:
REMARK  status: ('A' for Active; 'I' for Inactive)
REMARK    1  A    between atoms: C_1  and  C_2 
REMARK       I    between atoms: C_2  and  N_4 
REMARK    2  A    between atoms: N_4  and  C_5 
REMARK    3  A    between atoms: C_5  and  C_6 
REMARK    4  A    between atoms: C_6  and  N_7 
REMARK    5  A    between atoms: N_7  and  C_8 
REMARK    6  A    between atoms: C_11  and  C_34 
REMARK    7  A    between atoms: C_14  and  C_30 
REMARK    8  A    between atoms: C_30  and  O_32 
REMARK    9  A    between atoms: O_32  and  C_33 
ROOT
ATOM      1  C   LIG d   1       7.497  -0.216  -5.387  0.00  0.00    -0.019 C 
ATOM      2  H   LIG d   1       8.448   0.332  -5.314  0.00  0.00     0.085 H 
ATOM      3  C   LIG d   1       7.668  -1.657  -4.899  0.00  0.00     0.010 C 
ATOM      4  C   LIG d   1       6.335  -2.401  -5.029  0.00  0.00     0.042 C 
ATOM      5  H   LIG d   1       6.444  -3.453  -4.727  0.00  0.00     0.051 H 
ATOM      6  N   LIG d   1       5.895  -2.383  -6.428  0.00  0.00    -0.274 N 
ATOM      7  C   LIG d   1       4.713  -3.225  -6.645  0.00  0.00     0.113 C 
ATOM      8  H   LIG d   1       3.845  -2.687  -6.236  0.00  0.00     0.058 H 
ATOM      9  C   LIG d   1       4.539  -3.490  -8.146  0.00  0.00     0.001 C 
ATOM     10  C   LIG d   1       4.663  -2.176  -8.876  0.00  0.00    -0.016 A 
ATOM     11  C   LIG d   1       4.290  -1.843 -10.232  0.00  0.00     0.003 A 
ATOM     12  C   LIG d   1       3.722  -2.586 -11.272  0.00  0.00    -0.052 A 
ATOM     13  C   LIG d   1       3.499  -1.929 -12.457  0.00  0.00    -0.061 A 
ATOM     14  C   LIG d   1       3.820  -0.592 -12.628  0.00  0.00    -0.060 A 
ATOM     15  C   LIG d   1       4.382   0.168 -11.617  0.00  0.00    -0.038 A 
ATOM     16  C   LIG d   1       4.618  -0.473 -10.403  0.00  0.00     0.047 A 
ATOM     17  N   LIG d   1       5.147  -0.031  -9.223  0.00  0.00    -0.356 N 
ATOM     18  H   LIG d   1       5.474   1.014  -9.125  0.00  0.00     0.166 HD
ATOM     19  C   LIG d   1       5.172  -1.054  -8.315  0.00  0.00     0.038 A 
ATOM     20  C   LIG d   1       5.675  -1.006  -6.894  0.00  0.00     0.057 C 
ATOM     21  H   LIG d   1       4.923  -0.535  -6.242  0.00  0.00     0.053 H 
ATOM     22  C   LIG d   1       6.989  -0.227  -6.833  0.00  0.00     0.011 C 
ATOM     23  H   LIG d   1       8.431  -2.163  -5.508  0.00  0.00     0.034 H 
ATOM     24  H   LIG d   1       7.983  -1.652  -3.845  0.00  0.00     0.034 H 
ATOM     25  H   LIG d   1       5.319  -4.187  -8.489  0.00  0.00     0.033 H 
ATOM     26  H   LIG d   1       3.548  -3.931  -8.329  0.00  0.00     0.033 H 
ATOM     27  H   LIG d   1       3.468  -3.629 -11.148  0.00  0.00     0.062 H 
ATOM     28  H   LIG d   1       3.061  -2.472 -13.281  0.00  0.00     0.062 H 
ATOM     29  H   LIG d   1       3.624  -0.127 -13.583  0.00  0.00     0.062 H 
ATOM     30  H   LIG d   1       4.627   1.209 -11.763  0.00  0.00     0.064 H 
ATOM     31  H   LIG d   1       6.824   0.806  -7.171  0.00  0.00     0.034 H 
ATOM     32  H   LIG d   1       7.737  -0.710  -7.480  0.00  0.00     0.034 H 
ENDROOT
BRANCH   1  33
ATOM     33  N   LIG d   1       6.526   0.479  -4.532  0.00  0.00     0.230 N 
ATOM     34  H   LIG d   1       5.998  -0.266  -3.920  0.00  0.00     0.202 HD
ATOM     35  H   LIG d   1       5.804   1.004  -5.173  0.00  0.00     0.202 HD
BRANCH  33  36
ATOM     36  C   LIG d   1       7.197   1.448  -3.655  0.00  0.00    -0.018 C 
ATOM     37  H   LIG d   1       7.352   0.999  -2.663  0.00  0.00     0.083 H 
ATOM     38  H   LIG d   1       6.570   2.347  -3.555  0.00  0.00     0.083 H 
BRANCH  36  39
ATOM     39  C   LIG d   1       8.549   1.833  -4.259  0.00  0.00     0.052 C 
ATOM     40  H   LIG d   1       8.483   1.797  -5.356  0.00  0.00     0.051 H 
ATOM     41  H   LIG d   1       9.319   1.127  -3.914  0.00  0.00     0.051 H 
BRANCH  39  42
ATOM     42  N   LIG d   1       8.905   3.189  -3.834  0.00  0.00    -0.310 N 
ATOM     43  C   LIG d   1       9.940   3.380  -2.991  0.00  0.00     0.210 C 
ATOM     44  O   LIG d   1      10.576   2.430  -2.586  0.00  0.00    -0.276 OA
ATOM     45  H   LIG d   1       8.329   4.049  -4.202  0.00  0.00     0.149 HD
BRANCH  43  46
ATOM     46  C   LIG d   1      10.308   4.774  -2.554  0.00  0.00     0.012 C 
ATOM     47  H   LIG d   1      10.664   5.349  -3.423  0.00  0.00     0.032 H 
ATOM     48  H   LIG d   1      11.103   4.724  -1.797  0.00  0.00     0.032 H 
ATOM     49  H   LIG d   1       9.424   5.269  -2.125  0.00  0.00     0.032 H 
ENDBRANCH  43  46
ENDBRANCH  39  42
ENDBRANCH  36  39
ENDBRANCH  33  36
ENDBRANCH   1  33
BRANCH   4  50
ATOM     50  C   LIG d   1       5.295  -1.724  -4.174  0.00  0.00    -0.029 A 
ATOM     51  C   LIG d   1       4.202  -1.120  -4.765  0.00  0.00    -0.039 A 
ATOM     52  C   LIG d   1       3.244  -0.503  -3.979  0.00  0.00     0.041 A 
ATOM     53  H   LIG d   1       4.093  -1.133  -5.839  0.00  0.00     0.064 H 
ATOM     54  C   LIG d   1       3.388  -0.481  -2.604  0.00  0.00    -0.043 A 
ATOM     55 CL   LIG d   1       1.867   0.249  -4.721  0.00  0.00    -0.084 Cl
ATOM     56  C   LIG d   1       4.485  -1.080  -2.015  0.00  0.00    -0.060 A 
ATOM     57  H   LIG d   1       2.643   0.006  -1.991  0.00  0.00     0.063 H 
ATOM     58  C   LIG d   1       5.438  -1.700  -2.799  0.00  0.00    -0.057 A 
ATOM     59  H   LIG d   1       4.598  -1.061  -0.940  0.00  0.00     0.062 H 
ATOM     60  H   LIG d   1       6.296  -2.169  -2.338  0.00  0.00     0.062 H 
ENDBRANCH   4  50
BRANCH   7  61
ATOM     61  C   LIG d   1       4.888  -4.534  -5.920  0.00  0.00     0.325 C 
ATOM     62  O   LIG d   1       4.119  -4.846  -5.042  0.00  0.00    -0.249 OA
BRANCH  61  63
ATOM     63  O   LIG d   1       5.900  -5.353  -6.248  0.00  0.00    -0.467 OA
BRANCH  63  64
ATOM     64  C   LIG d   1       5.815  -6.725  -5.780  0.00  0.00     0.082 C 
ATOM     65  H   LIG d   1       6.570  -7.336  -6.297  0.00  0.00     0.066 H 
ATOM     66  H   LIG d   1       4.812  -7.123  -5.993  0.00  0.00     0.066 H 
ATOM     67  H   LIG d   1       5.999  -6.755  -4.696  0.00  0.00     0.066 H 
ENDBRANCH  63  64
ENDBRANCH  61  63
ENDBRANCH   7  61
TORSDOF 9
ENDMDL
MODEL 6
REMARK VINA RESULT:      -6.6      4.453      7.941
REMARK  9 active torsions:
REMARK  status: ('A' for Active; 'I' for Inactive)
REMARK    1  A    between atoms: C_1  and  C_2 
REMARK       I    between atoms: C_2  and  N_4 
REMARK    2  A    between atoms: N_4  and  C_5 
REMARK    3  A    between atoms: C_5  and  C_6 
REMARK    4  A    between atoms: C_6  and  N_7 
REMARK    5  A    between atoms: N_7  and  C_8 
REMARK    6  A    between atoms: C_11  and  C_34 
REMARK    7  A    between atoms: C_14  and  C_30 
REMARK    8  A    between atoms: C_30  and  O_32 
REMARK    9  A    between atoms: O_32  and  C_33 
ROOT
ATOM      1  C   LIG d   1       5.151  -0.675  -3.271  0.00  0.00    -0.019 C 
ATOM      2  H   LIG d   1       4.927  -0.124  -2.347  0.00  0.00     0.085 H 
ATOM      3  C   LIG d   1       3.928  -1.470  -3.734  0.00  0.00     0.010 C 
ATOM      4  C   LIG d   1       4.273  -2.241  -5.011  0.00  0.00     0.042 C 
ATOM      5  H   LIG d   1       3.422  -2.857  -5.338  0.00  0.00     0.051 H 
ATOM      6  N   LIG d   1       5.401  -3.142  -4.754  0.00  0.00    -0.274 N 
ATOM      7  C   LIG d   1       5.668  -4.031  -5.890  0.00  0.00     0.113 C 
ATOM      8  H   LIG d   1       6.164  -3.432  -6.668  0.00  0.00     0.058 H 
ATOM      9  C   LIG d   1       6.562  -5.192  -5.436  0.00  0.00     0.001 C 
ATOM     10  C   LIG d   1       7.715  -4.621  -4.648  0.00  0.00    -0.016 A 
ATOM     11  C   LIG d   1       8.962  -5.246  -4.267  0.00  0.00     0.003 A 
ATOM     12  C   LIG d   1       9.492  -6.522  -4.486  0.00  0.00    -0.052 A 
ATOM     13  C   LIG d   1      10.738  -6.774  -3.966  0.00  0.00    -0.061 A 
ATOM     14  C   LIG d   1      11.446  -5.819  -3.256  0.00  0.00    -0.060 A 
ATOM     15  C   LIG d   1      10.947  -4.549  -3.026  0.00  0.00    -0.038 A 
ATOM     16  C   LIG d   1       9.686  -4.263  -3.542  0.00  0.00     0.047 A 
ATOM     17  N   LIG d   1       8.914  -3.137  -3.502  0.00  0.00    -0.356 N 
ATOM     18  H   LIG d   1       9.280  -2.238  -2.986  0.00  0.00     0.166 HD
ATOM     19  C   LIG d   1       7.737  -3.357  -4.164  0.00  0.00     0.038 A 
ATOM     20  C   LIG d   1       6.600  -2.386  -4.361  0.00  0.00     0.057 C 
ATOM     21  H   LIG d   1       6.843  -1.677  -5.167  0.00  0.00     0.053 H 
ATOM     22  C   LIG d   1       6.328  -1.633  -3.059  0.00  0.00     0.011 C 
ATOM     23  H   LIG d   1       3.631  -2.178  -2.946  0.00  0.00     0.034 H 
ATOM     24  H   LIG d   1       3.096  -0.778  -3.937  0.00  0.00     0.034 H 
ATOM     25  H   LIG d   1       5.979  -5.880  -4.806  0.00  0.00     0.033 H 
ATOM     26  H   LIG d   1       6.938  -5.732  -6.317  0.00  0.00     0.033 H 
ATOM     27  H   LIG d   1       8.947  -7.272  -5.038  0.00  0.00     0.062 H 
ATOM     28  H   LIG d   1      11.179  -7.749  -4.116  0.00  0.00     0.062 H 
ATOM     29  H   LIG d   1      12.422  -6.074  -2.869  0.00  0.00     0.062 H 
ATOM     30  H   LIG d   1      11.510  -3.813  -2.471  0.00  0.00     0.064 H 
ATOM     31  H   LIG d   1       7.220  -1.058  -2.769  0.00  0.00     0.034 H 
ATOM     32  H   LIG d   1       6.078  -2.349  -2.261  0.00  0.00     0.034 H 
ENDROOT
BRANCH   1  33
ATOM     33  N   LIG d   1       5.506   0.317  -4.295  0.00  0.00     0.230 N 
ATOM     34  H   LIG d   1       4.591   0.831  -4.621  0.00  0.00     0.202 HD
ATOM     35  H   LIG d   1       5.956  -0.206  -5.152  0.00  0.00     0.202 HD
BRANCH  33  36
ATOM     36  C   LIG d   1       6.460   1.301  -3.766  0.00  0.00    -0.018 C 
ATOM     37  H   LIG d   1       6.695   1.058  -2.720  0.00  0.00     0.083 H 
ATOM     38  H   LIG d   1       6.016   2.306  -3.817  0.00  0.00     0.083 H 
BRANCH  36  39
ATOM     39  C   LIG d   1       7.743   1.268  -4.600  0.00  0.00     0.052 C 
ATOM     40  H   LIG d   1       7.710   2.068  -5.354  0.00  0.00     0.051 H 
ATOM     41  H   LIG d   1       7.828   0.293  -5.103  0.00  0.00     0.051 H 
BRANCH  39  42
ATOM     42  N   LIG d   1       8.899   1.468  -3.723  0.00  0.00    -0.310 N 
ATOM     43  C   LIG d   1       9.495   2.675  -3.660  0.00  0.00     0.210 C 
ATOM     44  O   LIG d   1       9.074   3.595  -4.329  0.00  0.00    -0.276 OA
ATOM     45  H   LIG d   1       9.280   0.634  -3.117  0.00  0.00     0.149 HD
BRANCH  43  46
ATOM     46  C   LIG d   1      10.684   2.882  -2.758  0.00  0.00     0.012 C 
ATOM     47  H   LIG d   1      10.517   2.357  -1.805  0.00  0.00     0.032 H 
ATOM     48  H   LIG d   1      10.816   3.957  -2.566  0.00  0.00     0.032 H 
ATOM     49  H   LIG d   1      11.586   2.482  -3.243  0.00  0.00     0.032 H 
ENDBRANCH  43  46
ENDBRANCH  39  42
ENDBRANCH  36  39
ENDBRANCH  33  36
ENDBRANCH   1  33
BRANCH   4  50
ATOM     50  C   LIG d   1       4.653  -1.269  -6.099  0.00  0.00    -0.029 A 
ATOM     51  C   LIG d   1       3.723  -0.366  -6.574  0.00  0.00    -0.039 A 
ATOM     52  C   LIG d   1       4.074   0.529  -7.570  0.00  0.00     0.041 A 
ATOM     53  H   LIG d   1       2.723  -0.356  -6.168  0.00  0.00     0.064 H 
ATOM     54  C   LIG d   1       5.354   0.511  -8.095  0.00  0.00    -0.043 A 
ATOM     55 CL   LIG d   1       2.908   1.669  -8.163  0.00  0.00    -0.084 Cl
ATOM     56  C   LIG d   1       6.281  -0.397  -7.622  0.00  0.00    -0.060 A 
ATOM     57  H   LIG d   1       5.627   1.207  -8.875  0.00  0.00     0.063 H 
ATOM     58  C   LIG d   1       5.932  -1.287  -6.625  0.00  0.00    -0.057 A 
ATOM     59  H   LIG d   1       7.281  -0.412  -8.033  0.00  0.00     0.062 H 
ATOM     60  H   LIG d   1       6.658  -1.996  -6.255  0.00  0.00     0.062 H 
ENDBRANCH   4  50
BRANCH   7  61
ATOM     61  C   LIG d   1       4.367  -4.575  -6.419  0.00  0.00     0.325 C 
ATOM     62  O   LIG d   1       3.705  -5.324  -5.740  0.00  0.00    -0.249 OA
BRANCH  61  63
ATOM     63  O   LIG d   1       3.942  -4.227  -7.644  0.00  0.00    -0.467 OA
BRANCH  63  64
ATOM     64  C   LIG d   1       4.936  -4.197  -8.702  0.00  0.00     0.082 C 
ATOM     65  H   LIG d   1       5.715  -3.462  -8.452  0.00  0.00     0.066 H 
ATOM     66  H   LIG d   1       4.455  -3.914  -9.650  0.00  0.00     0.066 H 
ATOM     67  H   LIG d   1       5.392  -5.193  -8.805  0.00  0.00     0.066 H 
ENDBRANCH  63  64
ENDBRANCH  61  63
ENDBRANCH   7  61
TORSDOF 9
ENDMDL
MODEL 7
REMARK VINA RESULT:      -6.5      2.610      4.183
REMARK  9 active torsions:
REMARK  status: ('A' for Active; 'I' for Inactive)
REMARK    1  A    between atoms: C_1  and  C_2 
REMARK       I    between atoms: C_2  and  N_4 
REMARK    2  A    between atoms: N_4  and  C_5 
REMARK    3  A    between atoms: C_5  and  C_6 
REMARK    4  A    between atoms: C_6  and  N_7 
REMARK    5  A    between atoms: N_7  and  C_8 
REMARK    6  A    between atoms: C_11  and  C_34 
REMARK    7  A    between atoms: C_14  and  C_30 
REMARK    8  A    between atoms: C_30  and  O_32 
REMARK    9  A    between atoms: O_32  and  C_33 
ROOT
ATOM      1  C   LIG d   1       6.950  -2.451  -9.172  0.00  0.00    -0.019 C 
ATOM      2  H   LIG d   1       8.026  -2.450  -9.397  0.00  0.00     0.085 H 
ATOM      3  C   LIG d   1       6.182  -1.630 -10.211  0.00  0.00     0.010 C 
ATOM      4  C   LIG d   1       4.691  -1.634  -9.864  0.00  0.00     0.042 C 
ATOM      5  H   LIG d   1       4.123  -1.011 -10.571  0.00  0.00     0.051 H 
ATOM      6  N   LIG d   1       4.495  -1.074  -8.522  0.00  0.00    -0.274 N 
ATOM      7  C   LIG d   1       3.075  -0.893  -8.202  0.00  0.00     0.113 C 
ATOM      8  H   LIG d   1       2.657  -1.886  -7.982  0.00  0.00     0.058 H 
ATOM      9  C   LIG d   1       2.935   0.042  -6.993  0.00  0.00     0.001 C 
ATOM     10  C   LIG d   1       3.888  -0.425  -5.922  0.00  0.00    -0.016 A 
ATOM     11  C   LIG d   1       3.929  -0.080  -4.519  0.00  0.00     0.003 A 
ATOM     12  C   LIG d   1       3.142   0.760  -3.722  0.00  0.00    -0.052 A 
ATOM     13  C   LIG d   1       3.477   0.850  -2.394  0.00  0.00    -0.061 A 
ATOM     14  C   LIG d   1       4.543   0.147  -1.855  0.00  0.00    -0.060 A 
ATOM     15  C   LIG d   1       5.336  -0.691  -2.617  0.00  0.00    -0.038 A 
ATOM     16  C   LIG d   1       5.020  -0.803  -3.969  0.00  0.00     0.047 A 
ATOM     17  N   LIG d   1       5.581  -1.525  -4.984  0.00  0.00    -0.356 N 
ATOM     18  H   LIG d   1       6.451  -2.168  -4.785  0.00  0.00     0.166 HD
ATOM     19  C   LIG d   1       4.901  -1.295  -6.148  0.00  0.00     0.038 A 
ATOM     20  C   LIG d   1       5.183  -1.885  -7.507  0.00  0.00     0.057 C 
ATOM     21  H   LIG d   1       4.793  -2.913  -7.562  0.00  0.00     0.053 H 
ATOM     22  C   LIG d   1       6.688  -1.876  -7.776  0.00  0.00     0.011 C 
ATOM     23  H   LIG d   1       6.557  -0.596 -10.210  0.00  0.00     0.034 H 
ATOM     24  H   LIG d   1       6.328  -2.072 -11.208  0.00  0.00     0.034 H 
ATOM     25  H   LIG d   1       3.181   1.071  -7.294  0.00  0.00     0.033 H 
ATOM     26  H   LIG d   1       1.901   0.007  -6.619  0.00  0.00     0.033 H 
ATOM     27  H   LIG d   1       2.310   1.310  -4.134  0.00  0.00     0.062 H 
ATOM     28  H   LIG d   1       2.892   1.489  -1.749  0.00  0.00     0.062 H 
ATOM     29  H   LIG d   1       4.761   0.258  -0.802  0.00  0.00     0.062 H 
ATOM     30  H   LIG d   1       6.164  -1.234  -2.185  0.00  0.00     0.064 H 
ATOM     31  H   LIG d   1       7.203  -2.491  -7.024  0.00  0.00     0.034 H 
ATOM     32  H   LIG d   1       7.067  -0.844  -7.728  0.00  0.00     0.034 H 
ENDROOT
BRANCH   1  33
ATOM     33  N   LIG d   1       6.497  -3.848  -9.220  0.00  0.00     0.230 N 
ATOM     34  H   LIG d   1       5.977  -4.018 -10.173  0.00  0.00     0.202 HD
ATOM     35  H   LIG d   1       5.799  -4.020  -8.387  0.00  0.00     0.202 HD
BRANCH  33  36
ATOM     36  C   LIG d   1       7.631  -4.774  -9.107  0.00  0.00    -0.018 C 
ATOM     37  H   LIG d   1       8.560  -4.248  -9.371  0.00  0.00     0.083 H 
ATOM     38  H   LIG d   1       7.482  -5.621  -9.794  0.00  0.00     0.083 H 
BRANCH  36  39
ATOM     39  C   LIG d   1       7.727  -5.291  -7.671  0.00  0.00     0.052 C 
ATOM     40  H   LIG d   1       8.234  -4.542  -7.045  0.00  0.00     0.051 H 
ATOM     41  H   LIG d   1       8.302  -6.230  -7.657  0.00  0.00     0.051 H 
BRANCH  39  42
ATOM     42  N   LIG d   1       6.380  -5.535  -7.149  0.00  0.00    -0.310 N 
ATOM     43  C   LIG d   1       6.031  -5.056  -5.938  0.00  0.00     0.210 C 
ATOM     44  O   LIG d   1       6.831  -4.424  -5.282  0.00  0.00    -0.276 OA
ATOM     45  H   LIG d   1       5.655  -6.107  -7.744  0.00  0.00     0.149 HD
BRANCH  43  46
ATOM     46  C   LIG d   1       4.646  -5.305  -5.401  0.00  0.00     0.012 C 
ATOM     47  H   LIG d   1       4.318  -4.434  -4.812  0.00  0.00     0.032 H 
ATOM     48  H   LIG d   1       4.656  -6.198  -4.759  0.00  0.00     0.032 H 
ATOM     49  H   LIG d   1       3.950  -5.462  -6.238  0.00  0.00     0.032 H 
ENDBRANCH  43  46
ENDBRANCH  39  42
ENDBRANCH  36  39
ENDBRANCH  33  36
ENDBRANCH   1  33
BRANCH   4  50
ATOM     50  C   LIG d   1       4.171  -3.048  -9.891  0.00  0.00    -0.029 A 
ATOM     51  C   LIG d   1       4.234  -3.785 -11.057  0.00  0.00    -0.039 A 
ATOM     52  C   LIG d   1       3.761  -5.086 -11.080  0.00  0.00     0.041 A 
ATOM     53  H   LIG d   1       4.656  -3.348 -11.950  0.00  0.00     0.064 H 
ATOM     54  C   LIG d   1       3.216  -5.642  -9.937  0.00  0.00    -0.043 A 
ATOM     55 CL   LIG d   1       3.848  -6.015 -12.543  0.00  0.00    -0.084 Cl
ATOM     56  C   LIG d   1       3.148  -4.901  -8.773  0.00  0.00    -0.060 A 
ATOM     57  H   LIG d   1       2.843  -6.656  -9.956  0.00  0.00     0.063 H 
ATOM     58  C   LIG d   1       3.625  -3.605  -8.749  0.00  0.00    -0.057 A 
ATOM     59  H   LIG d   1       2.721  -5.336  -7.880  0.00  0.00     0.062 H 
ATOM     60  H   LIG d   1       3.572  -3.027  -7.838  0.00  0.00     0.062 H 
ENDBRANCH   4  50
BRANCH   7  61
ATOM     61  C   LIG d   1       2.365  -0.293  -9.387  0.00  0.00     0.325 C 
ATOM     62  O   LIG d   1       2.719   0.776  -9.826  0.00  0.00    -0.249 OA
BRANCH  61  63
ATOM     63  O   LIG d   1       1.338  -0.945  -9.955  0.00  0.00    -0.467 OA
BRANCH  63  64
ATOM     64  C   LIG d   1       1.359  -1.073 -11.401  0.00  0.00     0.082 C 
ATOM     65  H   LIG d   1       0.581  -0.429 -11.838  0.00  0.00     0.066 H 
ATOM     66  H   LIG d   1       1.167  -2.120 -11.680  0.00  0.00     0.066 H 
ATOM     67  H   LIG d   1       2.344  -0.767 -11.783  0.00  0.00     0.066 H 
ENDBRANCH  63  64
ENDBRANCH  61  63
ENDBRANCH   7  61
TORSDOF 9
ENDMDL
MODEL 8
REMARK VINA RESULT:      -6.4      3.161      5.260
REMARK  9 active torsions:
REMARK  status: ('A' for Active; 'I' for Inactive)
REMARK    1  A    between atoms: C_1  and  C_2 
REMARK       I    between atoms: C_2  and  N_4 
REMARK    2  A    between atoms: N_4  and  C_5 
REMARK    3  A    between atoms: C_5  and  C_6 
REMARK    4  A    between atoms: C_6  and  N_7 
REMARK    5  A    between atoms: N_7  and  C_8 
REMARK    6  A    between atoms: C_11  and  C_34 
REMARK    7  A    between atoms: C_14  and  C_30 
REMARK    8  A    between atoms: C_30  and  O_32 
REMARK    9  A    between atoms: O_32  and  C_33 
ROOT
ATOM      1  C   LIG d   1       3.252  -1.399  -9.456  0.00  0.00    -0.019 C 
ATOM      2  H   LIG d   1       2.499  -0.859 -10.047  0.00  0.00     0.085 H 
ATOM      3  C   LIG d   1       2.937  -2.897  -9.422  0.00  0.00     0.010 C 
ATOM      4  C   LIG d   1       3.990  -3.621  -8.579  0.00  0.00     0.042 C 
ATOM      5  H   LIG d   1       3.759  -4.694  -8.502  0.00  0.00     0.051 H 
ATOM      6  N   LIG d   1       3.998  -3.070  -7.220  0.00  0.00    -0.274 N 
ATOM      7  C   LIG d   1       4.865  -3.836  -6.318  0.00  0.00     0.113 C 
ATOM      8  H   LIG d   1       5.905  -3.578  -6.562  0.00  0.00     0.058 H 
ATOM      9  C   LIG d   1       4.536  -3.481  -4.863  0.00  0.00     0.001 C 
ATOM     10  C   LIG d   1       4.479  -1.978  -4.744  0.00  0.00    -0.016 A 
ATOM     11  C   LIG d   1       4.502  -1.152  -3.558  0.00  0.00     0.003 A 
ATOM     12  C   LIG d   1       4.577  -1.448  -2.193  0.00  0.00    -0.052 A 
ATOM     13  C   LIG d   1       4.576  -0.385  -1.325  0.00  0.00    -0.061 A 
ATOM     14  C   LIG d   1       4.503   0.926  -1.767  0.00  0.00    -0.060 A 
ATOM     15  C   LIG d   1       4.429   1.249  -3.111  0.00  0.00    -0.038 A 
ATOM     16  C   LIG d   1       4.429   0.190  -4.016  0.00  0.00     0.047 A 
ATOM     17  N   LIG d   1       4.370   0.152  -5.380  0.00  0.00    -0.356 N 
ATOM     18  H   LIG d   1       4.308   1.088  -5.953  0.00  0.00     0.166 HD
ATOM     19  C   LIG d   1       4.399  -1.146  -5.809  0.00  0.00     0.038 A 
ATOM     20  C   LIG d   1       4.353  -1.642  -7.232  0.00  0.00     0.057 C 
ATOM     21  H   LIG d   1       5.342  -1.535  -7.703  0.00  0.00     0.053 H 
ATOM     22  C   LIG d   1       3.304  -0.860  -8.023  0.00  0.00     0.011 C 
ATOM     23  H   LIG d   1       1.942  -3.053  -8.981  0.00  0.00     0.034 H 
ATOM     24  H   LIG d   1       2.950  -3.297 -10.447  0.00  0.00     0.034 H 
ATOM     25  H   LIG d   1       3.564  -3.917  -4.588  0.00  0.00     0.033 H 
ATOM     26  H   LIG d   1       5.318  -3.882  -4.201  0.00  0.00     0.033 H 
ATOM     27  H   LIG d   1       4.634  -2.467  -1.840  0.00  0.00     0.062 H 
ATOM     28  H   LIG d   1       4.633  -0.577  -0.263  0.00  0.00     0.062 H 
ATOM     29  H   LIG d   1       4.504   1.723  -1.038  0.00  0.00     0.062 H 
ATOM     30  H   LIG d   1       4.373   2.275  -3.443  0.00  0.00     0.064 H 
ATOM     31  H   LIG d   1       3.573   0.207  -8.042  0.00  0.00     0.034 H 
ATOM     32  H   LIG d   1       2.317  -0.980  -7.550  0.00  0.00     0.034 H 
ENDROOT
BRANCH   1  33
ATOM     33  N   LIG d   1       4.551  -1.187 -10.107  0.00  0.00     0.230 N 
ATOM     34  H   LIG d   1       4.558  -1.724 -11.066  0.00  0.00     0.202 HD
ATOM     35  H   LIG d   1       5.342  -1.589  -9.456  0.00  0.00     0.202 HD
BRANCH  33  36
ATOM     36  C   LIG d   1       4.794   0.243 -10.344  0.00  0.00    -0.018 C 
ATOM     37  H   LIG d   1       5.865   0.407 -10.528  0.00  0.00     0.083 H 
ATOM     38  H   LIG d   1       4.481   0.819  -9.461  0.00  0.00     0.083 H 
BRANCH  36  39
ATOM     39  C   LIG d   1       3.991   0.701 -11.564  0.00  0.00     0.052 C 
ATOM     40  H   LIG d   1       4.095   1.790 -11.683  0.00  0.00     0.051 H 
ATOM     41  H   LIG d   1       2.930   0.448 -11.421  0.00  0.00     0.051 H 
BRANCH  39  42
ATOM     42  N   LIG d   1       4.497   0.027 -12.762  0.00  0.00    -0.310 N 
ATOM     43  C   LIG d   1       3.774  -0.954 -13.339  0.00  0.00     0.210 C 
ATOM     44  O   LIG d   1       2.706  -1.279 -12.865  0.00  0.00    -0.276 OA
ATOM     45  H   LIG d   1       5.465   0.321 -13.191  0.00  0.00     0.149 HD
BRANCH  43  46
ATOM     46  C   LIG d   1       4.293  -1.648 -14.571  0.00  0.00     0.012 C 
ATOM     47  H   LIG d   1       5.200  -2.218 -14.316  0.00  0.00     0.032 H 
ATOM     48  H   LIG d   1       4.536  -0.899 -15.339  0.00  0.00     0.032 H 
ATOM     49  H   LIG d   1       3.525  -2.334 -14.957  0.00  0.00     0.032 H 
ENDBRANCH  43  46
ENDBRANCH  39  42
ENDBRANCH  36  39
ENDBRANCH  33  36
ENDBRANCH   1  33
BRANCH   4  50
ATOM     50  C   LIG d   1       5.350  -3.430  -9.199  0.00  0.00    -0.029 A 
ATOM     51  C   LIG d   1       6.365  -2.843  -8.468  0.00  0.00    -0.039 A 
ATOM     52  C   LIG d   1       7.616  -2.672  -9.036  0.00  0.00     0.041 A 
ATOM     53  H   LIG d   1       6.185  -2.522  -7.453  0.00  0.00     0.064 H 
ATOM     54  C   LIG d   1       7.845  -3.079 -10.338  0.00  0.00    -0.043 A 
ATOM     55 CL   LIG d   1       8.894  -1.942  -8.116  0.00  0.00    -0.084 Cl
ATOM     56  C   LIG d   1       6.827  -3.660 -11.069  0.00  0.00    -0.060 A 
ATOM     57  H   LIG d   1       8.820  -2.941 -10.782  0.00  0.00     0.063 H 
ATOM     58  C   LIG d   1       5.580  -3.835 -10.500  0.00  0.00    -0.057 A 
ATOM     59  H   LIG d   1       7.006  -3.977 -12.087  0.00  0.00     0.062 H 
ATOM     60  H   LIG d   1       4.785  -4.291 -11.072  0.00  0.00     0.062 H 
ENDBRANCH   4  50
BRANCH   7  61
ATOM     61  C   LIG d   1       4.641  -5.310  -6.539  0.00  0.00     0.325 C 
ATOM     62  O   LIG d   1       3.562  -5.799  -6.304  0.00  0.00    -0.249 OA
BRANCH  61  63
ATOM     63  O   LIG d   1       5.642  -6.079  -6.997  0.00  0.00    -0.467 OA
BRANCH  63  64
ATOM     64  C   LIG d   1       6.424  -6.800  -6.009  0.00  0.00     0.082 C 
ATOM     65  H   LIG d   1       7.341  -7.187  -6.478  0.00  0.00     0.066 H 
ATOM     66  H   LIG d   1       5.832  -7.639  -5.614  0.00  0.00     0.066 H 
ATOM     67  H   LIG d   1       6.692  -6.121  -5.186  0.00  0.00     0.066 H 
ENDBRANCH  63  64
ENDBRANCH  61  63
ENDBRANCH   7  61
TORSDOF 9
ENDMDL
MODEL 9
REMARK VINA RESULT:      -6.4      1.845      2.302
REMARK  9 active torsions:
REMARK  status: ('A' for Active; 'I' for Inactive)
REMARK    1  A    between atoms: C_1  and  C_2 
REMARK       I    between atoms: C_2  and  N_4 
REMARK    2  A    between atoms: N_4  and  C_5 
REMARK    3  A    between atoms: C_5  and  C_6 
REMARK    4  A    between atoms: C_6  and  N_7 
REMARK    5  A    between atoms: N_7  and  C_8 
REMARK    6  A    between atoms: C_11  and  C_34 
REMARK    7  A    between atoms: C_14  and  C_30 
REMARK    8  A    between atoms: C_30  and  O_32 
REMARK    9  A    between atoms: O_32  and  C_33 
ROOT
ATOM      1  C   LIG d   1       4.113  -3.645  -9.082  0.00  0.00    -0.019 C 
ATOM      2  H   LIG d   1       3.642  -4.637  -9.127  0.00  0.00     0.085 H 
ATOM      3  C   LIG d   1       5.590  -3.731  -9.475  0.00  0.00     0.010 C 
ATOM      4  C   LIG d   1       6.224  -2.340  -9.387  0.00  0.00     0.042 C 
ATOM      5  H   LIG d   1       7.298  -2.384  -9.621  0.00  0.00     0.051 H 
ATOM      6  N   LIG d   1       6.087  -1.821  -8.022  0.00  0.00    -0.274 N 
ATOM      7  C   LIG d   1       6.824  -0.567  -7.831  0.00  0.00     0.113 C 
ATOM      8  H   LIG d   1       6.250   0.231  -8.323  0.00  0.00     0.058 H 
ATOM      9  C   LIG d   1       6.982  -0.286  -6.331  0.00  0.00     0.001 C 
ATOM     10  C   LIG d   1       5.638  -0.469  -5.672  0.00  0.00    -0.016 A 
ATOM     11  C   LIG d   1       5.195  -0.045  -4.362  0.00  0.00     0.003 A 
ATOM     12  C   LIG d   1       5.828   0.639  -3.319  0.00  0.00    -0.052 A 
ATOM     13  C   LIG d   1       5.084   0.878  -2.190  0.00  0.00    -0.061 A 
ATOM     14  C   LIG d   1       3.767   0.465  -2.077  0.00  0.00    -0.060 A 
ATOM     15  C   LIG d   1       3.115  -0.212  -3.092  0.00  0.00    -0.038 A 
ATOM     16  C   LIG d   1       3.845  -0.468  -4.251  0.00  0.00     0.047 A 
ATOM     17  N   LIG d   1       3.518  -1.097  -5.418  0.00  0.00    -0.356 N 
ATOM     18  H   LIG d   1       2.508  -1.510  -5.556  0.00  0.00     0.166 HD
ATOM     19  C   LIG d   1       4.593  -1.095  -6.263  0.00  0.00     0.038 A 
ATOM     20  C   LIG d   1       4.671  -1.682  -7.650  0.00  0.00     0.057 C 
ATOM     21  H   LIG d   1       4.187  -1.008  -8.374  0.00  0.00     0.053 H 
ATOM     22  C   LIG d   1       3.997  -3.054  -7.674  0.00  0.00     0.011 C 
ATOM     23  H   LIG d   1       6.112  -4.416  -8.792  0.00  0.00     0.034 H 
ATOM     24  H   LIG d   1       5.674  -4.107 -10.506  0.00  0.00     0.034 H 
ATOM     25  H   LIG d   1       7.712  -0.988  -5.901  0.00  0.00     0.033 H 
ATOM     26  H   LIG d   1       7.336   0.745  -6.186  0.00  0.00     0.033 H 
ATOM     27  H   LIG d   1       6.855   0.965  -3.399  0.00  0.00     0.062 H 
ATOM     28  H   LIG d   1       5.541   1.404  -1.365  0.00  0.00     0.062 H 
ATOM     29  H   LIG d   1       3.230   0.680  -1.164  0.00  0.00     0.062 H 
ATOM     30  H   LIG d   1       2.087  -0.528  -2.991  0.00  0.00     0.064 H 
ATOM     31  H   LIG d   1       2.935  -2.950  -7.406  0.00  0.00     0.034 H 
ATOM     32  H   LIG d   1       4.492  -3.723  -6.954  0.00  0.00     0.034 H 
ENDROOT
BRANCH   1  33
ATOM     33  N   LIG d   1       3.402  -2.782 -10.036  0.00  0.00     0.230 N 
ATOM     34  H   LIG d   1       3.639  -3.113 -11.056  0.00  0.00     0.202 HD
ATOM     35  H   LIG d   1       3.746  -1.746  -9.898  0.00  0.00     0.202 HD
BRANCH  33  36
ATOM     36  C   LIG d   1       1.950  -2.848  -9.824  0.00  0.00    -0.018 C 
ATOM     37  H   LIG d   1       1.481  -1.933 -10.213  0.00  0.00     0.083 H 
ATOM     38  H   LIG d   1       1.740  -2.938  -8.748  0.00  0.00     0.083 H 
BRANCH  36  39
ATOM     39  C   LIG d   1       1.382  -4.065 -10.557  0.00  0.00     0.052 C 
ATOM     40  H   LIG d   1       1.870  -4.978 -10.184  0.00  0.00     0.051 H 
ATOM     41  H   LIG d   1       1.571  -3.964 -11.636  0.00  0.00     0.051 H 
BRANCH  39  42
ATOM     42  N   LIG d   1      -0.061  -4.148 -10.319  0.00  0.00    -0.310 N 
ATOM     43  C   LIG d   1      -0.619  -5.326  -9.971  0.00  0.00     0.210 C 
ATOM     44  O   LIG d   1       0.074  -6.314  -9.857  0.00  0.00    -0.276 OA
ATOM     45  H   LIG d   1      -0.688  -3.252 -10.423  0.00  0.00     0.149 HD
BRANCH  43  46
ATOM     46  C   LIG d   1      -2.103  -5.412  -9.726  0.00  0.00     0.012 C 
ATOM     47  H   LIG d   1      -2.451  -6.434  -9.942  0.00  0.00     0.032 H 
ATOM     48  H   LIG d   1      -2.625  -4.701 -10.381  0.00  0.00     0.032 H 
ATOM     49  H   LIG d   1      -2.315  -5.168  -8.675  0.00  0.00     0.032 H 
ENDBRANCH  43  46
ENDBRANCH  39  42
ENDBRANCH  36  39
ENDBRANCH  33  36
ENDBRANCH   1  33
BRANCH   4  50
ATOM     50  C   LIG d   1       5.526  -1.406 -10.343  0.00  0.00    -0.029 A 
ATOM     51  C   LIG d   1       4.954  -0.240  -9.874  0.00  0.00    -0.039 A 
ATOM     52  C   LIG d   1       4.317   0.620 -10.753  0.00  0.00     0.041 A 
ATOM     53  H   LIG d   1       5.007   0.005  -8.824  0.00  0.00     0.064 H 
ATOM     54  C   LIG d   1       4.245   0.304 -12.097  0.00  0.00    -0.043 A 
ATOM     55 CL   LIG d   1       3.606   2.090 -10.166  0.00  0.00    -0.084 Cl
ATOM     56  C   LIG d   1       4.812  -0.867 -12.563  0.00  0.00    -0.060 A 
ATOM     57  H   LIG d   1       3.743   0.972 -12.782  0.00  0.00     0.063 H 
ATOM     58  C   LIG d   1       5.451  -1.722 -11.687  0.00  0.00    -0.057 A 
ATOM     59  H   LIG d   1       4.753  -1.114 -13.614  0.00  0.00     0.062 H 
ATOM     60  H   LIG d   1       5.895  -2.637 -12.052  0.00  0.00     0.062 H 
ENDBRANCH   4  50
BRANCH   7  61
ATOM     61  C   LIG d   1       8.184  -0.682  -8.467  0.00  0.00     0.325 C 
ATOM     62  O   LIG d   1       8.961  -1.525  -8.084  0.00  0.00    -0.249 OA
BRANCH  61  63
ATOM     63  O   LIG d   1       8.534   0.151  -9.460  0.00  0.00    -0.467 OA
BRANCH  63  64
ATOM     64  C   LIG d   1       8.119   1.537  -9.334  0.00  0.00     0.082 C 
ATOM     65  H   LIG d   1       7.027   1.605  -9.449  0.00  0.00     0.066 H 
ATOM     66  H   LIG d   1       8.609   2.139 -10.114  0.00  0.00     0.066 H 
ATOM     67  H   LIG d   1       8.408   1.917  -8.342  0.00  0.00     0.066 H 
ENDBRANCH  63  64
ENDBRANCH  61  63
ENDBRANCH   7  61
TORSDOF 9
ENDMDL
MODEL 10
REMARK VINA RESULT:      -6.3     11.051     15.007
REMARK  9 active torsions:
REMARK  status: ('A' for Active; 'I' for Inactive)
REMARK    1  A    between atoms: C_1  and  C_2 
REMARK       I    between atoms: C_2  and  N_4 
REMARK    2  A    between atoms: N_4  and  C_5 
REMARK    3  A    between atoms: C_5  and  C_6 
REMARK    4  A    between atoms: C_6  and  N_7 
REMARK    5  A    between atoms: N_7  and  C_8 
REMARK    6  A    between atoms: C_11  and  C_34 
REMARK    7  A    between atoms: C_14  and  C_30 
REMARK    8  A    between atoms: C_30  and  O_32 
REMARK    9  A    between atoms: O_32  and  C_33 
ROOT
ATOM      1  C   LIG d   1       9.546   7.624  -0.823  0.00  0.00    -0.019 C 
ATOM      2  H   LIG d   1       9.034   6.976  -0.098  0.00  0.00     0.085 H 
ATOM      3  C   LIG d   1       8.989   9.048  -0.760  0.00  0.00     0.010 C 
ATOM      4  C   LIG d   1       9.707   9.924  -1.792  0.00  0.00     0.042 C 
ATOM      5  H   LIG d   1       9.291  10.942  -1.797  0.00  0.00     0.051 H 
ATOM      6  N   LIG d   1       9.519   9.360  -3.133  0.00  0.00    -0.274 N 
ATOM      7  C   LIG d   1      10.037  10.245  -4.182  0.00  0.00     0.113 C 
ATOM      8  H   LIG d   1      11.134  10.165  -4.168  0.00  0.00     0.058 H 
ATOM      9  C   LIG d   1       9.472   9.817  -5.542  0.00  0.00     0.001 C 
ATOM     10  C   LIG d   1       9.640   8.324  -5.675  0.00  0.00    -0.016 A 
ATOM     11  C   LIG d   1       9.547   7.494  -6.856  0.00  0.00     0.003 A 
ATOM     12  C   LIG d   1       9.283   7.778  -8.200  0.00  0.00    -0.052 A 
ATOM     13  C   LIG d   1       9.273   6.715  -9.069  0.00  0.00    -0.061 A 
ATOM     14  C   LIG d   1       9.512   5.418  -8.648  0.00  0.00    -0.060 A 
ATOM     15  C   LIG d   1       9.777   5.108  -7.325  0.00  0.00    -0.038 A 
ATOM     16  C   LIG d   1       9.794   6.166  -6.420  0.00  0.00     0.047 A 
ATOM     17  N   LIG d   1      10.018   6.215  -5.073  0.00  0.00    -0.356 N 
ATOM     18  H   LIG d   1      10.234   5.291  -4.518  0.00  0.00     0.166 HD
ATOM     19  C   LIG d   1       9.924   7.507  -4.634  0.00  0.00     0.038 A 
ATOM     20  C   LIG d   1      10.098   8.011  -3.224  0.00  0.00     0.057 C 
ATOM     21  H   LIG d   1      11.168   8.076  -2.974  0.00  0.00     0.053 H 
ATOM     22  C   LIG d   1       9.383   7.078  -2.246  0.00  0.00     0.011 C 
ATOM     23  H   LIG d   1       7.912   9.032  -0.979  0.00  0.00     0.034 H 
ATOM     24  H   LIG d   1       9.152   9.462   0.247  0.00  0.00     0.034 H 
ATOM     25  H   LIG d   1       8.406  10.083  -5.597  0.00  0.00     0.033 H 
ATOM     26  H   LIG d   1      10.020  10.331  -6.346  0.00  0.00     0.033 H 
ATOM     27  H   LIG d   1       9.096   8.786  -8.537  0.00  0.00     0.062 H 
ATOM     28  H   LIG d   1       9.073   6.897 -10.115  0.00  0.00     0.062 H 
ATOM     29  H   LIG d   1       9.491   4.620  -9.376  0.00  0.00     0.062 H 
ATOM     30  H   LIG d   1       9.962   4.091  -7.009  0.00  0.00     0.064 H 
ATOM     31  H   LIG d   1       9.822   6.072  -2.304  0.00  0.00     0.034 H 
ATOM     32  H   LIG d   1       8.312   7.027  -2.498  0.00  0.00     0.034 H 
ENDROOT
BRANCH   1  33
ATOM     33  N   LIG d   1      10.971   7.639  -0.465  0.00  0.00     0.230 N 
ATOM     34  H   LIG d   1      11.183   8.556   0.102  0.00  0.00     0.202 HD
ATOM     35  H   LIG d   1      11.567   7.634  -1.389  0.00  0.00     0.202 HD
BRANCH  33  36
ATOM     36  C   LIG d   1      11.321   6.467   0.349  0.00  0.00    -0.018 C 
ATOM     37  H   LIG d   1      10.403   5.938   0.642  0.00  0.00     0.083 H 
ATOM     38  H   LIG d   1      11.858   6.795   1.251  0.00  0.00     0.083 H 
BRANCH  36  39
ATOM     39  C   LIG d   1      12.215   5.529  -0.464  0.00  0.00     0.052 C 
ATOM     40  H   LIG d   1      13.020   5.143   0.178  0.00  0.00     0.051 H 
ATOM     41  H   LIG d   1      12.652   6.081  -1.309  0.00  0.00     0.051 H 
BRANCH  39  42
ATOM     42  N   LIG d   1      11.415   4.412  -0.972  0.00  0.00    -0.310 N 
ATOM     43  C   LIG d   1      11.360   4.171  -2.297  0.00  0.00     0.210 C 
ATOM     44  O   LIG d   1      11.972   4.879  -3.068  0.00  0.00    -0.276 OA
ATOM     45  H   LIG d   1      10.861   3.770  -0.273  0.00  0.00     0.149 HD
BRANCH  43  46
ATOM     46  C   LIG d   1      10.538   3.022  -2.820  0.00  0.00     0.012 C 
ATOM     47  H   LIG d   1      10.927   2.076  -2.410  0.00  0.00     0.032 H 
ATOM     48  H   LIG d   1      10.598   2.997  -3.918  0.00  0.00     0.032 H 
ATOM     49  H   LIG d   1       9.490   3.150  -2.513  0.00  0.00     0.032 H 
ENDBRANCH  43  46
ENDBRANCH  39  42
ENDBRANCH  36  39
ENDBRANCH  33  36
ENDBRANCH   1  33
BRANCH   4  50
ATOM     50  C   LIG d   1      11.180   9.969  -1.476  0.00  0.00    -0.029 A 
ATOM     51  C   LIG d   1      11.610  10.461  -0.260  0.00  0.00    -0.039 A 
ATOM     52  C   LIG d   1      12.964  10.498   0.032  0.00  0.00     0.041 A 
ATOM     53  H   LIG d   1      10.893  10.813   0.466  0.00  0.00     0.064 H 
ATOM     54  C   LIG d   1      13.883  10.053  -0.901  0.00  0.00    -0.043 A 
ATOM     55 CL   LIG d   1      13.505  11.109   1.563  0.00  0.00    -0.084 Cl
ATOM     56  C   LIG d   1      13.450   9.566  -2.120  0.00  0.00    -0.060 A 
ATOM     57  H   LIG d   1      14.939  10.086  -0.675  0.00  0.00     0.063 H 
ATOM     58  C   LIG d   1      12.100   9.525  -2.408  0.00  0.00    -0.057 A 
ATOM     59  H   LIG d   1      14.170   9.219  -2.848  0.00  0.00     0.062 H 
ATOM     60  H   LIG d   1      11.763   9.144  -3.361  0.00  0.00     0.062 H 
ENDBRANCH   4  50
BRANCH   7  61
ATOM     61  C   LIG d   1       9.627  11.664  -3.890  0.00  0.00     0.325 C 
ATOM     62  O   LIG d   1       8.455  11.953  -3.825  0.00  0.00    -0.249 OA
BRANCH  61  63
ATOM     63  O   LIG d   1      10.562  12.609  -3.701  0.00  0.00    -0.467 OA
BRANCH  63  64
ATOM     64  C   LIG d   1      10.390  13.487  -2.558  0.00  0.00     0.082 C 
ATOM     65  H   LIG d   1       9.850  14.393  -2.869  0.00  0.00     0.066 H 
ATOM     66  H   LIG d   1      11.377  13.766  -2.158  0.00  0.00     0.066 H 
ATOM     67  H   LIG d   1       9.813  12.967  -1.779  0.00  0.00     0.066 H 
ENDBRANCH  63  64
ENDBRANCH  61  63
ENDBRANCH   7  61
TORSDOF 9
ENDMDL
