MODEL 1
REMARK VINA RESULT:      -8.1      0.000      0.000
REMARK  6 active torsions:
REMARK  status: ('A' for Active; 'I' for Inactive)
REMARK    1  A    between atoms: C_6  and  C_7 
REMARK    2  A    between atoms: C_7  and  N_50 
REMARK    3  A    between atoms: C_16  and  C_18 
REMARK    4  A    between atoms: C_20  and  C_23 
REMARK    5  A    between atoms: C_26  and  O_29 
REMARK    6  A    between atoms: O_29  and  C_30 
ROOT
ATOM      1  C   LIG d   1       6.957   0.232  -5.895  0.00  0.00     0.012 C 
ATOM      2  C   LIG d   1       7.120   0.706  -7.317  0.00  0.00     0.084 A 
ATOM      3  C   LIG d   1       7.944   1.718  -7.673  0.00  0.00     0.073 A 
ATOM      4  N   LIG d   1       7.834   1.871  -9.018  0.00  0.00    -0.240 NA
ATOM      5  H   LIG d   1       5.863  -0.495  -8.459  0.00  0.00     0.167 HD
ATOM      6  C   LIG d   1       6.946   0.945  -9.449  0.00  0.00     0.094 A 
ATOM      7  N   LIG d   1       6.525   0.253  -8.422  0.00  0.00    -0.344 N 
ATOM      8  C   LIG d   1       8.793   2.483  -6.691  0.00  0.00     0.043 C 
ATOM      9  C   LIG d   1       8.851   1.672  -5.388  0.00  0.00     0.066 C 
ATOM     10  H   LIG d   1       9.463   0.782  -5.541  0.00  0.00     0.096 H 
ATOM     11  H   LIG d   1       7.510  -0.698  -5.752  0.00  0.00     0.088 H 
ATOM     12  H   LIG d   1       5.902   0.068  -5.679  0.00  0.00     0.088 H 
ATOM     13  H   LIG d   1       6.636   0.801 -10.474  0.00  0.00     0.103 H 
ATOM     14  H   LIG d   1       8.347   3.459  -6.498  0.00  0.00     0.039 H 
ATOM     15  H   LIG d   1       9.799   2.608  -7.092  0.00  0.00     0.039 H 
ATOM     16  N   LIG d   1       7.474   1.295  -4.998  0.00  0.00     0.252 N 
ATOM     17  H   LIG d   1       6.869   2.120  -5.079  0.00  0.00     0.205 HD
ENDROOT
BRANCH   9  18
ATOM     18  C   LIG d   1       9.459   2.517  -4.298  0.00  0.00     0.276 A 
ATOM     19  O   LIG d   1      10.299   2.098  -3.345  0.00  0.00    -0.332 OA
ATOM     20  N   LIG d   1      10.603   3.024  -2.624  0.00  0.00    -0.056 NA
ATOM     21  C   LIG d   1      10.007   4.119  -3.022  0.00  0.00     0.202 A 
ATOM     22  N   LIG d   1       9.264   3.797  -4.105  0.00  0.00    -0.186 NA
BRANCH  21  23
ATOM     23  C   LIG d   1      10.124   5.460  -2.401  0.00  0.00     0.023 A 
ATOM     24  C   LIG d   1      10.464   5.580  -1.055  0.00  0.00    -0.048 A 
ATOM     25  C   LIG d   1      10.573   6.830  -0.481  0.00  0.00    -0.019 A 
ATOM     26  H   LIG d   1      10.644   4.696  -0.462  0.00  0.00     0.063 H 
ATOM     27  C   LIG d   1      10.343   7.967  -1.242  0.00  0.00     0.130 A 
ATOM     28  H   LIG d   1      10.836   6.922   0.563  0.00  0.00     0.065 H 
ATOM     29  C   LIG d   1      10.003   7.851  -2.584  0.00  0.00    -0.019 A 
ATOM     30  C   LIG d   1       9.898   6.605  -3.165  0.00  0.00    -0.048 A 
ATOM     31  H   LIG d   1       9.824   8.738  -3.174  0.00  0.00     0.065 H 
ATOM     32  H   LIG d   1       9.639   6.516  -4.209  0.00  0.00     0.063 H 
BRANCH  27  33
ATOM     33  O   LIG d   1      10.450   9.196  -0.674  0.00  0.00    -0.406 OA
BRANCH  33  34
ATOM     34  C   LIG d   1       9.250   9.963  -0.555  0.00  0.00     0.575 C 
ATOM     35  F   LIG d   1       8.149   9.100  -0.504  0.00  0.00    -0.133 F 
ATOM     36  F   LIG d   1       9.297  10.725   0.616  0.00  0.00    -0.133 F 
ATOM     37  F   LIG d   1       9.127  10.812  -1.660  0.00  0.00    -0.133 F 
ENDBRANCH  33  34
ENDBRANCH  27  33
ENDBRANCH  21  23
ENDBRANCH   9  18
BRANCH  16  38
ATOM     38  C   LIG d   1       7.458   0.825  -3.598  0.00  0.00    -0.005 C 
ATOM     39  H   LIG d   1       8.152  -0.004  -3.463  0.00  0.00     0.087 H 
ATOM     40  H   LIG d   1       7.748   1.651  -2.949  0.00  0.00     0.087 H 
BRANCH  38  41
ATOM     41  C   LIG d   1       6.063   0.374  -3.245  0.00  0.00    -0.003 A 
ATOM     42  C   LIG d   1       5.076   1.311  -3.000  0.00  0.00    -0.051 A 
ATOM     43  C   LIG d   1       3.796   0.898  -2.681  0.00  0.00    -0.026 A 
ATOM     44  H   LIG d   1       5.305   2.365  -3.062  0.00  0.00     0.062 H 
ATOM     45  C   LIG d   1       3.505  -0.452  -2.597  0.00  0.00     0.123 A 
ATOM     46  H   LIG d   1       3.024   1.630  -2.495  0.00  0.00     0.065 H 
ATOM     47  C   LIG d   1       4.496  -1.389  -2.837  0.00  0.00    -0.026 A 
ATOM     48  F   LIG d   1       2.256  -0.857  -2.280  0.00  0.00    -0.205 F 
ATOM     49  C   LIG d   1       5.774  -0.975  -3.161  0.00  0.00    -0.051 A 
ATOM     50  H   LIG d   1       4.270  -2.444  -2.771  0.00  0.00     0.065 H 
ATOM     51  H   LIG d   1       6.547  -1.706  -3.348  0.00  0.00     0.062 H 
ENDBRANCH  38  41
ENDBRANCH  16  38
TORSDOF 6
ENDMDL
MODEL 2
REMARK VINA RESULT:      -7.7      2.286      3.446
REMARK  6 active torsions:
REMARK  status: ('A' for Active; 'I' for Inactive)
REMARK    1  A    between atoms: C_6  and  C_7 
REMARK    2  A    between atoms: C_7  and  N_50 
REMARK    3  A    between atoms: C_16  and  C_18 
REMARK    4  A    between atoms: C_20  and  C_23 
REMARK    5  A    between atoms: C_26  and  O_29 
REMARK    6  A    between atoms: O_29  and  C_30 
ROOT
ATOM      1  C   LIG d   1       4.386  -1.053  -8.012  0.00  0.00     0.012 C 
ATOM      2  C   LIG d   1       4.216  -0.277  -9.294  0.00  0.00     0.084 A 
ATOM      3  C   LIG d   1       5.072   0.691  -9.695  0.00  0.00     0.073 A 
ATOM      4  N   LIG d   1       4.610   1.169 -10.879  0.00  0.00    -0.240 NA
ATOM      5  H   LIG d   1       2.490  -1.024 -10.181  0.00  0.00     0.167 HD
ATOM      6  C   LIG d   1       3.484   0.478 -11.172  0.00  0.00     0.094 A 
ATOM      7  N   LIG d   1       3.258  -0.385 -10.216  0.00  0.00    -0.344 N 
ATOM      8  C   LIG d   1       6.291   1.100  -8.909  0.00  0.00     0.043 C 
ATOM      9  C   LIG d   1       6.573   0.003  -7.873  0.00  0.00     0.066 C 
ATOM     10  H   LIG d   1       6.945  -0.889  -8.380  0.00  0.00     0.096 H 
ATOM     11  H   LIG d   1       4.779  -2.046  -8.233  0.00  0.00     0.088 H 
ATOM     12  H   LIG d   1       3.426  -1.143  -7.506  0.00  0.00     0.088 H 
ATOM     13  H   LIG d   1       2.872   0.616 -12.051  0.00  0.00     0.103 H 
ATOM     14  H   LIG d   1       6.103   2.047  -8.402  0.00  0.00     0.039 H 
ATOM     15  H   LIG d   1       7.144   1.202  -9.580  0.00  0.00     0.039 H 
ATOM     16  N   LIG d   1       5.321  -0.297  -7.142  0.00  0.00     0.252 N 
ATOM     17  H   LIG d   1       4.878   0.586  -6.867  0.00  0.00     0.205 HD
ENDROOT
BRANCH   9  18
ATOM     18  C   LIG d   1       7.610   0.491  -6.894  0.00  0.00     0.276 A 
ATOM     19  O   LIG d   1       8.558  -0.248  -6.309  0.00  0.00    -0.332 OA
ATOM     20  N   LIG d   1       9.232   0.446  -5.576  0.00  0.00    -0.056 NA
ATOM     21  C   LIG d   1       8.802   1.681  -5.607  0.00  0.00     0.202 A 
ATOM     22  N   LIG d   1       7.752   1.717  -6.458  0.00  0.00    -0.186 NA
BRANCH  21  23
ATOM     23  C   LIG d   1       9.362   2.826  -4.849  0.00  0.00     0.023 A 
ATOM     24  C   LIG d   1       9.670   2.686  -3.497  0.00  0.00    -0.048 A 
ATOM     25  C   LIG d   1      10.191   3.754  -2.796  0.00  0.00    -0.019 A 
ATOM     26  H   LIG d   1       9.502   1.744  -3.000  0.00  0.00     0.063 H 
ATOM     27  C   LIG d   1      10.409   4.967  -3.435  0.00  0.00     0.130 A 
ATOM     28  H   LIG d   1      10.429   3.646  -1.748  0.00  0.00     0.065 H 
ATOM     29  C   LIG d   1      10.103   5.109  -4.783  0.00  0.00    -0.019 A 
ATOM     30  C   LIG d   1       9.586   4.045  -5.490  0.00  0.00    -0.048 A 
ATOM     31  H   LIG d   1      10.273   6.054  -5.278  0.00  0.00     0.065 H 
ATOM     32  H   LIG d   1       9.353   4.154  -6.539  0.00  0.00     0.063 H 
BRANCH  27  33
ATOM     33  O   LIG d   1      10.922   6.016  -2.742  0.00  0.00    -0.406 OA
BRANCH  33  34
ATOM     34  C   LIG d   1      10.039   6.695  -1.847  0.00  0.00     0.575 C 
ATOM     35  F   LIG d   1       8.740   6.672  -2.366  0.00  0.00    -0.133 F 
ATOM     36  F   LIG d   1      10.055   6.055  -0.603  0.00  0.00    -0.133 F 
ATOM     37  F   LIG d   1      10.458   8.021  -1.694  0.00  0.00    -0.133 F 
ENDBRANCH  33  34
ENDBRANCH  27  33
ENDBRANCH  21  23
ENDBRANCH   9  18
BRANCH  16  38
ATOM     38  C   LIG d   1       5.623  -1.081  -5.927  0.00  0.00    -0.005 C 
ATOM     39  H   LIG d   1       5.165  -2.068  -5.983  0.00  0.00     0.087 H 
ATOM     40  H   LIG d   1       6.705  -1.187  -5.840  0.00  0.00     0.087 H 
BRANCH  38  41
ATOM     41  C   LIG d   1       5.091  -0.348  -4.723  0.00  0.00    -0.003 A 
ATOM     42  C   LIG d   1       3.732  -0.121  -4.597  0.00  0.00    -0.051 A 
ATOM     43  C   LIG d   1       3.243   0.547  -3.491  0.00  0.00    -0.026 A 
ATOM     44  H   LIG d   1       3.054  -0.469  -5.363  0.00  0.00     0.062 H 
ATOM     45  C   LIG d   1       4.113   0.996  -2.513  0.00  0.00     0.123 A 
ATOM     46  H   LIG d   1       2.181   0.720  -3.391  0.00  0.00     0.065 H 
ATOM     47  C   LIG d   1       5.473   0.773  -2.642  0.00  0.00    -0.026 A 
ATOM     48  F   LIG d   1       3.636   1.654  -1.433  0.00  0.00    -0.205 F 
ATOM     49  C   LIG d   1       5.960   0.101  -3.747  0.00  0.00    -0.051 A 
ATOM     50  H   LIG d   1       6.154   1.125  -1.880  0.00  0.00     0.065 H 
ATOM     51  H   LIG d   1       7.021  -0.073  -3.848  0.00  0.00     0.062 H 
ENDBRANCH  38  41
ENDBRANCH  16  38
TORSDOF 6
ENDMDL
MODEL 3
REMARK VINA RESULT:      -7.7      7.470      9.725
REMARK  6 active torsions:
REMARK  status: ('A' for Active; 'I' for Inactive)
REMARK    1  A    between atoms: C_6  and  C_7 
REMARK    2  A    between atoms: C_7  and  N_50 
REMARK    3  A    between atoms: C_16  and  C_18 
REMARK    4  A    between atoms: C_20  and  C_23 
REMARK    5  A    between atoms: C_26  and  O_29 
REMARK    6  A    between atoms: O_29  and  C_30 
ROOT
ATOM      1  C   LIG d   1       4.930  -0.739 -13.989  0.00  0.00     0.012 C 
ATOM      2  C   LIG d   1       6.381  -0.950 -14.345  0.00  0.00     0.084 A 
ATOM      3  C   LIG d   1       7.251  -1.616 -13.553  0.00  0.00     0.073 A 
ATOM      4  N   LIG d   1       8.454  -1.607 -14.182  0.00  0.00    -0.240 NA
ATOM      5  H   LIG d   1       6.646  -0.031 -16.193  0.00  0.00     0.167 HD
ATOM      6  C   LIG d   1       8.287  -0.937 -15.346  0.00  0.00     0.094 A 
ATOM      7  N   LIG d   1       7.041  -0.548 -15.433  0.00  0.00    -0.344 N 
ATOM      8  C   LIG d   1       6.870  -2.225 -12.228  0.00  0.00     0.043 C 
ATOM      9  C   LIG d   1       5.338  -2.300 -12.168  0.00  0.00     0.066 C 
ATOM     10  H   LIG d   1       4.984  -3.069 -12.858  0.00  0.00     0.096 H 
ATOM     11  H   LIG d   1       4.308  -1.428 -14.561  0.00  0.00     0.088 H 
ATOM     12  H   LIG d   1       4.641   0.287 -14.211  0.00  0.00     0.088 H 
ATOM     13  H   LIG d   1       9.055  -0.753 -16.082  0.00  0.00     0.103 H 
ATOM     14  H   LIG d   1       7.241  -1.601 -11.414  0.00  0.00     0.039 H 
ATOM     15  H   LIG d   1       7.292  -3.227 -12.148  0.00  0.00     0.039 H 
ATOM     16  N   LIG d   1       4.780  -0.979 -12.532  0.00  0.00     0.252 N 
ATOM     17  H   LIG d   1       5.292  -0.250 -12.022  0.00  0.00     0.205 HD
ENDROOT
BRANCH   9  18
ATOM     18  C   LIG d   1       4.907  -2.648 -10.767  0.00  0.00     0.276 A 
ATOM     19  O   LIG d   1       4.005  -3.573 -10.421  0.00  0.00    -0.332 OA
ATOM     20  N   LIG d   1       3.887  -3.607  -9.214  0.00  0.00    -0.056 NA
ATOM     21  C   LIG d   1       4.681  -2.727  -8.660  0.00  0.00     0.202 A 
ATOM     22  N   LIG d   1       5.344  -2.103  -9.660  0.00  0.00    -0.186 NA
BRANCH  21  23
ATOM     23  C   LIG d   1       4.826  -2.464  -7.208  0.00  0.00     0.023 A 
ATOM     24  C   LIG d   1       5.011  -1.161  -6.749  0.00  0.00    -0.048 A 
ATOM     25  C   LIG d   1       5.146  -0.921  -5.397  0.00  0.00    -0.019 A 
ATOM     26  H   LIG d   1       5.049  -0.342  -7.450  0.00  0.00     0.063 H 
ATOM     27  C   LIG d   1       5.097  -1.974  -4.494  0.00  0.00     0.130 A 
ATOM     28  H   LIG d   1       5.290   0.089  -5.041  0.00  0.00     0.065 H 
ATOM     29  C   LIG d   1       4.913  -3.274  -4.949  0.00  0.00    -0.019 A 
ATOM     30  C   LIG d   1       4.773  -3.520  -6.298  0.00  0.00    -0.048 A 
ATOM     31  H   LIG d   1       4.876  -4.092  -4.244  0.00  0.00     0.065 H 
ATOM     32  H   LIG d   1       4.625  -4.530  -6.651  0.00  0.00     0.063 H 
BRANCH  27  33
ATOM     33  O   LIG d   1       5.230  -1.734  -3.164  0.00  0.00    -0.406 OA
BRANCH  33  34
ATOM     34  C   LIG d   1       4.028  -1.633  -2.399  0.00  0.00     0.575 C 
ATOM     35  F   LIG d   1       3.043  -0.992  -3.160  0.00  0.00    -0.133 F 
ATOM     36  F   LIG d   1       3.587  -2.914  -2.053  0.00  0.00    -0.133 F 
ATOM     37  F   LIG d   1       4.274  -0.894  -1.238  0.00  0.00    -0.133 F 
ENDBRANCH  33  34
ENDBRANCH  27  33
ENDBRANCH  21  23
ENDBRANCH   9  18
BRANCH  16  38
ATOM     38  C   LIG d   1       3.353  -0.914 -12.156  0.00  0.00    -0.005 C 
ATOM     39  H   LIG d   1       2.748  -0.583 -13.000  0.00  0.00     0.087 H 
ATOM     40  H   LIG d   1       3.029  -1.907 -11.843  0.00  0.00     0.087 H 
BRANCH  38  41
ATOM     41  C   LIG d   1       3.188   0.053 -11.011  0.00  0.00    -0.003 A 
ATOM     42  C   LIG d   1       2.312  -0.239  -9.982  0.00  0.00    -0.051 A 
ATOM     43  C   LIG d   1       2.163   0.644  -8.930  0.00  0.00    -0.026 A 
ATOM     44  H   LIG d   1       1.747  -1.160  -9.999  0.00  0.00     0.062 H 
ATOM     45  C   LIG d   1       2.884   1.825  -8.911  0.00  0.00     0.123 A 
ATOM     46  H   LIG d   1       1.483   0.413  -8.123  0.00  0.00     0.065 H 
ATOM     47  C   LIG d   1       3.757   2.119  -9.944  0.00  0.00    -0.026 A 
ATOM     48  F   LIG d   1       2.736   2.692  -7.885  0.00  0.00    -0.205 F 
ATOM     49  C   LIG d   1       3.908   1.233 -10.993  0.00  0.00    -0.051 A 
ATOM     50  H   LIG d   1       4.320   3.042  -9.931  0.00  0.00     0.065 H 
ATOM     51  H   LIG d   1       4.589   1.462 -11.800  0.00  0.00     0.062 H 
ENDBRANCH  38  41
ENDBRANCH  16  38
TORSDOF 6
ENDMDL
MODEL 4
REMARK VINA RESULT:      -7.6      7.008     10.408
REMARK  6 active torsions:
REMARK  status: ('A' for Active; 'I' for Inactive)
REMARK    1  A    between atoms: C_6  and  C_7 
REMARK    2  A    between atoms: C_7  and  N_50 
REMARK    3  A    between atoms: C_16  and  C_18 
REMARK    4  A    between atoms: C_20  and  C_23 
REMARK    5  A    between atoms: C_26  and  O_29 
REMARK    6  A    between atoms: O_29  and  C_30 
ROOT
ATOM      1  C   LIG d   1       7.410  -9.981  -5.800  0.00  0.00     0.012 C 
ATOM      2  C   LIG d   1       6.054 -10.642  -5.800  0.00  0.00     0.084 A 
ATOM      3  C   LIG d   1       4.897  -9.965  -5.980  0.00  0.00     0.073 A 
ATOM      4  N   LIG d   1       3.888 -10.871  -5.917  0.00  0.00    -0.240 NA
ATOM      5  H   LIG d   1       6.415 -12.666  -5.482  0.00  0.00     0.167 HD
ATOM      6  C   LIG d   1       4.456 -12.081  -5.702  0.00  0.00     0.094 A 
ATOM      7  N   LIG d   1       5.753 -11.931  -5.634  0.00  0.00    -0.344 N 
ATOM      8  C   LIG d   1       4.832  -8.476  -6.203  0.00  0.00     0.043 C 
ATOM      9  C   LIG d   1       6.241  -7.994  -6.579  0.00  0.00     0.066 C 
ATOM     10  H   LIG d   1       6.489  -8.343  -7.582  0.00  0.00     0.096 H 
ATOM     11  H   LIG d   1       7.910 -10.170  -6.750  0.00  0.00     0.088 H 
ATOM     12  H   LIG d   1       8.012 -10.376  -4.983  0.00  0.00     0.088 H 
ATOM     13  H   LIG d   1       3.925 -13.016  -5.603  0.00  0.00     0.103 H 
ATOM     14  H   LIG d   1       4.503  -7.979  -5.290  0.00  0.00     0.039 H 
ATOM     15  H   LIG d   1       4.138  -8.255  -7.015  0.00  0.00     0.039 H 
ATOM     16  N   LIG d   1       7.206  -8.526  -5.590  0.00  0.00     0.252 N 
ATOM     17  H   LIG d   1       6.832  -8.376  -4.647  0.00  0.00     0.205 HD
ENDROOT
BRANCH   9  18
ATOM     18  C   LIG d   1       6.282  -6.488  -6.547  0.00  0.00     0.276 A 
ATOM     19  O   LIG d   1       6.683  -5.684  -7.537  0.00  0.00    -0.332 OA
ATOM     20  N   LIG d   1       6.593  -4.525  -7.193  0.00  0.00    -0.056 NA
ATOM     21  C   LIG d   1       6.134  -4.454  -5.970  0.00  0.00     0.202 A 
ATOM     22  N   LIG d   1       5.930  -5.721  -5.546  0.00  0.00    -0.186 NA
BRANCH  21  23
ATOM     23  C   LIG d   1       5.884  -3.214  -5.195  0.00  0.00     0.023 A 
ATOM     24  C   LIG d   1       6.829  -2.762  -4.276  0.00  0.00    -0.048 A 
ATOM     25  C   LIG d   1       6.593  -1.608  -3.558  0.00  0.00    -0.019 A 
ATOM     26  H   LIG d   1       7.745  -3.313  -4.127  0.00  0.00     0.063 H 
ATOM     27  C   LIG d   1       5.416  -0.898  -3.748  0.00  0.00     0.130 A 
ATOM     28  H   LIG d   1       7.325  -1.258  -2.844  0.00  0.00     0.065 H 
ATOM     29  C   LIG d   1       4.472  -1.347  -4.664  0.00  0.00    -0.019 A 
ATOM     30  C   LIG d   1       4.704  -2.496  -5.388  0.00  0.00    -0.048 A 
ATOM     31  H   LIG d   1       3.557  -0.792  -4.810  0.00  0.00     0.065 H 
ATOM     32  H   LIG d   1       3.972  -2.841  -6.103  0.00  0.00     0.063 H 
BRANCH  27  33
ATOM     33  O   LIG d   1       5.186   0.237  -3.038  0.00  0.00    -0.406 OA
BRANCH  33  34
ATOM     34  C   LIG d   1       4.329   0.128  -1.901  0.00  0.00     0.575 C 
ATOM     35  F   LIG d   1       4.453  -1.149  -1.343  0.00  0.00    -0.133 F 
ATOM     36  F   LIG d   1       4.692   1.088  -0.950  0.00  0.00    -0.133 F 
ATOM     37  F   LIG d   1       3.003   0.339  -2.294  0.00  0.00    -0.133 F 
ENDBRANCH  33  34
ENDBRANCH  27  33
ENDBRANCH  21  23
ENDBRANCH   9  18
BRANCH  16  38
ATOM     38  C   LIG d   1       8.495  -7.815  -5.713  0.00  0.00    -0.005 C 
ATOM     39  H   LIG d   1       9.278  -8.494  -6.051  0.00  0.00     0.087 H 
ATOM     40  H   LIG d   1       8.380  -7.005  -6.435  0.00  0.00     0.087 H 
BRANCH  38  41
ATOM     41  C   LIG d   1       8.872  -7.242  -4.371  0.00  0.00    -0.003 A 
ATOM     42  C   LIG d   1       8.923  -8.063  -3.259  0.00  0.00    -0.051 A 
ATOM     43  C   LIG d   1       9.273  -7.539  -2.029  0.00  0.00    -0.026 A 
ATOM     44  H   LIG d   1       8.693  -9.114  -3.354  0.00  0.00     0.062 H 
ATOM     45  C   LIG d   1       9.564  -6.192  -1.908  0.00  0.00     0.123 A 
ATOM     46  H   LIG d   1       9.318  -8.182  -1.162  0.00  0.00     0.065 H 
ATOM     47  C   LIG d   1       9.508  -5.370  -3.021  0.00  0.00    -0.026 A 
ATOM     48  F   LIG d   1       9.902  -5.678  -0.705  0.00  0.00    -0.205 F 
ATOM     49  C   LIG d   1       9.162  -5.896  -4.251  0.00  0.00    -0.051 A 
ATOM     50  H   LIG d   1       9.733  -4.317  -2.928  0.00  0.00     0.065 H 
ATOM     51  H   LIG d   1       9.118  -5.255  -5.119  0.00  0.00     0.062 H 
ENDBRANCH  38  41
ENDBRANCH  16  38
TORSDOF 6
ENDMDL
MODEL 5
REMARK VINA RESULT:      -7.6      7.493     10.538
REMARK  6 active torsions:
REMARK  status: ('A' for Active; 'I' for Inactive)
REMARK    1  A    between atoms: C_6  and  C_7 
REMARK    2  A    between atoms: C_7  and  N_50 
REMARK    3  A    between atoms: C_16  and  C_18 
REMARK    4  A    between atoms: C_20  and  C_23 
REMARK    5  A    between atoms: C_26  and  O_29 
REMARK    6  A    between atoms: O_29  and  C_30 
ROOT
ATOM      1  C   LIG d   1       7.249  -9.501  -7.300  0.00  0.00     0.012 C 
ATOM      2  C   LIG d   1       6.468  -9.901  -8.527  0.00  0.00     0.084 A 
ATOM      3  C   LIG d   1       5.375  -9.233  -8.961  0.00  0.00     0.073 A 
ATOM      4  N   LIG d   1       4.934  -9.869 -10.077  0.00  0.00    -0.240 NA
ATOM      5  H   LIG d   1       7.431 -11.582  -9.284  0.00  0.00     0.167 HD
ATOM      6  C   LIG d   1       5.772 -10.909 -10.296  0.00  0.00     0.094 A 
ATOM      7  N   LIG d   1       6.686 -10.918  -9.361  0.00  0.00    -0.344 N 
ATOM      8  C   LIG d   1       4.817  -8.014  -8.272  0.00  0.00     0.043 C 
ATOM      9  C   LIG d   1       5.892  -7.482  -7.314  0.00  0.00     0.066 C 
ATOM     10  H   LIG d   1       6.706  -7.039  -7.891  0.00  0.00     0.096 H 
ATOM     11  H   LIG d   1       8.168  -8.995  -7.598  0.00  0.00     0.088 H 
ATOM     12  H   LIG d   1       7.492 -10.386  -6.713  0.00  0.00     0.088 H 
ATOM     13  H   LIG d   1       5.697 -11.616 -11.110  0.00  0.00     0.103 H 
ATOM     14  H   LIG d   1       3.923  -8.284  -7.710  0.00  0.00     0.039 H 
ATOM     15  H   LIG d   1       4.572  -7.252  -9.012  0.00  0.00     0.039 H 
ATOM     16  N   LIG d   1       6.392  -8.603  -6.487  0.00  0.00     0.252 N 
ATOM     17  H   LIG d   1       5.590  -9.138  -6.135  0.00  0.00     0.205 HD
ENDROOT
BRANCH   9  18
ATOM     18  C   LIG d   1       5.288  -6.435  -6.413  0.00  0.00     0.276 A 
ATOM     19  O   LIG d   1       4.293  -6.619  -5.540  0.00  0.00    -0.332 OA
ATOM     20  N   LIG d   1       4.042  -5.578  -4.971  0.00  0.00    -0.056 NA
ATOM     21  C   LIG d   1       4.830  -4.628  -5.404  0.00  0.00     0.202 A 
ATOM     22  N   LIG d   1       5.639  -5.176  -6.338  0.00  0.00    -0.186 NA
BRANCH  21  23
ATOM     23  C   LIG d   1       4.835  -3.215  -4.954  0.00  0.00     0.023 A 
ATOM     24  C   LIG d   1       4.965  -2.913  -3.600  0.00  0.00    -0.048 A 
ATOM     25  C   LIG d   1       4.970  -1.597  -3.185  0.00  0.00    -0.019 A 
ATOM     26  H   LIG d   1       5.064  -3.708  -2.876  0.00  0.00     0.063 H 
ATOM     27  C   LIG d   1       4.844  -0.574  -4.115  0.00  0.00     0.130 A 
ATOM     28  H   LIG d   1       5.070  -1.364  -2.135  0.00  0.00     0.065 H 
ATOM     29  C   LIG d   1       4.714  -0.873  -5.466  0.00  0.00    -0.019 A 
ATOM     30  C   LIG d   1       4.714  -2.185  -5.887  0.00  0.00    -0.048 A 
ATOM     31  H   LIG d   1       4.616  -0.074  -6.187  0.00  0.00     0.065 H 
ATOM     32  H   LIG d   1       4.617  -2.416  -6.937  0.00  0.00     0.063 H 
BRANCH  27  33
ATOM     33  O   LIG d   1       4.848   0.720  -3.704  0.00  0.00    -0.406 OA
BRANCH  33  34
ATOM     34  C   LIG d   1       3.768   1.138  -2.867  0.00  0.00     0.575 C 
ATOM     35  F   LIG d   1       3.383   2.437  -3.216  0.00  0.00    -0.133 F 
ATOM     36  F   LIG d   1       2.683   0.271  -3.038  0.00  0.00    -0.133 F 
ATOM     37  F   LIG d   1       4.177   1.115  -1.530  0.00  0.00    -0.133 F 
ENDBRANCH  33  34
ENDBRANCH  27  33
ENDBRANCH  21  23
ENDBRANCH   9  18
BRANCH  16  38
ATOM     38  C   LIG d   1       7.159  -8.078  -5.339  0.00  0.00    -0.005 C 
ATOM     39  H   LIG d   1       8.230  -8.150  -5.528  0.00  0.00     0.087 H 
ATOM     40  H   LIG d   1       6.886  -7.034  -5.184  0.00  0.00     0.087 H 
BRANCH  38  41
ATOM     41  C   LIG d   1       6.813  -8.876  -4.108  0.00  0.00    -0.003 A 
ATOM     42  C   LIG d   1       5.610  -9.556  -4.041  0.00  0.00    -0.051 A 
ATOM     43  C   LIG d   1       5.294 -10.291  -2.915  0.00  0.00    -0.026 A 
ATOM     44  H   LIG d   1       4.921  -9.515  -4.872  0.00  0.00     0.062 H 
ATOM     45  C   LIG d   1       6.176 -10.340  -1.850  0.00  0.00     0.123 A 
ATOM     46  H   LIG d   1       4.357 -10.827  -2.865  0.00  0.00     0.065 H 
ATOM     47  C   LIG d   1       7.377  -9.654  -1.915  0.00  0.00    -0.026 A 
ATOM     48  F   LIG d   1       5.866 -11.054  -0.745  0.00  0.00    -0.205 F 
ATOM     49  C   LIG d   1       7.694  -8.923  -3.044  0.00  0.00    -0.051 A 
ATOM     50  H   LIG d   1       8.066  -9.689  -1.083  0.00  0.00     0.065 H 
ATOM     51  H   LIG d   1       8.631  -8.388  -3.095  0.00  0.00     0.062 H 
ENDBRANCH  38  41
ENDBRANCH  16  38
TORSDOF 6
ENDMDL
MODEL 6
REMARK VINA RESULT:      -7.6      2.772      8.649
REMARK  6 active torsions:
REMARK  status: ('A' for Active; 'I' for Inactive)
REMARK    1  A    between atoms: C_6  and  C_7 
REMARK    2  A    between atoms: C_7  and  N_50 
REMARK    3  A    between atoms: C_16  and  C_18 
REMARK    4  A    between atoms: C_20  and  C_23 
REMARK    5  A    between atoms: C_26  and  O_29 
REMARK    6  A    between atoms: O_29  and  C_30 
ROOT
ATOM      1  C   LIG d   1      10.389   7.563  -5.044  0.00  0.00     0.012 C 
ATOM      2  C   LIG d   1      11.415   7.457  -6.144  0.00  0.00     0.084 A 
ATOM      3  C   LIG d   1      11.833   6.277  -6.658  0.00  0.00     0.073 A 
ATOM      4  N   LIG d   1      12.752   6.561  -7.616  0.00  0.00    -0.240 NA
ATOM      5  H   LIG d   1      11.955   9.412  -6.603  0.00  0.00     0.167 HD
ATOM      6  C   LIG d   1      12.871   7.908  -7.664  0.00  0.00     0.094 A 
ATOM      7  N   LIG d   1      12.066   8.434  -6.778  0.00  0.00    -0.344 N 
ATOM      8  C   LIG d   1      11.318   4.939  -6.193  0.00  0.00     0.043 C 
ATOM      9  C   LIG d   1      10.031   5.182  -5.393  0.00  0.00     0.066 C 
ATOM     10  H   LIG d   1       9.232   5.486  -6.072  0.00  0.00     0.096 H 
ATOM     11  H   LIG d   1       9.429   7.862  -5.466  0.00  0.00     0.088 H 
ATOM     12  H   LIG d   1      10.712   8.300  -4.308  0.00  0.00     0.088 H 
ATOM     13  H   LIG d   1      13.524   8.459  -8.325  0.00  0.00     0.103 H 
ATOM     14  H   LIG d   1      12.062   4.457  -5.559  0.00  0.00     0.039 H 
ATOM     15  H   LIG d   1      11.103   4.308  -7.056  0.00  0.00     0.039 H 
ATOM     16  N   LIG d   1      10.287   6.237  -4.386  0.00  0.00     0.252 N 
ATOM     17  H   LIG d   1      11.173   6.033  -3.910  0.00  0.00     0.205 HD
ENDROOT
BRANCH   9  18
ATOM     18  C   LIG d   1       9.632   3.913  -4.686  0.00  0.00     0.276 A 
ATOM     19  O   LIG d   1      10.336   3.273  -3.746  0.00  0.00    -0.332 OA
ATOM     20  N   LIG d   1       9.737   2.284  -3.381  0.00  0.00    -0.056 NA
ATOM     21  C   LIG d   1       8.605   2.178  -4.029  0.00  0.00     0.202 A 
ATOM     22  N   LIG d   1       8.531   3.229  -4.876  0.00  0.00    -0.186 NA
BRANCH  21  23
ATOM     23  C   LIG d   1       7.594   1.105  -3.865  0.00  0.00     0.023 A 
ATOM     24  C   LIG d   1       7.893  -0.201  -4.248  0.00  0.00    -0.048 A 
ATOM     25  C   LIG d   1       6.950  -1.196  -4.094  0.00  0.00    -0.019 A 
ATOM     26  H   LIG d   1       8.861  -0.434  -4.665  0.00  0.00     0.063 H 
ATOM     27  C   LIG d   1       5.705  -0.898  -3.558  0.00  0.00     0.130 A 
ATOM     28  H   LIG d   1       7.181  -2.208  -4.392  0.00  0.00     0.065 H 
ATOM     29  C   LIG d   1       5.405   0.403  -3.175  0.00  0.00    -0.019 A 
ATOM     30  C   LIG d   1       6.344   1.401  -3.322  0.00  0.00    -0.048 A 
ATOM     31  H   LIG d   1       4.434   0.633  -2.759  0.00  0.00     0.065 H 
ATOM     32  H   LIG d   1       6.112   2.412  -3.020  0.00  0.00     0.063 H 
BRANCH  27  33
ATOM     33  O   LIG d   1       4.778  -1.879  -3.408  0.00  0.00    -0.406 OA
BRANCH  33  34
ATOM     34  C   LIG d   1       3.877  -1.758  -2.306  0.00  0.00     0.575 C 
ATOM     35  F   LIG d   1       4.527  -1.126  -1.240  0.00  0.00    -0.133 F 
ATOM     36  F   LIG d   1       2.769  -0.997  -2.692  0.00  0.00    -0.133 F 
ATOM     37  F   LIG d   1       3.454  -3.030  -1.907  0.00  0.00    -0.133 F 
ENDBRANCH  33  34
ENDBRANCH  27  33
ENDBRANCH  21  23
ENDBRANCH   9  18
BRANCH  16  38
ATOM     38  C   LIG d   1       9.199   6.253  -3.387  0.00  0.00    -0.005 C 
ATOM     39  H   LIG d   1       8.442   6.990  -3.655  0.00  0.00     0.087 H 
ATOM     40  H   LIG d   1       8.745   5.263  -3.349  0.00  0.00     0.087 H 
BRANCH  38  41
ATOM     41  C   LIG d   1       9.775   6.594  -2.036  0.00  0.00    -0.003 A 
ATOM     42  C   LIG d   1      10.450   5.630  -1.310  0.00  0.00    -0.051 A 
ATOM     43  C   LIG d   1      10.983   5.943  -0.074  0.00  0.00    -0.026 A 
ATOM     44  H   LIG d   1      10.564   4.634  -1.712  0.00  0.00     0.062 H 
ATOM     45  C   LIG d   1      10.832   7.219   0.442  0.00  0.00     0.123 A 
ATOM     46  H   LIG d   1      11.514   5.191   0.491  0.00  0.00     0.065 H 
ATOM     47  C   LIG d   1      10.152   8.181  -0.283  0.00  0.00    -0.026 A 
ATOM     48  F   LIG d   1      11.348   7.524   1.653  0.00  0.00    -0.205 F 
ATOM     49  C   LIG d   1       9.624   7.868  -1.522  0.00  0.00    -0.051 A 
ATOM     50  H   LIG d   1      10.032   9.177   0.118  0.00  0.00     0.065 H 
ATOM     51  H   LIG d   1       9.093   8.619  -2.088  0.00  0.00     0.062 H 
ENDBRANCH  38  41
ENDBRANCH  16  38
TORSDOF 6
ENDMDL
MODEL 7
REMARK VINA RESULT:      -7.6      4.062      8.936
REMARK  6 active torsions:
REMARK  status: ('A' for Active; 'I' for Inactive)
REMARK    1  A    between atoms: C_6  and  C_7 
REMARK    2  A    between atoms: C_7  and  N_50 
REMARK    3  A    between atoms: C_16  and  C_18 
REMARK    4  A    between atoms: C_20  and  C_23 
REMARK    5  A    between atoms: C_26  and  O_29 
REMARK    6  A    between atoms: O_29  and  C_30 
ROOT
ATOM      1  C   LIG d   1      11.408   7.073  -4.337  0.00  0.00     0.012 C 
ATOM      2  C   LIG d   1      10.890   7.770  -3.104  0.00  0.00     0.084 A 
ATOM      3  C   LIG d   1      10.140   7.154  -2.162  0.00  0.00     0.073 A 
ATOM      4  N   LIG d   1       9.854   8.078  -1.209  0.00  0.00    -0.240 NA
ATOM      5  H   LIG d   1      11.575   9.730  -3.236  0.00  0.00     0.167 HD
ATOM      6  C   LIG d   1      10.441   9.236  -1.593  0.00  0.00     0.094 A 
ATOM      7  N   LIG d   1      11.059   9.039  -2.729  0.00  0.00    -0.344 N 
ATOM      8  C   LIG d   1       9.739   5.703  -2.237  0.00  0.00     0.043 C 
ATOM      9  C   LIG d   1      10.632   5.022  -3.284  0.00  0.00     0.066 C 
ATOM     10  H   LIG d   1      11.648   4.936  -2.894  0.00  0.00     0.096 H 
ATOM     11  H   LIG d   1      12.467   6.844  -4.212  0.00  0.00     0.088 H 
ATOM     12  H   LIG d   1      11.271   7.714  -5.208  0.00  0.00     0.088 H 
ATOM     13  H   LIG d   1      10.406  10.169  -1.050  0.00  0.00     0.103 H 
ATOM     14  H   LIG d   1       8.694   5.623  -2.537  0.00  0.00     0.039 H 
ATOM     15  H   LIG d   1       9.883   5.231  -1.266  0.00  0.00     0.039 H 
ATOM     16  N   LIG d   1      10.618   5.831  -4.524  0.00  0.00     0.252 N 
ATOM     17  H   LIG d   1       9.648   6.084  -4.743  0.00  0.00     0.205 HD
ENDROOT
BRANCH   9  18
ATOM     18  C   LIG d   1      10.093   3.647  -3.586  0.00  0.00     0.276 A 
ATOM     19  O   LIG d   1      10.776   2.625  -4.113  0.00  0.00    -0.332 OA
ATOM     20  N   LIG d   1      10.053   1.659  -4.229  0.00  0.00    -0.056 NA
ATOM     21  C   LIG d   1       8.850   1.943  -3.799  0.00  0.00     0.202 A 
ATOM     22  N   LIG d   1       8.870   3.229  -3.382  0.00  0.00    -0.186 NA
BRANCH  21  23
ATOM     23  C   LIG d   1       7.685   1.026  -3.774  0.00  0.00     0.023 A 
ATOM     24  C   LIG d   1       6.433   1.497  -3.382  0.00  0.00    -0.048 A 
ATOM     25  C   LIG d   1       5.352   0.641  -3.361  0.00  0.00    -0.019 A 
ATOM     26  H   LIG d   1       6.311   2.530  -3.096  0.00  0.00     0.063 H 
ATOM     27  C   LIG d   1       5.508  -0.688  -3.730  0.00  0.00     0.130 A 
ATOM     28  H   LIG d   1       4.382   1.006  -3.056  0.00  0.00     0.065 H 
ATOM     29  C   LIG d   1       6.755  -1.160  -4.121  0.00  0.00    -0.019 A 
ATOM     30  C   LIG d   1       7.839  -0.309  -4.149  0.00  0.00    -0.048 A 
ATOM     31  H   LIG d   1       6.874  -2.195  -4.407  0.00  0.00     0.065 H 
ATOM     32  H   LIG d   1       8.806  -0.675  -4.458  0.00  0.00     0.063 H 
BRANCH  27  33
ATOM     33  O   LIG d   1       4.442  -1.528  -3.707  0.00  0.00    -0.406 OA
BRANCH  33  34
ATOM     34  C   LIG d   1       3.766  -1.685  -2.458  0.00  0.00     0.575 C 
ATOM     35  F   LIG d   1       2.521  -1.049  -2.518  0.00  0.00    -0.133 F 
ATOM     36  F   LIG d   1       3.580  -3.046  -2.196  0.00  0.00    -0.133 F 
ATOM     37  F   LIG d   1       4.533  -1.113  -1.437  0.00  0.00    -0.133 F 
ENDBRANCH  33  34
ENDBRANCH  27  33
ENDBRANCH  21  23
ENDBRANCH   9  18
BRANCH  16  38
ATOM     38  C   LIG d   1      11.173   5.045  -5.644  0.00  0.00    -0.005 C 
ATOM     39  H   LIG d   1      12.210   5.322  -5.831  0.00  0.00     0.087 H 
ATOM     40  H   LIG d   1      11.121   3.986  -5.388  0.00  0.00     0.087 H 
BRANCH  38  41
ATOM     41  C   LIG d   1      10.353   5.303  -6.882  0.00  0.00    -0.003 A 
ATOM     42  C   LIG d   1       9.838   4.242  -7.604  0.00  0.00    -0.051 A 
ATOM     43  C   LIG d   1       9.082   4.478  -8.736  0.00  0.00    -0.026 A 
ATOM     44  H   LIG d   1      10.023   3.229  -7.278  0.00  0.00     0.062 H 
ATOM     45  C   LIG d   1       8.849   5.777  -9.154  0.00  0.00     0.123 A 
ATOM     46  H   LIG d   1       8.675   3.649  -9.296  0.00  0.00     0.065 H 
ATOM     47  C   LIG d   1       9.370   6.839  -8.434  0.00  0.00    -0.026 A 
ATOM     48  F   LIG d   1       8.115   6.009 -10.264  0.00  0.00    -0.205 F 
ATOM     49  C   LIG d   1      10.122   6.601  -7.299  0.00  0.00    -0.051 A 
ATOM     50  H   LIG d   1       9.191   7.853  -8.760  0.00  0.00     0.065 H 
ATOM     51  H   LIG d   1      10.528   7.429  -6.738  0.00  0.00     0.062 H 
ENDBRANCH  38  41
ENDBRANCH  16  38
TORSDOF 6
ENDMDL
MODEL 8
REMARK VINA RESULT:      -7.4      6.509      8.600
REMARK  6 active torsions:
REMARK  status: ('A' for Active; 'I' for Inactive)
REMARK    1  A    between atoms: C_6  and  C_7 
REMARK    2  A    between atoms: C_7  and  N_50 
REMARK    3  A    between atoms: C_16  and  C_18 
REMARK    4  A    between atoms: C_20  and  C_23 
REMARK    5  A    between atoms: C_26  and  O_29 
REMARK    6  A    between atoms: O_29  and  C_30 
ROOT
ATOM      1  C   LIG d   1       6.093  -0.862 -13.193  0.00  0.00     0.012 C 
ATOM      2  C   LIG d   1       7.592  -1.026 -13.195  0.00  0.00     0.084 A 
ATOM      3  C   LIG d   1       8.287  -1.521 -12.145  0.00  0.00     0.073 A 
ATOM      4  N   LIG d   1       9.598  -1.522 -12.496  0.00  0.00    -0.240 NA
ATOM      5  H   LIG d   1       8.229  -0.356 -15.058  0.00  0.00     0.167 HD
ATOM      6  C   LIG d   1       9.670  -1.030 -13.755  0.00  0.00     0.094 A 
ATOM      7  N   LIG d   1       8.463  -0.737 -14.163  0.00  0.00    -0.344 N 
ATOM      8  C   LIG d   1       7.642  -1.965 -10.857  0.00  0.00     0.043 C 
ATOM      9  C   LIG d   1       6.137  -2.128 -11.116  0.00  0.00     0.066 C 
ATOM     10  H   LIG d   1       5.970  -3.005 -11.744  0.00  0.00     0.096 H 
ATOM     11  H   LIG d   1       5.635  -1.661 -13.777  0.00  0.00     0.088 H 
ATOM     12  H   LIG d   1       5.827   0.104 -13.621  0.00  0.00     0.088 H 
ATOM     13  H   LIG d   1      10.576  -0.901 -14.329  0.00  0.00     0.103 H 
ATOM     14  H   LIG d   1       7.803  -1.213 -10.085  0.00  0.00     0.039 H 
ATOM     15  H   LIG d   1       8.067  -2.917 -10.542  0.00  0.00     0.039 H 
ATOM     16  N   LIG d   1       5.631  -0.907 -11.783  0.00  0.00     0.252 N 
ATOM     17  H   LIG d   1       5.995  -0.085 -11.288  0.00  0.00     0.205 HD
ENDROOT
BRANCH   9  18
ATOM     18  C   LIG d   1       5.418  -2.307  -9.804  0.00  0.00     0.276 A 
ATOM     19  O   LIG d   1       4.490  -3.230  -9.527  0.00  0.00    -0.332 OA
ATOM     20  N   LIG d   1       4.110  -3.105  -8.382  0.00  0.00    -0.056 NA
ATOM     21  C   LIG d   1       4.736  -2.111  -7.807  0.00  0.00     0.202 A 
ATOM     22  N   LIG d   1       5.584  -1.590  -8.722  0.00  0.00    -0.186 NA
BRANCH  21  23
ATOM     23  C   LIG d   1       4.549  -1.643  -6.412  0.00  0.00     0.023 A 
ATOM     24  C   LIG d   1       5.149  -2.332  -5.358  0.00  0.00    -0.048 A 
ATOM     25  C   LIG d   1       4.973  -1.894  -4.062  0.00  0.00    -0.019 A 
ATOM     26  H   LIG d   1       5.749  -3.206  -5.556  0.00  0.00     0.063 H 
ATOM     27  C   LIG d   1       4.201  -0.769  -3.806  0.00  0.00     0.130 A 
ATOM     28  H   LIG d   1       5.437  -2.428  -3.245  0.00  0.00     0.065 H 
ATOM     29  C   LIG d   1       3.603  -0.081  -4.854  0.00  0.00    -0.019 A 
ATOM     30  C   LIG d   1       3.778  -0.511  -6.152  0.00  0.00    -0.048 A 
ATOM     31  H   LIG d   1       3.002   0.794  -4.651  0.00  0.00     0.065 H 
ATOM     32  H   LIG d   1       3.317   0.027  -6.966  0.00  0.00     0.063 H 
BRANCH  27  33
ATOM     33  O   LIG d   1       4.030  -0.341  -2.528  0.00  0.00    -0.406 OA
BRANCH  33  34
ATOM     34  C   LIG d   1       4.480   0.980  -2.221  0.00  0.00     0.575 C 
ATOM     35  F   LIG d   1       4.729   1.081  -0.847  0.00  0.00    -0.133 F 
ATOM     36  F   LIG d   1       5.657   1.248  -2.927  0.00  0.00    -0.133 F 
ATOM     37  F   LIG d   1       3.496   1.905  -2.586  0.00  0.00    -0.133 F 
ENDBRANCH  33  34
ENDBRANCH  27  33
ENDBRANCH  21  23
ENDBRANCH   9  18
BRANCH  16  38
ATOM     38  C   LIG d   1       4.156  -0.882 -11.735  0.00  0.00    -0.005 C 
ATOM     39  H   LIG d   1       3.745  -0.598 -12.704  0.00  0.00     0.087 H 
ATOM     40  H   LIG d   1       3.798  -1.876 -11.466  0.00  0.00     0.087 H 
BRANCH  38  41
ATOM     41  C   LIG d   1       3.713   0.112 -10.692  0.00  0.00    -0.003 A 
ATOM     42  C   LIG d   1       4.462   1.251 -10.461  0.00  0.00    -0.051 A 
ATOM     43  C   LIG d   1       4.054   2.165  -9.508  0.00  0.00    -0.026 A 
ATOM     44  H   LIG d   1       5.363   1.428 -11.029  0.00  0.00     0.062 H 
ATOM     45  C   LIG d   1       2.901   1.935  -8.778  0.00  0.00     0.123 A 
ATOM     46  H   LIG d   1       4.636   3.057  -9.332  0.00  0.00     0.065 H 
ATOM     47  C   LIG d   1       2.154   0.792  -9.006  0.00  0.00    -0.026 A 
ATOM     48  F   LIG d   1       2.504   2.825  -7.842  0.00  0.00    -0.205 F 
ATOM     49  C   LIG d   1       2.561  -0.119  -9.963  0.00  0.00    -0.051 A 
ATOM     50  H   LIG d   1       1.255   0.610  -8.436  0.00  0.00     0.065 H 
ATOM     51  H   LIG d   1       1.979  -1.011 -10.141  0.00  0.00     0.062 H 
ENDBRANCH  38  41
ENDBRANCH  16  38
TORSDOF 6
ENDMDL
MODEL 9
REMARK VINA RESULT:      -7.3      2.647      3.403
REMARK  6 active torsions:
REMARK  status: ('A' for Active; 'I' for Inactive)
REMARK    1  A    between atoms: C_6  and  C_7 
REMARK    2  A    between atoms: C_7  and  N_50 
REMARK    3  A    between atoms: C_16  and  C_18 
REMARK    4  A    between atoms: C_20  and  C_23 
REMARK    5  A    between atoms: C_26  and  O_29 
REMARK    6  A    between atoms: O_29  and  C_30 
ROOT
ATOM      1  C   LIG d   1       7.422  -2.799  -4.018  0.00  0.00     0.012 C 
ATOM      2  C   LIG d   1       8.159  -3.610  -5.054  0.00  0.00     0.084 A 
ATOM      3  C   LIG d   1       8.988  -3.064  -5.973  0.00  0.00     0.073 A 
ATOM      4  N   LIG d   1       9.468  -4.081  -6.735  0.00  0.00    -0.240 NA
ATOM      5  H   LIG d   1       7.610  -5.588  -4.717  0.00  0.00     0.167 HD
ATOM      6  C   LIG d   1       8.921  -5.224  -6.259  0.00  0.00     0.094 A 
ATOM      7  N   LIG d   1       8.139  -4.929  -5.252  0.00  0.00    -0.344 N 
ATOM      8  C   LIG d   1       9.270  -1.587  -6.064  0.00  0.00     0.043 C 
ATOM      9  C   LIG d   1       8.805  -0.937  -4.752  0.00  0.00     0.066 C 
ATOM     10  H   LIG d   1       9.479  -1.227  -3.945  0.00  0.00     0.096 H 
ATOM     11  H   LIG d   1       7.916  -2.903  -3.051  0.00  0.00     0.088 H 
ATOM     12  H   LIG d   1       6.392  -3.146  -3.943  0.00  0.00     0.088 H 
ATOM     13  H   LIG d   1       9.100  -6.216  -6.646  0.00  0.00     0.103 H 
ATOM     14  H   LIG d   1       8.722  -1.157  -6.903  0.00  0.00     0.039 H 
ATOM     15  H   LIG d   1      10.339  -1.423  -6.197  0.00  0.00     0.039 H 
ATOM     16  N   LIG d   1       7.424  -1.383  -4.462  0.00  0.00     0.252 N 
ATOM     17  H   LIG d   1       6.863  -1.303  -5.318  0.00  0.00     0.205 HD
ENDROOT
BRANCH   9  18
ATOM     18  C   LIG d   1       8.818   0.562  -4.902  0.00  0.00     0.276 A 
ATOM     19  O   LIG d   1       8.358   1.259  -5.947  0.00  0.00    -0.332 OA
ATOM     20  N   LIG d   1       8.516   2.446  -5.756  0.00  0.00    -0.056 NA
ATOM     21  C   LIG d   1       9.081   2.643  -4.593  0.00  0.00     0.202 A 
ATOM     22  N   LIG d   1       9.280   1.427  -4.035  0.00  0.00    -0.186 NA
BRANCH  21  23
ATOM     23  C   LIG d   1       9.438   3.954  -3.998  0.00  0.00     0.023 A 
ATOM     24  C   LIG d   1       9.162   5.133  -4.689  0.00  0.00    -0.048 A 
ATOM     25  C   LIG d   1       9.495   6.350  -4.133  0.00  0.00    -0.019 A 
ATOM     26  H   LIG d   1       8.689   5.093  -5.658  0.00  0.00     0.063 H 
ATOM     27  C   LIG d   1      10.104   6.403  -2.886  0.00  0.00     0.130 A 
ATOM     28  H   LIG d   1       9.282   7.264  -4.669  0.00  0.00     0.065 H 
ATOM     29  C   LIG d   1      10.380   5.229  -2.196  0.00  0.00    -0.019 A 
ATOM     30  C   LIG d   1      10.045   4.010  -2.744  0.00  0.00    -0.048 A 
ATOM     31  H   LIG d   1      10.854   5.273  -1.226  0.00  0.00     0.065 H 
ATOM     32  H   LIG d   1      10.256   3.099  -2.205  0.00  0.00     0.063 H 
BRANCH  27  33
ATOM     33  O   LIG d   1      10.431   7.603  -2.342  0.00  0.00    -0.406 OA
BRANCH  33  34
ATOM     34  C   LIG d   1       9.609   8.076  -1.273  0.00  0.00     0.575 C 
ATOM     35  F   LIG d   1       8.353   7.462  -1.344  0.00  0.00    -0.133 F 
ATOM     36  F   LIG d   1      10.210   7.766  -0.049  0.00  0.00    -0.133 F 
ATOM     37  F   LIG d   1       9.457   9.463  -1.380  0.00  0.00    -0.133 F 
ENDBRANCH  33  34
ENDBRANCH  27  33
ENDBRANCH  21  23
ENDBRANCH   9  18
BRANCH  16  38
ATOM     38  C   LIG d   1       6.828  -0.527  -3.417  0.00  0.00    -0.005 C 
ATOM     39  H   LIG d   1       7.013  -0.943  -2.427  0.00  0.00     0.087 H 
ATOM     40  H   LIG d   1       7.273   0.466  -3.483  0.00  0.00     0.087 H 
BRANCH  38  41
ATOM     41  C   LIG d   1       5.341  -0.428  -3.649  0.00  0.00    -0.003 A 
ATOM     42  C   LIG d   1       4.472  -0.436  -2.573  0.00  0.00    -0.051 A 
ATOM     43  C   LIG d   1       3.110  -0.341  -2.784  0.00  0.00    -0.026 A 
ATOM     44  H   LIG d   1       4.860  -0.514  -1.567  0.00  0.00     0.062 H 
ATOM     45  C   LIG d   1       2.615  -0.245  -4.073  0.00  0.00     0.123 A 
ATOM     46  H   LIG d   1       2.432  -0.342  -1.943  0.00  0.00     0.065 H 
ATOM     47  C   LIG d   1       3.485  -0.242  -5.149  0.00  0.00    -0.026 A 
ATOM     48  F   LIG d   1       1.283  -0.157  -4.281  0.00  0.00    -0.205 F 
ATOM     49  C   LIG d   1       4.847  -0.334  -4.936  0.00  0.00    -0.051 A 
ATOM     50  H   LIG d   1       3.100  -0.170  -6.156  0.00  0.00     0.065 H 
ATOM     51  H   LIG d   1       5.527  -0.331  -5.776  0.00  0.00     0.062 H 
ENDBRANCH  38  41
ENDBRANCH  16  38
TORSDOF 6
ENDMDL
MODEL 10
REMARK VINA RESULT:      -7.2      6.506     11.801
REMARK  6 active torsions:
REMARK  status: ('A' for Active; 'I' for Inactive)
REMARK    1  A    between atoms: C_6  and  C_7 
REMARK    2  A    between atoms: C_7  and  N_50 
REMARK    3  A    between atoms: C_16  and  C_18 
REMARK    4  A    between atoms: C_20  and  C_23 
REMARK    5  A    between atoms: C_26  and  O_29 
REMARK    6  A    between atoms: O_29  and  C_30 
ROOT
ATOM      1  C   LIG d   1       3.155   0.258  -7.011  0.00  0.00     0.012 C 
ATOM      2  C   LIG d   1       3.539   0.905  -8.318  0.00  0.00     0.084 A 
ATOM      3  C   LIG d   1       4.347   0.316  -9.230  0.00  0.00     0.073 A 
ATOM      4  N   LIG d   1       4.475   1.179 -10.269  0.00  0.00    -0.240 NA
ATOM      5  H   LIG d   1       2.588   2.754  -8.332  0.00  0.00     0.167 HD
ATOM      6  C   LIG d   1       3.739   2.275  -9.966  0.00  0.00     0.094 A 
ATOM      7  N   LIG d   1       3.184   2.099  -8.796  0.00  0.00    -0.344 N 
ATOM      8  C   LIG d   1       4.950  -1.053  -9.044  0.00  0.00     0.043 C 
ATOM      9  C   LIG d   1       4.188  -1.754  -7.910  0.00  0.00     0.066 C 
ATOM     10  H   LIG d   1       3.185  -2.015  -8.253  0.00  0.00     0.096 H 
ATOM     11  H   LIG d   1       2.137  -0.126  -7.077  0.00  0.00     0.088 H 
ATOM     12  H   LIG d   1       3.221   0.988  -6.205  0.00  0.00     0.088 H 
ATOM     13  H   LIG d   1       3.630   3.150 -10.589  0.00  0.00     0.103 H 
ATOM     14  H   LIG d   1       6.003  -0.959  -8.778  0.00  0.00     0.039 H 
ATOM     15  H   LIG d   1       4.851  -1.627  -9.965  0.00  0.00     0.039 H 
ATOM     16  N   LIG d   1       4.117  -0.841  -6.747  0.00  0.00     0.252 N 
ATOM     17  H   LIG d   1       5.047  -0.437  -6.586  0.00  0.00     0.205 HD
ENDROOT
BRANCH   9  18
ATOM     18  C   LIG d   1       4.923  -3.007  -7.510  0.00  0.00     0.276 A 
ATOM     19  O   LIG d   1       6.241  -3.127  -7.321  0.00  0.00    -0.332 OA
ATOM     20  N   LIG d   1       6.513  -4.265  -7.005  0.00  0.00    -0.056 NA
ATOM     21  C   LIG d   1       5.425  -4.990  -6.956  0.00  0.00     0.202 A 
ATOM     22  N   LIG d   1       4.392  -4.181  -7.282  0.00  0.00    -0.186 NA
BRANCH  21  23
ATOM     23  C   LIG d   1       5.341  -6.429  -6.608  0.00  0.00     0.023 A 
ATOM     24  C   LIG d   1       6.079  -6.933  -5.538  0.00  0.00    -0.048 A 
ATOM     25  C   LIG d   1       5.998  -8.273  -5.217  0.00  0.00    -0.019 A 
ATOM     26  H   LIG d   1       6.712  -6.277  -4.961  0.00  0.00     0.063 H 
ATOM     27  C   LIG d   1       5.184  -9.118  -5.957  0.00  0.00     0.130 A 
ATOM     28  H   LIG d   1       6.571  -8.663  -4.388  0.00  0.00     0.065 H 
ATOM     29  C   LIG d   1       4.448  -8.618  -7.024  0.00  0.00    -0.019 A 
ATOM     30  C   LIG d   1       4.520  -7.280  -7.347  0.00  0.00    -0.048 A 
ATOM     31  H   LIG d   1       3.815  -9.279  -7.599  0.00  0.00     0.065 H 
ATOM     32  H   LIG d   1       3.944  -6.891  -8.173  0.00  0.00     0.063 H 
BRANCH  27  33
ATOM     33  O   LIG d   1       5.107 -10.436  -5.639  0.00  0.00    -0.406 OA
BRANCH  33  34
ATOM     34  C   LIG d   1       4.326 -10.783  -4.494  0.00  0.00     0.575 C 
ATOM     35  F   LIG d   1       3.692  -9.638  -3.998  0.00  0.00    -0.133 F 
ATOM     36  F   LIG d   1       3.361 -11.728  -4.857  0.00  0.00    -0.133 F 
ATOM     37  F   LIG d   1       5.158 -11.321  -3.507  0.00  0.00    -0.133 F 
ENDBRANCH  33  34
ENDBRANCH  27  33
ENDBRANCH  21  23
ENDBRANCH   9  18
BRANCH  16  38
ATOM     38  C   LIG d   1       3.706  -1.591  -5.543  0.00  0.00    -0.005 C 
ATOM     39  H   LIG d   1       2.640  -1.813  -5.574  0.00  0.00     0.087 H 
ATOM     40  H   LIG d   1       4.270  -2.524  -5.503  0.00  0.00     0.087 H 
BRANCH  38  41
ATOM     41  C   LIG d   1       4.012  -0.766  -4.319  0.00  0.00    -0.003 A 
ATOM     42  C   LIG d   1       5.321  -0.446  -4.011  0.00  0.00    -0.051 A 
ATOM     43  C   LIG d   1       5.602   0.315  -2.892  0.00  0.00    -0.026 A 
ATOM     44  H   LIG d   1       6.124  -0.787  -4.648  0.00  0.00     0.062 H 
ATOM     45  C   LIG d   1       4.573   0.748  -2.074  0.00  0.00     0.123 A 
ATOM     46  H   LIG d   1       6.624   0.569  -2.655  0.00  0.00     0.065 H 
ATOM     47  C   LIG d   1       3.263   0.423  -2.380  0.00  0.00    -0.026 A 
ATOM     48  F   LIG d   1       4.846   1.487  -0.976  0.00  0.00    -0.205 F 
ATOM     49  C   LIG d   1       2.984  -0.334  -3.502  0.00  0.00    -0.051 A 
ATOM     50  H   LIG d   1       2.458   0.759  -1.742  0.00  0.00     0.065 H 
ATOM     51  H   LIG d   1       1.961  -0.588  -3.741  0.00  0.00     0.062 H 
ENDBRANCH  38  41
ENDBRANCH  16  38
TORSDOF 6
ENDMDL
