MODEL 1
REMARK VINA RESULT:      -6.8      0.000      0.000
REMARK  11 active torsions:
REMARK  status: ('A' for Active; 'I' for Inactive)
REMARK    1  A    between atoms: C_1  and  C_2 
REMARK    2  A    between atoms: C_3  and  C_23 
REMARK    3  A    between atoms: C_6  and  O_12 
REMARK    4  A    between atoms: O_12  and  C_13 
REMARK    5  A    between atoms: C_13  and  C_14 
REMARK    6  A    between atoms: C_18  and  N_20 
REMARK    7  A    between atoms: C_23  and  O_25 
REMARK    8  A    between atoms: O_25  and  C_26 
REMARK    9  A    between atoms: C_26  and  C_27 
REMARK   10  A    between atoms: C_27  and  O_28 
REMARK   11  A    between atoms: O_28  and  C_29 
ROOT
ATOM      1  C   LIG d   1       4.971  -1.605  -2.865  0.00  0.00     0.117 A 
ATOM      2  C   LIG d   1       5.256  -0.281  -2.730  0.00  0.00     0.107 A 
ATOM      3  C   LIG d   1       6.512  -0.063  -3.477  0.00  0.00     0.038 A 
ATOM      4  C   LIG d   1       7.317   1.045  -3.719  0.00  0.00    -0.007 A 
ATOM      5  C   LIG d   1       8.458   0.905  -4.487  0.00  0.00     0.136 A 
ATOM      6  C   LIG d   1       8.803  -0.340  -5.005  0.00  0.00     0.063 A 
ATOM      7  C   LIG d   1       8.012  -1.443  -4.763  0.00  0.00    -0.001 A 
ATOM      8  C   LIG d   1       6.858  -1.318  -3.998  0.00  0.00     0.137 A 
ATOM      9  O   LIG d   1       5.913  -2.198  -3.607  0.00  0.00    -0.459 OA
ATOM     10 BR   LIG d   1      10.369  -0.521  -6.048  0.00  0.00    -0.046 Br
ATOM     11  H   LIG d   1       7.050   2.010  -3.313  0.00  0.00     0.066 H 
ATOM     12  H   LIG d   1       8.288  -2.405  -5.170  0.00  0.00     0.067 H 
ENDROOT
BRANCH   5  13
ATOM     13  O   LIG d   1       9.248   1.985  -4.732  0.00  0.00    -0.486 OA
BRANCH  13  14
ATOM     14  C   LIG d   1       9.946   2.545  -3.617  0.00  0.00     0.115 C 
ATOM     15  H   LIG d   1      11.005   2.296  -3.690  0.00  0.00     0.075 H 
ATOM     16  H   LIG d   1       9.540   2.137  -2.693  0.00  0.00     0.075 H 
BRANCH  14  17
ATOM     17  C   LIG d   1       9.781   4.043  -3.623  0.00  0.00    -0.004 A 
ATOM     18  C   LIG d   1       9.936   4.760  -2.451  0.00  0.00     0.022 A 
ATOM     19  C   LIG d   1       9.789   6.135  -2.457  0.00  0.00     0.274 A 
ATOM     20  H   LIG d   1      10.175   4.246  -1.532  0.00  0.00     0.069 H 
ATOM     21  C   LIG d   1       9.476   6.790  -3.633  0.00  0.00     0.016 A 
ATOM     22  C   LIG d   1       9.321   6.074  -4.805  0.00  0.00    -0.055 A 
ATOM     23  H   LIG d   1       9.357   7.864  -3.637  0.00  0.00     0.069 H 
ATOM     24  C   LIG d   1       9.473   4.700  -4.800  0.00  0.00    -0.055 A 
ATOM     25  H   LIG d   1       9.080   6.587  -5.724  0.00  0.00     0.062 H 
ATOM     26  H   LIG d   1       9.352   4.139  -5.715  0.00  0.00     0.062 H 
BRANCH  19  27
ATOM     27  N   LIG d   1       9.961   6.903  -1.205  0.00  0.00     0.080 N 
ATOM     28  O   LIG d   1       9.039   7.567  -0.766  0.00  0.00     0.041 OA
ATOM     29  O   LIG d   1      11.025   6.870  -0.611  0.00  0.00    -0.576 OA
ENDBRANCH  19  27
ENDBRANCH  14  17
ENDBRANCH  13  14
ENDBRANCH   5  13
BRANCH   2  30
ATOM     30  C   LIG d   1       4.477   0.724  -1.994  0.00  0.00     0.343 C 
ATOM     31  O   LIG d   1       4.954   1.270  -1.018  0.00  0.00    -0.245 OA
BRANCH  30  32
ATOM     32  O   LIG d   1       3.230   1.041  -2.400  0.00  0.00    -0.459 OA
BRANCH  32  33
ATOM     33  C   LIG d   1       3.095   1.612  -3.728  0.00  0.00     0.116 C 
ATOM     34  H   LIG d   1       2.431   2.475  -3.686  0.00  0.00     0.072 H 
ATOM     35  H   LIG d   1       4.074   1.923  -4.090  0.00  0.00     0.072 H 
BRANCH  33  36
ATOM     36  C   LIG d   1       2.510   0.564  -4.676  0.00  0.00     0.082 C 
ATOM     37  H   LIG d   1       2.690  -0.432  -4.273  0.00  0.00     0.059 H 
ATOM     38  H   LIG d   1       1.436   0.725  -4.779  0.00  0.00     0.059 H 
BRANCH  36  39
ATOM     39  O   LIG d   1       3.133   0.680  -5.957  0.00  0.00    -0.380 OA
BRANCH  39  40
ATOM     40  C   LIG d   1       3.977  -0.423  -6.294  0.00  0.00     0.037 C 
ATOM     41  H   LIG d   1       4.000  -1.129  -5.464  0.00  0.00     0.052 H 
ATOM     42  H   LIG d   1       3.590  -0.919  -7.184  0.00  0.00     0.052 H 
ATOM     43  H   LIG d   1       4.987  -0.061  -6.490  0.00  0.00     0.052 H 
ENDBRANCH  39  40
ENDBRANCH  36  39
ENDBRANCH  33  36
ENDBRANCH  32  33
ENDBRANCH  30  32
ENDBRANCH   2  30
BRANCH   1  44
ATOM     44  C   LIG d   1       3.773  -2.299  -2.269  0.00  0.00    -0.005 C 
ATOM     45  H   LIG d   1       3.303  -1.644  -1.535  0.00  0.00     0.031 H 
ATOM     46  H   LIG d   1       3.059  -2.534  -3.057  0.00  0.00     0.031 H 
ATOM     47  H   LIG d   1       4.092  -3.220  -1.781  0.00  0.00     0.031 H 
ENDBRANCH   1  44
TORSDOF 11
ENDMDL
MODEL 2
REMARK VINA RESULT:      -6.1      2.989      8.536
REMARK  11 active torsions:
REMARK  status: ('A' for Active; 'I' for Inactive)
REMARK    1  A    between atoms: C_1  and  C_2 
REMARK    2  A    between atoms: C_3  and  C_23 
REMARK    3  A    between atoms: C_6  and  O_12 
REMARK    4  A    between atoms: O_12  and  C_13 
REMARK    5  A    between atoms: C_13  and  C_14 
REMARK    6  A    between atoms: C_18  and  N_20 
REMARK    7  A    between atoms: C_23  and  O_25 
REMARK    8  A    between atoms: O_25  and  C_26 
REMARK    9  A    between atoms: C_26  and  C_27 
REMARK   10  A    between atoms: C_27  and  O_28 
REMARK   11  A    between atoms: O_28  and  C_29 
ROOT
ATOM      1  C   LIG d   1      11.376   6.240  -3.964  0.00  0.00     0.117 A 
ATOM      2  C   LIG d   1      10.434   5.584  -3.232  0.00  0.00     0.107 A 
ATOM      3  C   LIG d   1       9.848   4.578  -4.141  0.00  0.00     0.038 A 
ATOM      4  C   LIG d   1       8.856   3.612  -4.009  0.00  0.00    -0.007 A 
ATOM      5  C   LIG d   1       8.541   2.805  -5.086  0.00  0.00     0.136 A 
ATOM      6  C   LIG d   1       9.208   2.966  -6.298  0.00  0.00     0.063 A 
ATOM      7  C   LIG d   1      10.189   3.925  -6.436  0.00  0.00    -0.001 A 
ATOM      8  C   LIG d   1      10.521   4.741  -5.360  0.00  0.00     0.137 A 
ATOM      9  O   LIG d   1      11.416   5.739  -5.203  0.00  0.00    -0.459 OA
ATOM     10 BR   LIG d   1       8.766   1.861  -7.766  0.00  0.00    -0.046 Br
ATOM     11  H   LIG d   1       8.336   3.492  -3.069  0.00  0.00     0.066 H 
ATOM     12  H   LIG d   1      10.701   4.042  -7.379  0.00  0.00     0.067 H 
ENDROOT
BRANCH   5  13
ATOM     13  O   LIG d   1       7.576   1.855  -4.964  0.00  0.00    -0.486 OA
BRANCH  13  14
ATOM     14  C   LIG d   1       7.733   0.903  -3.910  0.00  0.00     0.115 C 
ATOM     15  H   LIG d   1       8.343   1.337  -3.117  0.00  0.00     0.075 H 
ATOM     16  H   LIG d   1       8.221   0.009  -4.297  0.00  0.00     0.075 H 
BRANCH  14  17
ATOM     17  C   LIG d   1       6.379   0.537  -3.358  0.00  0.00    -0.004 A 
ATOM     18  C   LIG d   1       5.913  -0.759  -3.472  0.00  0.00     0.022 A 
ATOM     19  C   LIG d   1       4.672  -1.095  -2.961  0.00  0.00     0.274 A 
ATOM     20  H   LIG d   1       6.518  -1.510  -3.957  0.00  0.00     0.069 H 
ATOM     21  C   LIG d   1       3.894  -0.132  -2.347  0.00  0.00     0.016 A 
ATOM     22  C   LIG d   1       4.361   1.164  -2.232  0.00  0.00    -0.055 A 
ATOM     23  H   LIG d   1       2.924  -0.393  -1.952  0.00  0.00     0.069 H 
ATOM     24  C   LIG d   1       5.603   1.500  -2.738  0.00  0.00    -0.055 A 
ATOM     25  H   LIG d   1       3.754   1.917  -1.749  0.00  0.00     0.062 H 
ATOM     26  H   LIG d   1       5.967   2.512  -2.649  0.00  0.00     0.062 H 
BRANCH  19  27
ATOM     27  N   LIG d   1       4.175  -2.484  -3.077  0.00  0.00     0.080 N 
ATOM     28  O   LIG d   1       4.459  -3.152  -4.055  0.00  0.00     0.041 OA
ATOM     29  O   LIG d   1       3.483  -2.960  -2.194  0.00  0.00    -0.576 OA
ENDBRANCH  19  27
ENDBRANCH  14  17
ENDBRANCH  13  14
ENDBRANCH   5  13
BRANCH   2  30
ATOM     30  C   LIG d   1      10.075   5.826  -1.827  0.00  0.00     0.343 C 
ATOM     31  O   LIG d   1       9.305   6.721  -1.542  0.00  0.00    -0.245 OA
BRANCH  30  32
ATOM     32  O   LIG d   1      10.602   5.054  -0.854  0.00  0.00    -0.459 OA
BRANCH  32  33
ATOM     33  C   LIG d   1      11.692   5.622  -0.081  0.00  0.00     0.116 C 
ATOM     34  H   LIG d   1      12.520   4.914  -0.046  0.00  0.00     0.072 H 
ATOM     35  H   LIG d   1      12.025   6.549  -0.549  0.00  0.00     0.072 H 
BRANCH  33  36
ATOM     36  C   LIG d   1      11.209   5.914   1.342  0.00  0.00     0.082 C 
ATOM     37  H   LIG d   1      10.176   5.584   1.449  0.00  0.00     0.059 H 
ATOM     38  H   LIG d   1      11.837   5.380   2.055  0.00  0.00     0.059 H 
BRANCH  36  39
ATOM     39  O   LIG d   1      11.290   7.318   1.593  0.00  0.00    -0.380 OA
BRANCH  39  40
ATOM     40  C   LIG d   1      11.932   8.059   0.554  0.00  0.00     0.037 C 
ATOM     41  H   LIG d   1      11.204   8.709   0.068  0.00  0.00     0.052 H 
ATOM     42  H   LIG d   1      12.733   8.663   0.979  0.00  0.00     0.052 H 
ATOM     43  H   LIG d   1      12.349   7.369  -0.180  0.00  0.00     0.052 H 
ENDBRANCH  39  40
ENDBRANCH  36  39
ENDBRANCH  33  36
ENDBRANCH  32  33
ENDBRANCH  30  32
ENDBRANCH   2  30
BRANCH   1  44
ATOM     44  C   LIG d   1      12.242   7.363  -3.454  0.00  0.00    -0.005 C 
ATOM     45  H   LIG d   1      12.200   8.200  -4.151  0.00  0.00     0.031 H 
ATOM     46  H   LIG d   1      11.883   7.685  -2.477  0.00  0.00     0.031 H 
ATOM     47  H   LIG d   1      13.272   7.016  -3.367  0.00  0.00     0.031 H 
ENDBRANCH   1  44
TORSDOF 11
ENDMDL
MODEL 3
REMARK VINA RESULT:      -6.0      3.105      8.584
REMARK  11 active torsions:
REMARK  status: ('A' for Active; 'I' for Inactive)
REMARK    1  A    between atoms: C_1  and  C_2 
REMARK    2  A    between atoms: C_3  and  C_23 
REMARK    3  A    between atoms: C_6  and  O_12 
REMARK    4  A    between atoms: O_12  and  C_13 
REMARK    5  A    between atoms: C_13  and  C_14 
REMARK    6  A    between atoms: C_18  and  N_20 
REMARK    7  A    between atoms: C_23  and  O_25 
REMARK    8  A    between atoms: O_25  and  C_26 
REMARK    9  A    between atoms: C_26  and  C_27 
REMARK   10  A    between atoms: C_27  and  O_28 
REMARK   11  A    between atoms: O_28  and  C_29 
ROOT
ATOM      1  C   LIG d   1      12.232   4.429  -3.024  0.00  0.00     0.117 A 
ATOM      2  C   LIG d   1      10.883   4.501  -2.852  0.00  0.00     0.107 A 
ATOM      3  C   LIG d   1      10.335   3.274  -3.465  0.00  0.00     0.038 A 
ATOM      4  C   LIG d   1       9.052   2.759  -3.623  0.00  0.00    -0.007 A 
ATOM      5  C   LIG d   1       8.879   1.543  -4.259  0.00  0.00     0.136 A 
ATOM      6  C   LIG d   1       9.982   0.846  -4.745  0.00  0.00     0.063 A 
ATOM      7  C   LIG d   1      11.254   1.355  -4.595  0.00  0.00    -0.001 A 
ATOM      8  C   LIG d   1      11.446   2.573  -3.954  0.00  0.00     0.137 A 
ATOM      9  O   LIG d   1      12.547   3.300  -3.667  0.00  0.00    -0.459 OA
ATOM     10 BR   LIG d   1       9.733  -0.812  -5.617  0.00  0.00    -0.046 Br
ATOM     11  H   LIG d   1       8.198   3.303  -3.250  0.00  0.00     0.066 H 
ATOM     12  H   LIG d   1      12.104   0.806  -4.975  0.00  0.00     0.067 H 
ENDROOT
BRANCH   5  13
ATOM     13  O   LIG d   1       7.630   1.030  -4.414  0.00  0.00    -0.486 OA
BRANCH  13  14
ATOM     14  C   LIG d   1       6.667   1.349  -3.406  0.00  0.00     0.115 C 
ATOM     15  H   LIG d   1       6.046   2.179  -3.748  0.00  0.00     0.075 H 
ATOM     16  H   LIG d   1       7.182   1.634  -2.490  0.00  0.00     0.075 H 
BRANCH  14  17
ATOM     17  C   LIG d   1       5.798   0.147  -3.143  0.00  0.00    -0.004 A 
ATOM     18  C   LIG d   1       5.954  -0.998  -3.902  0.00  0.00     0.022 A 
ATOM     19  C   LIG d   1       5.158  -2.103  -3.657  0.00  0.00     0.274 A 
ATOM     20  H   LIG d   1       6.697  -1.031  -4.684  0.00  0.00     0.069 H 
ATOM     21  C   LIG d   1       4.202  -2.058  -2.661  0.00  0.00     0.016 A 
ATOM     22  C   LIG d   1       4.046  -0.913  -1.902  0.00  0.00    -0.055 A 
ATOM     23  H   LIG d   1       3.578  -2.919  -2.472  0.00  0.00     0.069 H 
ATOM     24  C   LIG d   1       4.844   0.190  -2.143  0.00  0.00    -0.055 A 
ATOM     25  H   LIG d   1       3.301  -0.879  -1.120  0.00  0.00     0.062 H 
ATOM     26  H   LIG d   1       4.723   1.084  -1.550  0.00  0.00     0.062 H 
BRANCH  19  27
ATOM     27  N   LIG d   1       5.328  -3.330  -4.465  0.00  0.00     0.080 N 
ATOM     28  O   LIG d   1       6.387  -3.548  -5.027  0.00  0.00     0.041 OA
ATOM     29  O   LIG d   1       4.410  -4.125  -4.567  0.00  0.00    -0.576 OA
ENDBRANCH  19  27
ENDBRANCH  14  17
ENDBRANCH  13  14
ENDBRANCH   5  13
BRANCH   2  30
ATOM     30  C   LIG d   1      10.129   5.577  -2.194  0.00  0.00     0.343 C 
ATOM     31  O   LIG d   1       9.627   6.463  -2.858  0.00  0.00    -0.245 OA
BRANCH  30  32
ATOM     32  O   LIG d   1       9.993   5.583  -0.852  0.00  0.00    -0.459 OA
BRANCH  32  33
ATOM     33  C   LIG d   1      10.681   6.634  -0.125  0.00  0.00     0.116 C 
ATOM     34  H   LIG d   1      11.570   6.937  -0.678  0.00  0.00     0.072 H 
ATOM     35  H   LIG d   1      10.015   7.489  -0.007  0.00  0.00     0.072 H 
BRANCH  33  36
ATOM     36  C   LIG d   1      11.091   6.114   1.255  0.00  0.00     0.082 C 
ATOM     37  H   LIG d   1      10.263   5.558   1.694  0.00  0.00     0.059 H 
ATOM     38  H   LIG d   1      11.956   5.458   1.153  0.00  0.00     0.059 H 
BRANCH  36  39
ATOM     39  O   LIG d   1      11.426   7.217   2.100  0.00  0.00    -0.380 OA
BRANCH  39  40
ATOM     40  C   LIG d   1      11.457   8.476   1.426  0.00  0.00     0.037 C 
ATOM     41  H   LIG d   1      12.325   8.516   0.768  0.00  0.00     0.052 H 
ATOM     42  H   LIG d   1      10.548   8.595   0.835  0.00  0.00     0.052 H 
ATOM     43  H   LIG d   1      11.521   9.280   2.159  0.00  0.00     0.052 H 
ENDBRANCH  39  40
ENDBRANCH  36  39
ENDBRANCH  33  36
ENDBRANCH  32  33
ENDBRANCH  30  32
ENDBRANCH   2  30
BRANCH   1  44
ATOM     44  C   LIG d   1      13.221   5.466  -2.558  0.00  0.00    -0.005 C 
ATOM     45  H   LIG d   1      12.697   6.397  -2.343  0.00  0.00     0.031 H 
ATOM     46  H   LIG d   1      13.720   5.113  -1.656  0.00  0.00     0.031 H 
ATOM     47  H   LIG d   1      13.961   5.640  -3.340  0.00  0.00     0.031 H 
ENDBRANCH   1  44
TORSDOF 11
ENDMDL
MODEL 4
REMARK VINA RESULT:      -6.0      5.176      8.529
REMARK  11 active torsions:
REMARK  status: ('A' for Active; 'I' for Inactive)
REMARK    1  A    between atoms: C_1  and  C_2 
REMARK    2  A    between atoms: C_3  and  C_23 
REMARK    3  A    between atoms: C_6  and  O_12 
REMARK    4  A    between atoms: O_12  and  C_13 
REMARK    5  A    between atoms: C_13  and  C_14 
REMARK    6  A    between atoms: C_18  and  N_20 
REMARK    7  A    between atoms: C_23  and  O_25 
REMARK    8  A    between atoms: O_25  and  C_26 
REMARK    9  A    between atoms: C_26  and  C_27 
REMARK   10  A    between atoms: C_27  and  O_28 
REMARK   11  A    between atoms: O_28  and  C_29 
ROOT
ATOM      1  C   LIG d   1       1.205  -3.993 -10.868  0.00  0.00     0.117 A 
ATOM      2  C   LIG d   1       2.264  -4.275 -10.061  0.00  0.00     0.107 A 
ATOM      3  C   LIG d   1       2.640  -2.993  -9.431  0.00  0.00     0.038 A 
ATOM      4  C   LIG d   1       3.624  -2.609  -8.525  0.00  0.00    -0.007 A 
ATOM      5  C   LIG d   1       3.703  -1.289  -8.122  0.00  0.00     0.136 A 
ATOM      6  C   LIG d   1       2.809  -0.349  -8.629  0.00  0.00     0.063 A 
ATOM      7  C   LIG d   1       1.836  -0.724  -9.531  0.00  0.00    -0.001 A 
ATOM      8  C   LIG d   1       1.739  -2.048  -9.941  0.00  0.00     0.137 A 
ATOM      9  O   LIG d   1       0.909  -2.691 -10.789  0.00  0.00    -0.459 OA
ATOM     10 BR   LIG d   1       2.931   1.454  -8.076  0.00  0.00    -0.046 Br
ATOM     11  H   LIG d   1       4.320  -3.339  -8.136  0.00  0.00     0.066 H 
ATOM     12  H   LIG d   1       1.146   0.012  -9.917  0.00  0.00     0.067 H 
ENDROOT
BRANCH   5  13
ATOM     13  O   LIG d   1       4.659  -0.906  -7.234  0.00  0.00    -0.486 OA
BRANCH  13  14
ATOM     14  C   LIG d   1       5.218  -1.926  -6.403  0.00  0.00     0.115 C 
ATOM     15  H   LIG d   1       6.306  -1.904  -6.484  0.00  0.00     0.075 H 
ATOM     16  H   LIG d   1       4.849  -2.899  -6.724  0.00  0.00     0.075 H 
BRANCH  14  17
ATOM     17  C   LIG d   1       4.817  -1.683  -4.971  0.00  0.00    -0.004 A 
ATOM     18  C   LIG d   1       4.801  -0.396  -4.467  0.00  0.00     0.022 A 
ATOM     19  C   LIG d   1       4.428  -0.172  -3.154  0.00  0.00     0.274 A 
ATOM     20  H   LIG d   1       5.076   0.435  -5.099  0.00  0.00     0.069 H 
ATOM     21  C   LIG d   1       4.083  -1.237  -2.343  0.00  0.00     0.016 A 
ATOM     22  C   LIG d   1       4.098  -2.524  -2.848  0.00  0.00    -0.055 A 
ATOM     23  H   LIG d   1       3.796  -1.063  -1.317  0.00  0.00     0.069 H 
ATOM     24  C   LIG d   1       4.466  -2.748  -4.161  0.00  0.00    -0.055 A 
ATOM     25  H   LIG d   1       3.825  -3.356  -2.215  0.00  0.00     0.062 H 
ATOM     26  H   LIG d   1       4.478  -3.752  -4.556  0.00  0.00     0.062 H 
BRANCH  19  27
ATOM     27  N   LIG d   1       4.405   1.205  -2.615  0.00  0.00     0.080 N 
ATOM     28  O   LIG d   1       3.910   2.107  -3.268  0.00  0.00     0.041 OA
ATOM     29  O   LIG d   1       4.880   1.439  -1.517  0.00  0.00    -0.576 OA
ENDBRANCH  19  27
ENDBRANCH  14  17
ENDBRANCH  13  14
ENDBRANCH   5  13
BRANCH   2  30
ATOM     30  C   LIG d   1       2.901  -5.583  -9.858  0.00  0.00     0.343 C 
ATOM     31  O   LIG d   1       3.258  -6.242 -10.816  0.00  0.00    -0.245 OA
BRANCH  30  32
ATOM     32  O   LIG d   1       3.090  -6.056  -8.609  0.00  0.00    -0.459 OA
BRANCH  32  33
ATOM     33  C   LIG d   1       4.443  -6.441  -8.247  0.00  0.00     0.116 C 
ATOM     34  H   LIG d   1       5.055  -6.506  -9.147  0.00  0.00     0.072 H 
ATOM     35  H   LIG d   1       4.864  -5.696  -7.572  0.00  0.00     0.072 H 
BRANCH  33  36
ATOM     36  C   LIG d   1       4.415  -7.803  -7.550  0.00  0.00     0.082 C 
ATOM     37  H   LIG d   1       3.667  -8.438  -8.024  0.00  0.00     0.059 H 
ATOM     38  H   LIG d   1       5.395  -8.273  -7.631  0.00  0.00     0.059 H 
BRANCH  36  39
ATOM     39  O   LIG d   1       4.084  -7.625  -6.171  0.00  0.00    -0.380 OA
BRANCH  39  40
ATOM     40  C   LIG d   1       4.972  -6.754  -5.468  0.00  0.00     0.037 C 
ATOM     41  H   LIG d   1       5.048  -7.074  -4.429  0.00  0.00     0.052 H 
ATOM     42  H   LIG d   1       5.958  -6.788  -5.933  0.00  0.00     0.052 H 
ATOM     43  H   LIG d   1       4.587  -5.734  -5.507  0.00  0.00     0.052 H 
ENDBRANCH  39  40
ENDBRANCH  36  39
ENDBRANCH  33  36
ENDBRANCH  32  33
ENDBRANCH  30  32
ENDBRANCH   2  30
BRANCH   1  44
ATOM     44  C   LIG d   1       0.476  -4.997 -11.723  0.00  0.00    -0.005 C 
ATOM     45  H   LIG d   1       0.545  -4.702 -12.770  0.00  0.00     0.031 H 
ATOM     46  H   LIG d   1       0.926  -5.981 -11.592  0.00  0.00     0.031 H 
ATOM     47  H   LIG d   1      -0.573  -5.035 -11.425  0.00  0.00     0.031 H 
ENDBRANCH   1  44
TORSDOF 11
ENDMDL
MODEL 5
REMARK VINA RESULT:      -5.9      3.152      8.497
REMARK  11 active torsions:
REMARK  status: ('A' for Active; 'I' for Inactive)
REMARK    1  A    between atoms: C_1  and  C_2 
REMARK    2  A    between atoms: C_3  and  C_23 
REMARK    3  A    between atoms: C_6  and  O_12 
REMARK    4  A    between atoms: O_12  and  C_13 
REMARK    5  A    between atoms: C_13  and  C_14 
REMARK    6  A    between atoms: C_18  and  N_20 
REMARK    7  A    between atoms: C_23  and  O_25 
REMARK    8  A    between atoms: O_25  and  C_26 
REMARK    9  A    between atoms: C_26  and  C_27 
REMARK   10  A    between atoms: C_27  and  O_28 
REMARK   11  A    between atoms: O_28  and  C_29 
ROOT
ATOM      1  C   LIG d   1      10.754   5.695  -5.624  0.00  0.00     0.117 A 
ATOM      2  C   LIG d   1      10.363   5.063  -4.483  0.00  0.00     0.107 A 
ATOM      3  C   LIG d   1       9.612   3.870  -4.923  0.00  0.00     0.038 A 
ATOM      4  C   LIG d   1       8.962   2.834  -4.260  0.00  0.00    -0.007 A 
ATOM      5  C   LIG d   1       8.341   1.839  -4.992  0.00  0.00     0.136 A 
ATOM      6  C   LIG d   1       8.360   1.879  -6.383  0.00  0.00     0.063 A 
ATOM      7  C   LIG d   1       8.999   2.906  -7.045  0.00  0.00    -0.001 A 
ATOM      8  C   LIG d   1       9.633   3.912  -6.324  0.00  0.00     0.137 A 
ATOM      9  O   LIG d   1      10.322   5.013  -6.690  0.00  0.00    -0.459 OA
ATOM     10 BR   LIG d   1       7.504   0.516  -7.373  0.00  0.00    -0.046 Br
ATOM     11  H   LIG d   1       8.943   2.807  -3.180  0.00  0.00     0.066 H 
ATOM     12  H   LIG d   1       9.010   2.929  -8.125  0.00  0.00     0.067 H 
ENDROOT
BRANCH   5  13
ATOM     13  O   LIG d   1       7.706   0.821  -4.352  0.00  0.00    -0.486 OA
BRANCH  13  14
ATOM     14  C   LIG d   1       6.680   1.178  -3.423  0.00  0.00     0.115 C 
ATOM     15  H   LIG d   1       6.082   1.991  -3.838  0.00  0.00     0.075 H 
ATOM     16  H   LIG d   1       7.133   1.501  -2.487  0.00  0.00     0.075 H 
BRANCH  14  17
ATOM     17  C   LIG d   1       5.795  -0.016  -3.169  0.00  0.00    -0.004 A 
ATOM     18  C   LIG d   1       5.937  -1.157  -3.936  0.00  0.00     0.022 A 
ATOM     19  C   LIG d   1       5.128  -2.253  -3.699  0.00  0.00     0.274 A 
ATOM     20  H   LIG d   1       6.680  -1.193  -4.718  0.00  0.00     0.069 H 
ATOM     21  C   LIG d   1       4.171  -2.204  -2.703  0.00  0.00     0.016 A 
ATOM     22  C   LIG d   1       4.030  -1.063  -1.935  0.00  0.00    -0.055 A 
ATOM     23  H   LIG d   1       3.537  -3.059  -2.520  0.00  0.00     0.069 H 
ATOM     24  C   LIG d   1       4.842   0.032  -2.168  0.00  0.00    -0.055 A 
ATOM     25  H   LIG d   1       3.285  -1.025  -1.153  0.00  0.00     0.062 H 
ATOM     26  H   LIG d   1       4.732   0.923  -1.569  0.00  0.00     0.062 H 
BRANCH  19  27
ATOM     27  N   LIG d   1       5.283  -3.477  -4.516  0.00  0.00     0.080 N 
ATOM     28  O   LIG d   1       4.304  -4.136  -4.818  0.00  0.00     0.041 OA
ATOM     29  O   LIG d   1       6.390  -3.825  -4.888  0.00  0.00    -0.576 OA
ENDBRANCH  19  27
ENDBRANCH  14  17
ENDBRANCH  13  14
ENDBRANCH   5  13
BRANCH   2  30
ATOM     30  C   LIG d   1      10.632   5.481  -3.101  0.00  0.00     0.343 C 
ATOM     31  O   LIG d   1      11.693   5.203  -2.576  0.00  0.00    -0.245 OA
BRANCH  30  32
ATOM     32  O   LIG d   1       9.702   6.174  -2.412  0.00  0.00    -0.459 OA
BRANCH  32  33
ATOM     33  C   LIG d   1       9.966   7.584  -2.183  0.00  0.00     0.116 C 
ATOM     34  H   LIG d   1      10.833   7.891  -2.767  0.00  0.00     0.072 H 
ATOM     35  H   LIG d   1       9.097   8.169  -2.484  0.00  0.00     0.072 H 
BRANCH  33  36
ATOM     36  C   LIG d   1      10.245   7.814  -0.696  0.00  0.00     0.082 C 
ATOM     37  H   LIG d   1      11.279   8.132  -0.566  0.00  0.00     0.059 H 
ATOM     38  H   LIG d   1       9.577   8.587  -0.316  0.00  0.00     0.059 H 
BRANCH  36  39
ATOM     39  O   LIG d   1      10.025   6.599   0.024  0.00  0.00    -0.380 OA
BRANCH  39  40
ATOM     40  C   LIG d   1      11.127   6.202   0.843  0.00  0.00     0.037 C 
ATOM     41  H   LIG d   1      12.042   6.663   0.470  0.00  0.00     0.052 H 
ATOM     42  H   LIG d   1      10.951   6.523   1.870  0.00  0.00     0.052 H 
ATOM     43  H   LIG d   1      11.229   5.117   0.813  0.00  0.00     0.052 H 
ENDBRANCH  39  40
ENDBRANCH  36  39
ENDBRANCH  33  36
ENDBRANCH  32  33
ENDBRANCH  30  32
ENDBRANCH   2  30
BRANCH   1  44
ATOM     44  C   LIG d   1      11.554   6.971  -5.677  0.00  0.00    -0.005 C 
ATOM     45  H   LIG d   1      12.488   6.837  -5.132  0.00  0.00     0.031 H 
ATOM     46  H   LIG d   1      11.771   7.221  -6.715  0.00  0.00     0.031 H 
ATOM     47  H   LIG d   1      10.981   7.778  -5.221  0.00  0.00     0.031 H 
ENDBRANCH   1  44
TORSDOF 11
ENDMDL
MODEL 6
REMARK VINA RESULT:      -5.7      5.634      8.954
REMARK  11 active torsions:
REMARK  status: ('A' for Active; 'I' for Inactive)
REMARK    1  A    between atoms: C_1  and  C_2 
REMARK    2  A    between atoms: C_3  and  C_23 
REMARK    3  A    between atoms: C_6  and  O_12 
REMARK    4  A    between atoms: O_12  and  C_13 
REMARK    5  A    between atoms: C_13  and  C_14 
REMARK    6  A    between atoms: C_18  and  N_20 
REMARK    7  A    between atoms: C_23  and  O_25 
REMARK    8  A    between atoms: O_25  and  C_26 
REMARK    9  A    between atoms: C_26  and  C_27 
REMARK   10  A    between atoms: C_27  and  O_28 
REMARK   11  A    between atoms: O_28  and  C_29 
ROOT
ATOM      1  C   LIG d   1       1.651  -2.969 -12.319  0.00  0.00     0.117 A 
ATOM      2  C   LIG d   1       2.012  -3.471 -11.106  0.00  0.00     0.107 A 
ATOM      3  C   LIG d   1       2.356  -2.300 -10.275  0.00  0.00     0.038 A 
ATOM      4  C   LIG d   1       2.795  -2.135  -8.965  0.00  0.00    -0.007 A 
ATOM      5  C   LIG d   1       3.027  -0.862  -8.477  0.00  0.00     0.136 A 
ATOM      6  C   LIG d   1       2.831   0.246  -9.297  0.00  0.00     0.063 A 
ATOM      7  C   LIG d   1       2.401   0.088 -10.597  0.00  0.00    -0.001 A 
ATOM      8  C   LIG d   1       2.158  -1.185 -11.101  0.00  0.00     0.137 A 
ATOM      9  O   LIG d   1       1.740  -1.635 -12.302  0.00  0.00    -0.459 OA
ATOM     10 BR   LIG d   1       3.156   1.981  -8.621  0.00  0.00    -0.046 Br
ATOM     11  H   LIG d   1       2.951  -2.996  -8.331  0.00  0.00     0.066 H 
ATOM     12  H   LIG d   1       2.251   0.954 -11.225  0.00  0.00     0.067 H 
ENDROOT
BRANCH   5  13
ATOM     13  O   LIG d   1       3.451  -0.692  -7.197  0.00  0.00    -0.486 OA
BRANCH  13  14
ATOM     14  C   LIG d   1       4.522  -1.529  -6.752  0.00  0.00     0.115 C 
ATOM     15  H   LIG d   1       5.463  -1.165  -7.165  0.00  0.00     0.075 H 
ATOM     16  H   LIG d   1       4.348  -2.551  -7.088  0.00  0.00     0.075 H 
BRANCH  14  17
ATOM     17  C   LIG d   1       4.590  -1.499  -5.246  0.00  0.00    -0.004 A 
ATOM     18  C   LIG d   1       4.896  -0.321  -4.592  0.00  0.00     0.022 A 
ATOM     19  C   LIG d   1       4.954  -0.293  -3.210  0.00  0.00     0.274 A 
ATOM     20  H   LIG d   1       5.088   0.577  -5.158  0.00  0.00     0.069 H 
ATOM     21  C   LIG d   1       4.716  -1.445  -2.486  0.00  0.00     0.016 A 
ATOM     22  C   LIG d   1       4.408  -2.623  -3.140  0.00  0.00    -0.055 A 
ATOM     23  H   LIG d   1       4.765  -1.425  -1.407  0.00  0.00     0.069 H 
ATOM     24  C   LIG d   1       4.345  -2.651  -4.521  0.00  0.00    -0.055 A 
ATOM     25  H   LIG d   1       4.218  -3.523  -2.574  0.00  0.00     0.062 H 
ATOM     26  H   LIG d   1       4.106  -3.571  -5.033  0.00  0.00     0.062 H 
BRANCH  19  27
ATOM     27  N   LIG d   1       5.277   0.969  -2.509  0.00  0.00     0.080 N 
ATOM     28  O   LIG d   1       4.849   1.169  -1.386  0.00  0.00     0.041 OA
ATOM     29  O   LIG d   1       5.973   1.808  -3.054  0.00  0.00    -0.576 OA
ENDBRANCH  19  27
ENDBRANCH  14  17
ENDBRANCH  13  14
ENDBRANCH   5  13
BRANCH   2  30
ATOM     30  C   LIG d   1       2.052  -4.884 -10.707  0.00  0.00     0.343 C 
ATOM     31  O   LIG d   1       2.976  -5.591 -11.060  0.00  0.00    -0.245 OA
BRANCH  30  32
ATOM     32  O   LIG d   1       1.062  -5.399  -9.949  0.00  0.00    -0.459 OA
BRANCH  32  33
ATOM     33  C   LIG d   1      -0.131  -5.852 -10.643  0.00  0.00     0.116 C 
ATOM     34  H   LIG d   1      -0.149  -5.431 -11.647  0.00  0.00     0.072 H 
ATOM     35  H   LIG d   1      -0.123  -6.940 -10.704  0.00  0.00     0.072 H 
BRANCH  33  36
ATOM     36  C   LIG d   1      -1.371  -5.394  -9.874  0.00  0.00     0.082 C 
ATOM     37  H   LIG d   1      -1.222  -4.375  -9.517  0.00  0.00     0.059 H 
ATOM     38  H   LIG d   1      -2.239  -5.424 -10.533  0.00  0.00     0.059 H 
BRANCH  36  39
ATOM     39  O   LIG d   1      -1.589  -6.262  -8.759  0.00  0.00    -0.380 OA
BRANCH  39  40
ATOM     40  C   LIG d   1      -2.355  -7.427  -9.071  0.00  0.00     0.037 C 
ATOM     41  H   LIG d   1      -2.746  -7.344 -10.085  0.00  0.00     0.052 H 
ATOM     42  H   LIG d   1      -1.719  -8.310  -8.998  0.00  0.00     0.052 H 
ATOM     43  H   LIG d   1      -3.183  -7.517  -8.368  0.00  0.00     0.052 H 
ENDBRANCH  39  40
ENDBRANCH  36  39
ENDBRANCH  33  36
ENDBRANCH  32  33
ENDBRANCH  30  32
ENDBRANCH   2  30
BRANCH   1  44
ATOM     44  C   LIG d   1       1.216  -3.794 -13.503  0.00  0.00    -0.005 C 
ATOM     45  H   LIG d   1       2.083  -4.033 -14.118  0.00  0.00     0.031 H 
ATOM     46  H   LIG d   1       0.753  -4.717 -13.153  0.00  0.00     0.031 H 
ATOM     47  H   LIG d   1       0.496  -3.229 -14.095  0.00  0.00     0.031 H 
ENDBRANCH   1  44
TORSDOF 11
ENDMDL
MODEL 7
REMARK VINA RESULT:      -5.7      5.717      8.087
REMARK  11 active torsions:
REMARK  status: ('A' for Active; 'I' for Inactive)
REMARK    1  A    between atoms: C_1  and  C_2 
REMARK    2  A    between atoms: C_3  and  C_23 
REMARK    3  A    between atoms: C_6  and  O_12 
REMARK    4  A    between atoms: O_12  and  C_13 
REMARK    5  A    between atoms: C_13  and  C_14 
REMARK    6  A    between atoms: C_18  and  N_20 
REMARK    7  A    between atoms: C_23  and  O_25 
REMARK    8  A    between atoms: O_25  and  C_26 
REMARK    9  A    between atoms: C_26  and  C_27 
REMARK   10  A    between atoms: C_27  and  O_28 
REMARK   11  A    between atoms: O_28  and  C_29 
ROOT
ATOM      1  C   LIG d   1       7.752  -3.153  -4.127  0.00  0.00     0.117 A 
ATOM      2  C   LIG d   1       7.078  -2.883  -5.279  0.00  0.00     0.107 A 
ATOM      3  C   LIG d   1       6.107  -1.824  -4.936  0.00  0.00     0.038 A 
ATOM      4  C   LIG d   1       5.139  -1.127  -5.652  0.00  0.00    -0.007 A 
ATOM      5  C   LIG d   1       4.378  -0.165  -5.014  0.00  0.00     0.136 A 
ATOM      6  C   LIG d   1       4.576   0.097  -3.661  0.00  0.00     0.063 A 
ATOM      7  C   LIG d   1       5.531  -0.594  -2.945  0.00  0.00    -0.001 A 
ATOM      8  C   LIG d   1       6.307  -1.561  -3.574  0.00  0.00     0.137 A 
ATOM      9  O   LIG d   1       7.293  -2.375  -3.141  0.00  0.00    -0.459 OA
ATOM     10 BR   LIG d   1       3.527   1.411  -2.797  0.00  0.00    -0.046 Br
ATOM     11  H   LIG d   1       4.984  -1.335  -6.701  0.00  0.00     0.066 H 
ATOM     12  H   LIG d   1       5.677  -0.383  -1.896  0.00  0.00     0.067 H 
ENDROOT
BRANCH   5  13
ATOM     13  O   LIG d   1       3.433   0.524  -5.707  0.00  0.00    -0.486 OA
BRANCH  13  14
ATOM     14  C   LIG d   1       2.793  -0.161  -6.787  0.00  0.00     0.115 C 
ATOM     15  H   LIG d   1       1.716  -0.175  -6.620  0.00  0.00     0.075 H 
ATOM     16  H   LIG d   1       3.166  -1.183  -6.841  0.00  0.00     0.075 H 
BRANCH  14  17
ATOM     17  C   LIG d   1       3.092   0.553  -8.081  0.00  0.00    -0.004 A 
ATOM     18  C   LIG d   1       3.208  -0.166  -9.256  0.00  0.00     0.022 A 
ATOM     19  C   LIG d   1       3.477   0.491 -10.443  0.00  0.00     0.274 A 
ATOM     20  H   LIG d   1       3.087  -1.238  -9.247  0.00  0.00     0.069 H 
ATOM     21  C   LIG d   1       3.640   1.863 -10.453  0.00  0.00     0.016 A 
ATOM     22  C   LIG d   1       3.522   2.582  -9.278  0.00  0.00    -0.055 A 
ATOM     23  H   LIG d   1       3.854   2.375 -11.379  0.00  0.00     0.069 H 
ATOM     24  C   LIG d   1       3.248   1.927  -8.091  0.00  0.00    -0.055 A 
ATOM     25  H   LIG d   1       3.645   3.655  -9.286  0.00  0.00     0.062 H 
ATOM     26  H   LIG d   1       3.156   2.488  -7.173  0.00  0.00     0.062 H 
BRANCH  19  27
ATOM     27  N   LIG d   1       3.597  -0.277 -11.702  0.00  0.00     0.080 N 
ATOM     28  O   LIG d   1       2.631  -0.871 -12.148  0.00  0.00     0.041 OA
ATOM     29  O   LIG d   1       4.662  -0.316 -12.294  0.00  0.00    -0.576 OA
ENDBRANCH  19  27
ENDBRANCH  14  17
ENDBRANCH  13  14
ENDBRANCH   5  13
BRANCH   2  30
ATOM     30  C   LIG d   1       7.275  -3.515  -6.591  0.00  0.00     0.343 C 
ATOM     31  O   LIG d   1       8.076  -3.048  -7.376  0.00  0.00    -0.245 OA
BRANCH  30  32
ATOM     32  O   LIG d   1       6.567  -4.613  -6.924  0.00  0.00    -0.459 OA
BRANCH  32  33
ATOM     33  C   LIG d   1       5.269  -4.398  -7.540  0.00  0.00     0.116 C 
ATOM     34  H   LIG d   1       5.041  -3.333  -7.545  0.00  0.00     0.072 H 
ATOM     35  H   LIG d   1       5.287  -4.773  -8.563  0.00  0.00     0.072 H 
BRANCH  33  36
ATOM     36  C   LIG d   1       4.198  -5.146  -6.742  0.00  0.00     0.082 C 
ATOM     37  H   LIG d   1       4.673  -5.723  -5.949  0.00  0.00     0.059 H 
ATOM     38  H   LIG d   1       3.505  -4.428  -6.304  0.00  0.00     0.059 H 
BRANCH  36  39
ATOM     39  O   LIG d   1       3.485  -6.027  -7.612  0.00  0.00    -0.380 OA
BRANCH  39  40
ATOM     40  C   LIG d   1       4.174  -7.246  -7.896  0.00  0.00     0.037 C 
ATOM     41  H   LIG d   1       4.655  -7.173  -8.871  0.00  0.00     0.052 H 
ATOM     42  H   LIG d   1       4.929  -7.424  -7.130  0.00  0.00     0.052 H 
ATOM     43  H   LIG d   1       3.463  -8.072  -7.903  0.00  0.00     0.052 H 
ENDBRANCH  39  40
ENDBRANCH  36  39
ENDBRANCH  33  36
ENDBRANCH  32  33
ENDBRANCH  30  32
ENDBRANCH   2  30
BRANCH   1  44
ATOM     44  C   LIG d   1       8.850  -4.175  -3.985  0.00  0.00    -0.005 C 
ATOM     45  H   LIG d   1       8.516  -4.979  -3.330  0.00  0.00     0.031 H 
ATOM     46  H   LIG d   1       9.096  -4.582  -4.965  0.00  0.00     0.031 H 
ATOM     47  H   LIG d   1       9.734  -3.701  -3.556  0.00  0.00     0.031 H 
ENDBRANCH   1  44
TORSDOF 11
ENDMDL
MODEL 8
REMARK VINA RESULT:      -5.7      4.432      6.563
REMARK  11 active torsions:
REMARK  status: ('A' for Active; 'I' for Inactive)
REMARK    1  A    between atoms: C_1  and  C_2 
REMARK    2  A    between atoms: C_3  and  C_23 
REMARK    3  A    between atoms: C_6  and  O_12 
REMARK    4  A    between atoms: O_12  and  C_13 
REMARK    5  A    between atoms: C_13  and  C_14 
REMARK    6  A    between atoms: C_18  and  N_20 
REMARK    7  A    between atoms: C_23  and  O_25 
REMARK    8  A    between atoms: O_25  and  C_26 
REMARK    9  A    between atoms: C_26  and  C_27 
REMARK   10  A    between atoms: C_27  and  O_28 
REMARK   11  A    between atoms: O_28  and  C_29 
ROOT
ATOM      1  C   LIG d   1       4.747   1.605  -8.868  0.00  0.00     0.117 A 
ATOM      2  C   LIG d   1       4.243   0.504  -8.246  0.00  0.00     0.107 A 
ATOM      3  C   LIG d   1       5.413  -0.248  -7.751  0.00  0.00     0.038 A 
ATOM      4  C   LIG d   1       5.576  -1.438  -7.050  0.00  0.00    -0.007 A 
ATOM      5  C   LIG d   1       6.849  -1.873  -6.729  0.00  0.00     0.136 A 
ATOM      6  C   LIG d   1       7.960  -1.128  -7.115  0.00  0.00     0.063 A 
ATOM      7  C   LIG d   1       7.804   0.050  -7.814  0.00  0.00    -0.001 A 
ATOM      8  C   LIG d   1       6.531   0.504  -8.140  0.00  0.00     0.137 A 
ATOM      9  O   LIG d   1       6.083   1.593  -8.799  0.00  0.00    -0.459 OA
ATOM     10 BR   LIG d   1       9.695  -1.735  -6.676  0.00  0.00    -0.046 Br
ATOM     11  H   LIG d   1       4.713  -2.018  -6.756  0.00  0.00     0.066 H 
ATOM     12  H   LIG d   1       8.672   0.622  -8.108  0.00  0.00     0.067 H 
ENDROOT
BRANCH   5  13
ATOM     13  O   LIG d   1       7.016  -3.034  -6.040  0.00  0.00    -0.486 OA
BRANCH  13  14
ATOM     14  C   LIG d   1       7.324  -2.923  -4.649  0.00  0.00     0.115 C 
ATOM     15  H   LIG d   1       8.209  -2.298  -4.522  0.00  0.00     0.075 H 
ATOM     16  H   LIG d   1       7.516  -3.914  -4.239  0.00  0.00     0.075 H 
BRANCH  14  17
ATOM     17  C   LIG d   1       6.160  -2.296  -3.925  0.00  0.00    -0.004 A 
ATOM     18  C   LIG d   1       6.252  -0.996  -3.463  0.00  0.00     0.022 A 
ATOM     19  C   LIG d   1       5.182  -0.420  -2.803  0.00  0.00     0.274 A 
ATOM     20  H   LIG d   1       7.158  -0.431  -3.619  0.00  0.00     0.069 H 
ATOM     21  C   LIG d   1       4.025  -1.147  -2.597  0.00  0.00     0.016 A 
ATOM     22  C   LIG d   1       3.932  -2.447  -3.060  0.00  0.00    -0.055 A 
ATOM     23  H   LIG d   1       3.190  -0.699  -2.079  0.00  0.00     0.069 H 
ATOM     24  C   LIG d   1       5.000  -3.022  -3.724  0.00  0.00    -0.055 A 
ATOM     25  H   LIG d   1       3.027  -3.014  -2.903  0.00  0.00     0.062 H 
ATOM     26  H   LIG d   1       4.929  -4.036  -4.086  0.00  0.00     0.062 H 
BRANCH  19  27
ATOM     27  N   LIG d   1       5.278   0.972  -2.313  0.00  0.00     0.080 N 
ATOM     28  O   LIG d   1       5.875   1.809  -2.967  0.00  0.00     0.041 OA
ATOM     29  O   LIG d   1       4.758   1.284  -1.255  0.00  0.00    -0.576 OA
ENDBRANCH  19  27
ENDBRANCH  14  17
ENDBRANCH  13  14
ENDBRANCH   5  13
BRANCH   2  30
ATOM     30  C   LIG d   1       2.827   0.140  -8.097  0.00  0.00     0.343 C 
ATOM     31  O   LIG d   1       2.346   0.007  -6.989  0.00  0.00    -0.245 OA
BRANCH  30  32
ATOM     32  O   LIG d   1       2.060  -0.047  -9.191  0.00  0.00    -0.459 OA
BRANCH  32  33
ATOM     33  C   LIG d   1       2.544  -0.994 -10.181  0.00  0.00     0.116 C 
ATOM     34  H   LIG d   1       2.046  -0.810 -11.132  0.00  0.00     0.072 H 
ATOM     35  H   LIG d   1       3.620  -0.873 -10.303  0.00  0.00     0.072 H 
BRANCH  33  36
ATOM     36  C   LIG d   1       2.241  -2.419  -9.713  0.00  0.00     0.082 C 
ATOM     37  H   LIG d   1       1.593  -2.383  -8.837  0.00  0.00     0.059 H 
ATOM     38  H   LIG d   1       1.740  -2.965 -10.512  0.00  0.00     0.059 H 
BRANCH  36  39
ATOM     39  O   LIG d   1       3.462  -3.080  -9.376  0.00  0.00    -0.380 OA
BRANCH  39  40
ATOM     40  C   LIG d   1       4.508  -2.887 -10.330  0.00  0.00     0.037 C 
ATOM     41  H   LIG d   1       5.443  -2.684  -9.808  0.00  0.00     0.052 H 
ATOM     42  H   LIG d   1       4.618  -3.787 -10.936  0.00  0.00     0.052 H 
ATOM     43  H   LIG d   1       4.262  -2.043 -10.975  0.00  0.00     0.052 H 
ENDBRANCH  39  40
ENDBRANCH  36  39
ENDBRANCH  33  36
ENDBRANCH  32  33
ENDBRANCH  30  32
ENDBRANCH   2  30
BRANCH   1  44
ATOM     44  C   LIG d   1       3.923   2.677  -9.535  0.00  0.00    -0.005 C 
ATOM     45  H   LIG d   1       3.028   2.231  -9.968  0.00  0.00     0.031 H 
ATOM     46  H   LIG d   1       3.636   3.426  -8.798  0.00  0.00     0.031 H 
ATOM     47  H   LIG d   1       4.510   3.149 -10.323  0.00  0.00     0.031 H 
ENDBRANCH   1  44
TORSDOF 11
ENDMDL
MODEL 9
REMARK VINA RESULT:      -5.7      6.301      9.450
REMARK  11 active torsions:
REMARK  status: ('A' for Active; 'I' for Inactive)
REMARK    1  A    between atoms: C_1  and  C_2 
REMARK    2  A    between atoms: C_3  and  C_23 
REMARK    3  A    between atoms: C_6  and  O_12 
REMARK    4  A    between atoms: O_12  and  C_13 
REMARK    5  A    between atoms: C_13  and  C_14 
REMARK    6  A    between atoms: C_18  and  N_20 
REMARK    7  A    between atoms: C_23  and  O_25 
REMARK    8  A    between atoms: O_25  and  C_26 
REMARK    9  A    between atoms: C_26  and  C_27 
REMARK   10  A    between atoms: C_27  and  O_28 
REMARK   11  A    between atoms: O_28  and  C_29 
ROOT
ATOM      1  C   LIG d   1       4.571  -9.618  -7.080  0.00  0.00     0.117 A 
ATOM      2  C   LIG d   1       4.663  -8.840  -5.966  0.00  0.00     0.107 A 
ATOM      3  C   LIG d   1       4.685  -7.446  -6.451  0.00  0.00     0.038 A 
ATOM      4  C   LIG d   1       4.770  -6.204  -5.831  0.00  0.00    -0.007 A 
ATOM      5  C   LIG d   1       4.761  -5.054  -6.599  0.00  0.00     0.136 A 
ATOM      6  C   LIG d   1       4.677  -5.142  -7.986  0.00  0.00     0.063 A 
ATOM      7  C   LIG d   1       4.598  -6.371  -8.607  0.00  0.00    -0.001 A 
ATOM      8  C   LIG d   1       4.601  -7.536  -7.848  0.00  0.00     0.137 A 
ATOM      9  O   LIG d   1       4.535  -8.844  -8.170  0.00  0.00    -0.459 OA
ATOM     10 BR   LIG d   1       4.671  -3.564  -9.026  0.00  0.00    -0.046 Br
ATOM     11  H   LIG d   1       4.839  -6.138  -4.754  0.00  0.00     0.066 H 
ATOM     12  H   LIG d   1       4.533  -6.429  -9.683  0.00  0.00     0.067 H 
ENDROOT
BRANCH   5  13
ATOM     13  O   LIG d   1       4.838  -3.836  -6.000  0.00  0.00    -0.486 OA
BRANCH  13  14
ATOM     14  C   LIG d   1       4.962  -3.821  -4.576  0.00  0.00     0.115 C 
ATOM     15  H   LIG d   1       6.014  -3.904  -4.302  0.00  0.00     0.075 H 
ATOM     16  H   LIG d   1       4.409  -4.659  -4.154  0.00  0.00     0.075 H 
BRANCH  14  17
ATOM     17  C   LIG d   1       4.404  -2.528  -4.037  0.00  0.00    -0.004 A 
ATOM     18  C   LIG d   1       3.989  -1.538  -4.909  0.00  0.00     0.022 A 
ATOM     19  C   LIG d   1       3.473  -0.354  -4.415  0.00  0.00     0.274 A 
ATOM     20  H   LIG d   1       4.065  -1.691  -5.975  0.00  0.00     0.069 H 
ATOM     21  C   LIG d   1       3.383  -0.156  -3.050  0.00  0.00     0.016 A 
ATOM     22  C   LIG d   1       3.797  -1.146  -2.179  0.00  0.00    -0.055 A 
ATOM     23  H   LIG d   1       2.984   0.770  -2.664  0.00  0.00     0.069 H 
ATOM     24  C   LIG d   1       4.308  -2.332  -2.672  0.00  0.00    -0.055 A 
ATOM     25  H   LIG d   1       3.723  -0.993  -1.112  0.00  0.00     0.062 H 
ATOM     26  H   LIG d   1       4.632  -3.105  -1.992  0.00  0.00     0.062 H 
BRANCH  19  27
ATOM     27  N   LIG d   1       3.024   0.703  -5.347  0.00  0.00     0.080 N 
ATOM     28  O   LIG d   1       2.502   1.715  -4.915  0.00  0.00     0.041 OA
ATOM     29  O   LIG d   1       3.176   0.562  -6.548  0.00  0.00    -0.576 OA
ENDBRANCH  19  27
ENDBRANCH  14  17
ENDBRANCH  13  14
ENDBRANCH   5  13
BRANCH   2  30
ATOM     30  C   LIG d   1       4.727  -9.295  -4.570  0.00  0.00     0.343 C 
ATOM     31  O   LIG d   1       3.787  -9.102  -3.824  0.00  0.00    -0.245 OA
BRANCH  30  32
ATOM     32  O   LIG d   1       5.829  -9.925  -4.116  0.00  0.00    -0.459 OA
BRANCH  32  33
ATOM     33  C   LIG d   1       6.919  -9.090  -3.644  0.00  0.00     0.116 C 
ATOM     34  H   LIG d   1       7.714  -9.075  -4.390  0.00  0.00     0.072 H 
ATOM     35  H   LIG d   1       6.554  -8.076  -3.481  0.00  0.00     0.072 H 
BRANCH  33  36
ATOM     36  C   LIG d   1       7.462  -9.654  -2.330  0.00  0.00     0.082 C 
ATOM     37  H   LIG d   1       7.985 -10.591  -2.525  0.00  0.00     0.059 H 
ATOM     38  H   LIG d   1       8.154  -8.939  -1.885  0.00  0.00     0.059 H 
BRANCH  36  39
ATOM     39  O   LIG d   1       6.378  -9.892  -1.430  0.00  0.00    -0.380 OA
BRANCH  39  40
ATOM     40  C   LIG d   1       6.347 -11.217  -0.896  0.00  0.00     0.037 C 
ATOM     41  H   LIG d   1       6.376 -11.171   0.192  0.00  0.00     0.052 H 
ATOM     42  H   LIG d   1       5.431 -11.716  -1.215  0.00  0.00     0.052 H 
ATOM     43  H   LIG d   1       7.209 -11.776  -1.259  0.00  0.00     0.052 H 
ENDBRANCH  39  40
ENDBRANCH  36  39
ENDBRANCH  33  36
ENDBRANCH  32  33
ENDBRANCH  30  32
ENDBRANCH   2  30
BRANCH   1  44
ATOM     44  C   LIG d   1       4.516 -11.124  -7.083  0.00  0.00    -0.005 C 
ATOM     45  H   LIG d   1       5.525 -11.524  -7.185  0.00  0.00     0.031 H 
ATOM     46  H   LIG d   1       4.079 -11.474  -6.148  0.00  0.00     0.031 H 
ATOM     47  H   LIG d   1       3.906 -11.464  -7.920  0.00  0.00     0.031 H 
ENDBRANCH   1  44
TORSDOF 11
ENDMDL
MODEL 10
REMARK VINA RESULT:      -5.6      5.145      8.596
REMARK  11 active torsions:
REMARK  status: ('A' for Active; 'I' for Inactive)
REMARK    1  A    between atoms: C_1  and  C_2 
REMARK    2  A    between atoms: C_3  and  C_23 
REMARK    3  A    between atoms: C_6  and  O_12 
REMARK    4  A    between atoms: O_12  and  C_13 
REMARK    5  A    between atoms: C_13  and  C_14 
REMARK    6  A    between atoms: C_18  and  N_20 
REMARK    7  A    between atoms: C_23  and  O_25 
REMARK    8  A    between atoms: O_25  and  C_26 
REMARK    9  A    between atoms: C_26  and  C_27 
REMARK   10  A    between atoms: C_27  and  O_28 
REMARK   11  A    between atoms: O_28  and  C_29 
ROOT
ATOM      1  C   LIG d   1       1.111  -3.805 -11.161  0.00  0.00     0.117 A 
ATOM      2  C   LIG d   1       2.093  -4.114 -10.271  0.00  0.00     0.107 A 
ATOM      3  C   LIG d   1       2.477  -2.837  -9.638  0.00  0.00     0.038 A 
ATOM      4  C   LIG d   1       3.406  -2.476  -8.667  0.00  0.00    -0.007 A 
ATOM      5  C   LIG d   1       3.514  -1.152  -8.284  0.00  0.00     0.136 A 
ATOM      6  C   LIG d   1       2.702  -0.186  -8.873  0.00  0.00     0.063 A 
ATOM      7  C   LIG d   1       1.783  -0.538  -9.839  0.00  0.00    -0.001 A 
ATOM      8  C   LIG d   1       1.659  -1.866 -10.232  0.00  0.00     0.137 A 
ATOM      9  O   LIG d   1       0.867  -2.490 -11.128  0.00  0.00    -0.459 OA
ATOM     10 BR   LIG d   1       2.861   1.622  -8.345  0.00  0.00    -0.046 Br
ATOM     11  H   LIG d   1       4.038  -3.226  -8.214  0.00  0.00     0.066 H 
ATOM     12  H   LIG d   1       1.158   0.219 -10.290  0.00  0.00     0.067 H 
ENDROOT
BRANCH   5  13
ATOM     13  O   LIG d   1       4.416  -0.791  -7.333  0.00  0.00    -0.486 OA
BRANCH  13  14
ATOM     14  C   LIG d   1       5.032  -1.846  -6.590  0.00  0.00     0.115 C 
ATOM     15  H   LIG d   1       6.111  -1.819  -6.749  0.00  0.00     0.075 H 
ATOM     16  H   LIG d   1       4.639  -2.804  -6.926  0.00  0.00     0.075 H 
BRANCH  14  17
ATOM     17  C   LIG d   1       4.737  -1.666  -5.123  0.00  0.00    -0.004 A 
ATOM     18  C   LIG d   1       4.720  -0.398  -4.572  0.00  0.00     0.022 A 
ATOM     19  C   LIG d   1       4.445  -0.233  -3.227  0.00  0.00     0.274 A 
ATOM     20  H   LIG d   1       4.919   0.463  -5.192  0.00  0.00     0.069 H 
ATOM     21  C   LIG d   1       4.197  -1.336  -2.432  0.00  0.00     0.016 A 
ATOM     22  C   LIG d   1       4.213  -2.604  -2.984  0.00  0.00    -0.055 A 
ATOM     23  H   LIG d   1       3.986  -1.208  -1.381  0.00  0.00     0.069 H 
ATOM     24  C   LIG d   1       4.484  -2.769  -4.329  0.00  0.00    -0.055 A 
ATOM     25  H   LIG d   1       4.016  -3.466  -2.363  0.00  0.00     0.062 H 
ATOM     26  H   LIG d   1       4.497  -3.759  -4.760  0.00  0.00     0.062 H 
BRANCH  19  27
ATOM     27  N   LIG d   1       4.421   1.123  -2.638  0.00  0.00     0.080 N 
ATOM     28  O   LIG d   1       3.468   1.481  -1.969  0.00  0.00     0.041 OA
ATOM     29  O   LIG d   1       5.356   1.884  -2.820  0.00  0.00    -0.576 OA
ENDBRANCH  19  27
ENDBRANCH  14  17
ENDBRANCH  13  14
ENDBRANCH   5  13
BRANCH   2  30
ATOM     30  C   LIG d   1       2.655  -5.444  -9.998  0.00  0.00     0.343 C 
ATOM     31  O   LIG d   1       2.110  -6.183  -9.201  0.00  0.00    -0.245 OA
BRANCH  30  32
ATOM     32  O   LIG d   1       3.777  -5.846 -10.629  0.00  0.00    -0.459 OA
BRANCH  32  33
ATOM     33  C   LIG d   1       4.972  -5.999  -9.818  0.00  0.00     0.116 C 
ATOM     34  H   LIG d   1       4.696  -6.009  -8.764  0.00  0.00     0.072 H 
ATOM     35  H   LIG d   1       5.465  -6.937 -10.074  0.00  0.00     0.072 H 
BRANCH  33  36
ATOM     36  C   LIG d   1       5.924  -4.832 -10.087  0.00  0.00     0.082 C 
ATOM     37  H   LIG d   1       5.878  -4.128  -9.256  0.00  0.00     0.059 H 
ATOM     38  H   LIG d   1       6.941  -5.209 -10.187  0.00  0.00     0.059 H 
BRANCH  36  39
ATOM     39  O   LIG d   1       5.538  -4.171 -11.294  0.00  0.00    -0.380 OA
BRANCH  39  40
ATOM     40  C   LIG d   1       5.978  -2.814 -11.379  0.00  0.00     0.037 C 
ATOM     41  H   LIG d   1       7.067  -2.784 -11.365  0.00  0.00     0.052 H 
ATOM     42  H   LIG d   1       5.613  -2.371 -12.305  0.00  0.00     0.052 H 
ATOM     43  H   LIG d   1       5.588  -2.252 -10.529  0.00  0.00     0.052 H 
ENDBRANCH  39  40
ENDBRANCH  36  39
ENDBRANCH  33  36
ENDBRANCH  32  33
ENDBRANCH  30  32
ENDBRANCH   2  30
BRANCH   1  44
ATOM     44  C   LIG d   1       0.404  -4.795 -12.051  0.00  0.00    -0.005 C 
ATOM     45  H   LIG d   1      -0.152  -5.503 -11.436  0.00  0.00     0.031 H 
ATOM     46  H   LIG d   1      -0.285  -4.266 -12.709  0.00  0.00     0.031 H 
ATOM     47  H   LIG d   1       1.138  -5.334 -12.650  0.00  0.00     0.031 H 
ENDBRANCH   1  44
TORSDOF 11
ENDMDL
