MODEL 1
REMARK VINA RESULT:      -6.8      0.000      0.000
REMARK  4 active torsions:
REMARK  status: ('A' for Active; 'I' for Inactive)
REMARK    1  A    between atoms: C_1  and  O_2 
REMARK    2  A    between atoms: O_2  and  C_3 
REMARK    3  A    between atoms: C_3  and  C_5 
REMARK    4  A    between atoms: C_7  and  O_32 
ROOT
ATOM      1  C   LIG d   1      11.001   3.893  -3.912  0.00  0.00     0.086 C 
ATOM      2  H   LIG d   1      10.526   4.430  -4.734  0.00  0.00     0.044 H 
ATOM      3  C   LIG d   1      12.517   4.041  -4.017  0.00  0.00     0.068 C 
ATOM      4  H   LIG d   1      12.995   3.499  -3.202  0.00  0.00     0.060 H 
ATOM      5  C   LIG d   1      12.983   3.466  -5.358  0.00  0.00    -0.026 C 
ATOM      6  C   LIG d   1      12.622   1.982  -5.415  0.00  0.00    -0.043 C 
ATOM      7  C   LIG d   1      11.105   1.807  -5.295  0.00  0.00     0.003 C 
ATOM      8  H   LIG d   1      10.615   2.303  -6.132  0.00  0.00     0.035 H 
ATOM      9  C   LIG d   1      10.615   2.412  -3.982  0.00  0.00    -0.013 C 
ATOM     10  H   LIG d   1      11.062   1.879  -3.142  0.00  0.00     0.032 H 
ATOM     11  C   LIG d   1       9.090   2.309  -3.908  0.00  0.00     0.000 C 
ATOM     12  C   LIG d   1       8.605   1.077  -4.675  0.00  0.00     0.021 C 
ATOM     13  H   LIG d   1       8.465   1.334  -5.725  0.00  0.00     0.092 H 
ATOM     14  C   LIG d   1       7.289   0.627  -4.085  0.00  0.00     0.069 A 
ATOM     15  C   LIG d   1       7.008  -0.664  -3.798  0.00  0.00    -0.009 A 
ATOM     16  C   LIG d   1       5.673  -0.702  -3.248  0.00  0.00     0.004 A 
ATOM     17  C   LIG d   1       4.866  -1.744  -2.777  0.00  0.00    -0.052 A 
ATOM     18  C   LIG d   1       3.618  -1.403  -2.317  0.00  0.00    -0.061 A 
ATOM     19  C   LIG d   1       3.168  -0.093  -2.312  0.00  0.00    -0.060 A 
ATOM     20  C   LIG d   1       3.944   0.956  -2.770  0.00  0.00    -0.038 A 
ATOM     21  C   LIG d   1       5.216   0.641  -3.245  0.00  0.00     0.047 A 
ATOM     22  N   LIG d   1       6.218   1.415  -3.758  0.00  0.00    -0.353 N 
ATOM     23  H   LIG d   1       6.177   2.377  -3.874  0.00  0.00     0.166 HD
ATOM     24  C   LIG d   1       7.978  -1.791  -4.054  0.00  0.00     0.015 C 
ATOM     25  C   LIG d   1       9.033  -1.275  -5.040  0.00  0.00    -0.027 C 
ATOM     26  N   LIG d   1       9.589  -0.001  -4.562  0.00  0.00     0.242 N 
ATOM     27  C   LIG d   1      10.788   0.312  -5.334  0.00  0.00    -0.028 C 
ATOM     28  H   LIG d   1      12.489   3.993  -6.173  0.00  0.00     0.029 H 
ATOM     29  H   LIG d   1      14.063   3.582  -5.448  0.00  0.00     0.029 H 
ATOM     30  H   LIG d   1      12.960   1.564  -6.363  0.00  0.00     0.027 H 
ATOM     31  H   LIG d   1      13.112   1.458  -4.596  0.00  0.00     0.027 H 
ATOM     32  H   LIG d   1       8.783   2.228  -2.866  0.00  0.00     0.033 H 
ATOM     33  H   LIG d   1       8.645   3.202  -4.345  0.00  0.00     0.033 H 
ATOM     34  H   LIG d   1       5.209  -2.767  -2.777  0.00  0.00     0.062 H 
ATOM     35  H   LIG d   1       2.968  -2.181  -1.945  0.00  0.00     0.062 H 
ATOM     36  H   LIG d   1       2.176   0.116  -1.937  0.00  0.00     0.062 H 
ATOM     37  H   LIG d   1       3.581   1.973  -2.762  0.00  0.00     0.064 H 
ATOM     38  H   LIG d   1       8.456  -2.086  -3.120  0.00  0.00     0.037 H 
ATOM     39  H   LIG d   1       7.450  -2.641  -4.486  0.00  0.00     0.037 H 
ATOM     40  H   LIG d   1       9.834  -2.008  -5.129  0.00  0.00     0.082 H 
ATOM     41  H   LIG d   1       8.573  -1.124  -6.017  0.00  0.00     0.082 H 
ATOM     42  H   LIG d   1      10.637   0.007  -6.369  0.00  0.00     0.082 H 
ATOM     43  H   LIG d   1      11.630  -0.241  -4.918  0.00  0.00     0.082 H 
ATOM     44  H   LIG d   1       9.853  -0.104  -3.594  0.00  0.00     0.204 HD
ENDROOT
BRANCH   1  45
ATOM     45  C   LIG d   1      10.531   4.471  -2.602  0.00  0.00     0.313 C 
ATOM     46  O   LIG d   1      11.043   4.116  -1.567  0.00  0.00    -0.250 OA
BRANCH  45  47
ATOM     47  O   LIG d   1       9.543   5.380  -2.585  0.00  0.00    -0.468 OA
BRANCH  47  48
ATOM     48  C   LIG d   1       9.852   6.665  -2.041  0.00  0.00     0.082 C 
ATOM     49  H   LIG d   1      10.443   7.231  -2.760  0.00  0.00     0.066 H 
ATOM     50  H   LIG d   1       8.928   7.201  -1.829  0.00  0.00     0.066 H 
ATOM     51  H   LIG d   1      10.421   6.542  -1.120  0.00  0.00     0.066 H 
ENDBRANCH  47  48
ENDBRANCH  45  47
ENDBRANCH   1  45
BRANCH   3  52
ATOM     52  O   LIG d   1      12.869   5.424  -3.941  0.00  0.00    -0.391 OA
ATOM     53  H   LIG d   1      13.747   5.587  -3.569  0.00  0.00     0.210 HD
ENDBRANCH   3  52
TORSDOF 4
ENDMDL
MODEL 2
REMARK VINA RESULT:      -6.4      7.906     10.189
REMARK  4 active torsions:
REMARK  status: ('A' for Active; 'I' for Inactive)
REMARK    1  A    between atoms: C_1  and  O_2 
REMARK    2  A    between atoms: O_2  and  C_3 
REMARK    3  A    between atoms: C_3  and  C_5 
REMARK    4  A    between atoms: C_7  and  O_32 
ROOT
ATOM      1  C   LIG d   1       2.829  -3.716 -10.931  0.00  0.00     0.086 C 
ATOM      2  H   LIG d   1       3.898  -3.905 -11.037  0.00  0.00     0.044 H 
ATOM      3  C   LIG d   1       2.188  -3.633 -12.315  0.00  0.00     0.068 C 
ATOM      4  H   LIG d   1       1.121  -3.436 -12.212  0.00  0.00     0.060 H 
ATOM      5  C   LIG d   1       2.846  -2.496 -13.102  0.00  0.00    -0.026 C 
ATOM      6  C   LIG d   1       2.611  -1.178 -12.363  0.00  0.00    -0.043 C 
ATOM      7  C   LIG d   1       3.232  -1.244 -10.964  0.00  0.00     0.003 C 
ATOM      8  H   LIG d   1       4.308  -1.392 -11.051  0.00  0.00     0.035 H 
ATOM      9  C   LIG d   1       2.617  -2.400 -10.178  0.00  0.00    -0.013 C 
ATOM     10  H   LIG d   1       1.549  -2.225 -10.042  0.00  0.00     0.032 H 
ATOM     11  C   LIG d   1       3.302  -2.510  -8.813  0.00  0.00     0.000 C 
ATOM     12  C   LIG d   1       3.777  -1.134  -8.346  0.00  0.00     0.021 C 
ATOM     13  H   LIG d   1       4.771  -0.936  -8.748  0.00  0.00     0.092 H 
ATOM     14  C   LIG d   1       3.833  -1.128  -6.836  0.00  0.00     0.069 A 
ATOM     15  C   LIG d   1       3.342  -0.120  -6.080  0.00  0.00    -0.009 A 
ATOM     16  C   LIG d   1       3.568  -0.470  -4.697  0.00  0.00     0.004 A 
ATOM     17  C   LIG d   1       3.275   0.175  -3.491  0.00  0.00    -0.052 A 
ATOM     18  C   LIG d   1       3.648  -0.467  -2.336  0.00  0.00    -0.061 A 
ATOM     19  C   LIG d   1       4.284  -1.698  -2.351  0.00  0.00    -0.060 A 
ATOM     20  C   LIG d   1       4.585  -2.359  -3.528  0.00  0.00    -0.038 A 
ATOM     21  C   LIG d   1       4.220  -1.731  -4.717  0.00  0.00     0.047 A 
ATOM     22  N   LIG d   1       4.363  -2.096  -6.026  0.00  0.00    -0.353 N 
ATOM     23  H   LIG d   1       4.778  -2.916  -6.334  0.00  0.00     0.166 HD
ATOM     24  C   LIG d   1       2.701   1.111  -6.670  0.00  0.00     0.015 C 
ATOM     25  C   LIG d   1       3.116   1.183  -8.145  0.00  0.00    -0.027 C 
ATOM     26  N   LIG d   1       2.849  -0.101  -8.808  0.00  0.00     0.242 N 
ATOM     27  C   LIG d   1       2.956   0.080 -10.253  0.00  0.00    -0.028 C 
ATOM     28  H   LIG d   1       3.916  -2.681 -13.185  0.00  0.00     0.029 H 
ATOM     29  H   LIG d   1       2.405  -2.440 -14.097  0.00  0.00     0.029 H 
ATOM     30  H   LIG d   1       3.068  -0.364 -12.924  0.00  0.00     0.027 H 
ATOM     31  H   LIG d   1       1.540  -0.999 -12.275  0.00  0.00     0.027 H 
ATOM     32  H   LIG d   1       2.597  -2.913  -8.087  0.00  0.00     0.033 H 
ATOM     33  H   LIG d   1       4.158  -3.179  -8.892  0.00  0.00     0.033 H 
ATOM     34  H   LIG d   1       2.780   1.134  -3.470  0.00  0.00     0.062 H 
ATOM     35  H   LIG d   1       3.437   0.001  -1.386  0.00  0.00     0.062 H 
ATOM     36  H   LIG d   1       4.554  -2.157  -1.410  0.00  0.00     0.062 H 
ATOM     37  H   LIG d   1       5.081  -3.318  -3.525  0.00  0.00     0.064 H 
ATOM     38  H   LIG d   1       1.616   1.035  -6.594  0.00  0.00     0.037 H 
ATOM     39  H   LIG d   1       3.049   1.998  -6.143  0.00  0.00     0.037 H 
ATOM     40  H   LIG d   1       2.550   1.972  -8.642  0.00  0.00     0.082 H 
ATOM     41  H   LIG d   1       4.181   1.409  -8.211  0.00  0.00     0.082 H 
ATOM     42  H   LIG d   1       3.767   0.775 -10.468  0.00  0.00     0.082 H 
ATOM     43  H   LIG d   1       2.021   0.497 -10.626  0.00  0.00     0.082 H 
ATOM     44  H   LIG d   1       1.906  -0.388  -8.593  0.00  0.00     0.204 HD
ENDROOT
BRANCH   1  45
ATOM     45  C   LIG d   1       2.199  -4.844 -10.154  0.00  0.00     0.313 C 
ATOM     46  O   LIG d   1       1.003  -5.010 -10.194  0.00  0.00    -0.250 OA
BRANCH  45  47
ATOM     47  O   LIG d   1       2.966  -5.663  -9.417  0.00  0.00    -0.468 OA
BRANCH  47  48
ATOM     48  C   LIG d   1       4.218  -6.060  -9.979  0.00  0.00     0.082 C 
ATOM     49  H   LIG d   1       4.401  -7.110  -9.754  0.00  0.00     0.066 H 
ATOM     50  H   LIG d   1       4.192  -5.919 -11.059  0.00  0.00     0.066 H 
ATOM     51  H   LIG d   1       5.016  -5.452  -9.552  0.00  0.00     0.066 H 
ENDBRANCH  47  48
ENDBRANCH  45  47
ENDBRANCH   1  45
BRANCH   3  52
ATOM     52  O   LIG d   1       2.381  -4.868 -13.006  0.00  0.00    -0.391 OA
ATOM     53  H   LIG d   1       2.639  -5.605 -12.434  0.00  0.00     0.210 HD
ENDBRANCH   3  52
TORSDOF 4
ENDMDL
MODEL 3
REMARK VINA RESULT:      -6.1      5.159      7.202
REMARK  4 active torsions:
REMARK  status: ('A' for Active; 'I' for Inactive)
REMARK    1  A    between atoms: C_1  and  O_2 
REMARK    2  A    between atoms: O_2  and  C_3 
REMARK    3  A    between atoms: C_3  and  C_5 
REMARK    4  A    between atoms: C_7  and  O_32 
ROOT
ATOM      1  C   LIG d   1       9.672   7.790  -8.581  0.00  0.00     0.086 C 
ATOM      2  H   LIG d   1       8.607   7.967  -8.427  0.00  0.00     0.044 H 
ATOM      3  C   LIG d   1       9.926   7.461 -10.051  0.00  0.00     0.068 C 
ATOM      4  H   LIG d   1      10.988   7.275 -10.205  0.00  0.00     0.060 H 
ATOM      5  C   LIG d   1       9.125   6.211 -10.428  0.00  0.00    -0.026 C 
ATOM      6  C   LIG d   1       9.597   5.039  -9.567  0.00  0.00    -0.043 C 
ATOM      7  C   LIG d   1       9.368   5.353  -8.085  0.00  0.00     0.003 C 
ATOM      8  H   LIG d   1       8.302   5.494  -7.904  0.00  0.00     0.035 H 
ATOM      9  C   LIG d   1      10.125   6.622  -7.700  0.00  0.00    -0.013 C 
ATOM     10  H   LIG d   1      11.197   6.463  -7.827  0.00  0.00     0.032 H 
ATOM     11  C   LIG d   1       9.823   6.975  -6.241  0.00  0.00     0.000 C 
ATOM     12  C   LIG d   1       9.541   5.705  -5.437  0.00  0.00     0.021 C 
ATOM     13  H   LIG d   1       8.484   5.450  -5.518  0.00  0.00     0.092 H 
ATOM     14  C   LIG d   1       9.888   5.962  -3.989  0.00  0.00     0.069 A 
ATOM     15  C   LIG d   1      10.600   5.097  -3.232  0.00  0.00    -0.009 A 
ATOM     16  C   LIG d   1      10.735   5.684  -1.919  0.00  0.00     0.004 A 
ATOM     17  C   LIG d   1      11.362   5.255  -0.744  0.00  0.00    -0.052 A 
ATOM     18  C   LIG d   1      11.285   6.091   0.341  0.00  0.00    -0.061 A 
ATOM     19  C   LIG d   1      10.623   7.307   0.288  0.00  0.00    -0.060 A 
ATOM     20  C   LIG d   1       9.995   7.757  -0.859  0.00  0.00    -0.038 A 
ATOM     21  C   LIG d   1      10.055   6.928  -1.978  0.00  0.00     0.047 A 
ATOM     22  N   LIG d   1       9.556   7.061  -3.243  0.00  0.00    -0.353 N 
ATOM     23  H   LIG d   1       9.044   7.819  -3.564  0.00  0.00     0.166 HD
ATOM     24  C   LIG d   1      11.107   3.776  -3.754  0.00  0.00     0.015 C 
ATOM     25  C   LIG d   1      10.318   3.452  -5.030  0.00  0.00    -0.027 C 
ATOM     26  N   LIG d   1      10.351   4.598  -5.948  0.00  0.00     0.242 N 
ATOM     27  C   LIG d   1       9.872   4.170  -7.259  0.00  0.00    -0.028 C 
ATOM     28  H   LIG d   1       8.065   6.389 -10.252  0.00  0.00     0.029 H 
ATOM     29  H   LIG d   1       9.288   5.978 -11.480  0.00  0.00     0.029 H 
ATOM     30  H   LIG d   1       9.039   4.144  -9.837  0.00  0.00     0.027 H 
ATOM     31  H   LIG d   1      10.659   4.868  -9.740  0.00  0.00     0.027 H 
ATOM     32  H   LIG d   1      10.680   7.491  -5.809  0.00  0.00     0.033 H 
ATOM     33  H   LIG d   1       8.952   7.628  -6.200  0.00  0.00     0.033 H 
ATOM     34  H   LIG d   1      11.881   4.309  -0.694  0.00  0.00     0.062 H 
ATOM     35  H   LIG d   1      11.758   5.793   1.266  0.00  0.00     0.062 H 
ATOM     36  H   LIG d   1      10.595   7.925   1.175  0.00  0.00     0.062 H 
ATOM     37  H   LIG d   1       9.482   8.706  -0.887  0.00  0.00     0.064 H 
ATOM     38  H   LIG d   1      12.169   3.853  -3.986  0.00  0.00     0.037 H 
ATOM     39  H   LIG d   1      10.944   2.997  -3.010  0.00  0.00     0.037 H 
ATOM     40  H   LIG d   1      10.761   2.584  -5.518  0.00  0.00     0.082 H 
ATOM     41  H   LIG d   1       9.283   3.228  -4.769  0.00  0.00     0.082 H 
ATOM     42  H   LIG d   1       9.060   3.456  -7.127  0.00  0.00     0.082 H 
ATOM     43  H   LIG d   1      10.689   3.686  -7.792  0.00  0.00     0.082 H 
ATOM     44  H   LIG d   1      11.306   4.909  -6.045  0.00  0.00     0.204 HD
ENDROOT
BRANCH   1  45
ATOM     45  C   LIG d   1      10.443   9.029  -8.205  0.00  0.00     0.313 C 
ATOM     46  O   LIG d   1      11.646   8.982  -8.095  0.00  0.00    -0.250 OA
BRANCH  45  47
ATOM     47  O   LIG d   1       9.794  10.184  -7.990  0.00  0.00    -0.468 OA
BRANCH  47  48
ATOM     48  C   LIG d   1       9.920  10.768  -6.691  0.00  0.00     0.082 C 
ATOM     49  H   LIG d   1       9.515  11.779  -6.707  0.00  0.00     0.066 H 
ATOM     50  H   LIG d   1       9.368  10.167  -5.969  0.00  0.00     0.066 H 
ATOM     51  H   LIG d   1      10.972  10.801  -6.409  0.00  0.00     0.066 H 
ENDBRANCH  47  48
ENDBRANCH  45  47
ENDBRANCH   1  45
BRANCH   3  52
ATOM     52  O   LIG d   1       9.510   8.559 -10.865  0.00  0.00    -0.391 OA
ATOM     53  H   LIG d   1      10.145   9.288 -10.899  0.00  0.00     0.210 HD
ENDBRANCH   3  52
TORSDOF 4
ENDMDL
MODEL 4
REMARK VINA RESULT:      -6.0      9.386     10.882
REMARK  4 active torsions:
REMARK  status: ('A' for Active; 'I' for Inactive)
REMARK    1  A    between atoms: C_1  and  O_2 
REMARK    2  A    between atoms: O_2  and  C_3 
REMARK    3  A    between atoms: C_3  and  C_5 
REMARK    4  A    between atoms: C_7  and  O_32 
ROOT
ATOM      1  C   LIG d   1       2.935  -0.085  -9.247  0.00  0.00     0.086 C 
ATOM      2  H   LIG d   1       2.014   0.493  -9.336  0.00  0.00     0.044 H 
ATOM      3  C   LIG d   1       4.134   0.830  -9.491  0.00  0.00     0.068 C 
ATOM      4  H   LIG d   1       5.055   0.254  -9.411  0.00  0.00     0.060 H 
ATOM      5  C   LIG d   1       4.025   1.431 -10.896  0.00  0.00    -0.026 C 
ATOM      6  C   LIG d   1       4.044   0.299 -11.924  0.00  0.00    -0.043 C 
ATOM      7  C   LIG d   1       2.858  -0.642 -11.688  0.00  0.00     0.003 C 
ATOM      8  H   LIG d   1       1.926  -0.090 -11.813  0.00  0.00     0.035 H 
ATOM      9  C   LIG d   1       2.926  -1.219 -10.276  0.00  0.00    -0.013 C 
ATOM     10  H   LIG d   1       3.831  -1.817 -10.167  0.00  0.00     0.032 H 
ATOM     11  C   LIG d   1       1.694  -2.091 -10.020  0.00  0.00     0.000 C 
ATOM     12  C   LIG d   1       1.210  -2.720 -11.327  0.00  0.00     0.021 C 
ATOM     13  H   LIG d   1       0.530  -2.034 -11.831  0.00  0.00     0.092 H 
ATOM     14  C   LIG d   1       0.484  -4.005 -11.005  0.00  0.00     0.069 A 
ATOM     15  C   LIG d   1       0.689  -5.161 -11.677  0.00  0.00    -0.009 A 
ATOM     16  C   LIG d   1      -0.171  -6.160 -11.085  0.00  0.00     0.004 A 
ATOM     17  C   LIG d   1      -0.383  -7.516 -11.358  0.00  0.00    -0.052 A 
ATOM     18  C   LIG d   1      -1.300  -8.171 -10.575  0.00  0.00    -0.061 A 
ATOM     19  C   LIG d   1      -1.989  -7.531  -9.557  0.00  0.00    -0.060 A 
ATOM     20  C   LIG d   1      -1.800  -6.193  -9.265  0.00  0.00    -0.038 A 
ATOM     21  C   LIG d   1      -0.874  -5.501 -10.044  0.00  0.00     0.047 A 
ATOM     22  N   LIG d   1      -0.454  -4.201 -10.027  0.00  0.00    -0.353 N 
ATOM     23  H   LIG d   1      -0.771  -3.520  -9.414  0.00  0.00     0.166 HD
ATOM     24  C   LIG d   1       1.654  -5.280 -12.829  0.00  0.00     0.015 C 
ATOM     25  C   LIG d   1       1.955  -3.860 -13.325  0.00  0.00    -0.027 C 
ATOM     26  N   LIG d   1       2.352  -3.005 -12.197  0.00  0.00     0.242 N 
ATOM     27  C   LIG d   1       2.925  -1.768 -12.719  0.00  0.00    -0.028 C 
ATOM     28  H   LIG d   1       3.093   1.988 -10.983  0.00  0.00     0.029 H 
ATOM     29  H   LIG d   1       4.869   2.097 -11.072  0.00  0.00     0.029 H 
ATOM     30  H   LIG d   1       3.977   0.721 -12.926  0.00  0.00     0.027 H 
ATOM     31  H   LIG d   1       4.974  -0.260 -11.829  0.00  0.00     0.027 H 
ATOM     32  H   LIG d   1       1.950  -2.880  -9.314  0.00  0.00     0.033 H 
ATOM     33  H   LIG d   1       0.898  -1.477  -9.599  0.00  0.00     0.033 H 
ATOM     34  H   LIG d   1       0.150  -8.023 -12.148  0.00  0.00     0.062 H 
ATOM     35  H   LIG d   1      -1.490  -9.219 -10.756  0.00  0.00     0.062 H 
ATOM     36  H   LIG d   1      -2.700  -8.098  -8.972  0.00  0.00     0.062 H 
ATOM     37  H   LIG d   1      -2.344  -5.706  -8.469  0.00  0.00     0.064 H 
ATOM     38  H   LIG d   1       2.574  -5.758 -12.493  0.00  0.00     0.037 H 
ATOM     39  H   LIG d   1       1.203  -5.865 -13.630  0.00  0.00     0.037 H 
ATOM     40  H   LIG d   1       2.765  -3.896 -14.055  0.00  0.00     0.082 H 
ATOM     41  H   LIG d   1       1.064  -3.444 -13.797  0.00  0.00     0.082 H 
ATOM     42  H   LIG d   1       2.376  -1.467 -13.611  0.00  0.00     0.082 H 
ATOM     43  H   LIG d   1       3.967  -1.946 -12.984  0.00  0.00     0.082 H 
ATOM     44  H   LIG d   1       3.061  -3.483 -11.662  0.00  0.00     0.204 HD
ENDROOT
BRANCH   1  45
ATOM     45  C   LIG d   1       3.025  -0.668  -7.860  0.00  0.00     0.313 C 
ATOM     46  O   LIG d   1       3.642  -1.690  -7.673  0.00  0.00    -0.250 OA
BRANCH  45  47
ATOM     47  O   LIG d   1       2.419  -0.053  -6.832  0.00  0.00    -0.468 OA
BRANCH  47  48
ATOM     48  C   LIG d   1       3.153   0.044  -5.610  0.00  0.00     0.082 C 
ATOM     49  H   LIG d   1       2.617   0.688  -4.914  0.00  0.00     0.066 H 
ATOM     50  H   LIG d   1       3.265  -0.949  -5.174  0.00  0.00     0.066 H 
ATOM     51  H   LIG d   1       4.138   0.465  -5.810  0.00  0.00     0.066 H 
ENDBRANCH  47  48
ENDBRANCH  45  47
ENDBRANCH   1  45
BRANCH   3  52
ATOM     52  O   LIG d   1       4.141   1.879  -8.521  0.00  0.00    -0.391 OA
ATOM     53  H   LIG d   1       4.952   2.407  -8.516  0.00  0.00     0.210 HD
ENDBRANCH   3  52
TORSDOF 4
ENDMDL
MODEL 5
REMARK VINA RESULT:      -5.8      4.950      7.127
REMARK  4 active torsions:
REMARK  status: ('A' for Active; 'I' for Inactive)
REMARK    1  A    between atoms: C_1  and  O_2 
REMARK    2  A    between atoms: O_2  and  C_3 
REMARK    3  A    between atoms: C_3  and  C_5 
REMARK    4  A    between atoms: C_7  and  O_32 
ROOT
ATOM      1  C   LIG d   1      10.442   9.379  -0.991  0.00  0.00     0.086 C 
ATOM      2  H   LIG d   1      11.414   9.713  -1.354  0.00  0.00     0.044 H 
ATOM      3  C   LIG d   1      10.325   9.684   0.502  0.00  0.00     0.068 C 
ATOM      4  H   LIG d   1       9.358   9.344   0.869  0.00  0.00     0.060 H 
ATOM      5  C   LIG d   1      11.444   8.952   1.249  0.00  0.00    -0.026 C 
ATOM      6  C   LIG d   1      11.285   7.447   1.033  0.00  0.00    -0.043 C 
ATOM      7  C   LIG d   1      11.382   7.119  -0.460  0.00  0.00     0.003 C 
ATOM      8  H   LIG d   1      12.364   7.409  -0.832  0.00  0.00     0.035 H 
ATOM      9  C   LIG d   1      10.299   7.873  -1.228  0.00  0.00    -0.013 C 
ATOM     10  H   LIG d   1       9.314   7.543  -0.895  0.00  0.00     0.032 H 
ATOM     11  C   LIG d   1      10.456   7.606  -2.727  0.00  0.00     0.000 C 
ATOM     12  C   LIG d   1      11.051   6.216  -2.958  0.00  0.00     0.021 C 
ATOM     13  H   LIG d   1      12.139   6.276  -2.929  0.00  0.00     0.092 H 
ATOM     14  C   LIG d   1      10.609   5.720  -4.315  0.00  0.00     0.069 A 
ATOM     15  C   LIG d   1      10.139   4.471  -4.531  0.00  0.00    -0.009 A 
ATOM     16  C   LIG d   1       9.815   4.369  -5.935  0.00  0.00     0.004 A 
ATOM     17  C   LIG d   1       9.297   3.334  -6.721  0.00  0.00    -0.052 A 
ATOM     18  C   LIG d   1       9.116   3.598  -8.055  0.00  0.00    -0.061 A 
ATOM     19  C   LIG d   1       9.425   4.829  -8.610  0.00  0.00    -0.060 A 
ATOM     20  C   LIG d   1       9.937   5.871  -7.858  0.00  0.00    -0.038 A 
ATOM     21  C   LIG d   1      10.133   5.632  -6.499  0.00  0.00     0.047 A 
ATOM     22  N   LIG d   1      10.611   6.421  -5.491  0.00  0.00    -0.353 N 
ATOM     23  H   LIG d   1      10.907   7.339  -5.594  0.00  0.00     0.166 HD
ATOM     24  C   LIG d   1      10.023   3.438  -3.438  0.00  0.00     0.015 C 
ATOM     25  C   LIG d   1      10.903   3.903  -2.270  0.00  0.00    -0.027 C 
ATOM     26  N   LIG d   1      10.584   5.294  -1.921  0.00  0.00     0.242 N 
ATOM     27  C   LIG d   1      11.196   5.612  -0.635  0.00  0.00    -0.028 C 
ATOM     28  H   LIG d   1      12.411   9.275   0.866  0.00  0.00     0.029 H 
ATOM     29  H   LIG d   1      11.378   9.177   2.313  0.00  0.00     0.029 H 
ATOM     30  H   LIG d   1      12.072   6.920   1.571  0.00  0.00     0.027 H 
ATOM     31  H   LIG d   1      10.314   7.128   1.411  0.00  0.00     0.027 H 
ATOM     32  H   LIG d   1       9.480   7.664  -3.209  0.00  0.00     0.033 H 
ATOM     33  H   LIG d   1      11.116   8.357  -3.161  0.00  0.00     0.033 H 
ATOM     34  H   LIG d   1       9.053   2.371  -6.297  0.00  0.00     0.062 H 
ATOM     35  H   LIG d   1       8.717   2.822  -8.693  0.00  0.00     0.062 H 
ATOM     36  H   LIG d   1       9.261   4.980  -9.668  0.00  0.00     0.062 H 
ATOM     37  H   LIG d   1      10.174   6.826  -8.303  0.00  0.00     0.064 H 
ATOM     38  H   LIG d   1       8.986   3.360  -3.111  0.00  0.00     0.037 H 
ATOM     39  H   LIG d   1      10.371   2.472  -3.803  0.00  0.00     0.037 H 
ATOM     40  H   LIG d   1      10.725   3.263  -1.406  0.00  0.00     0.082 H 
ATOM     41  H   LIG d   1      11.952   3.834  -2.558  0.00  0.00     0.082 H 
ATOM     42  H   LIG d   1      12.168   5.124  -0.570  0.00  0.00     0.082 H 
ATOM     43  H   LIG d   1      10.555   5.238   0.163  0.00  0.00     0.082 H 
ATOM     44  H   LIG d   1       9.584   5.385  -1.828  0.00  0.00     0.204 HD
ENDROOT
BRANCH   1  45
ATOM     45  C   LIG d   1       9.354  10.109  -1.736  0.00  0.00     0.313 C 
ATOM     46  O   LIG d   1       8.211  10.051  -1.347  0.00  0.00    -0.250 OA
BRANCH  45  47
ATOM     47  O   LIG d   1       9.654  10.821  -2.834  0.00  0.00    -0.468 OA
BRANCH  47  48
ATOM     48  C   LIG d   1       8.593  11.571  -3.431  0.00  0.00     0.082 C 
ATOM     49  H   LIG d   1       8.154  10.995  -4.244  0.00  0.00     0.066 H 
ATOM     50  H   LIG d   1       7.830  11.781  -2.681  0.00  0.00     0.066 H 
ATOM     51  H   LIG d   1       8.988  12.510  -3.821  0.00  0.00     0.066 H 
ENDBRANCH  47  48
ENDBRANCH  45  47
ENDBRANCH   1  45
BRANCH   3  52
ATOM     52  O   LIG d   1      10.449  11.092   0.714  0.00  0.00    -0.391 OA
ATOM     53  H   LIG d   1      10.067  11.400   1.547  0.00  0.00     0.210 HD
ENDBRANCH   3  52
TORSDOF 4
ENDMDL
MODEL 6
REMARK VINA RESULT:      -5.6      5.971      7.739
REMARK  4 active torsions:
REMARK  status: ('A' for Active; 'I' for Inactive)
REMARK    1  A    between atoms: C_1  and  O_2 
REMARK    2  A    between atoms: O_2  and  C_3 
REMARK    3  A    between atoms: C_3  and  C_5 
REMARK    4  A    between atoms: C_7  and  O_32 
ROOT
ATOM      1  C   LIG d   1       5.669  -1.599 -10.584  0.00  0.00     0.086 C 
ATOM      2  H   LIG d   1       4.638  -1.361 -10.849  0.00  0.00     0.044 H 
ATOM      3  C   LIG d   1       6.311  -2.403 -11.713  0.00  0.00     0.068 C 
ATOM      4  H   LIG d   1       7.338  -2.650 -11.447  0.00  0.00     0.060 H 
ATOM      5  C   LIG d   1       5.512  -3.693 -11.923  0.00  0.00    -0.026 C 
ATOM      6  C   LIG d   1       5.552  -4.519 -10.638  0.00  0.00    -0.043 C 
ATOM      7  C   LIG d   1       4.927  -3.725  -9.485  0.00  0.00     0.003 C 
ATOM      8  H   LIG d   1       3.883  -3.513  -9.715  0.00  0.00     0.035 H 
ATOM      9  C   LIG d   1       5.686  -2.414  -9.288  0.00  0.00    -0.013 C 
ATOM     10  H   LIG d   1       6.717  -2.626  -9.003  0.00  0.00     0.032 H 
ATOM     11  C   LIG d   1       5.005  -1.590  -8.192  0.00  0.00     0.000 C 
ATOM     12  C   LIG d   1       4.337  -2.514  -7.172  0.00  0.00     0.021 C 
ATOM     13  H   LIG d   1       3.331  -2.762  -7.510  0.00  0.00     0.092 H 
ATOM     14  C   LIG d   1       4.261  -1.795  -5.846  0.00  0.00     0.069 A 
ATOM     15  C   LIG d   1       4.598  -2.372  -4.670  0.00  0.00    -0.009 A 
ATOM     16  C   LIG d   1       4.404  -1.383  -3.634  0.00  0.00     0.004 A 
ATOM     17  C   LIG d   1       4.588  -1.407  -2.248  0.00  0.00    -0.052 A 
ATOM     18  C   LIG d   1       4.293  -0.256  -1.562  0.00  0.00    -0.061 A 
ATOM     19  C   LIG d   1       3.835   0.885  -2.202  0.00  0.00    -0.060 A 
ATOM     20  C   LIG d   1       3.644   0.937  -3.570  0.00  0.00    -0.038 A 
ATOM     21  C   LIG d   1       3.934  -0.218  -4.294  0.00  0.00     0.047 A 
ATOM     22  N   LIG d   1       3.860  -0.505  -5.627  0.00  0.00    -0.353 N 
ATOM     23  H   LIG d   1       3.567   0.113  -6.316  0.00  0.00     0.166 HD
ATOM     24  C   LIG d   1       5.070  -3.800  -4.562  0.00  0.00     0.015 C 
ATOM     25  C   LIG d   1       4.668  -4.516  -5.858  0.00  0.00    -0.027 C 
ATOM     26  N   LIG d   1       5.119  -3.742  -7.023  0.00  0.00     0.242 N 
ATOM     27  C   LIG d   1       5.008  -4.574  -8.217  0.00  0.00    -0.028 C 
ATOM     28  H   LIG d   1       4.479  -3.447 -12.166  0.00  0.00     0.029 H 
ATOM     29  H   LIG d   1       5.953  -4.266 -12.738  0.00  0.00     0.029 H 
ATOM     30  H   LIG d   1       4.994  -5.443 -10.784  0.00  0.00     0.027 H 
ATOM     31  H   LIG d   1       6.586  -4.758 -10.393  0.00  0.00     0.027 H 
ATOM     32  H   LIG d   1       5.749  -0.975  -7.687  0.00  0.00     0.033 H 
ATOM     33  H   LIG d   1       4.251  -0.945  -8.641  0.00  0.00     0.033 H 
ATOM     34  H   LIG d   1       4.946  -2.291  -1.741  0.00  0.00     0.062 H 
ATOM     35  H   LIG d   1       4.425  -0.237  -0.490  0.00  0.00     0.062 H 
ATOM     36  H   LIG d   1       3.619   1.763  -1.610  0.00  0.00     0.062 H 
ATOM     37  H   LIG d   1       3.285   1.833  -4.056  0.00  0.00     0.064 H 
ATOM     38  H   LIG d   1       6.153  -3.824  -4.447  0.00  0.00     0.037 H 
ATOM     39  H   LIG d   1       4.595  -4.283  -3.709  0.00  0.00     0.037 H 
ATOM     40  H   LIG d   1       5.126  -5.506  -5.881  0.00  0.00     0.082 H 
ATOM     41  H   LIG d   1       3.583  -4.621  -5.893  0.00  0.00     0.082 H 
ATOM     42  H   LIG d   1       4.111  -5.189  -8.143  0.00  0.00     0.082 H 
ATOM     43  H   LIG d   1       5.880  -5.223  -8.278  0.00  0.00     0.082 H 
ATOM     44  H   LIG d   1       6.090  -3.499  -6.895  0.00  0.00     0.204 HD
ENDROOT
BRANCH   1  45
ATOM     45  C   LIG d   1       6.439  -0.320 -10.381  0.00  0.00     0.313 C 
ATOM     46  O   LIG d   1       5.918   0.744 -10.618  0.00  0.00    -0.250 OA
BRANCH  45  47
ATOM     47  O   LIG d   1       7.705  -0.362  -9.936  0.00  0.00    -0.468 OA
BRANCH  47  48
ATOM     48  C   LIG d   1       8.643   0.513 -10.565  0.00  0.00     0.082 C 
ATOM     49  H   LIG d   1       8.610   1.489 -10.082  0.00  0.00     0.066 H 
ATOM     50  H   LIG d   1       9.647   0.097 -10.474  0.00  0.00     0.066 H 
ATOM     51  H   LIG d   1       8.389   0.621 -11.620  0.00  0.00     0.066 H 
ENDBRANCH  47  48
ENDBRANCH  45  47
ENDBRANCH   1  45
BRANCH   3  52
ATOM     52  O   LIG d   1       6.300  -1.632 -12.916  0.00  0.00    -0.391 OA
ATOM     53  H   LIG d   1       7.180  -1.417 -13.254  0.00  0.00     0.210 HD
ENDBRANCH   3  52
TORSDOF 4
ENDMDL
MODEL 7
REMARK VINA RESULT:      -5.5      3.879      7.139
REMARK  4 active torsions:
REMARK  status: ('A' for Active; 'I' for Inactive)
REMARK    1  A    between atoms: C_1  and  O_2 
REMARK    2  A    between atoms: O_2  and  C_3 
REMARK    3  A    between atoms: C_3  and  C_5 
REMARK    4  A    between atoms: C_7  and  O_32 
ROOT
ATOM      1  C   LIG d   1      10.947   8.755   0.100  0.00  0.00     0.086 C 
ATOM      2  H   LIG d   1       9.937   8.635   0.493  0.00  0.00     0.044 H 
ATOM      3  C   LIG d   1      11.462  10.152   0.439  0.00  0.00     0.068 C 
ATOM      4  H   LIG d   1      12.468  10.278   0.041  0.00  0.00     0.060 H 
ATOM      5  C   LIG d   1      10.529  11.193  -0.187  0.00  0.00    -0.026 C 
ATOM      6  C   LIG d   1      10.532  11.016  -1.705  0.00  0.00    -0.043 C 
ATOM      7  C   LIG d   1      10.034   9.613  -2.069  0.00  0.00     0.003 C 
ATOM      8  H   LIG d   1       9.009   9.489  -1.719  0.00  0.00     0.035 H 
ATOM      9  C   LIG d   1      10.929   8.560  -1.419  0.00  0.00    -0.013 C 
ATOM     10  H   LIG d   1      11.943   8.647  -1.810  0.00  0.00     0.032 H 
ATOM     11  C   LIG d   1      10.376   7.164  -1.718  0.00  0.00     0.000 C 
ATOM     12  C   LIG d   1       9.656   7.158  -3.067  0.00  0.00     0.021 C 
ATOM     13  H   LIG d   1       8.618   7.460  -2.927  0.00  0.00     0.092 H 
ATOM     14  C   LIG d   1       9.702   5.759  -3.634  0.00  0.00     0.069 A 
ATOM     15  C   LIG d   1      10.021   5.490  -4.920  0.00  0.00    -0.009 A 
ATOM     16  C   LIG d   1       9.967   4.056  -5.087  0.00  0.00     0.004 A 
ATOM     17  C   LIG d   1      10.199   3.214  -6.180  0.00  0.00    -0.052 A 
ATOM     18  C   LIG d   1      10.048   1.867  -5.969  0.00  0.00    -0.061 A 
ATOM     19  C   LIG d   1       9.686   1.350  -4.736  0.00  0.00    -0.060 A 
ATOM     20  C   LIG d   1       9.451   2.158  -3.638  0.00  0.00    -0.038 A 
ATOM     21  C   LIG d   1       9.595   3.532  -3.822  0.00  0.00     0.047 A 
ATOM     22  N   LIG d   1       9.443   4.590  -2.970  0.00  0.00    -0.353 N 
ATOM     23  H   LIG d   1       9.189   4.523  -2.037  0.00  0.00     0.166 HD
ATOM     24  C   LIG d   1      10.349   6.565  -5.926  0.00  0.00     0.015 C 
ATOM     25  C   LIG d   1       9.829   7.894  -5.364  0.00  0.00    -0.027 C 
ATOM     26  N   LIG d   1      10.314   8.085  -3.990  0.00  0.00     0.242 N 
ATOM     27  C   LIG d   1      10.074   9.468  -3.590  0.00  0.00    -0.028 C 
ATOM     28  H   LIG d   1       9.518  11.053   0.195  0.00  0.00     0.029 H 
ATOM     29  H   LIG d   1      10.879  12.194   0.064  0.00  0.00     0.029 H 
ATOM     30  H   LIG d   1       9.877  11.760  -2.157  0.00  0.00     0.027 H 
ATOM     31  H   LIG d   1      11.545  11.149  -2.083  0.00  0.00     0.027 H 
ATOM     32  H   LIG d   1      11.197   6.449  -1.746  0.00  0.00     0.033 H 
ATOM     33  H   LIG d   1       9.676   6.877  -0.935  0.00  0.00     0.033 H 
ATOM     34  H   LIG d   1      10.483   3.607  -7.145  0.00  0.00     0.062 H 
ATOM     35  H   LIG d   1      10.220   1.186  -6.791  0.00  0.00     0.062 H 
ATOM     36  H   LIG d   1       9.582   0.280  -4.628  0.00  0.00     0.062 H 
ATOM     37  H   LIG d   1       9.168   1.743  -2.682  0.00  0.00     0.064 H 
ATOM     38  H   LIG d   1      11.428   6.621  -6.070  0.00  0.00     0.037 H 
ATOM     39  H   LIG d   1       9.859   6.346  -6.874  0.00  0.00     0.037 H 
ATOM     40  H   LIG d   1      10.182   8.714  -5.989  0.00  0.00     0.082 H 
ATOM     41  H   LIG d   1       8.739   7.886  -5.364  0.00  0.00     0.082 H 
ATOM     42  H   LIG d   1       9.122   9.801  -4.004  0.00  0.00     0.082 H 
ATOM     43  H   LIG d   1      10.873  10.094  -3.986  0.00  0.00     0.082 H 
ATOM     44  H   LIG d   1      11.308   7.917  -3.970  0.00  0.00     0.204 HD
ENDROOT
BRANCH   1  45
ATOM     45  C   LIG d   1      11.851   7.724   0.725  0.00  0.00     0.313 C 
ATOM     46  O   LIG d   1      12.933   7.493   0.239  0.00  0.00    -0.250 OA
BRANCH  45  47
ATOM     47  O   LIG d   1      11.454   7.060   1.823  0.00  0.00    -0.468 OA
BRANCH  47  48
ATOM     48  C   LIG d   1      11.010   5.714   1.642  0.00  0.00     0.082 C 
ATOM     49  H   LIG d   1      10.090   5.556   2.204  0.00  0.00     0.066 H 
ATOM     50  H   LIG d   1      10.824   5.532   0.584  0.00  0.00     0.066 H 
ATOM     51  H   LIG d   1      11.776   5.027   2.001  0.00  0.00     0.066 H 
ENDBRANCH  47  48
ENDBRANCH  45  47
ENDBRANCH   1  45
BRANCH   3  52
ATOM     52  O   LIG d   1      11.486  10.322   1.858  0.00  0.00    -0.391 OA
ATOM     53  H   LIG d   1      12.293   9.997   2.280  0.00  0.00     0.210 HD
ENDBRANCH   3  52
TORSDOF 4
ENDMDL
MODEL 8
REMARK VINA RESULT:      -5.5      6.645      8.821
REMARK  4 active torsions:
REMARK  status: ('A' for Active; 'I' for Inactive)
REMARK    1  A    between atoms: C_1  and  O_2 
REMARK    2  A    between atoms: O_2  and  C_3 
REMARK    3  A    between atoms: C_3  and  C_5 
REMARK    4  A    between atoms: C_7  and  O_32 
ROOT
ATOM      1  C   LIG d   1       5.779  -5.678  -5.679  0.00  0.00     0.086 C 
ATOM      2  H   LIG d   1       5.483  -5.366  -4.677  0.00  0.00     0.044 H 
ATOM      3  C   LIG d   1       6.676  -6.911  -5.583  0.00  0.00     0.068 C 
ATOM      4  H   LIG d   1       6.980  -7.220  -6.583  0.00  0.00     0.060 H 
ATOM      5  C   LIG d   1       7.916  -6.562  -4.755  0.00  0.00    -0.026 C 
ATOM      6  C   LIG d   1       8.683  -5.440  -5.455  0.00  0.00    -0.043 C 
ATOM      7  C   LIG d   1       7.796  -4.197  -5.577  0.00  0.00     0.003 C 
ATOM      8  H   LIG d   1       7.524  -3.846  -4.582  0.00  0.00     0.035 H 
ATOM      9  C   LIG d   1       6.533  -4.536  -6.366  0.00  0.00    -0.013 C 
ATOM     10  H   LIG d   1       6.801  -4.834  -7.380  0.00  0.00     0.032 H 
ATOM     11  C   LIG d   1       5.615  -3.312  -6.411  0.00  0.00     0.000 C 
ATOM     12  C   LIG d   1       6.443  -2.027  -6.369  0.00  0.00     0.021 C 
ATOM     13  H   LIG d   1       6.636  -1.753  -5.332  0.00  0.00     0.092 H 
ATOM     14  C   LIG d   1       5.661  -0.925  -7.044  0.00  0.00     0.069 A 
ATOM     15  C   LIG d   1       6.204  -0.074  -7.943  0.00  0.00    -0.009 A 
ATOM     16  C   LIG d   1       5.159   0.826  -8.371  0.00  0.00     0.004 A 
ATOM     17  C   LIG d   1       5.131   1.895  -9.273  0.00  0.00    -0.052 A 
ATOM     18  C   LIG d   1       3.932   2.543  -9.433  0.00  0.00    -0.061 A 
ATOM     19  C   LIG d   1       2.793   2.165  -8.740  0.00  0.00    -0.060 A 
ATOM     20  C   LIG d   1       2.790   1.113  -7.843  0.00  0.00    -0.038 A 
ATOM     21  C   LIG d   1       3.995   0.436  -7.658  0.00  0.00     0.047 A 
ATOM     22  N   LIG d   1       4.337  -0.624  -6.867  0.00  0.00    -0.353 N 
ATOM     23  H   LIG d   1       3.733  -1.092  -6.269  0.00  0.00     0.166 HD
ATOM     24  C   LIG d   1       7.655  -0.128  -8.351  0.00  0.00     0.015 C 
ATOM     25  C   LIG d   1       8.401  -0.948  -7.290  0.00  0.00    -0.027 C 
ATOM     26  N   LIG d   1       7.714  -2.228  -7.067  0.00  0.00     0.242 N 
ATOM     27  C   LIG d   1       8.589  -3.109  -6.301  0.00  0.00    -0.028 C 
ATOM     28  H   LIG d   1       7.611  -6.231  -3.763  0.00  0.00     0.029 H 
ATOM     29  H   LIG d   1       8.555  -7.441  -4.668  0.00  0.00     0.029 H 
ATOM     30  H   LIG d   1       9.572  -5.194  -4.876  0.00  0.00     0.027 H 
ATOM     31  H   LIG d   1       8.981  -5.771  -6.449  0.00  0.00     0.027 H 
ATOM     32  H   LIG d   1       5.030  -3.333  -7.330  0.00  0.00     0.033 H 
ATOM     33  H   LIG d   1       4.941  -3.334  -5.556  0.00  0.00     0.033 H 
ATOM     34  H   LIG d   1       6.013   2.196  -9.818  0.00  0.00     0.062 H 
ATOM     35  H   LIG d   1       3.873   3.372 -10.122  0.00  0.00     0.062 H 
ATOM     36  H   LIG d   1       1.876   2.712  -8.906  0.00  0.00     0.062 H 
ATOM     37  H   LIG d   1       1.896   0.828  -7.308  0.00  0.00     0.064 H 
ATOM     38  H   LIG d   1       7.748  -0.610  -9.324  0.00  0.00     0.037 H 
ATOM     39  H   LIG d   1       8.065   0.881  -8.395  0.00  0.00     0.037 H 
ATOM     40  H   LIG d   1       9.419  -1.138  -7.630  0.00  0.00     0.082 H 
ATOM     41  H   LIG d   1       8.432  -0.388  -6.355  0.00  0.00     0.082 H 
ATOM     42  H   LIG d   1       9.137  -2.520  -5.566  0.00  0.00     0.082 H 
ATOM     43  H   LIG d   1       9.299  -3.579  -6.981  0.00  0.00     0.082 H 
ATOM     44  H   LIG d   1       7.532  -2.659  -7.960  0.00  0.00     0.204 HD
ENDROOT
BRANCH   1  45
ATOM     45  C   LIG d   1       4.547  -6.017  -6.479  0.00  0.00     0.313 C 
ATOM     46  O   LIG d   1       3.469  -5.593  -6.138  0.00  0.00    -0.250 OA
BRANCH  45  47
ATOM     47  O   LIG d   1       4.648  -6.791  -7.571  0.00  0.00    -0.468 OA
BRANCH  47  48
ATOM     48  C   LIG d   1       3.920  -6.378  -8.730  0.00  0.00     0.082 C 
ATOM     49  H   LIG d   1       4.581  -5.823  -9.395  0.00  0.00     0.066 H 
ATOM     50  H   LIG d   1       3.536  -7.255  -9.249  0.00  0.00     0.066 H 
ATOM     51  H   LIG d   1       3.089  -5.740  -8.427  0.00  0.00     0.066 H 
ENDBRANCH  47  48
ENDBRANCH  45  47
ENDBRANCH   1  45
BRANCH   3  52
ATOM     52  O   LIG d   1       5.962  -7.975  -4.951  0.00  0.00    -0.391 OA
ATOM     53  H   LIG d   1       5.667  -8.668  -5.558  0.00  0.00     0.210 HD
ENDBRANCH   3  52
TORSDOF 4
ENDMDL
MODEL 9
REMARK VINA RESULT:      -5.4      6.683      8.495
REMARK  4 active torsions:
REMARK  status: ('A' for Active; 'I' for Inactive)
REMARK    1  A    between atoms: C_1  and  O_2 
REMARK    2  A    between atoms: O_2  and  C_3 
REMARK    3  A    between atoms: C_3  and  C_5 
REMARK    4  A    between atoms: C_7  and  O_32 
ROOT
ATOM      1  C   LIG d   1       6.414  -2.571 -10.859  0.00  0.00     0.086 C 
ATOM      2  H   LIG d   1       7.374  -2.084 -10.681  0.00  0.00     0.044 H 
ATOM      3  C   LIG d   1       6.147  -2.634 -12.362  0.00  0.00     0.068 C 
ATOM      4  H   LIG d   1       5.185  -3.112 -12.542  0.00  0.00     0.060 H 
ATOM      5  C   LIG d   1       6.125  -1.209 -12.924  0.00  0.00    -0.026 C 
ATOM      6  C   LIG d   1       4.999  -0.425 -12.250  0.00  0.00    -0.043 C 
ATOM      7  C   LIG d   1       5.237  -0.363 -10.737  0.00  0.00     0.003 C 
ATOM      8  H   LIG d   1       6.174   0.157 -10.538  0.00  0.00     0.035 H 
ATOM      9  C   LIG d   1       5.304  -1.777 -10.164  0.00  0.00    -0.013 C 
ATOM     10  H   LIG d   1       4.348  -2.280 -10.314  0.00  0.00     0.032 H 
ATOM     11  C   LIG d   1       5.626  -1.708  -8.669  0.00  0.00     0.000 C 
ATOM     12  C   LIG d   1       5.067  -0.419  -8.066  0.00  0.00     0.021 C 
ATOM     13  H   LIG d   1       5.794   0.384  -8.186  0.00  0.00     0.092 H 
ATOM     14  C   LIG d   1       4.804  -0.646  -6.596  0.00  0.00     0.069 A 
ATOM     15  C   LIG d   1       3.664  -0.261  -5.979  0.00  0.00    -0.009 A 
ATOM     16  C   LIG d   1       3.773  -0.651  -4.592  0.00  0.00     0.004 A 
ATOM     17  C   LIG d   1       2.916  -0.518  -3.495  0.00  0.00    -0.052 A 
ATOM     18  C   LIG d   1       3.360  -1.016  -2.295  0.00  0.00    -0.061 A 
ATOM     19  C   LIG d   1       4.597  -1.626  -2.164  0.00  0.00    -0.060 A 
ATOM     20  C   LIG d   1       5.465  -1.772  -3.231  0.00  0.00    -0.038 A 
ATOM     21  C   LIG d   1       5.042  -1.275  -4.463  0.00  0.00     0.047 A 
ATOM     22  N   LIG d   1       5.635  -1.252  -5.693  0.00  0.00    -0.353 N 
ATOM     23  H   LIG d   1       6.513  -1.612  -5.896  0.00  0.00     0.166 HD
ATOM     24  C   LIG d   1       2.544   0.452  -6.694  0.00  0.00     0.015 C 
ATOM     25  C   LIG d   1       3.116   1.009  -8.004  0.00  0.00    -0.027 C 
ATOM     26  N   LIG d   1       3.819  -0.052  -8.739  0.00  0.00     0.242 N 
ATOM     27  C   LIG d   1       4.082   0.407 -10.099  0.00  0.00    -0.028 C 
ATOM     28  H   LIG d   1       7.079  -0.722 -12.724  0.00  0.00     0.029 H 
ATOM     29  H   LIG d   1       5.950  -1.245 -13.999  0.00  0.00     0.029 H 
ATOM     30  H   LIG d   1       4.971   0.587 -12.653  0.00  0.00     0.027 H 
ATOM     31  H   LIG d   1       4.047  -0.917 -12.446  0.00  0.00     0.027 H 
ATOM     32  H   LIG d   1       5.180  -2.564  -8.164  0.00  0.00     0.033 H 
ATOM     33  H   LIG d   1       6.706  -1.732  -8.531  0.00  0.00     0.033 H 
ATOM     34  H   LIG d   1       1.950  -0.045  -3.587  0.00  0.00     0.062 H 
ATOM     35  H   LIG d   1       2.724  -0.932  -1.426  0.00  0.00     0.062 H 
ATOM     36  H   LIG d   1       4.894  -2.000  -1.195  0.00  0.00     0.062 H 
ATOM     37  H   LIG d   1       6.427  -2.249  -3.116  0.00  0.00     0.064 H 
ATOM     38  H   LIG d   1       1.738  -0.249  -6.910  0.00  0.00     0.037 H 
ATOM     39  H   LIG d   1       2.171   1.268  -6.076  0.00  0.00     0.037 H 
ATOM     40  H   LIG d   1       2.303   1.396  -8.618  0.00  0.00     0.082 H 
ATOM     41  H   LIG d   1       3.814   1.816  -7.781  0.00  0.00     0.082 H 
ATOM     42  H   LIG d   1       4.330   1.468 -10.077  0.00  0.00     0.082 H 
ATOM     43  H   LIG d   1       3.184   0.263 -10.699  0.00  0.00     0.082 H 
ATOM     44  H   LIG d   1       3.222  -0.864  -8.787  0.00  0.00     0.204 HD
ENDROOT
BRANCH   1  45
ATOM     45  C   LIG d   1       6.454  -3.970 -10.300  0.00  0.00     0.313 C 
ATOM     46  O   LIG d   1       5.565  -4.748 -10.554  0.00  0.00    -0.250 OA
BRANCH  45  47
ATOM     47  O   LIG d   1       7.476  -4.352  -9.518  0.00  0.00    -0.468 OA
BRANCH  47  48
ATOM     48  C   LIG d   1       7.156  -5.144  -8.372  0.00  0.00     0.082 C 
ATOM     49  H   LIG d   1       7.538  -6.154  -8.511  0.00  0.00     0.066 H 
ATOM     50  H   LIG d   1       7.612  -4.702  -7.486  0.00  0.00     0.066 H 
ATOM     51  H   LIG d   1       6.074  -5.178  -8.246  0.00  0.00     0.066 H 
ENDBRANCH  47  48
ENDBRANCH  45  47
ENDBRANCH   1  45
BRANCH   3  52
ATOM     52  O   LIG d   1       7.181  -3.384 -13.001  0.00  0.00    -0.391 OA
ATOM     53  H   LIG d   1       7.370  -3.103 -13.908  0.00  0.00     0.210 HD
ENDBRANCH   3  52
TORSDOF 4
ENDMDL
MODEL 10
REMARK VINA RESULT:      -5.4      6.881      8.507
REMARK  4 active torsions:
REMARK  status: ('A' for Active; 'I' for Inactive)
REMARK    1  A    between atoms: C_1  and  O_2 
REMARK    2  A    between atoms: O_2  and  C_3 
REMARK    3  A    between atoms: C_3  and  C_5 
REMARK    4  A    between atoms: C_7  and  O_32 
ROOT
ATOM      1  C   LIG d   1       4.938   0.517  -8.687  0.00  0.00     0.086 C 
ATOM      2  H   LIG d   1       4.154   0.771  -7.973  0.00  0.00     0.044 H 
ATOM      3  C   LIG d   1       5.056   1.628  -9.728  0.00  0.00     0.068 C 
ATOM      4  H   LIG d   1       5.833   1.373 -10.448  0.00  0.00     0.060 H 
ATOM      5  C   LIG d   1       3.715   1.778 -10.453  0.00  0.00    -0.026 C 
ATOM      6  C   LIG d   1       3.382   0.465 -11.160  0.00  0.00    -0.043 C 
ATOM      7  C   LIG d   1       3.274  -0.669 -10.136  0.00  0.00     0.003 C 
ATOM      8  H   LIG d   1       2.467  -0.452  -9.437  0.00  0.00     0.035 H 
ATOM      9  C   LIG d   1       4.590  -0.807  -9.374  0.00  0.00    -0.013 C 
ATOM     10  H   LIG d   1       5.389  -1.080 -10.065  0.00  0.00     0.032 H 
ATOM     11  C   LIG d   1       4.447  -1.884  -8.296  0.00  0.00     0.000 C 
ATOM     12  C   LIG d   1       3.442  -2.948  -8.742  0.00  0.00     0.021 C 
ATOM     13  H   LIG d   1       2.435  -2.638  -8.462  0.00  0.00     0.092 H 
ATOM     14  C   LIG d   1       3.778  -4.250  -8.052  0.00  0.00     0.069 A 
ATOM     15  C   LIG d   1       3.822  -5.439  -8.694  0.00  0.00    -0.009 A 
ATOM     16  C   LIG d   1       4.181  -6.442  -7.718  0.00  0.00     0.004 A 
ATOM     17  C   LIG d   1       4.375  -7.825  -7.800  0.00  0.00    -0.052 A 
ATOM     18  C   LIG d   1       4.715  -8.475  -6.640  0.00  0.00    -0.061 A 
ATOM     19  C   LIG d   1       4.864  -7.803  -5.437  0.00  0.00    -0.060 A 
ATOM     20  C   LIG d   1       4.679  -6.438  -5.326  0.00  0.00    -0.038 A 
ATOM     21  C   LIG d   1       4.332  -5.750  -6.488  0.00  0.00     0.047 A 
ATOM     22  N   LIG d   1       4.080  -4.429  -6.729  0.00  0.00    -0.353 N 
ATOM     23  H   LIG d   1       4.110  -3.725  -6.062  0.00  0.00     0.166 HD
ATOM     24  C   LIG d   1       3.524  -5.589 -10.165  0.00  0.00     0.015 C 
ATOM     25  C   LIG d   1       2.777  -4.327 -10.613  0.00  0.00    -0.027 C 
ATOM     26  N   LIG d   1       3.514  -3.127 -10.193  0.00  0.00     0.242 N 
ATOM     27  C   LIG d   1       2.964  -1.965 -10.884  0.00  0.00    -0.028 C 
ATOM     28  H   LIG d   1       2.934   2.011  -9.730  0.00  0.00     0.029 H 
ATOM     29  H   LIG d   1       3.786   2.580 -11.187  0.00  0.00     0.029 H 
ATOM     30  H   LIG d   1       2.433   0.568 -11.686  0.00  0.00     0.027 H 
ATOM     31  H   LIG d   1       4.168   0.231 -11.877  0.00  0.00     0.027 H 
ATOM     32  H   LIG d   1       5.415  -2.354  -8.123  0.00  0.00     0.033 H 
ATOM     33  H   LIG d   1       4.099  -1.426  -7.371  0.00  0.00     0.033 H 
ATOM     34  H   LIG d   1       4.262  -8.356  -8.733  0.00  0.00     0.062 H 
ATOM     35  H   LIG d   1       4.874  -9.543  -6.666  0.00  0.00     0.062 H 
ATOM     36  H   LIG d   1       5.134  -8.367  -4.555  0.00  0.00     0.062 H 
ATOM     37  H   LIG d   1       4.798  -5.926  -4.382  0.00  0.00     0.064 H 
ATOM     38  H   LIG d   1       4.455  -5.686 -10.723  0.00  0.00     0.037 H 
ATOM     39  H   LIG d   1       2.901  -6.467 -10.328  0.00  0.00     0.037 H 
ATOM     40  H   LIG d   1       2.680  -4.330 -11.699  0.00  0.00     0.082 H 
ATOM     41  H   LIG d   1       1.783  -4.315 -10.164  0.00  0.00     0.082 H 
ATOM     42  H   LIG d   1       1.883  -2.078 -10.968  0.00  0.00     0.082 H 
ATOM     43  H   LIG d   1       3.395  -1.912 -11.883  0.00  0.00     0.082 H 
ATOM     44  H   LIG d   1       4.481  -3.229 -10.463  0.00  0.00     0.204 HD
ENDROOT
BRANCH   1  45
ATOM     45  C   LIG d   1       6.249   0.373  -7.958  0.00  0.00     0.313 C 
ATOM     46  O   LIG d   1       7.271   0.204  -8.579  0.00  0.00    -0.250 OA
BRANCH  45  47
ATOM     47  O   LIG d   1       6.282   0.432  -6.617  0.00  0.00    -0.468 OA
BRANCH  47  48
ATOM     48  C   LIG d   1       7.558   0.634  -6.007  0.00  0.00     0.082 C 
ATOM     49  H   LIG d   1       7.985   1.572  -6.359  0.00  0.00     0.066 H 
ATOM     50  H   LIG d   1       7.441   0.671  -4.924  0.00  0.00     0.066 H 
ATOM     51  H   LIG d   1       8.221  -0.189  -6.273  0.00  0.00     0.066 H 
ENDBRANCH  47  48
ENDBRANCH  45  47
ENDBRANCH   1  45
BRANCH   3  52
ATOM     52  O   LIG d   1       5.390   2.857  -9.081  0.00  0.00    -0.391 OA
ATOM     53  H   LIG d   1       6.342   3.024  -9.017  0.00  0.00     0.210 HD
ENDBRANCH   3  52
TORSDOF 4
ENDMDL
