MODEL 1
REMARK VINA RESULT:      -6.6      0.000      0.000
REMARK  5 active torsions:
REMARK  status: ('A' for Active; 'I' for Inactive)
REMARK    1  A    between atoms: C_1  and  N_2 
REMARK    2  A    between atoms: C_9  and  O_29 
REMARK    3  A    between atoms: C_11  and  C_13 
REMARK    4  A    between atoms: N_18  and  C_21 
REMARK    5  A    between atoms: O_29  and  C_30 
ROOT
ATOM      1  N   LIG d   1       4.519  -0.874  -3.505  0.00  0.00     0.242 N 
ATOM      2  C   LIG d   1       3.050  -0.938  -3.450  0.00  0.00    -0.027 C 
ATOM      3  C   LIG d   1       2.482   0.126  -4.390  0.00  0.00     0.013 C 
ATOM      4  C   LIG d   1       3.131   0.014  -5.747  0.00  0.00    -0.026 A 
ATOM      5  C   LIG d   1       2.520   0.637  -6.824  0.00  0.00    -0.012 A 
ATOM      6  C   LIG d   1       3.080   0.565  -8.088  0.00  0.00     0.170 A 
ATOM      7  C   LIG d   1       4.265  -0.139  -8.278  0.00  0.00     0.208 A 
ATOM      8  C   LIG d   1       4.872  -0.764  -7.199  0.00  0.00     0.174 A 
ATOM      9  C   LIG d   1       4.304  -0.687  -5.930  0.00  0.00     0.054 A 
ATOM     10  C   LIG d   1       5.001  -1.384  -4.792  0.00  0.00     0.041 C 
ATOM     11  H   LIG d   1       4.774  -2.460  -4.824  0.00  0.00     0.096 H 
ATOM     12  O   LIG d   1       4.612  -0.063  -9.597  0.00  0.00    -0.449 OA
ATOM     13  C   LIG d   1       3.846   1.033 -10.133  0.00  0.00     0.233 C 
ATOM     14  O   LIG d   1       2.683   1.083  -9.287  0.00  0.00    -0.453 OA
ATOM     15  H   LIG d   1       2.714  -1.936  -3.766  0.00  0.00     0.082 H 
ATOM     16  H   LIG d   1       2.713  -0.747  -2.421  0.00  0.00     0.082 H 
ATOM     17  H   LIG d   1       1.398  -0.019  -4.495  0.00  0.00     0.036 H 
ATOM     18  H   LIG d   1       2.681   1.125  -3.976  0.00  0.00     0.036 H 
ATOM     19  H   LIG d   1       1.601   1.184  -6.675  0.00  0.00     0.066 H 
ATOM     20  H   LIG d   1       4.442   1.957 -10.077  0.00  0.00     0.117 H 
ATOM     21  H   LIG d   1       3.591   0.824 -11.182  0.00  0.00     0.117 H 
ATOM     22  H   LIG d   1       4.828   0.179  -3.413  0.00  0.00     0.204 HD
ENDROOT
BRANCH  10  23
ATOM     23  C   LIG d   1       6.485  -1.146  -4.896  0.00  0.00     0.078 A 
ATOM     24  C   LIG d   1       7.008   0.155  -4.793  0.00  0.00     0.267 A 
ATOM     25  N   LIG d   1       8.338   0.346  -4.895  0.00  0.00    -0.255 N 
ATOM     26  O   LIG d   1       6.263   1.103  -4.617  0.00  0.00    -0.267 OA
ATOM     27  C   LIG d   1       9.166  -0.697  -5.084  0.00  0.00     0.165 A 
ATOM     28  N   LIG d   1       8.689  -1.952  -5.181  0.00  0.00    -0.347 N 
ATOM     29  S   LIG d   1      10.853  -0.426  -5.203  0.00  0.00    -0.013 SA
ATOM     30  C   LIG d   1       7.342  -2.191  -5.088  0.00  0.00    -0.023 A 
ATOM     31  H   LIG d   1       9.387  -2.788  -5.335  0.00  0.00     0.167 HD
ATOM     32  O   LIG d   1       6.866  -3.450  -5.186  0.00  0.00    -0.861 OA
BRANCH  25  33
ATOM     33  C   LIG d   1       8.864   1.641  -4.798  0.00  0.00     0.070 A 
ATOM     34  C   LIG d   1       9.010   2.421  -5.939  0.00  0.00     0.065 A 
ATOM     35  C   LIG d   1       9.531   3.698  -5.840  0.00  0.00    -0.041 A 
ATOM     36 CL   LIG d   1       8.539   1.792  -7.488  0.00  0.00    -0.081 Cl
ATOM     37  C   LIG d   1       9.906   4.199  -4.608  0.00  0.00    -0.060 A 
ATOM     38  H   LIG d   1       9.646   4.304  -6.727  0.00  0.00     0.063 H 
ATOM     39  C   LIG d   1       9.761   3.426  -3.470  0.00  0.00    -0.060 A 
ATOM     40  H   LIG d   1      10.313   5.197  -4.533  0.00  0.00     0.062 H 
ATOM     41  C   LIG d   1       9.241   2.149  -3.563  0.00  0.00    -0.036 A 
ATOM     42  H   LIG d   1      10.054   3.820  -2.509  0.00  0.00     0.062 H 
ATOM     43  H   LIG d   1       9.133   1.544  -2.674  0.00  0.00     0.064 H 
ENDBRANCH  25  33
ENDBRANCH  10  23
BRANCH   1  44
ATOM     44  C   LIG d   1       5.121  -1.612  -2.386  0.00  0.00    -0.042 C 
ATOM     45  H   LIG d   1       6.085  -2.035  -2.702  0.00  0.00     0.078 H 
ATOM     46  H   LIG d   1       4.446  -2.424  -2.078  0.00  0.00     0.078 H 
ATOM     47  H   LIG d   1       5.280  -0.927  -1.540  0.00  0.00     0.078 H 
ENDBRANCH   1  44
BRANCH   8  48
ATOM     48  O   LIG d   1       6.031  -1.454  -7.380  0.00  0.00    -0.491 OA
BRANCH  48  49
ATOM     49  C   LIG d   1       6.010  -2.517  -8.335  0.00  0.00     0.079 C 
ATOM     50  H   LIG d   1       6.866  -3.184  -8.158  0.00  0.00     0.066 H 
ATOM     51  H   LIG d   1       6.075  -2.099  -9.350  0.00  0.00     0.066 H 
ATOM     52  H   LIG d   1       5.074  -3.084  -8.231  0.00  0.00     0.066 H 
ENDBRANCH  48  49
ENDBRANCH   8  48
TORSDOF 5
ENDMDL
MODEL 2
REMARK VINA RESULT:      -6.3      2.780      5.859
REMARK  5 active torsions:
REMARK  status: ('A' for Active; 'I' for Inactive)
REMARK    1  A    between atoms: C_1  and  N_2 
REMARK    2  A    between atoms: C_9  and  O_29 
REMARK    3  A    between atoms: C_11  and  C_13 
REMARK    4  A    between atoms: N_18  and  C_21 
REMARK    5  A    between atoms: O_29  and  C_30 
ROOT
ATOM      1  N   LIG d   1       8.688   1.292  -5.856  0.00  0.00     0.242 N 
ATOM      2  C   LIG d   1       8.981   1.970  -4.583  0.00  0.00    -0.027 C 
ATOM      3  C   LIG d   1       7.669   2.164  -3.822  0.00  0.00     0.013 C 
ATOM      4  C   LIG d   1       6.915   0.859  -3.756  0.00  0.00    -0.026 A 
ATOM      5  C   LIG d   1       5.893   0.735  -2.827  0.00  0.00    -0.012 A 
ATOM      6  C   LIG d   1       5.171  -0.443  -2.730  0.00  0.00     0.170 A 
ATOM      7  C   LIG d   1       5.474  -1.508  -3.572  0.00  0.00     0.208 A 
ATOM      8  C   LIG d   1       6.497  -1.381  -4.499  0.00  0.00     0.174 A 
ATOM      9  C   LIG d   1       7.220  -0.194  -4.591  0.00  0.00     0.054 A 
ATOM     10  C   LIG d   1       8.323  -0.107  -5.612  0.00  0.00     0.041 C 
ATOM     11  H   LIG d   1       9.220  -0.619  -5.231  0.00  0.00     0.096 H 
ATOM     12  O   LIG d   1       4.630  -2.544  -3.287  0.00  0.00    -0.449 OA
ATOM     13  C   LIG d   1       3.543  -1.960  -2.543  0.00  0.00     0.233 C 
ATOM     14  O   LIG d   1       4.138  -0.809  -1.916  0.00  0.00    -0.453 OA
ATOM     15  H   LIG d   1       9.671   1.354  -3.989  0.00  0.00     0.082 H 
ATOM     16  H   LIG d   1       9.444   2.947  -4.786  0.00  0.00     0.082 H 
ATOM     17  H   LIG d   1       7.884   2.509  -2.802  0.00  0.00     0.036 H 
ATOM     18  H   LIG d   1       7.051   2.912  -4.341  0.00  0.00     0.036 H 
ATOM     19  H   LIG d   1       5.659   1.562  -2.174  0.00  0.00     0.066 H 
ATOM     20  H   LIG d   1       2.732  -1.686  -3.234  0.00  0.00     0.117 H 
ATOM     21  H   LIG d   1       3.169  -2.688  -1.809  0.00  0.00     0.117 H 
ATOM     22  H   LIG d   1       7.832   1.794  -6.332  0.00  0.00     0.204 HD
ENDROOT
BRANCH  10  23
ATOM     23  C   LIG d   1       7.858  -0.731  -6.902  0.00  0.00     0.078 A 
ATOM     24  C   LIG d   1       6.687  -0.276  -7.533  0.00  0.00     0.267 A 
ATOM     25  N   LIG d   1       6.286  -0.852  -8.683  0.00  0.00    -0.255 N 
ATOM     26  O   LIG d   1       6.038   0.630  -7.041  0.00  0.00    -0.267 OA
ATOM     27  C   LIG d   1       7.001  -1.849  -9.234  0.00  0.00     0.165 A 
ATOM     28  N   LIG d   1       8.129  -2.298  -8.651  0.00  0.00    -0.347 N 
ATOM     29  S   LIG d   1       6.472  -2.558 -10.701  0.00  0.00    -0.013 SA
ATOM     30  C   LIG d   1       8.570  -1.744  -7.477  0.00  0.00    -0.023 A 
ATOM     31  H   LIG d   1       8.696  -3.114  -9.122  0.00  0.00     0.167 HD
ATOM     32  O   LIG d   1       9.700  -2.196  -6.894  0.00  0.00    -0.861 OA
BRANCH  25  33
ATOM     33  C   LIG d   1       5.117  -0.405  -9.314  0.00  0.00     0.070 A 
ATOM     34  C   LIG d   1       3.896  -1.000  -9.020  0.00  0.00     0.065 A 
ATOM     35  C   LIG d   1       2.745  -0.558  -9.645  0.00  0.00    -0.041 A 
ATOM     36 CL   LIG d   1       3.816  -2.297  -7.867  0.00  0.00    -0.081 Cl
ATOM     37  C   LIG d   1       2.808   0.474 -10.562  0.00  0.00    -0.060 A 
ATOM     38  H   LIG d   1       1.796  -1.021  -9.417  0.00  0.00     0.063 H 
ATOM     39  C   LIG d   1       4.022   1.068 -10.856  0.00  0.00    -0.060 A 
ATOM     40  H   LIG d   1       1.907   0.818 -11.050  0.00  0.00     0.062 H 
ATOM     41  C   LIG d   1       5.175   0.631 -10.235  0.00  0.00    -0.036 A 
ATOM     42  H   LIG d   1       4.067   1.875 -11.573  0.00  0.00     0.062 H 
ATOM     43  H   LIG d   1       6.124   1.093 -10.470  0.00  0.00     0.064 H 
ENDBRANCH  25  33
ENDBRANCH  10  23
BRANCH   1  44
ATOM     44  C   LIG d   1       9.828   1.387  -6.777  0.00  0.00    -0.042 C 
ATOM     45  H   LIG d   1      10.273   2.390  -6.709  0.00  0.00     0.078 H 
ATOM     46  H   LIG d   1       9.482   1.208  -7.807  0.00  0.00     0.078 H 
ATOM     47  H   LIG d   1      10.581   0.633  -6.507  0.00  0.00     0.078 H 
ENDBRANCH   1  44
BRANCH   8  48
ATOM     48  O   LIG d   1       6.796  -2.420  -5.324  0.00  0.00    -0.491 OA
BRANCH  48  49
ATOM     49  C   LIG d   1       7.296  -3.611  -4.712  0.00  0.00     0.079 C 
ATOM     50  H   LIG d   1       8.357  -3.739  -4.972  0.00  0.00     0.066 H 
ATOM     51  H   LIG d   1       6.723  -4.477  -5.075  0.00  0.00     0.066 H 
ATOM     52  H   LIG d   1       7.193  -3.533  -3.620  0.00  0.00     0.066 H 
ENDBRANCH  48  49
ENDBRANCH   8  48
TORSDOF 5
ENDMDL
MODEL 3
REMARK VINA RESULT:      -6.2      2.967      6.743
REMARK  5 active torsions:
REMARK  status: ('A' for Active; 'I' for Inactive)
REMARK    1  A    between atoms: C_1  and  N_2 
REMARK    2  A    between atoms: C_9  and  O_29 
REMARK    3  A    between atoms: C_11  and  C_13 
REMARK    4  A    between atoms: N_18  and  C_21 
REMARK    5  A    between atoms: O_29  and  C_30 
ROOT
ATOM      1  N   LIG d   1       9.026   1.780  -8.013  0.00  0.00     0.242 N 
ATOM      2  C   LIG d   1       9.575   2.898  -8.796  0.00  0.00    -0.027 C 
ATOM      3  C   LIG d   1       9.330   4.197  -8.027  0.00  0.00     0.013 C 
ATOM      4  C   LIG d   1       9.803   4.049  -6.603  0.00  0.00    -0.026 A 
ATOM      5  C   LIG d   1       9.995   5.197  -5.849  0.00  0.00    -0.012 A 
ATOM      6  C   LIG d   1      10.426   5.112  -4.536  0.00  0.00     0.170 A 
ATOM      7  C   LIG d   1      10.668   3.864  -3.970  0.00  0.00     0.208 A 
ATOM      8  C   LIG d   1      10.477   2.718  -4.727  0.00  0.00     0.174 A 
ATOM      9  C   LIG d   1      10.043   2.811  -6.047  0.00  0.00     0.054 A 
ATOM     10  C   LIG d   1       9.853   1.537  -6.827  0.00  0.00     0.041 C 
ATOM     11  H   LIG d   1      10.830   1.170  -7.178  0.00  0.00     0.096 H 
ATOM     12  O   LIG d   1      11.078   4.043  -2.679  0.00  0.00    -0.449 OA
ATOM     13  C   LIG d   1      10.694   5.388  -2.336  0.00  0.00     0.233 C 
ATOM     14  O   LIG d   1      10.684   6.073  -3.602  0.00  0.00    -0.453 OA
ATOM     15  H   LIG d   1      10.654   2.748  -8.944  0.00  0.00     0.082 H 
ATOM     16  H   LIG d   1       9.074   2.942  -9.774  0.00  0.00     0.082 H 
ATOM     17  H   LIG d   1       9.880   5.017  -8.508  0.00  0.00     0.036 H 
ATOM     18  H   LIG d   1       8.254   4.426  -8.028  0.00  0.00     0.036 H 
ATOM     19  H   LIG d   1       9.806   6.165  -6.289  0.00  0.00     0.066 H 
ATOM     20  H   LIG d   1       9.701   5.375  -1.862  0.00  0.00     0.117 H 
ATOM     21  H   LIG d   1      11.428   5.812  -1.637  0.00  0.00     0.117 H 
ATOM     22  H   LIG d   1       8.013   2.051  -7.678  0.00  0.00     0.204 HD
ENDROOT
BRANCH  10  23
ATOM     23  C   LIG d   1       9.179   0.513  -5.952  0.00  0.00     0.078 A 
ATOM     24  C   LIG d   1       7.915   0.772  -5.394  0.00  0.00     0.267 A 
ATOM     25  N   LIG d   1       7.332  -0.155  -4.610  0.00  0.00    -0.255 N 
ATOM     26  O   LIG d   1       7.352   1.830  -5.616  0.00  0.00    -0.267 OA
ATOM     27  C   LIG d   1       7.946  -1.327  -4.366  0.00  0.00     0.165 A 
ATOM     28  N   LIG d   1       9.154  -1.600  -4.893  0.00  0.00    -0.347 N 
ATOM     29  S   LIG d   1       7.179  -2.491  -3.371  0.00  0.00    -0.013 SA
ATOM     30  C   LIG d   1       9.785  -0.682  -5.693  0.00  0.00    -0.023 A 
ATOM     31  H   LIG d   1       9.635  -2.566  -4.679  0.00  0.00     0.167 HD
ATOM     32  O   LIG d   1      10.997  -0.958  -6.220  0.00  0.00    -0.861 OA
BRANCH  25  33
ATOM     33  C   LIG d   1       6.075   0.100  -4.047  0.00  0.00     0.070 A 
ATOM     34  C   LIG d   1       4.920  -0.296  -4.712  0.00  0.00     0.065 A 
ATOM     35  C   LIG d   1       3.681  -0.041  -4.155  0.00  0.00    -0.041 A 
ATOM     36 CL   LIG d   1       5.035  -1.111  -6.242  0.00  0.00    -0.081 Cl
ATOM     37  C   LIG d   1       3.589   0.607  -2.938  0.00  0.00    -0.060 A 
ATOM     38  H   LIG d   1       2.784  -0.348  -4.673  0.00  0.00     0.063 H 
ATOM     39  C   LIG d   1       4.736   1.002  -2.273  0.00  0.00    -0.060 A 
ATOM     40  H   LIG d   1       2.620   0.806  -2.504  0.00  0.00     0.062 H 
ATOM     41  C   LIG d   1       5.978   0.751  -2.825  0.00  0.00    -0.036 A 
ATOM     42  H   LIG d   1       4.661   1.508  -1.322  0.00  0.00     0.062 H 
ATOM     43  H   LIG d   1       6.873   1.064  -2.307  0.00  0.00     0.064 H 
ENDBRANCH  25  33
ENDBRANCH  10  23
BRANCH   1  44
ATOM     44  C   LIG d   1       8.912   0.567  -8.834  0.00  0.00    -0.042 C 
ATOM     45  H   LIG d   1       9.229   0.790  -9.864  0.00  0.00     0.078 H 
ATOM     46  H   LIG d   1       7.867   0.224  -8.838  0.00  0.00     0.078 H 
ATOM     47  H   LIG d   1       9.555  -0.220  -8.415  0.00  0.00     0.078 H 
ENDBRANCH   1  44
BRANCH   8  48
ATOM     48  O   LIG d   1      10.713   1.497  -4.177  0.00  0.00    -0.491 OA
BRANCH  48  49
ATOM     49  C   LIG d   1      12.059   1.206  -3.795  0.00  0.00     0.079 C 
ATOM     50  H   LIG d   1      12.681   1.101  -4.696  0.00  0.00     0.066 H 
ATOM     51  H   LIG d   1      12.082   0.266  -3.223  0.00  0.00     0.066 H 
ATOM     52  H   LIG d   1      12.448   2.024  -3.173  0.00  0.00     0.066 H 
ENDBRANCH  48  49
ENDBRANCH   8  48
TORSDOF 5
ENDMDL
MODEL 4
REMARK VINA RESULT:      -6.2      3.105      5.250
REMARK  5 active torsions:
REMARK  status: ('A' for Active; 'I' for Inactive)
REMARK    1  A    between atoms: C_1  and  N_2 
REMARK    2  A    between atoms: C_9  and  O_29 
REMARK    3  A    between atoms: C_11  and  C_13 
REMARK    4  A    between atoms: N_18  and  C_21 
REMARK    5  A    between atoms: O_29  and  C_30 
ROOT
ATOM      1  N   LIG d   1       4.752   0.853  -9.821  0.00  0.00     0.242 N 
ATOM      2  C   LIG d   1       3.918   1.073 -11.014  0.00  0.00    -0.027 C 
ATOM      3  C   LIG d   1       4.073  -0.130 -11.944  0.00  0.00     0.013 C 
ATOM      4  C   LIG d   1       3.858  -1.408 -11.173  0.00  0.00    -0.026 A 
ATOM      5  C   LIG d   1       3.608  -2.572 -11.884  0.00  0.00    -0.012 A 
ATOM      6  C   LIG d   1       3.406  -3.771 -11.221  0.00  0.00     0.170 A 
ATOM      7  C   LIG d   1       3.456  -3.806  -9.831  0.00  0.00     0.208 A 
ATOM      8  C   LIG d   1       3.704  -2.640  -9.123  0.00  0.00     0.174 A 
ATOM      9  C   LIG d   1       3.906  -1.438  -9.796  0.00  0.00     0.054 A 
ATOM     10  C   LIG d   1       4.169  -0.198  -8.982  0.00  0.00     0.041 C 
ATOM     11  H   LIG d   1       3.220   0.189  -8.582  0.00  0.00     0.096 H 
ATOM     12  O   LIG d   1       3.230  -5.089  -9.418  0.00  0.00    -0.449 OA
ATOM     13  C   LIG d   1       3.447  -5.910 -10.581  0.00  0.00     0.233 C 
ATOM     14  O   LIG d   1       3.150  -5.031 -11.681  0.00  0.00    -0.453 OA
ATOM     15  H   LIG d   1       2.867   1.181 -10.711  0.00  0.00     0.082 H 
ATOM     16  H   LIG d   1       4.247   1.989 -11.527  0.00  0.00     0.082 H 
ATOM     17  H   LIG d   1       3.332  -0.066 -12.753  0.00  0.00     0.036 H 
ATOM     18  H   LIG d   1       5.086  -0.133 -12.374  0.00  0.00     0.036 H 
ATOM     19  H   LIG d   1       3.571  -2.544 -12.963  0.00  0.00     0.066 H 
ATOM     20  H   LIG d   1       4.491  -6.257 -10.594  0.00  0.00     0.117 H 
ATOM     21  H   LIG d   1       2.773  -6.778 -10.548  0.00  0.00     0.117 H 
ATOM     22  H   LIG d   1       5.749   0.521 -10.148  0.00  0.00     0.204 HD
ENDROOT
BRANCH  10  23
ATOM     23  C   LIG d   1       5.124  -0.530  -7.865  0.00  0.00     0.078 A 
ATOM     24  C   LIG d   1       4.753  -0.325  -6.525  0.00  0.00     0.267 A 
ATOM     25  N   LIG d   1       5.625  -0.623  -5.541  0.00  0.00    -0.255 N 
ATOM     26  O   LIG d   1       3.652   0.121  -6.255  0.00  0.00    -0.267 OA
ATOM     27  C   LIG d   1       6.840  -1.122  -5.833  0.00  0.00     0.165 A 
ATOM     28  N   LIG d   1       7.215  -1.331  -7.109  0.00  0.00    -0.347 N 
ATOM     29  S   LIG d   1       7.925  -1.499  -4.563  0.00  0.00    -0.013 SA
ATOM     30  C   LIG d   1       6.361  -1.037  -8.140  0.00  0.00    -0.023 A 
ATOM     31  H   LIG d   1       8.214  -1.740  -7.321  0.00  0.00     0.167 HD
ATOM     32  O   LIG d   1       6.741  -1.247  -9.418  0.00  0.00    -0.861 OA
BRANCH  25  33
ATOM     33  C   LIG d   1       5.262  -0.417  -4.204  0.00  0.00     0.070 A 
ATOM     34  C   LIG d   1       4.758  -1.469  -3.448  0.00  0.00     0.065 A 
ATOM     35  C   LIG d   1       4.399  -1.262  -2.130  0.00  0.00    -0.041 A 
ATOM     36 CL   LIG d   1       4.580  -3.043  -4.160  0.00  0.00    -0.081 Cl
ATOM     37  C   LIG d   1       4.541  -0.009  -1.562  0.00  0.00    -0.060 A 
ATOM     38  H   LIG d   1       4.008  -2.079  -1.542  0.00  0.00     0.063 H 
ATOM     39  C   LIG d   1       5.043   1.040  -2.311  0.00  0.00    -0.060 A 
ATOM     40  H   LIG d   1       4.260   0.151  -0.531  0.00  0.00     0.062 H 
ATOM     41  C   LIG d   1       5.403   0.839  -3.630  0.00  0.00    -0.036 A 
ATOM     42  H   LIG d   1       5.153   2.017  -1.865  0.00  0.00     0.062 H 
ATOM     43  H   LIG d   1       5.790   1.661  -4.216  0.00  0.00     0.064 H 
ENDBRANCH  25  33
ENDBRANCH  10  23
BRANCH   1  44
ATOM     44  C   LIG d   1       4.925   2.098  -9.062  0.00  0.00    -0.042 C 
ATOM     45  H   LIG d   1       4.644   2.955  -9.692  0.00  0.00     0.078 H 
ATOM     46  H   LIG d   1       5.978   2.198  -8.757  0.00  0.00     0.078 H 
ATOM     47  H   LIG d   1       4.285   2.074  -8.169  0.00  0.00     0.078 H 
ENDBRANCH   1  44
BRANCH   8  48
ATOM     48  O   LIG d   1       3.752  -2.670  -7.764  0.00  0.00    -0.491 OA
BRANCH  48  49
ATOM     49  C   LIG d   1       4.293  -3.846  -7.160  0.00  0.00     0.079 C 
ATOM     50  H   LIG d   1       3.684  -4.717  -7.445  0.00  0.00     0.066 H 
ATOM     51  H   LIG d   1       4.283  -3.734  -6.066  0.00  0.00     0.066 H 
ATOM     52  H   LIG d   1       5.327  -3.993  -7.504  0.00  0.00     0.066 H 
ENDBRANCH  48  49
ENDBRANCH   8  48
TORSDOF 5
ENDMDL
MODEL 5
REMARK VINA RESULT:      -6.1      3.834      7.037
REMARK  5 active torsions:
REMARK  status: ('A' for Active; 'I' for Inactive)
REMARK    1  A    between atoms: C_1  and  N_2 
REMARK    2  A    between atoms: C_9  and  O_29 
REMARK    3  A    between atoms: C_11  and  C_13 
REMARK    4  A    between atoms: N_18  and  C_21 
REMARK    5  A    between atoms: O_29  and  C_30 
ROOT
ATOM      1  N   LIG d   1      10.664  -2.811  -4.420  0.00  0.00     0.242 N 
ATOM      2  C   LIG d   1      11.817  -3.615  -3.984  0.00  0.00    -0.027 C 
ATOM      3  C   LIG d   1      11.310  -4.744  -3.086  0.00  0.00     0.013 C 
ATOM      4  C   LIG d   1      10.174  -5.470  -3.763  0.00  0.00    -0.026 A 
ATOM      5  C   LIG d   1       9.815  -6.721  -3.286  0.00  0.00    -0.012 A 
ATOM      6  C   LIG d   1       8.777  -7.425  -3.873  0.00  0.00     0.170 A 
ATOM      7  C   LIG d   1       8.090  -6.871  -4.949  0.00  0.00     0.208 A 
ATOM      8  C   LIG d   1       8.454  -5.620  -5.425  0.00  0.00     0.174 A 
ATOM      9  C   LIG d   1       9.498  -4.917  -4.830  0.00  0.00     0.054 A 
ATOM     10  C   LIG d   1       9.856  -3.564  -5.384  0.00  0.00     0.041 C 
ATOM     11  H   LIG d   1      10.462  -3.687  -6.294  0.00  0.00     0.096 H 
ATOM     12  O   LIG d   1       7.121  -7.747  -5.347  0.00  0.00    -0.449 OA
ATOM     13  C   LIG d   1       6.956  -8.662  -4.247  0.00  0.00     0.233 C 
ATOM     14  O   LIG d   1       8.239  -8.649  -3.595  0.00  0.00    -0.453 OA
ATOM     15  H   LIG d   1      12.325  -4.034  -4.864  0.00  0.00     0.082 H 
ATOM     16  H   LIG d   1      12.518  -2.977  -3.425  0.00  0.00     0.082 H 
ATOM     17  H   LIG d   1      12.127  -5.452  -2.892  0.00  0.00     0.036 H 
ATOM     18  H   LIG d   1      10.954  -4.324  -2.134  0.00  0.00     0.036 H 
ATOM     19  H   LIG d   1      10.347  -7.150  -2.451  0.00  0.00     0.066 H 
ATOM     20  H   LIG d   1       6.150  -8.302  -3.589  0.00  0.00     0.117 H 
ATOM     21  H   LIG d   1       6.695  -9.658  -4.634  0.00  0.00     0.117 H 
ATOM     22  H   LIG d   1      10.037  -2.592  -3.542  0.00  0.00     0.204 HD
ENDROOT
BRANCH  10  23
ATOM     23  C   LIG d   1       8.594  -2.798  -5.681  0.00  0.00     0.078 A 
ATOM     24  C   LIG d   1       7.705  -2.459  -4.645  0.00  0.00     0.267 A 
ATOM     25  N   LIG d   1       6.578  -1.778  -4.933  0.00  0.00    -0.255 N 
ATOM     26  O   LIG d   1       7.950  -2.782  -3.497  0.00  0.00    -0.267 OA
ATOM     27  C   LIG d   1       6.304  -1.414  -6.199  0.00  0.00     0.165 A 
ATOM     28  N   LIG d   1       7.143  -1.723  -7.206  0.00  0.00    -0.347 N 
ATOM     29  S   LIG d   1       4.869  -0.543  -6.535  0.00  0.00    -0.013 SA
ATOM     30  C   LIG d   1       8.298  -2.419  -6.958  0.00  0.00    -0.023 A 
ATOM     31  H   LIG d   1       6.897  -1.413  -8.232  0.00  0.00     0.167 HD
ATOM     32  O   LIG d   1       9.137  -2.728  -7.970  0.00  0.00    -0.861 OA
BRANCH  25  33
ATOM     33  C   LIG d   1       5.687  -1.443  -3.906  0.00  0.00     0.070 A 
ATOM     34  C   LIG d   1       5.817  -0.231  -3.239  0.00  0.00     0.065 A 
ATOM     35  C   LIG d   1       4.937   0.097  -2.224  0.00  0.00    -0.041 A 
ATOM     36 CL   LIG d   1       7.086   0.871  -3.679  0.00  0.00    -0.081 Cl
ATOM     37  C   LIG d   1       3.927  -0.780  -1.874  0.00  0.00    -0.060 A 
ATOM     38  H   LIG d   1       5.039   1.038  -1.705  0.00  0.00     0.063 H 
ATOM     39  C   LIG d   1       3.794  -1.986  -2.537  0.00  0.00    -0.060 A 
ATOM     40  H   LIG d   1       3.241  -0.522  -1.081  0.00  0.00     0.062 H 
ATOM     41  C   LIG d   1       4.671  -2.320  -3.551  0.00  0.00    -0.036 A 
ATOM     42  H   LIG d   1       3.004  -2.669  -2.261  0.00  0.00     0.062 H 
ATOM     43  H   LIG d   1       4.569  -3.265  -4.065  0.00  0.00     0.064 H 
ENDBRANCH  25  33
ENDBRANCH  10  23
BRANCH   1  44
ATOM     44  C   LIG d   1      11.100  -1.527  -4.985  0.00  0.00    -0.042 C 
ATOM     45  H   LIG d   1      11.315  -0.821  -4.170  0.00  0.00     0.078 H 
ATOM     46  H   LIG d   1      10.303  -1.119  -5.625  0.00  0.00     0.078 H 
ATOM     47  H   LIG d   1      12.009  -1.682  -5.585  0.00  0.00     0.078 H 
ENDBRANCH   1  44
BRANCH   8  48
ATOM     48  O   LIG d   1       7.786  -5.075  -6.476  0.00  0.00    -0.491 OA
BRANCH  48  49
ATOM     49  C   LIG d   1       7.734  -5.842  -7.681  0.00  0.00     0.079 C 
ATOM     50  H   LIG d   1       8.676  -6.398  -7.802  0.00  0.00     0.066 H 
ATOM     51  H   LIG d   1       7.594  -5.168  -8.539  0.00  0.00     0.066 H 
ATOM     52  H   LIG d   1       6.894  -6.550  -7.629  0.00  0.00     0.066 H 
ENDBRANCH  48  49
ENDBRANCH   8  48
TORSDOF 5
ENDMDL
MODEL 6
REMARK VINA RESULT:      -6.0      2.714      4.140
REMARK  5 active torsions:
REMARK  status: ('A' for Active; 'I' for Inactive)
REMARK    1  A    between atoms: C_1  and  N_2 
REMARK    2  A    between atoms: C_9  and  O_29 
REMARK    3  A    between atoms: C_11  and  C_13 
REMARK    4  A    between atoms: N_18  and  C_21 
REMARK    5  A    between atoms: O_29  and  C_30 
ROOT
ATOM      1  N   LIG d   1       4.266   0.290  -4.347  0.00  0.00     0.242 N 
ATOM      2  C   LIG d   1       2.834   0.627  -4.384  0.00  0.00    -0.027 C 
ATOM      3  C   LIG d   1       2.460   1.004  -5.817  0.00  0.00     0.013 C 
ATOM      4  C   LIG d   1       2.949  -0.056  -6.773  0.00  0.00    -0.026 A 
ATOM      5  C   LIG d   1       2.417  -0.085  -8.053  0.00  0.00    -0.012 A 
ATOM      6  C   LIG d   1       2.835  -1.038  -8.966  0.00  0.00     0.170 A 
ATOM      7  C   LIG d   1       3.798  -1.972  -8.596  0.00  0.00     0.208 A 
ATOM      8  C   LIG d   1       4.326  -1.941  -7.314  0.00  0.00     0.174 A 
ATOM      9  C   LIG d   1       3.901  -0.980  -6.400  0.00  0.00     0.054 A 
ATOM     10  C   LIG d   1       4.504  -0.990  -5.020  0.00  0.00     0.041 C 
ATOM     11  H   LIG d   1       4.025  -1.773  -4.414  0.00  0.00     0.096 H 
ATOM     12  O   LIG d   1       4.042  -2.793  -9.659  0.00  0.00    -0.449 OA
ATOM     13  C   LIG d   1       3.519  -2.100 -10.809  0.00  0.00     0.233 C 
ATOM     14  O   LIG d   1       2.475  -1.272 -10.262  0.00  0.00    -0.453 OA
ATOM     15  H   LIG d   1       2.245  -0.243  -4.058  0.00  0.00     0.082 H 
ATOM     16  H   LIG d   1       2.639   1.474  -3.710  0.00  0.00     0.082 H 
ATOM     17  H   LIG d   1       1.368   1.090  -5.901  0.00  0.00     0.036 H 
ATOM     18  H   LIG d   1       2.926   1.967  -6.077  0.00  0.00     0.036 H 
ATOM     19  H   LIG d   1       1.670   0.640  -8.340  0.00  0.00     0.066 H 
ATOM     20  H   LIG d   1       4.320  -1.506 -11.274  0.00  0.00     0.117 H 
ATOM     21  H   LIG d   1       3.135  -2.830 -11.534  0.00  0.00     0.117 H 
ATOM     22  H   LIG d   1       4.824   1.072  -4.885  0.00  0.00     0.204 HD
ENDROOT
BRANCH  10  23
ATOM     23  C   LIG d   1       5.987  -1.228  -5.127  0.00  0.00     0.078 A 
ATOM     24  C   LIG d   1       6.583  -2.320  -4.471  0.00  0.00     0.267 A 
ATOM     25  N   LIG d   1       7.913  -2.512  -4.575  0.00  0.00    -0.255 N 
ATOM     26  O   LIG d   1       5.903  -3.085  -3.812  0.00  0.00    -0.267 OA
ATOM     27  C   LIG d   1       8.670  -1.673  -5.306  0.00  0.00     0.165 A 
ATOM     28  N   LIG d   1       8.120  -0.624  -5.947  0.00  0.00    -0.347 N 
ATOM     29  S   LIG d   1      10.356  -1.945  -5.427  0.00  0.00    -0.013 SA
ATOM     30  C   LIG d   1       6.772  -0.389  -5.864  0.00  0.00    -0.023 A 
ATOM     31  H   LIG d   1       8.760   0.046  -6.539  0.00  0.00     0.167 HD
ATOM     32  O   LIG d   1       6.224   0.664  -6.506  0.00  0.00    -0.861 OA
BRANCH  25  33
ATOM     33  C   LIG d   1       8.513  -3.595  -3.920  0.00  0.00     0.070 A 
ATOM     34  C   LIG d   1       8.669  -4.809  -4.579  0.00  0.00     0.065 A 
ATOM     35  C   LIG d   1       9.259  -5.876  -3.929  0.00  0.00    -0.041 A 
ATOM     36 CL   LIG d   1       8.121  -4.983  -6.218  0.00  0.00    -0.081 Cl
ATOM     37  C   LIG d   1       9.695  -5.738  -2.625  0.00  0.00    -0.060 A 
ATOM     38  H   LIG d   1       9.379  -6.820  -4.442  0.00  0.00     0.063 H 
ATOM     39  C   LIG d   1       9.543  -4.531  -1.967  0.00  0.00    -0.060 A 
ATOM     40  H   LIG d   1      10.157  -6.573  -2.119  0.00  0.00     0.062 H 
ATOM     41  C   LIG d   1       8.953  -3.460  -2.610  0.00  0.00    -0.036 A 
ATOM     42  H   LIG d   1       9.885  -4.426  -0.947  0.00  0.00     0.062 H 
ATOM     43  H   LIG d   1       8.830  -2.519  -2.093  0.00  0.00     0.064 H 
ENDBRANCH  25  33
ENDBRANCH  10  23
BRANCH   1  44
ATOM     44  C   LIG d   1       4.765   0.261  -2.966  0.00  0.00    -0.042 C 
ATOM     45  H   LIG d   1       5.237  -0.713  -2.767  0.00  0.00     0.078 H 
ATOM     46  H   LIG d   1       3.926   0.411  -2.270  0.00  0.00     0.078 H 
ATOM     47  H   LIG d   1       5.505   1.062  -2.827  0.00  0.00     0.078 H 
ENDBRANCH   1  44
BRANCH   8  48
ATOM     48  O   LIG d   1       5.267  -2.852  -6.948  0.00  0.00    -0.491 OA
BRANCH  48  49
ATOM     49  C   LIG d   1       4.868  -4.224  -6.925  0.00  0.00     0.079 C 
ATOM     50  H   LIG d   1       3.819  -4.305  -7.243  0.00  0.00     0.066 H 
ATOM     51  H   LIG d   1       4.973  -4.619  -5.904  0.00  0.00     0.066 H 
ATOM     52  H   LIG d   1       5.505  -4.802  -7.610  0.00  0.00     0.066 H 
ENDBRANCH  48  49
ENDBRANCH   8  48
TORSDOF 5
ENDMDL
MODEL 7
REMARK VINA RESULT:      -6.0      3.064      6.078
REMARK  5 active torsions:
REMARK  status: ('A' for Active; 'I' for Inactive)
REMARK    1  A    between atoms: C_1  and  N_2 
REMARK    2  A    between atoms: C_9  and  O_29 
REMARK    3  A    between atoms: C_11  and  C_13 
REMARK    4  A    between atoms: N_18  and  C_21 
REMARK    5  A    between atoms: O_29  and  C_30 
ROOT
ATOM      1  N   LIG d   1       8.623  -1.838  -6.347  0.00  0.00     0.242 N 
ATOM      2  C   LIG d   1       9.636  -1.359  -5.392  0.00  0.00    -0.027 C 
ATOM      3  C   LIG d   1       9.188  -0.002  -4.849  0.00  0.00     0.013 C 
ATOM      4  C   LIG d   1       7.762  -0.085  -4.366  0.00  0.00    -0.026 A 
ATOM      5  C   LIG d   1       7.289   0.915  -3.531  0.00  0.00    -0.012 A 
ATOM      6  C   LIG d   1       5.987   0.884  -3.062  0.00  0.00     0.170 A 
ATOM      7  C   LIG d   1       5.146  -0.161  -3.434  0.00  0.00     0.208 A 
ATOM      8  C   LIG d   1       5.622  -1.161  -4.268  0.00  0.00     0.174 A 
ATOM      9  C   LIG d   1       6.933  -1.123  -4.736  0.00  0.00     0.054 A 
ATOM     10  C   LIG d   1       7.403  -2.234  -5.637  0.00  0.00     0.041 C 
ATOM     11  H   LIG d   1       7.648  -3.121  -5.033  0.00  0.00     0.096 H 
ATOM     12  O   LIG d   1       3.926   0.032  -2.852  0.00  0.00    -0.449 OA
ATOM     13  C   LIG d   1       3.905   1.415  -2.451  0.00  0.00     0.233 C 
ATOM     14  O   LIG d   1       5.294   1.732  -2.247  0.00  0.00    -0.453 OA
ATOM     15  H   LIG d   1       9.731  -2.080  -4.567  0.00  0.00     0.082 H 
ATOM     16  H   LIG d   1      10.604  -1.258  -5.904  0.00  0.00     0.082 H 
ATOM     17  H   LIG d   1       9.837   0.291  -4.013  0.00  0.00     0.036 H 
ATOM     18  H   LIG d   1       9.255   0.752  -5.648  0.00  0.00     0.036 H 
ATOM     19  H   LIG d   1       7.942   1.726  -3.243  0.00  0.00     0.066 H 
ATOM     20  H   LIG d   1       3.453   2.021  -3.251  0.00  0.00     0.117 H 
ATOM     21  H   LIG d   1       3.313   1.522  -1.531  0.00  0.00     0.117 H 
ATOM     22  H   LIG d   1       8.372  -1.015  -7.033  0.00  0.00     0.204 HD
ENDROOT
BRANCH  10  23
ATOM     23  C   LIG d   1       6.325  -2.551  -6.640  0.00  0.00     0.078 A 
ATOM     24  C   LIG d   1       5.874  -1.567  -7.537  0.00  0.00     0.267 A 
ATOM     25  N   LIG d   1       4.905  -1.869  -8.423  0.00  0.00    -0.255 N 
ATOM     26  O   LIG d   1       6.354  -0.447  -7.511  0.00  0.00    -0.267 OA
ATOM     27  C   LIG d   1       4.374  -3.105  -8.460  0.00  0.00     0.165 A 
ATOM     28  N   LIG d   1       4.794  -4.065  -7.614  0.00  0.00    -0.347 N 
ATOM     29  S   LIG d   1       3.149  -3.465  -9.601  0.00  0.00    -0.013 SA
ATOM     30  C   LIG d   1       5.775  -3.799  -6.694  0.00  0.00    -0.023 A 
ATOM     31  H   LIG d   1       4.345  -5.068  -7.665  0.00  0.00     0.167 HD
ATOM     32  O   LIG d   1       6.193  -4.763  -5.847  0.00  0.00    -0.861 OA
BRANCH  25  33
ATOM     33  C   LIG d   1       4.448  -0.891  -9.316  0.00  0.00     0.070 A 
ATOM     34  C   LIG d   1       3.461   0.005  -8.923  0.00  0.00     0.065 A 
ATOM     35  C   LIG d   1       3.011   0.967  -9.807  0.00  0.00    -0.041 A 
ATOM     36 CL   LIG d   1       2.792  -0.086  -7.323  0.00  0.00    -0.081 Cl
ATOM     37  C   LIG d   1       3.543   1.040 -11.081  0.00  0.00    -0.060 A 
ATOM     38  H   LIG d   1       2.243   1.663  -9.502  0.00  0.00     0.063 H 
ATOM     39  C   LIG d   1       4.527   0.151 -11.475  0.00  0.00    -0.060 A 
ATOM     40  H   LIG d   1       3.190   1.793 -11.771  0.00  0.00     0.062 H 
ATOM     41  C   LIG d   1       4.980  -0.814 -10.596  0.00  0.00    -0.036 A 
ATOM     42  H   LIG d   1       4.940   0.210 -12.471  0.00  0.00     0.062 H 
ATOM     43  H   LIG d   1       5.744  -1.512 -10.906  0.00  0.00     0.064 H 
ENDBRANCH  25  33
ENDBRANCH  10  23
BRANCH   1  44
ATOM     44  C   LIG d   1       9.146  -2.947  -7.157  0.00  0.00    -0.042 C 
ATOM     45  H   LIG d   1      10.243  -2.883  -7.203  0.00  0.00     0.078 H 
ATOM     46  H   LIG d   1       8.732  -2.885  -8.174  0.00  0.00     0.078 H 
ATOM     47  H   LIG d   1       8.853  -3.903  -6.699  0.00  0.00     0.078 H 
ENDBRANCH   1  44
BRANCH   8  48
ATOM     48  O   LIG d   1       4.804  -2.184  -4.634  0.00  0.00    -0.491 OA
BRANCH  48  49
ATOM     49  C   LIG d   1       4.293  -3.013  -3.588  0.00  0.00     0.079 C 
ATOM     50  H   LIG d   1       3.613  -2.425  -2.955  0.00  0.00     0.066 H 
ATOM     51  H   LIG d   1       5.128  -3.389  -2.979  0.00  0.00     0.066 H 
ATOM     52  H   LIG d   1       3.747  -3.861  -4.026  0.00  0.00     0.066 H 
ENDBRANCH  48  49
ENDBRANCH   8  48
TORSDOF 5
ENDMDL
MODEL 8
REMARK VINA RESULT:      -5.9      1.423      1.801
REMARK  5 active torsions:
REMARK  status: ('A' for Active; 'I' for Inactive)
REMARK    1  A    between atoms: C_1  and  N_2 
REMARK    2  A    between atoms: C_9  and  O_29 
REMARK    3  A    between atoms: C_11  and  C_13 
REMARK    4  A    between atoms: N_18  and  C_21 
REMARK    5  A    between atoms: O_29  and  C_30 
ROOT
ATOM      1  N   LIG d   1       4.663   0.147  -3.854  0.00  0.00     0.242 N 
ATOM      2  C   LIG d   1       3.191   0.174  -3.831  0.00  0.00    -0.027 C 
ATOM      3  C   LIG d   1       2.693   0.663  -5.191  0.00  0.00     0.013 C 
ATOM      4  C   LIG d   1       3.355  -0.123  -6.295  0.00  0.00    -0.026 A 
ATOM      5  C   LIG d   1       2.793  -0.082  -7.562  0.00  0.00    -0.012 A 
ATOM      6  C   LIG d   1       3.365  -0.785  -8.608  0.00  0.00     0.170 A 
ATOM      7  C   LIG d   1       4.515  -1.537  -8.386  0.00  0.00     0.208 A 
ATOM      8  C   LIG d   1       5.074  -1.577  -7.117  0.00  0.00     0.174 A 
ATOM      9  C   LIG d   1       4.493  -0.868  -6.069  0.00  0.00     0.054 A 
ATOM     10  C   LIG d   1       5.136  -0.946  -4.710  0.00  0.00     0.041 C 
ATOM     11  H   LIG d   1       4.854  -1.891  -4.222  0.00  0.00     0.096 H 
ATOM     12  O   LIG d   1       4.884  -2.129  -9.560  0.00  0.00    -0.449 OA
ATOM     13  C   LIG d   1       4.184  -1.406 -10.591  0.00  0.00     0.233 C 
ATOM     14  O   LIG d   1       3.013  -0.905  -9.922  0.00  0.00    -0.453 OA
ATOM     15  H   LIG d   1       2.809  -0.838  -3.632  0.00  0.00     0.082 H 
ATOM     16  H   LIG d   1       2.850   0.856  -3.039  0.00  0.00     0.082 H 
ATOM     17  H   LIG d   1       1.604   0.527  -5.253  0.00  0.00     0.036 H 
ATOM     18  H   LIG d   1       2.937   1.729  -5.310  0.00  0.00     0.036 H 
ATOM     19  H   LIG d   1       1.901   0.502  -7.734  0.00  0.00     0.066 H 
ATOM     20  H   LIG d   1       4.826  -0.597 -10.970  0.00  0.00     0.117 H 
ATOM     21  H   LIG d   1       3.934  -2.091 -11.414  0.00  0.00     0.117 H 
ATOM     22  H   LIG d   1       5.024   1.097  -4.276  0.00  0.00     0.204 HD
ENDROOT
BRANCH  10  23
ATOM     23  C   LIG d   1       6.632  -0.846  -4.861  0.00  0.00     0.078 A 
ATOM     24  C   LIG d   1       7.214   0.280  -5.470  0.00  0.00     0.267 A 
ATOM     25  N   LIG d   1       8.553   0.346  -5.600  0.00  0.00    -0.255 N 
ATOM     26  O   LIG d   1       6.512   1.187  -5.879  0.00  0.00    -0.267 OA
ATOM     27  C   LIG d   1       9.335  -0.650  -5.145  0.00  0.00     0.165 A 
ATOM     28  N   LIG d   1       8.800  -1.735  -4.554  0.00  0.00    -0.347 N 
ATOM     29  S   LIG d   1      11.034  -0.536  -5.316  0.00  0.00    -0.013 SA
ATOM     30  C   LIG d   1       7.441  -1.846  -4.405  0.00  0.00    -0.023 A 
ATOM     31  H   LIG d   1       9.460  -2.536  -4.189  0.00  0.00     0.167 HD
ATOM     32  O   LIG d   1       6.908  -2.936  -3.814  0.00  0.00    -0.861 OA
BRANCH  25  33
ATOM     33  C   LIG d   1       9.138   1.464  -6.210  0.00  0.00     0.070 A 
ATOM     34  C   LIG d   1       9.464   2.581  -5.451  0.00  0.00     0.065 A 
ATOM     35  C   LIG d   1      10.039   3.683  -6.056  0.00  0.00    -0.041 A 
ATOM     36 CL   LIG d   1       9.147   2.594  -3.743  0.00  0.00    -0.081 Cl
ATOM     37  C   LIG d   1      10.292   3.673  -7.415  0.00  0.00    -0.060 A 
ATOM     38  H   LIG d   1      10.291   4.552  -5.466  0.00  0.00     0.063 H 
ATOM     39  C   LIG d   1       9.970   2.562  -8.173  0.00  0.00    -0.060 A 
ATOM     40  H   LIG d   1      10.741   4.535  -7.887  0.00  0.00     0.062 H 
ATOM     41  C   LIG d   1       9.394   1.458  -7.575  0.00  0.00    -0.036 A 
ATOM     42  H   LIG d   1      10.168   2.557  -9.235  0.00  0.00     0.062 H 
ATOM     43  H   LIG d   1       9.138   0.592  -8.169  0.00  0.00     0.064 H 
ENDBRANCH  25  33
ENDBRANCH  10  23
BRANCH   1  44
ATOM     44  C   LIG d   1       5.209   0.027  -2.496  0.00  0.00    -0.042 C 
ATOM     45  H   LIG d   1       4.384  -0.003  -1.770  0.00  0.00     0.078 H 
ATOM     46  H   LIG d   1       5.854   0.893  -2.283  0.00  0.00     0.078 H 
ATOM     47  H   LIG d   1       5.800  -0.897  -2.419  0.00  0.00     0.078 H 
ENDBRANCH   1  44
BRANCH   8  48
ATOM     48  O   LIG d   1       6.197  -2.311  -6.895  0.00  0.00    -0.491 OA
BRANCH  48  49
ATOM     49  C   LIG d   1       6.106  -3.720  -7.115  0.00  0.00     0.079 C 
ATOM     50  H   LIG d   1       6.825  -4.239  -6.466  0.00  0.00     0.066 H 
ATOM     51  H   LIG d   1       6.335  -3.942  -8.167  0.00  0.00     0.066 H 
ATOM     52  H   LIG d   1       5.087  -4.062  -6.881  0.00  0.00     0.066 H 
ENDBRANCH  48  49
ENDBRANCH   8  48
TORSDOF 5
ENDMDL
MODEL 9
REMARK VINA RESULT:      -5.7      2.732      5.037
REMARK  5 active torsions:
REMARK  status: ('A' for Active; 'I' for Inactive)
REMARK    1  A    between atoms: C_1  and  N_2 
REMARK    2  A    between atoms: C_9  and  O_29 
REMARK    3  A    between atoms: C_11  and  C_13 
REMARK    4  A    between atoms: N_18  and  C_21 
REMARK    5  A    between atoms: O_29  and  C_30 
ROOT
ATOM      1  N   LIG d   1       6.253   0.420  -3.892  0.00  0.00     0.242 N 
ATOM      2  C   LIG d   1       5.734  -0.018  -2.586  0.00  0.00    -0.027 C 
ATOM      3  C   LIG d   1       4.601  -1.016  -2.823  0.00  0.00     0.013 C 
ATOM      4  C   LIG d   1       5.050  -2.086  -3.786  0.00  0.00    -0.026 A 
ATOM      5  C   LIG d   1       4.313  -3.258  -3.860  0.00  0.00    -0.012 A 
ATOM      6  C   LIG d   1       4.684  -4.269  -4.731  0.00  0.00     0.170 A 
ATOM      7  C   LIG d   1       5.806  -4.106  -5.537  0.00  0.00     0.208 A 
ATOM      8  C   LIG d   1       6.543  -2.933  -5.459  0.00  0.00     0.174 A 
ATOM      9  C   LIG d   1       6.164  -1.921  -4.582  0.00  0.00     0.054 A 
ATOM     10  C   LIG d   1       6.998  -0.668  -4.533  0.00  0.00     0.041 C 
ATOM     11  H   LIG d   1       7.899  -0.849  -3.928  0.00  0.00     0.096 H 
ATOM     12  O   LIG d   1       5.962  -5.227  -6.301  0.00  0.00    -0.449 OA
ATOM     13  C   LIG d   1       4.694  -5.908  -6.248  0.00  0.00     0.233 C 
ATOM     14  O   LIG d   1       4.136  -5.492  -4.988  0.00  0.00    -0.453 OA
ATOM     15  H   LIG d   1       6.542  -0.497  -2.013  0.00  0.00     0.082 H 
ATOM     16  H   LIG d   1       5.357   0.853  -2.030  0.00  0.00     0.082 H 
ATOM     17  H   LIG d   1       4.318  -1.483  -1.870  0.00  0.00     0.036 H 
ATOM     18  H   LIG d   1       3.732  -0.490  -3.247  0.00  0.00     0.036 H 
ATOM     19  H   LIG d   1       3.442  -3.384  -3.235  0.00  0.00     0.066 H 
ATOM     20  H   LIG d   1       4.074  -5.593  -7.102  0.00  0.00     0.117 H 
ATOM     21  H   LIG d   1       4.858  -6.994  -6.294  0.00  0.00     0.117 H 
ATOM     22  H   LIG d   1       5.401   0.682  -4.537  0.00  0.00     0.204 HD
ENDROOT
BRANCH  10  23
ATOM     23  C   LIG d   1       7.366  -0.260  -5.935  0.00  0.00     0.078 A 
ATOM     24  C   LIG d   1       6.365   0.051  -6.873  0.00  0.00     0.267 A 
ATOM     25  N   LIG d   1       6.716   0.409  -8.124  0.00  0.00    -0.255 N 
ATOM     26  O   LIG d   1       5.190  -0.006  -6.558  0.00  0.00    -0.267 OA
ATOM     27  C   LIG d   1       8.012   0.479  -8.477  0.00  0.00     0.165 A 
ATOM     28  N   LIG d   1       8.988   0.191  -7.594  0.00  0.00    -0.347 N 
ATOM     29  S   LIG d   1       8.430   0.943 -10.071  0.00  0.00    -0.013 SA
ATOM     30  C   LIG d   1       8.675  -0.182  -6.312  0.00  0.00    -0.023 A 
ATOM     31  H   LIG d   1      10.040   0.256  -7.907  0.00  0.00     0.167 HD
ATOM     32  O   LIG d   1       9.654  -0.471  -5.430  0.00  0.00    -0.861 OA
BRANCH  25  33
ATOM     33  C   LIG d   1       5.723   0.715  -9.064  0.00  0.00     0.070 A 
ATOM     34  C   LIG d   1       5.314  -0.244  -9.983  0.00  0.00     0.065 A 
ATOM     35  C   LIG d   1       4.336   0.062 -10.910  0.00  0.00    -0.041 A 
ATOM     36 CL   LIG d   1       6.032  -1.826  -9.966  0.00  0.00    -0.081 Cl
ATOM     37  C   LIG d   1       3.764   1.320 -10.924  0.00  0.00    -0.060 A 
ATOM     38  H   LIG d   1       4.019  -0.683 -11.625  0.00  0.00     0.063 H 
ATOM     39  C   LIG d   1       4.168   2.276 -10.010  0.00  0.00    -0.060 A 
ATOM     40  H   LIG d   1       3.000   1.558 -11.649  0.00  0.00     0.062 H 
ATOM     41  C   LIG d   1       5.146   1.977  -9.081  0.00  0.00    -0.036 A 
ATOM     42  H   LIG d   1       3.719   3.259 -10.023  0.00  0.00     0.062 H 
ATOM     43  H   LIG d   1       5.465   2.727  -8.371  0.00  0.00     0.064 H 
ENDBRANCH  25  33
ENDBRANCH  10  23
BRANCH   1  44
ATOM     44  C   LIG d   1       7.088   1.620  -3.751  0.00  0.00    -0.042 C 
ATOM     45  H   LIG d   1       7.035   1.985  -2.715  0.00  0.00     0.078 H 
ATOM     46  H   LIG d   1       6.726   2.401  -4.435  0.00  0.00     0.078 H 
ATOM     47  H   LIG d   1       8.131   1.371  -3.998  0.00  0.00     0.078 H 
ENDBRANCH   1  44
BRANCH   8  48
ATOM     48  O   LIG d   1       7.640  -2.770  -6.246  0.00  0.00    -0.491 OA
BRANCH  48  49
ATOM     49  C   LIG d   1       7.680  -3.511  -7.466  0.00  0.00     0.079 C 
ATOM     50  H   LIG d   1       8.620  -3.297  -7.995  0.00  0.00     0.066 H 
ATOM     51  H   LIG d   1       6.829  -3.221  -8.099  0.00  0.00     0.066 H 
ATOM     52  H   LIG d   1       7.621  -4.587  -7.243  0.00  0.00     0.066 H 
ENDBRANCH  48  49
ENDBRANCH   8  48
TORSDOF 5
ENDMDL
