MODEL 1
REMARK VINA RESULT:      -6.1      0.000      0.000
REMARK  10 active torsions:
REMARK  status: ('A' for Active; 'I' for Inactive)
REMARK    1  A    between atoms: C_1  and  C_2 
REMARK    2  A    between atoms: C_2  and  C_3 
REMARK    3  A    between atoms: C_2  and  N_4 
REMARK    4  A    between atoms: C_8  and  C_10 
REMARK    5  A    between atoms: C_12  and  C_15 
REMARK    6  A    between atoms: C_20  and  O_21 
REMARK    7  A    between atoms: O_21  and  C_22 
REMARK    8  A    between atoms: C_22  and  C_23 
REMARK    9  A    between atoms: C_23  and  O_24 
REMARK   10  A    between atoms: O_24  and  C_25 
ROOT
ATOM      1  C   LIG d   1       3.298   0.499  -5.104  0.00  0.00     0.276 A 
ATOM      2  N   LIG d   1       3.718   0.084  -6.265  0.00  0.00    -0.186 NA
ATOM      3  C   LIG d   1       3.208   0.856  -7.242  0.00  0.00     0.207 A 
ATOM      4  N   LIG d   1       2.453   1.777  -6.695  0.00  0.00    -0.056 NA
ATOM      5  O   LIG d   1       2.497   1.555  -5.295  0.00  0.00    -0.332 OA
ENDROOT
BRANCH   1   6
ATOM      6  C   LIG d   1       3.652  -0.110  -3.772  0.00  0.00     0.060 C 
ATOM      7  N   LIG d   1       5.012  -0.678  -3.825  0.00  0.00     0.246 N 
ATOM      8  C   LIG d   1       5.844  -0.005  -2.803  0.00  0.00    -0.031 C 
ATOM      9  H   LIG d   1       5.410  -0.522  -4.740  0.00  0.00     0.204 HD
ATOM     10  C   LIG d   1       5.155   1.363  -2.572  0.00  0.00    -0.007 C 
ATOM     11  H   LIG d   1       5.855  -0.585  -1.881  0.00  0.00     0.082 H 
ATOM     12  H   LIG d   1       6.858   0.140  -3.176  0.00  0.00     0.082 H 
ATOM     13  C   LIG d   1       3.655   0.981  -2.681  0.00  0.00     0.004 C 
ATOM     14  H   LIG d   1       5.388   1.754  -1.581  0.00  0.00     0.032 H 
ATOM     15  H   LIG d   1       5.433   2.077  -3.346  0.00  0.00     0.032 H 
ATOM     16  H   LIG d   1       3.289   0.582  -1.735  0.00  0.00     0.033 H 
ATOM     17  H   LIG d   1       3.061   1.840  -2.993  0.00  0.00     0.033 H 
ATOM     18  H   LIG d   1       2.936  -0.889  -3.515  0.00  0.00     0.095 H 
BRANCH   7  19
ATOM     19  C   LIG d   1       4.958  -2.119  -3.547  0.00  0.00    -0.026 C 
ATOM     20  H   LIG d   1       5.907  -2.441  -3.118  0.00  0.00     0.085 H 
BRANCH  19  21
ATOM     21  C   LIG d   1       3.827  -2.404  -2.556  0.00  0.00    -0.022 C 
ATOM     22  H   LIG d   1       2.872  -2.388  -3.081  0.00  0.00     0.028 H 
ATOM     23  H   LIG d   1       3.978  -3.385  -2.105  0.00  0.00     0.028 H 
ATOM     24  H   LIG d   1       3.826  -1.642  -1.777  0.00  0.00     0.028 H 
ENDBRANCH  19  21
BRANCH  19  25
ATOM     25  C   LIG d   1       4.701  -2.881  -4.849  0.00  0.00    -0.022 C 
ATOM     26  H   LIG d   1       4.055  -3.735  -4.648  0.00  0.00     0.028 H 
ATOM     27  H   LIG d   1       4.217  -2.219  -5.568  0.00  0.00     0.028 H 
ATOM     28  H   LIG d   1       5.649  -3.230  -5.259  0.00  0.00     0.028 H 
ENDBRANCH  19  25
ENDBRANCH   7  19
ENDBRANCH   1   6
BRANCH   3  29
ATOM     29  C   LIG d   1       3.459   0.692  -8.694  0.00  0.00     0.084 A 
ATOM     30  C   LIG d   1       4.601   1.244  -9.286  0.00  0.00     0.226 A 
ATOM     31  N   LIG d   1       4.826   1.091 -10.580  0.00  0.00    -0.221 NA
ATOM     32  C   LIG d   1       3.989   0.432 -11.357  0.00  0.00     0.031 A 
ATOM     33  C   LIG d   1       2.836  -0.136 -10.846  0.00  0.00    -0.043 A 
ATOM     34  H   LIG d   1       4.207   0.333 -12.410  0.00  0.00     0.083 H 
ATOM     35  C   LIG d   1       2.557  -0.010  -9.496  0.00  0.00    -0.044 A 
ATOM     36  H   LIG d   1       2.160  -0.673 -11.495  0.00  0.00     0.063 H 
ATOM     37  H   LIG d   1       1.664  -0.445  -9.072  0.00  0.00     0.063 H 
BRANCH  30  38
ATOM     38  O   LIG d   1       5.487   1.934  -8.526  0.00  0.00    -0.474 OA
BRANCH  38  39
ATOM     39  C   LIG d   1       6.847   1.497  -8.557  0.00  0.00     0.115 C 
ATOM     40  H   LIG d   1       7.076   1.094  -9.544  0.00  0.00     0.072 H 
ATOM     41  H   LIG d   1       7.504   2.340  -8.347  0.00  0.00     0.072 H 
BRANCH  39  42
ATOM     42  C   LIG d   1       7.058   0.410  -7.502  0.00  0.00     0.081 C 
ATOM     43  H   LIG d   1       6.354  -0.405  -7.674  0.00  0.00     0.059 H 
ATOM     44  H   LIG d   1       8.077   0.030  -7.570  0.00  0.00     0.059 H 
BRANCH  42  45
ATOM     45  O   LIG d   1       6.840   0.959  -6.200  0.00  0.00    -0.380 OA
BRANCH  45  46
ATOM     46  C   LIG d   1       8.033   1.391  -5.545  0.00  0.00     0.037 C 
ATOM     47  H   LIG d   1       8.033   1.031  -4.515  0.00  0.00     0.052 H 
ATOM     48  H   LIG d   1       8.902   0.992  -6.069  0.00  0.00     0.052 H 
ATOM     49  H   LIG d   1       8.076   2.480  -5.548  0.00  0.00     0.052 H 
ENDBRANCH  45  46
ENDBRANCH  42  45
ENDBRANCH  39  42
ENDBRANCH  38  39
ENDBRANCH  30  38
ENDBRANCH   3  29
TORSDOF 10
ENDMDL
MODEL 2
REMARK VINA RESULT:      -5.9      1.157      1.573
REMARK  10 active torsions:
REMARK  status: ('A' for Active; 'I' for Inactive)
REMARK    1  A    between atoms: C_1  and  C_2 
REMARK    2  A    between atoms: C_2  and  C_3 
REMARK    3  A    between atoms: C_2  and  N_4 
REMARK    4  A    between atoms: C_8  and  C_10 
REMARK    5  A    between atoms: C_12  and  C_15 
REMARK    6  A    between atoms: C_20  and  O_21 
REMARK    7  A    between atoms: O_21  and  C_22 
REMARK    8  A    between atoms: C_22  and  C_23 
REMARK    9  A    between atoms: C_23  and  O_24 
REMARK   10  A    between atoms: O_24  and  C_25 
ROOT
ATOM      1  C   LIG d   1       3.412  -0.024  -5.261  0.00  0.00     0.276 A 
ATOM      2  N   LIG d   1       3.795  -0.348  -6.463  0.00  0.00    -0.186 NA
ATOM      3  C   LIG d   1       3.344   0.558  -7.351  0.00  0.00     0.207 A 
ATOM      4  N   LIG d   1       2.662   1.472  -6.704  0.00  0.00    -0.056 NA
ATOM      5  O   LIG d   1       2.693   1.104  -5.334  0.00  0.00    -0.332 OA
ENDROOT
BRANCH   1   6
ATOM      6  C   LIG d   1       3.722  -0.793  -4.002  0.00  0.00     0.060 C 
ATOM      7  N   LIG d   1       5.150  -0.651  -3.668  0.00  0.00     0.246 N 
ATOM      8  C   LIG d   1       5.262  -0.033  -2.328  0.00  0.00    -0.031 C 
ATOM      9  H   LIG d   1       5.603  -0.061  -4.350  0.00  0.00     0.204 HD
ATOM     10  C   LIG d   1       3.934   0.741  -2.139  0.00  0.00    -0.007 C 
ATOM     11  H   LIG d   1       5.365  -0.802  -1.563  0.00  0.00     0.082 H 
ATOM     12  H   LIG d   1       6.108   0.653  -2.297  0.00  0.00     0.082 H 
ATOM     13  C   LIG d   1       2.916  -0.210  -2.822  0.00  0.00     0.004 C 
ATOM     14  H   LIG d   1       3.703   0.866  -1.081  0.00  0.00     0.032 H 
ATOM     15  H   LIG d   1       3.967   1.705  -2.646  0.00  0.00     0.032 H 
ATOM     16  H   LIG d   1       2.609  -1.002  -2.138  0.00  0.00     0.033 H 
ATOM     17  H   LIG d   1       2.051   0.346  -3.182  0.00  0.00     0.033 H 
ATOM     18  H   LIG d   1       3.475  -1.845  -4.137  0.00  0.00     0.095 H 
BRANCH   7  19
ATOM     19  C   LIG d   1       5.789  -1.974  -3.656  0.00  0.00    -0.026 C 
ATOM     20  H   LIG d   1       6.136  -2.200  -2.647  0.00  0.00     0.085 H 
BRANCH  19  21
ATOM     21  C   LIG d   1       4.776  -3.032  -4.097  0.00  0.00    -0.022 C 
ATOM     22  H   LIG d   1       5.304  -3.941  -4.388  0.00  0.00     0.028 H 
ATOM     23  H   LIG d   1       4.099  -3.253  -3.272  0.00  0.00     0.028 H 
ATOM     24  H   LIG d   1       4.205  -2.657  -4.946  0.00  0.00     0.028 H 
ENDBRANCH  19  21
BRANCH  19  25
ATOM     25  C   LIG d   1       6.980  -1.974  -4.617  0.00  0.00    -0.022 C 
ATOM     26  H   LIG d   1       6.759  -2.618  -5.468  0.00  0.00     0.028 H 
ATOM     27  H   LIG d   1       7.165  -0.959  -4.967  0.00  0.00     0.028 H 
ATOM     28  H   LIG d   1       7.864  -2.346  -4.099  0.00  0.00     0.028 H 
ENDBRANCH  19  25
ENDBRANCH   7  19
ENDBRANCH   1   6
BRANCH   3  29
ATOM     29  C   LIG d   1       3.577   0.526  -8.814  0.00  0.00     0.084 A 
ATOM     30  C   LIG d   1       4.709   1.135  -9.367  0.00  0.00     0.226 A 
ATOM     31  N   LIG d   1       4.919   1.100 -10.673  0.00  0.00    -0.221 NA
ATOM     32  C   LIG d   1       4.075   0.509 -11.496  0.00  0.00     0.031 A 
ATOM     33  C   LIG d   1       2.932  -0.110 -11.025  0.00  0.00    -0.043 A 
ATOM     34  H   LIG d   1       4.281   0.506 -12.556  0.00  0.00     0.083 H 
ATOM     35  C   LIG d   1       2.668  -0.107  -9.665  0.00  0.00    -0.044 A 
ATOM     36  H   LIG d   1       2.251  -0.591 -11.710  0.00  0.00     0.063 H 
ATOM     37  H   LIG d   1       1.783  -0.583  -9.271  0.00  0.00     0.063 H 
BRANCH  30  38
ATOM     38  O   LIG d   1       5.600   1.760  -8.559  0.00  0.00    -0.474 OA
BRANCH  38  39
ATOM     39  C   LIG d   1       6.879   1.141  -8.402  0.00  0.00     0.115 C 
ATOM     40  H   LIG d   1       6.867   0.504  -7.516  0.00  0.00     0.072 H 
ATOM     41  H   LIG d   1       7.101   0.537  -9.281  0.00  0.00     0.072 H 
BRANCH  39  42
ATOM     42  C   LIG d   1       7.951   2.219  -8.239  0.00  0.00     0.081 C 
ATOM     43  H   LIG d   1       7.836   2.703  -7.270  0.00  0.00     0.059 H 
ATOM     44  H   LIG d   1       8.939   1.763  -8.302  0.00  0.00     0.059 H 
BRANCH  42  45
ATOM     45  O   LIG d   1       7.810   3.193  -9.276  0.00  0.00    -0.380 OA
BRANCH  45  46
ATOM     46  C   LIG d   1       8.787   4.235  -9.233  0.00  0.00     0.037 C 
ATOM     47  H   LIG d   1       8.575   4.963 -10.017  0.00  0.00     0.052 H 
ATOM     48  H   LIG d   1       8.752   4.726  -8.261  0.00  0.00     0.052 H 
ATOM     49  H   LIG d   1       9.778   3.810  -9.391  0.00  0.00     0.052 H 
ENDBRANCH  45  46
ENDBRANCH  42  45
ENDBRANCH  39  42
ENDBRANCH  38  39
ENDBRANCH  30  38
ENDBRANCH   3  29
TORSDOF 10
ENDMDL
MODEL 3
REMARK VINA RESULT:      -5.4      2.428      5.174
REMARK  10 active torsions:
REMARK  status: ('A' for Active; 'I' for Inactive)
REMARK    1  A    between atoms: C_1  and  C_2 
REMARK    2  A    between atoms: C_2  and  C_3 
REMARK    3  A    between atoms: C_2  and  N_4 
REMARK    4  A    between atoms: C_8  and  C_10 
REMARK    5  A    between atoms: C_12  and  C_15 
REMARK    6  A    between atoms: C_20  and  O_21 
REMARK    7  A    between atoms: O_21  and  C_22 
REMARK    8  A    between atoms: C_22  and  C_23 
REMARK    9  A    between atoms: C_23  and  O_24 
REMARK   10  A    between atoms: O_24  and  C_25 
ROOT
ATOM      1  C   LIG d   1       6.506  -0.230  -4.709  0.00  0.00     0.276 A 
ATOM      2  N   LIG d   1       6.749   1.006  -5.040  0.00  0.00    -0.186 NA
ATOM      3  C   LIG d   1       8.072   1.188  -5.204  0.00  0.00     0.207 A 
ATOM      4  N   LIG d   1       8.681   0.050  -4.975  0.00  0.00    -0.056 NA
ATOM      5  O   LIG d   1       7.670  -0.889  -4.645  0.00  0.00    -0.332 OA
ENDROOT
BRANCH   1   6
ATOM      6  C   LIG d   1       5.144  -0.817  -4.441  0.00  0.00     0.060 C 
ATOM      7  N   LIG d   1       4.201   0.253  -4.067  0.00  0.00     0.246 N 
ATOM      8  C   LIG d   1       3.089   0.264  -5.042  0.00  0.00    -0.031 C 
ATOM      9  H   LIG d   1       4.674   1.145  -4.084  0.00  0.00     0.204 HD
ATOM     10  C   LIG d   1       3.680  -0.381  -6.321  0.00  0.00    -0.007 C 
ATOM     11  H   LIG d   1       2.253  -0.327  -4.671  0.00  0.00     0.082 H 
ATOM     12  H   LIG d   1       2.773   1.287  -5.245  0.00  0.00     0.082 H 
ATOM     13  C   LIG d   1       4.597  -1.480  -5.723  0.00  0.00     0.004 C 
ATOM     14  H   LIG d   1       2.893  -0.820  -6.935  0.00  0.00     0.032 H 
ATOM     15  H   LIG d   1       4.259   0.344  -6.892  0.00  0.00     0.032 H 
ATOM     16  H   LIG d   1       4.021  -2.373  -5.480  0.00  0.00     0.033 H 
ATOM     17  H   LIG d   1       5.409  -1.719  -6.410  0.00  0.00     0.033 H 
ATOM     18  H   LIG d   1       5.206  -1.553  -3.641  0.00  0.00     0.095 H 
BRANCH   7  19
ATOM     19  C   LIG d   1       3.674  -0.001  -2.720  0.00  0.00    -0.026 C 
ATOM     20  H   LIG d   1       2.617   0.266  -2.688  0.00  0.00     0.085 H 
BRANCH  19  21
ATOM     21  C   LIG d   1       3.836  -1.485  -2.381  0.00  0.00    -0.022 C 
ATOM     22  H   LIG d   1       2.862  -1.973  -2.411  0.00  0.00     0.028 H 
ATOM     23  H   LIG d   1       4.501  -1.953  -3.107  0.00  0.00     0.028 H 
ATOM     24  H   LIG d   1       4.260  -1.584  -1.382  0.00  0.00     0.028 H 
ENDBRANCH  19  21
BRANCH  19  25
ATOM     25  C   LIG d   1       4.445   0.843  -1.702  0.00  0.00    -0.022 C 
ATOM     26  H   LIG d   1       3.970   1.818  -1.606  0.00  0.00     0.028 H 
ATOM     27  H   LIG d   1       4.441   0.339  -0.735  0.00  0.00     0.028 H 
ATOM     28  H   LIG d   1       5.473   0.970  -2.041  0.00  0.00     0.028 H 
ENDBRANCH  19  25
ENDBRANCH   7  19
ENDBRANCH   1   6
BRANCH   3  29
ATOM     29  C   LIG d   1       8.731   2.462  -5.581  0.00  0.00     0.084 A 
ATOM     30  C   LIG d   1       9.074   2.718  -6.913  0.00  0.00     0.226 A 
ATOM     31  N   LIG d   1       9.656   3.858  -7.247  0.00  0.00    -0.221 NA
ATOM     32  C   LIG d   1       9.943   4.781  -6.349  0.00  0.00     0.031 A 
ATOM     33  C   LIG d   1       9.639   4.597  -5.013  0.00  0.00    -0.043 A 
ATOM     34  H   LIG d   1      10.422   5.696  -6.663  0.00  0.00     0.083 H 
ATOM     35  C   LIG d   1       9.024   3.423  -4.611  0.00  0.00    -0.044 A 
ATOM     36  H   LIG d   1       9.879   5.362  -4.289  0.00  0.00     0.063 H 
ATOM     37  H   LIG d   1       8.776   3.255  -3.574  0.00  0.00     0.063 H 
BRANCH  30  38
ATOM     38  O   LIG d   1       8.803   1.796  -7.868  0.00  0.00    -0.474 OA
BRANCH  38  39
ATOM     39  C   LIG d   1       7.983   2.215  -8.961  0.00  0.00     0.115 C 
ATOM     40  H   LIG d   1       8.010   3.302  -9.038  0.00  0.00     0.072 H 
ATOM     41  H   LIG d   1       8.356   1.776  -9.885  0.00  0.00     0.072 H 
BRANCH  39  42
ATOM     42  C   LIG d   1       6.543   1.756  -8.723  0.00  0.00     0.081 C 
ATOM     43  H   LIG d   1       6.401   0.767  -9.157  0.00  0.00     0.059 H 
ATOM     44  H   LIG d   1       6.347   1.714  -7.651  0.00  0.00     0.059 H 
BRANCH  42  45
ATOM     45  O   LIG d   1       5.641   2.680  -9.336  0.00  0.00    -0.380 OA
BRANCH  45  46
ATOM     46  C   LIG d   1       4.263   2.329  -9.192  0.00  0.00     0.037 C 
ATOM     47  H   LIG d   1       3.923   2.595  -8.191  0.00  0.00     0.052 H 
ATOM     48  H   LIG d   1       3.672   2.868  -9.933  0.00  0.00     0.052 H 
ATOM     49  H   LIG d   1       4.144   1.256  -9.343  0.00  0.00     0.052 H 
ENDBRANCH  45  46
ENDBRANCH  42  45
ENDBRANCH  39  42
ENDBRANCH  38  39
ENDBRANCH  30  38
ENDBRANCH   3  29
TORSDOF 10
ENDMDL
MODEL 4
REMARK VINA RESULT:      -5.4      2.349      3.086
REMARK  10 active torsions:
REMARK  status: ('A' for Active; 'I' for Inactive)
REMARK    1  A    between atoms: C_1  and  C_2 
REMARK    2  A    between atoms: C_2  and  C_3 
REMARK    3  A    between atoms: C_2  and  N_4 
REMARK    4  A    between atoms: C_8  and  C_10 
REMARK    5  A    between atoms: C_12  and  C_15 
REMARK    6  A    between atoms: C_20  and  O_21 
REMARK    7  A    between atoms: O_21  and  C_22 
REMARK    8  A    between atoms: C_22  and  C_23 
REMARK    9  A    between atoms: C_23  and  O_24 
REMARK   10  A    between atoms: O_24  and  C_25 
ROOT
ATOM      1  C   LIG d   1       3.519   0.371  -5.086  0.00  0.00     0.276 A 
ATOM      2  N   LIG d   1       3.940  -0.067  -6.238  0.00  0.00    -0.186 NA
ATOM      3  C   LIG d   1       3.317   0.585  -7.236  0.00  0.00     0.207 A 
ATOM      4  N   LIG d   1       2.485   1.452  -6.712  0.00  0.00    -0.056 NA
ATOM      5  O   LIG d   1       2.601   1.323  -5.304  0.00  0.00    -0.332 OA
ENDROOT
BRANCH   1   6
ATOM      6  C   LIG d   1       3.982  -0.114  -3.737  0.00  0.00     0.060 C 
ATOM      7  N   LIG d   1       5.235  -0.879  -3.882  0.00  0.00     0.246 N 
ATOM      8  C   LIG d   1       6.287  -0.215  -3.082  0.00  0.00    -0.031 C 
ATOM      9  H   LIG d   1       5.511  -0.898  -4.853  0.00  0.00     0.204 HD
ATOM     10  C   LIG d   1       5.823   1.257  -2.962  0.00  0.00    -0.007 C 
ATOM     11  H   LIG d   1       6.359  -0.672  -2.096  0.00  0.00     0.082 H 
ATOM     12  H   LIG d   1       7.246  -0.270  -3.598  0.00  0.00     0.082 H 
ATOM     13  C   LIG d   1       4.286   1.092  -2.823  0.00  0.00     0.004 C 
ATOM     14  H   LIG d   1       6.247   1.729  -2.076  0.00  0.00     0.032 H 
ATOM     15  H   LIG d   1       6.075   1.821  -3.860  0.00  0.00     0.032 H 
ATOM     16  H   LIG d   1       4.015   0.871  -1.791  0.00  0.00     0.033 H 
ATOM     17  H   LIG d   1       3.769   1.984  -3.176  0.00  0.00     0.033 H 
ATOM     18  H   LIG d   1       3.217  -0.740  -3.282  0.00  0.00     0.095 H 
BRANCH   7  19
ATOM     19  C   LIG d   1       5.036  -2.250  -3.396  0.00  0.00    -0.026 C 
ATOM     20  H   LIG d   1       5.920  -2.571  -2.844  0.00  0.00     0.085 H 
BRANCH  19  21
ATOM     21  C   LIG d   1       3.815  -2.293  -2.475  0.00  0.00    -0.022 C 
ATOM     22  H   LIG d   1       3.315  -3.256  -2.579  0.00  0.00     0.028 H 
ATOM     23  H   LIG d   1       4.134  -2.158  -1.442  0.00  0.00     0.028 H 
ATOM     24  H   LIG d   1       3.126  -1.494  -2.750  0.00  0.00     0.028 H 
ENDBRANCH  19  21
BRANCH  19  25
ATOM     25  C   LIG d   1       4.811  -3.186  -4.586  0.00  0.00    -0.022 C 
ATOM     26  H   LIG d   1       5.773  -3.520  -4.972  0.00  0.00     0.028 H 
ATOM     27  H   LIG d   1       4.228  -4.049  -4.265  0.00  0.00     0.028 H 
ATOM     28  H   LIG d   1       4.270  -2.654  -5.369  0.00  0.00     0.028 H 
ENDBRANCH  19  25
ENDBRANCH   7  19
ENDBRANCH   1   6
BRANCH   3  29
ATOM     29  C   LIG d   1       3.534   0.361  -8.685  0.00  0.00     0.084 A 
ATOM     30  C   LIG d   1       3.497  -0.932  -9.218  0.00  0.00     0.226 A 
ATOM     31  N   LIG d   1       3.684  -1.129 -10.513  0.00  0.00    -0.221 NA
ATOM     32  C   LIG d   1       3.923  -0.130 -11.340  0.00  0.00     0.031 A 
ATOM     33  C   LIG d   1       3.980   1.175 -10.887  0.00  0.00    -0.043 A 
ATOM     34  H   LIG d   1       4.075  -0.334 -12.389  0.00  0.00     0.083 H 
ATOM     35  C   LIG d   1       3.784   1.436  -9.540  0.00  0.00    -0.044 A 
ATOM     36  H   LIG d   1       4.175   1.983 -11.576  0.00  0.00     0.063 H 
ATOM     37  H   LIG d   1       3.823   2.446  -9.161  0.00  0.00     0.063 H 
BRANCH  30  38
ATOM     38  O   LIG d   1       3.260  -1.990  -8.404  0.00  0.00    -0.474 OA
BRANCH  38  39
ATOM     39  C   LIG d   1       4.128  -3.118  -8.536  0.00  0.00     0.115 C 
ATOM     40  H   LIG d   1       4.859  -2.922  -9.322  0.00  0.00     0.072 H 
ATOM     41  H   LIG d   1       4.645  -3.291  -7.594  0.00  0.00     0.072 H 
BRANCH  39  42
ATOM     42  C   LIG d   1       3.305  -4.354  -8.903  0.00  0.00     0.081 C 
ATOM     43  H   LIG d   1       2.293  -4.050  -9.171  0.00  0.00     0.059 H 
ATOM     44  H   LIG d   1       3.768  -4.862  -9.749  0.00  0.00     0.059 H 
BRANCH  42  45
ATOM     45  O   LIG d   1       3.255  -5.242  -7.784  0.00  0.00    -0.380 OA
BRANCH  45  46
ATOM     46  C   LIG d   1       4.537  -5.684  -7.334  0.00  0.00     0.037 C 
ATOM     47  H   LIG d   1       5.121  -4.825  -7.003  0.00  0.00     0.052 H 
ATOM     48  H   LIG d   1       4.411  -6.380  -6.505  0.00  0.00     0.052 H 
ATOM     49  H   LIG d   1       5.057  -6.183  -8.152  0.00  0.00     0.052 H 
ENDBRANCH  45  46
ENDBRANCH  42  45
ENDBRANCH  39  42
ENDBRANCH  38  39
ENDBRANCH  30  38
ENDBRANCH   3  29
TORSDOF 10
ENDMDL
MODEL 5
REMARK VINA RESULT:      -5.4      2.485      3.837
REMARK  10 active torsions:
REMARK  status: ('A' for Active; 'I' for Inactive)
REMARK    1  A    between atoms: C_1  and  C_2 
REMARK    2  A    between atoms: C_2  and  C_3 
REMARK    3  A    between atoms: C_2  and  N_4 
REMARK    4  A    between atoms: C_8  and  C_10 
REMARK    5  A    between atoms: C_12  and  C_15 
REMARK    6  A    between atoms: C_20  and  O_21 
REMARK    7  A    between atoms: O_21  and  C_22 
REMARK    8  A    between atoms: C_22  and  C_23 
REMARK    9  A    between atoms: C_23  and  O_24 
REMARK   10  A    between atoms: O_24  and  C_25 
ROOT
ATOM      1  C   LIG d   1       4.476  -0.375  -5.758  0.00  0.00     0.276 A 
ATOM      2  N   LIG d   1       4.683  -0.707  -7.000  0.00  0.00    -0.186 NA
ATOM      3  C   LIG d   1       3.779  -0.104  -7.795  0.00  0.00     0.207 A 
ATOM      4  N   LIG d   1       2.985   0.623  -7.048  0.00  0.00    -0.056 NA
ATOM      5  O   LIG d   1       3.424   0.454  -5.709  0.00  0.00    -0.332 OA
ENDROOT
BRANCH   1   6
ATOM      6  C   LIG d   1       5.282  -0.847  -4.575  0.00  0.00     0.060 C 
ATOM      7  N   LIG d   1       4.482  -0.725  -3.343  0.00  0.00     0.246 N 
ATOM      8  C   LIG d   1       4.348  -2.066  -2.733  0.00  0.00    -0.031 C 
ATOM      9  H   LIG d   1       3.566  -0.362  -3.565  0.00  0.00     0.204 HD
ATOM     10  C   LIG d   1       4.541  -3.055  -3.909  0.00  0.00    -0.007 C 
ATOM     11  H   LIG d   1       5.118  -2.219  -1.979  0.00  0.00     0.082 H 
ATOM     12  H   LIG d   1       3.356  -2.186  -2.296  0.00  0.00     0.082 H 
ATOM     13  C   LIG d   1       5.636  -2.340  -4.745  0.00  0.00     0.004 C 
ATOM     14  H   LIG d   1       4.893  -4.023  -3.551  0.00  0.00     0.032 H 
ATOM     15  H   LIG d   1       3.621  -3.164  -4.483  0.00  0.00     0.032 H 
ATOM     16  H   LIG d   1       6.626  -2.549  -4.342  0.00  0.00     0.033 H 
ATOM     17  H   LIG d   1       5.574  -2.634  -5.793  0.00  0.00     0.033 H 
ATOM     18  H   LIG d   1       6.193  -0.258  -4.485  0.00  0.00     0.095 H 
BRANCH   7  19
ATOM     19  C   LIG d   1       5.157   0.179  -2.403  0.00  0.00    -0.026 C 
ATOM     20  H   LIG d   1       5.509  -0.389  -1.541  0.00  0.00     0.085 H 
BRANCH  19  21
ATOM     21  C   LIG d   1       6.349   0.841  -3.098  0.00  0.00    -0.022 C 
ATOM     22  H   LIG d   1       6.155   1.908  -3.212  0.00  0.00     0.028 H 
ATOM     23  H   LIG d   1       7.247   0.696  -2.498  0.00  0.00     0.028 H 
ATOM     24  H   LIG d   1       6.491   0.390  -4.081  0.00  0.00     0.028 H 
ENDBRANCH  19  21
BRANCH  19  25
ATOM     25  C   LIG d   1       4.175   1.257  -1.936  0.00  0.00    -0.022 C 
ATOM     26  H   LIG d   1       4.199   1.323  -0.849  0.00  0.00     0.028 H 
ATOM     27  H   LIG d   1       4.459   2.218  -2.366  0.00  0.00     0.028 H 
ATOM     28  H   LIG d   1       3.168   0.996  -2.263  0.00  0.00     0.028 H 
ENDBRANCH  19  25
ENDBRANCH   7  19
ENDBRANCH   1   6
BRANCH   3  29
ATOM     29  C   LIG d   1       3.697  -0.240  -9.269  0.00  0.00     0.084 A 
ATOM     30  C   LIG d   1       3.147  -1.389  -9.848  0.00  0.00     0.226 A 
ATOM     31  N   LIG d   1       3.068  -1.505 -11.163  0.00  0.00    -0.221 NA
ATOM     32  C   LIG d   1       3.510  -0.561 -11.971  0.00  0.00     0.031 A 
ATOM     33  C   LIG d   1       4.071   0.600 -11.474  0.00  0.00    -0.043 A 
ATOM     34  H   LIG d   1       3.431  -0.697 -13.039  0.00  0.00     0.083 H 
ATOM     35  C   LIG d   1       4.172   0.775 -10.103  0.00  0.00    -0.044 A 
ATOM     36  H   LIG d   1       4.428   1.365 -12.148  0.00  0.00     0.063 H 
ATOM     37  H   LIG d   1       4.605   1.673  -9.690  0.00  0.00     0.063 H 
BRANCH  30  38
ATOM     38  O   LIG d   1       2.685  -2.387  -9.056  0.00  0.00    -0.474 OA
BRANCH  38  39
ATOM     39  C   LIG d   1       3.242  -3.688  -9.260  0.00  0.00     0.115 C 
ATOM     40  H   LIG d   1       2.435  -4.411  -9.391  0.00  0.00     0.072 H 
ATOM     41  H   LIG d   1       3.870  -3.679 -10.149  0.00  0.00     0.072 H 
BRANCH  39  42
ATOM     42  C   LIG d   1       4.083  -4.079  -8.044  0.00  0.00     0.081 C 
ATOM     43  H   LIG d   1       5.054  -4.447  -8.378  0.00  0.00     0.059 H 
ATOM     44  H   LIG d   1       4.225  -3.208  -7.404  0.00  0.00     0.059 H 
BRANCH  42  45
ATOM     45  O   LIG d   1       3.412  -5.105  -7.309  0.00  0.00    -0.380 OA
BRANCH  45  46
ATOM     46  C   LIG d   1       4.256  -5.819  -6.404  0.00  0.00     0.037 C 
ATOM     47  H   LIG d   1       4.164  -5.388  -5.406  0.00  0.00     0.052 H 
ATOM     48  H   LIG d   1       3.956  -6.867  -6.376  0.00  0.00     0.052 H 
ATOM     49  H   LIG d   1       5.291  -5.745  -6.737  0.00  0.00     0.052 H 
ENDBRANCH  45  46
ENDBRANCH  42  45
ENDBRANCH  39  42
ENDBRANCH  38  39
ENDBRANCH  30  38
ENDBRANCH   3  29
TORSDOF 10
ENDMDL
MODEL 6
REMARK VINA RESULT:      -5.4      3.816      6.451
REMARK  10 active torsions:
REMARK  status: ('A' for Active; 'I' for Inactive)
REMARK    1  A    between atoms: C_1  and  C_2 
REMARK    2  A    between atoms: C_2  and  C_3 
REMARK    3  A    between atoms: C_2  and  N_4 
REMARK    4  A    between atoms: C_8  and  C_10 
REMARK    5  A    between atoms: C_12  and  C_15 
REMARK    6  A    between atoms: C_20  and  O_21 
REMARK    7  A    between atoms: O_21  and  C_22 
REMARK    8  A    between atoms: C_22  and  C_23 
REMARK    9  A    between atoms: C_23  and  O_24 
REMARK   10  A    between atoms: O_24  and  C_25 
ROOT
ATOM      1  C   LIG d   1       7.056   1.018  -4.067  0.00  0.00     0.276 A 
ATOM      2  N   LIG d   1       7.882   1.871  -3.533  0.00  0.00    -0.186 NA
ATOM      3  C   LIG d   1       8.522   2.558  -4.497  0.00  0.00     0.207 A 
ATOM      4  N   LIG d   1       8.097   2.136  -5.662  0.00  0.00    -0.056 NA
ATOM      5  O   LIG d   1       7.138   1.123  -5.400  0.00  0.00    -0.332 OA
ENDROOT
BRANCH   1   6
ATOM      6  C   LIG d   1       6.161   0.069  -3.311  0.00  0.00     0.060 C 
ATOM      7  N   LIG d   1       4.864  -0.054  -4.001  0.00  0.00     0.246 N 
ATOM      8  C   LIG d   1       4.660  -1.471  -4.374  0.00  0.00    -0.031 C 
ATOM      9  H   LIG d   1       4.866   0.517  -4.834  0.00  0.00     0.204 HD
ATOM     10  C   LIG d   1       6.087  -2.068  -4.450  0.00  0.00    -0.007 C 
ATOM     11  H   LIG d   1       4.075  -1.983  -3.611  0.00  0.00     0.082 H 
ATOM     12  H   LIG d   1       4.167  -1.541  -5.343  0.00  0.00     0.082 H 
ATOM     13  C   LIG d   1       6.796  -1.337  -3.280  0.00  0.00     0.004 C 
ATOM     14  H   LIG d   1       6.068  -3.145  -4.284  0.00  0.00     0.032 H 
ATOM     15  H   LIG d   1       6.560  -1.830  -5.403  0.00  0.00     0.032 H 
ATOM     16  H   LIG d   1       6.587  -1.833  -2.332  0.00  0.00     0.033 H 
ATOM     17  H   LIG d   1       7.870  -1.279  -3.456  0.00  0.00     0.033 H 
ATOM     18  H   LIG d   1       6.007   0.429  -2.295  0.00  0.00     0.095 H 
BRANCH   7  19
ATOM     19  C   LIG d   1       3.784   0.382  -3.106  0.00  0.00    -0.026 C 
ATOM     20  H   LIG d   1       3.246   1.213  -3.564  0.00  0.00     0.085 H 
BRANCH  19  21
ATOM     21  C   LIG d   1       2.819  -0.782  -2.868  0.00  0.00    -0.022 C 
ATOM     22  H   LIG d   1       1.835  -0.390  -2.610  0.00  0.00     0.028 H 
ATOM     23  H   LIG d   1       2.745  -1.383  -3.774  0.00  0.00     0.028 H 
ATOM     24  H   LIG d   1       3.190  -1.399  -2.051  0.00  0.00     0.028 H 
ENDBRANCH  19  21
BRANCH  19  25
ATOM     25  C   LIG d   1       4.379   0.833  -1.770  0.00  0.00    -0.022 C 
ATOM     26  H   LIG d   1       4.574   1.904  -1.803  0.00  0.00     0.028 H 
ATOM     27  H   LIG d   1       3.676   0.615  -0.967  0.00  0.00     0.028 H 
ATOM     28  H   LIG d   1       5.313   0.299  -1.590  0.00  0.00     0.028 H 
ENDBRANCH  19  25
ENDBRANCH   7  19
ENDBRANCH   1   6
BRANCH   3  29
ATOM     29  C   LIG d   1       9.537   3.615  -4.277  0.00  0.00     0.084 A 
ATOM     30  C   LIG d   1      10.779   3.303  -3.713  0.00  0.00     0.226 A 
ATOM     31  N   LIG d   1      11.686   4.247  -3.524  0.00  0.00    -0.221 NA
ATOM     32  C   LIG d   1      11.456   5.506  -3.843  0.00  0.00     0.031 A 
ATOM     33  C   LIG d   1      10.250   5.892  -4.399  0.00  0.00    -0.043 A 
ATOM     34  H   LIG d   1      12.221   6.247  -3.669  0.00  0.00     0.083 H 
ATOM     35  C   LIG d   1       9.268   4.942  -4.624  0.00  0.00    -0.044 A 
ATOM     36  H   LIG d   1      10.076   6.927  -4.656  0.00  0.00     0.063 H 
ATOM     37  H   LIG d   1       8.319   5.218  -5.057  0.00  0.00     0.063 H 
BRANCH  30  38
ATOM     38  O   LIG d   1      11.058   2.023  -3.365  0.00  0.00    -0.474 OA
BRANCH  38  39
ATOM     39  C   LIG d   1      12.308   1.488  -3.805  0.00  0.00     0.115 C 
ATOM     40  H   LIG d   1      12.757   2.165  -4.532  0.00  0.00     0.072 H 
ATOM     41  H   LIG d   1      12.976   1.376  -2.952  0.00  0.00     0.072 H 
BRANCH  39  42
ATOM     42  C   LIG d   1      12.077   0.122  -4.455  0.00  0.00     0.081 C 
ATOM     43  H   LIG d   1      12.978  -0.183  -4.986  0.00  0.00     0.059 H 
ATOM     44  H   LIG d   1      11.843  -0.612  -3.684  0.00  0.00     0.059 H 
BRANCH  42  45
ATOM     45  O   LIG d   1      10.988   0.210  -5.376  0.00  0.00    -0.380 OA
BRANCH  45  46
ATOM     46  C   LIG d   1      10.094  -0.903  -5.328  0.00  0.00     0.037 C 
ATOM     47  H   LIG d   1       9.178  -0.657  -5.866  0.00  0.00     0.052 H 
ATOM     48  H   LIG d   1      10.567  -1.769  -5.791  0.00  0.00     0.052 H 
ATOM     49  H   LIG d   1       9.855  -1.132  -4.290  0.00  0.00     0.052 H 
ENDBRANCH  45  46
ENDBRANCH  42  45
ENDBRANCH  39  42
ENDBRANCH  38  39
ENDBRANCH  30  38
ENDBRANCH   3  29
TORSDOF 10
ENDMDL
MODEL 7
REMARK VINA RESULT:      -5.2      2.024      4.289
REMARK  10 active torsions:
REMARK  status: ('A' for Active; 'I' for Inactive)
REMARK    1  A    between atoms: C_1  and  C_2 
REMARK    2  A    between atoms: C_2  and  C_3 
REMARK    3  A    between atoms: C_2  and  N_4 
REMARK    4  A    between atoms: C_8  and  C_10 
REMARK    5  A    between atoms: C_12  and  C_15 
REMARK    6  A    between atoms: C_20  and  O_21 
REMARK    7  A    between atoms: O_21  and  C_22 
REMARK    8  A    between atoms: C_22  and  C_23 
REMARK    9  A    between atoms: C_23  and  O_24 
REMARK   10  A    between atoms: O_24  and  C_25 
ROOT
ATOM      1  C   LIG d   1       6.819   0.775  -4.324  0.00  0.00     0.276 A 
ATOM      2  N   LIG d   1       7.094   0.518  -5.571  0.00  0.00    -0.186 NA
ATOM      3  C   LIG d   1       7.874   1.489  -6.081  0.00  0.00     0.207 A 
ATOM      4  N   LIG d   1       8.099   2.378  -5.145  0.00  0.00    -0.056 NA
ATOM      5  O   LIG d   1       7.412   1.928  -3.988  0.00  0.00    -0.332 OA
ENDROOT
BRANCH   1   6
ATOM      6  C   LIG d   1       5.974  -0.080  -3.415  0.00  0.00     0.060 C 
ATOM      7  N   LIG d   1       4.656  -0.315  -4.032  0.00  0.00     0.246 N 
ATOM      8  C   LIG d   1       4.470  -1.773  -4.205  0.00  0.00    -0.031 C 
ATOM      9  H   LIG d   1       4.615   0.139  -4.932  0.00  0.00     0.204 HD
ATOM     10  C   LIG d   1       5.905  -2.350  -4.258  0.00  0.00    -0.007 C 
ATOM     11  H   LIG d   1       3.924  -2.189  -3.359  0.00  0.00     0.082 H 
ATOM     12  H   LIG d   1       3.943  -1.979  -5.137  0.00  0.00     0.082 H 
ATOM     13  C   LIG d   1       6.641  -1.458  -3.223  0.00  0.00     0.004 C 
ATOM     14  H   LIG d   1       5.917  -3.396  -3.950  0.00  0.00     0.032 H 
ATOM     15  H   LIG d   1       6.338  -2.233  -5.251  0.00  0.00     0.032 H 
ATOM     16  H   LIG d   1       6.477  -1.828  -2.211  0.00  0.00     0.033 H 
ATOM     17  H   LIG d   1       7.707  -1.406  -3.448  0.00  0.00     0.033 H 
ATOM     18  H   LIG d   1       5.850   0.410  -2.451  0.00  0.00     0.095 H 
BRANCH   7  19
ATOM     19  C   LIG d   1       3.600   0.217  -3.160  0.00  0.00    -0.026 C 
ATOM     20  H   LIG d   1       3.041   0.985  -3.695  0.00  0.00     0.085 H 
BRANCH  19  21
ATOM     21  C   LIG d   1       2.654  -0.915  -2.756  0.00  0.00    -0.022 C 
ATOM     22  H   LIG d   1       2.488  -0.883  -1.679  0.00  0.00     0.028 H 
ATOM     23  H   LIG d   1       1.702  -0.797  -3.275  0.00  0.00     0.028 H 
ATOM     24  H   LIG d   1       3.098  -1.873  -3.026  0.00  0.00     0.028 H 
ENDBRANCH  19  21
BRANCH  19  25
ATOM     25  C   LIG d   1       4.232   0.826  -1.906  0.00  0.00    -0.022 C 
ATOM     26  H   LIG d   1       5.193   1.269  -2.163  0.00  0.00     0.028 H 
ATOM     27  H   LIG d   1       3.573   1.595  -1.504  0.00  0.00     0.028 H 
ATOM     28  H   LIG d   1       4.380   0.046  -1.159  0.00  0.00     0.028 H 
ENDBRANCH  19  25
ENDBRANCH   7  19
ENDBRANCH   1   6
BRANCH   3  29
ATOM     29  C   LIG d   1       8.391   1.544  -7.469  0.00  0.00     0.084 A 
ATOM     30  C   LIG d   1       7.522   1.761  -8.544  0.00  0.00     0.226 A 
ATOM     31  N   LIG d   1       7.987   1.816  -9.781  0.00  0.00    -0.221 NA
ATOM     32  C   LIG d   1       9.268   1.659 -10.049  0.00  0.00     0.031 A 
ATOM     33  C   LIG d   1      10.187   1.436  -9.041  0.00  0.00    -0.043 A 
ATOM     34  H   LIG d   1       9.607   1.707 -11.073  0.00  0.00     0.083 H 
ATOM     35  C   LIG d   1       9.753   1.375  -7.726  0.00  0.00    -0.044 A 
ATOM     36  H   LIG d   1      11.234   1.310  -9.275  0.00  0.00     0.063 H 
ATOM     37  H   LIG d   1      10.451   1.202  -6.921  0.00  0.00     0.063 H 
BRANCH  30  38
ATOM     38  O   LIG d   1       6.195   1.922  -8.316  0.00  0.00    -0.474 OA
BRANCH  38  39
ATOM     39  C   LIG d   1       5.307   1.578  -9.382  0.00  0.00     0.115 C 
ATOM     40  H   LIG d   1       5.402   2.311 -10.184  0.00  0.00     0.072 H 
ATOM     41  H   LIG d   1       5.560   0.589  -9.761  0.00  0.00     0.072 H 
BRANCH  39  42
ATOM     42  C   LIG d   1       3.868   1.573  -8.864  0.00  0.00     0.081 C 
ATOM     43  H   LIG d   1       3.461   2.583  -8.913  0.00  0.00     0.059 H 
ATOM     44  H   LIG d   1       3.262   0.907  -9.478  0.00  0.00     0.059 H 
BRANCH  42  45
ATOM     45  O   LIG d   1       3.850   1.118  -7.508  0.00  0.00    -0.380 OA
BRANCH  45  46
ATOM     46  C   LIG d   1       2.926   0.057  -7.264  0.00  0.00     0.037 C 
ATOM     47  H   LIG d   1       3.171  -0.793  -7.901  0.00  0.00     0.052 H 
ATOM     48  H   LIG d   1       2.987  -0.245  -6.217  0.00  0.00     0.052 H 
ATOM     49  H   LIG d   1       1.914   0.397  -7.486  0.00  0.00     0.052 H 
ENDBRANCH  45  46
ENDBRANCH  42  45
ENDBRANCH  39  42
ENDBRANCH  38  39
ENDBRANCH  30  38
ENDBRANCH   3  29
TORSDOF 10
ENDMDL
MODEL 8
REMARK VINA RESULT:      -5.2      1.863      2.745
REMARK  10 active torsions:
REMARK  status: ('A' for Active; 'I' for Inactive)
REMARK    1  A    between atoms: C_1  and  C_2 
REMARK    2  A    between atoms: C_2  and  C_3 
REMARK    3  A    between atoms: C_2  and  N_4 
REMARK    4  A    between atoms: C_8  and  C_10 
REMARK    5  A    between atoms: C_12  and  C_15 
REMARK    6  A    between atoms: C_20  and  O_21 
REMARK    7  A    between atoms: O_21  and  C_22 
REMARK    8  A    between atoms: C_22  and  C_23 
REMARK    9  A    between atoms: C_23  and  O_24 
REMARK   10  A    between atoms: O_24  and  C_25 
ROOT
ATOM      1  C   LIG d   1       3.704  -0.047  -6.312  0.00  0.00     0.276 A 
ATOM      2  N   LIG d   1       3.608  -0.728  -7.417  0.00  0.00    -0.186 NA
ATOM      3  C   LIG d   1       2.961  -0.005  -8.350  0.00  0.00     0.207 A 
ATOM      4  N   LIG d   1       2.640   1.154  -7.830  0.00  0.00    -0.056 NA
ATOM      5  O   LIG d   1       3.115   1.142  -6.493  0.00  0.00    -0.332 OA
ENDROOT
BRANCH   1   6
ATOM      6  C   LIG d   1       4.362  -0.521  -5.041  0.00  0.00     0.060 C 
ATOM      7  N   LIG d   1       3.622  -1.671  -4.491  0.00  0.00     0.246 N 
ATOM      8  C   LIG d   1       4.539  -2.830  -4.418  0.00  0.00    -0.031 C 
ATOM      9  H   LIG d   1       2.844  -1.895  -5.094  0.00  0.00     0.204 HD
ATOM     10  C   LIG d   1       5.629  -2.539  -5.479  0.00  0.00    -0.007 C 
ATOM     11  H   LIG d   1       4.984  -2.898  -3.426  0.00  0.00     0.082 H 
ATOM     12  H   LIG d   1       4.007  -3.750  -4.662  0.00  0.00     0.082 H 
ATOM     13  C   LIG d   1       5.797  -1.002  -5.343  0.00  0.00     0.004 C 
ATOM     14  H   LIG d   1       6.557  -3.057  -5.236  0.00  0.00     0.032 H 
ATOM     15  H   LIG d   1       5.284  -2.807  -6.477  0.00  0.00     0.032 H 
ATOM     16  H   LIG d   1       6.466  -0.760  -4.518  0.00  0.00     0.033 H 
ATOM     17  H   LIG d   1       6.161  -0.571  -6.276  0.00  0.00     0.033 H 
ATOM     18  H   LIG d   1       4.388   0.287  -4.311  0.00  0.00     0.095 H 
BRANCH   7  19
ATOM     19  C   LIG d   1       3.129  -1.345  -3.147  0.00  0.00    -0.026 C 
ATOM     20  H   LIG d   1       2.129  -1.761  -3.016  0.00  0.00     0.085 H 
BRANCH  19  21
ATOM     21  C   LIG d   1       4.071  -1.943  -2.100  0.00  0.00    -0.022 C 
ATOM     22  H   LIG d   1       4.452  -2.900  -2.458  0.00  0.00     0.028 H 
ATOM     23  H   LIG d   1       4.904  -1.261  -1.929  0.00  0.00     0.028 H 
ATOM     24  H   LIG d   1       3.527  -2.095  -1.168  0.00  0.00     0.028 H 
ENDBRANCH  19  21
BRANCH  19  25
ATOM     25  C   LIG d   1       3.076   0.175  -2.977  0.00  0.00    -0.022 C 
ATOM     26  H   LIG d   1       2.059   0.525  -3.155  0.00  0.00     0.028 H 
ATOM     27  H   LIG d   1       3.380   0.439  -1.964  0.00  0.00     0.028 H 
ATOM     28  H   LIG d   1       3.752   0.644  -3.692  0.00  0.00     0.028 H 
ENDBRANCH  19  25
ENDBRANCH   7  19
ENDBRANCH   1   6
BRANCH   3  29
ATOM     29  C   LIG d   1       2.662  -0.446  -9.733  0.00  0.00     0.084 A 
ATOM     30  C   LIG d   1       3.560  -0.183 -10.774  0.00  0.00     0.226 A 
ATOM     31  N   LIG d   1       3.293  -0.583 -12.006  0.00  0.00    -0.221 NA
ATOM     32  C   LIG d   1       2.180  -1.226 -12.302  0.00  0.00     0.031 A 
ATOM     33  C   LIG d   1       1.243  -1.517 -11.329  0.00  0.00    -0.043 A 
ATOM     34  H   LIG d   1       1.999  -1.532 -13.322  0.00  0.00     0.083 H 
ATOM     35  C   LIG d   1       1.476  -1.125 -10.021  0.00  0.00    -0.044 A 
ATOM     36  H   LIG d   1       0.336  -2.045 -11.586  0.00  0.00     0.063 H 
ATOM     37  H   LIG d   1       0.760  -1.341  -9.242  0.00  0.00     0.063 H 
BRANCH  30  38
ATOM     38  O   LIG d   1       4.714   0.480 -10.517  0.00  0.00    -0.474 OA
BRANCH  38  39
ATOM     39  C   LIG d   1       5.924  -0.278 -10.575  0.00  0.00     0.115 C 
ATOM     40  H   LIG d   1       5.689  -1.321 -10.786  0.00  0.00     0.072 H 
ATOM     41  H   LIG d   1       6.563   0.118 -11.363  0.00  0.00     0.072 H 
BRANCH  39  42
ATOM     42  C   LIG d   1       6.651  -0.181  -9.232  0.00  0.00     0.081 C 
ATOM     43  H   LIG d   1       7.565   0.399  -9.355  0.00  0.00     0.059 H 
ATOM     44  H   LIG d   1       6.005   0.309  -8.503  0.00  0.00     0.059 H 
BRANCH  42  45
ATOM     45  O   LIG d   1       6.979  -1.494  -8.772  0.00  0.00    -0.380 OA
BRANCH  45  46
ATOM     46  C   LIG d   1       6.125  -2.520  -9.283  0.00  0.00     0.037 C 
ATOM     47  H   LIG d   1       6.571  -3.495  -9.085  0.00  0.00     0.052 H 
ATOM     48  H   LIG d   1       5.152  -2.459  -8.795  0.00  0.00     0.052 H 
ATOM     49  H   LIG d   1       6.003  -2.388 -10.358  0.00  0.00     0.052 H 
ENDBRANCH  45  46
ENDBRANCH  42  45
ENDBRANCH  39  42
ENDBRANCH  38  39
ENDBRANCH  30  38
ENDBRANCH   3  29
TORSDOF 10
ENDMDL
MODEL 9
REMARK VINA RESULT:      -5.2      3.348      5.583
REMARK  10 active torsions:
REMARK  status: ('A' for Active; 'I' for Inactive)
REMARK    1  A    between atoms: C_1  and  C_2 
REMARK    2  A    between atoms: C_2  and  C_3 
REMARK    3  A    between atoms: C_2  and  N_4 
REMARK    4  A    between atoms: C_8  and  C_10 
REMARK    5  A    between atoms: C_12  and  C_15 
REMARK    6  A    between atoms: C_20  and  O_21 
REMARK    7  A    between atoms: O_21  and  C_22 
REMARK    8  A    between atoms: C_22  and  C_23 
REMARK    9  A    between atoms: C_23  and  O_24 
REMARK   10  A    between atoms: O_24  and  C_25 
ROOT
ATOM      1  C   LIG d   1       6.487  -0.242  -4.745  0.00  0.00     0.276 A 
ATOM      2  N   LIG d   1       6.729   0.917  -5.286  0.00  0.00    -0.186 NA
ATOM      3  C   LIG d   1       8.055   1.091  -5.434  0.00  0.00     0.207 A 
ATOM      4  N   LIG d   1       8.668   0.025  -4.979  0.00  0.00    -0.056 NA
ATOM      5  O   LIG d   1       7.656  -0.857  -4.520  0.00  0.00    -0.332 OA
ENDROOT
BRANCH   1   6
ATOM      6  C   LIG d   1       5.123  -0.796  -4.423  0.00  0.00     0.060 C 
ATOM      7  N   LIG d   1       4.224   0.296  -4.009  0.00  0.00     0.246 N 
ATOM      8  C   LIG d   1       3.074   0.338  -4.939  0.00  0.00    -0.031 C 
ATOM      9  H   LIG d   1       4.718   1.176  -4.044  0.00  0.00     0.204 HD
ATOM     10  C   LIG d   1       3.596  -0.318  -6.242  0.00  0.00    -0.007 C 
ATOM     11  H   LIG d   1       2.239  -0.233  -4.536  0.00  0.00     0.082 H 
ATOM     12  H   LIG d   1       2.776   1.369  -5.127  0.00  0.00     0.082 H 
ATOM     13  C   LIG d   1       4.509  -1.441  -5.683  0.00  0.00     0.004 C 
ATOM     14  H   LIG d   1       2.774  -0.736  -6.824  0.00  0.00     0.032 H 
ATOM     15  H   LIG d   1       4.170   0.393  -6.834  0.00  0.00     0.032 H 
ATOM     16  H   LIG d   1       3.921  -2.320  -5.418  0.00  0.00     0.033 H 
ATOM     17  H   LIG d   1       5.287  -1.699  -6.403  0.00  0.00     0.033 H 
ATOM     18  H   LIG d   1       5.199  -1.535  -3.627  0.00  0.00     0.095 H 
BRANCH   7  19
ATOM     19  C   LIG d   1       3.745   0.052  -2.643  0.00  0.00    -0.026 C 
ATOM     20  H   LIG d   1       2.682   0.287  -2.583  0.00  0.00     0.085 H 
BRANCH  19  21
ATOM     21  C   LIG d   1       3.962  -1.420  -2.282  0.00  0.00    -0.022 C 
ATOM     22  H   LIG d   1       4.049  -2.008  -3.196  0.00  0.00     0.028 H 
ATOM     23  H   LIG d   1       4.876  -1.519  -1.697  0.00  0.00     0.028 H 
ATOM     24  H   LIG d   1       3.115  -1.779  -1.698  0.00  0.00     0.028 H 
ENDBRANCH  19  21
BRANCH  19  25
ATOM     25  C   LIG d   1       4.519   0.937  -1.664  0.00  0.00    -0.022 C 
ATOM     26  H   LIG d   1       4.968   0.316  -0.890  0.00  0.00     0.028 H 
ATOM     27  H   LIG d   1       5.303   1.473  -2.200  0.00  0.00     0.028 H 
ATOM     28  H   LIG d   1       3.838   1.654  -1.205  0.00  0.00     0.028 H 
ENDBRANCH  19  25
ENDBRANCH   7  19
ENDBRANCH   1   6
BRANCH   3  29
ATOM     29  C   LIG d   1       8.713   2.286  -6.013  0.00  0.00     0.084 A 
ATOM     30  C   LIG d   1       9.233   3.285  -5.182  0.00  0.00     0.226 A 
ATOM     31  N   LIG d   1       9.825   4.347  -5.701  0.00  0.00    -0.221 NA
ATOM     32  C   LIG d   1       9.937   4.513  -7.004  0.00  0.00     0.031 A 
ATOM     33  C   LIG d   1       9.442   3.573  -7.889  0.00  0.00    -0.043 A 
ATOM     34  H   LIG d   1      10.423   5.397  -7.388  0.00  0.00     0.083 H 
ATOM     35  C   LIG d   1       8.818   2.438  -7.397  0.00  0.00    -0.044 A 
ATOM     36  H   LIG d   1       9.541   3.722  -8.954  0.00  0.00     0.063 H 
ATOM     37  H   LIG d   1       8.424   1.689  -8.067  0.00  0.00     0.063 H 
BRANCH  30  38
ATOM     38  O   LIG d   1       9.136   3.159  -3.836  0.00  0.00    -0.474 OA
BRANCH  38  39
ATOM     39  C   LIG d   1      10.318   2.766  -3.134  0.00  0.00     0.115 C 
ATOM     40  H   LIG d   1      10.084   1.935  -2.467  0.00  0.00     0.072 H 
ATOM     41  H   LIG d   1      11.078   2.455  -3.848  0.00  0.00     0.072 H 
BRANCH  39  42
ATOM     42  C   LIG d   1      10.840   3.946  -2.314  0.00  0.00     0.081 C 
ATOM     43  H   LIG d   1      11.073   3.612  -1.303  0.00  0.00     0.059 H 
ATOM     44  H   LIG d   1      11.741   4.345  -2.781  0.00  0.00     0.059 H 
BRANCH  42  45
ATOM     45  O   LIG d   1       9.841   4.968  -2.258  0.00  0.00    -0.380 OA
BRANCH  45  46
ATOM     46  C   LIG d   1      10.324   6.272  -2.585  0.00  0.00     0.037 C 
ATOM     47  H   LIG d   1      10.702   6.274  -3.608  0.00  0.00     0.052 H 
ATOM     48  H   LIG d   1       9.512   6.994  -2.496  0.00  0.00     0.052 H 
ATOM     49  H   LIG d   1      11.128   6.543  -1.901  0.00  0.00     0.052 H 
ENDBRANCH  45  46
ENDBRANCH  42  45
ENDBRANCH  39  42
ENDBRANCH  38  39
ENDBRANCH  30  38
ENDBRANCH   3  29
TORSDOF 10
ENDMDL
