MODEL 1
REMARK VINA RESULT:      -6.7      0.000      0.000
REMARK  9 active torsions:
REMARK  status: ('A' for Active; 'I' for Inactive)
REMARK    1  A    between atoms: C_1  and  C_2 
REMARK    2  A    between atoms: C_2  and  C_3 
REMARK    3  A    between atoms: C_2  and  C_11 
REMARK    4  A    between atoms: C_2  and  O_27 
REMARK    5  A    between atoms: C_3  and  C_4 
REMARK    6  A    between atoms: C_4  and  C_5 
REMARK    7  A    between atoms: C_12  and  C_13 
REMARK    8  A    between atoms: C_13  and  N_14 
REMARK    9  A    between atoms: C_19  and  C_21 
ROOT
ATOM      1  C   LIG d   1       6.824  -1.203  -7.157  0.00  0.00     0.061 C 
ATOM      2  H   LIG d   1       7.044  -1.728  -8.087  0.00  0.00     0.056 H 
ATOM      3  H   LIG d   1       7.542  -0.395  -7.017  0.00  0.00     0.056 H 
ENDROOT
BRANCH   1   4
ATOM      4  C   LIG d   1       5.463  -0.644  -7.220  0.00  0.00    -0.084 C 
ATOM      5  C   LIG d   1       4.379  -0.198  -7.270  0.00  0.00    -0.067 C 
BRANCH   5   6
ATOM      6  C   LIG d   1       3.018   0.360  -7.331  0.00  0.00     0.124 C 
BRANCH   6   7
ATOM      7  C   LIG d   1       2.269  -0.249  -8.518  0.00  0.00    -0.025 C 
ATOM      8  H   LIG d   1       2.943  -0.900  -9.076  0.00  0.00     0.027 H 
ATOM      9  H   LIG d   1       1.421  -0.828  -8.154  0.00  0.00     0.027 H 
ATOM     10  H   LIG d   1       1.913   0.548  -9.170  0.00  0.00     0.027 H 
ENDBRANCH   6   7
BRANCH   6  11
ATOM     11  C   LIG d   1       2.274   0.031  -6.035  0.00  0.00    -0.009 C 
ATOM     12  H   LIG d   1       1.202   0.002  -6.229  0.00  0.00     0.031 H 
ATOM     13  H   LIG d   1       2.604  -0.939  -5.663  0.00  0.00     0.031 H 
BRANCH  11  14
ATOM     14  C   LIG d   1       2.574   1.107  -4.988  0.00  0.00    -0.024 C 
ATOM     15  H   LIG d   1       3.228   1.863  -5.421  0.00  0.00     0.031 H 
ATOM     16  H   LIG d   1       1.641   1.572  -4.669  0.00  0.00     0.031 H 
BRANCH  14  17
ATOM     17  C   LIG d   1       3.254   0.476  -3.800  0.00  0.00    -0.047 A 
ATOM     18  C   LIG d   1       3.752   1.272  -2.785  0.00  0.00    -0.059 A 
ATOM     19  C   LIG d   1       4.371   0.693  -1.694  0.00  0.00    -0.061 A 
ATOM     20  H   LIG d   1       3.654   2.346  -2.845  0.00  0.00     0.062 H 
ATOM     21  C   LIG d   1       4.502  -0.681  -1.621  0.00  0.00    -0.062 A 
ATOM     22  H   LIG d   1       4.757   1.315  -0.900  0.00  0.00     0.062 H 
ATOM     23  C   LIG d   1       4.009  -1.477  -2.639  0.00  0.00    -0.061 A 
ATOM     24  H   LIG d   1       4.989  -1.134  -0.770  0.00  0.00     0.062 H 
ATOM     25  C   LIG d   1       3.385  -0.899  -3.728  0.00  0.00    -0.059 A 
ATOM     26  H   LIG d   1       4.111  -2.551  -2.583  0.00  0.00     0.062 H 
ATOM     27  H   LIG d   1       3.000  -1.520  -4.523  0.00  0.00     0.062 H 
ENDBRANCH  14  17
ENDBRANCH  11  14
ENDBRANCH   6  11
BRANCH   6  28
ATOM     28  O   LIG d   1       3.092   1.778  -7.491  0.00  0.00    -0.377 OA
ATOM     29  H   LIG d   1       3.098   2.269  -6.658  0.00  0.00     0.211 HD
ENDBRANCH   6  28
ENDBRANCH   5   6
ENDBRANCH   1   4
BRANCH   1  30
ATOM     30  N   LIG d   1       6.916  -2.142  -6.031  0.00  0.00    -0.284 N 
ATOM     31  C   LIG d   1       8.145  -1.919  -5.259  0.00  0.00     0.038 C 
ATOM     32  C   LIG d   1       8.137  -2.811  -4.016  0.00  0.00    -0.033 C 
ATOM     33  H   LIG d   1       9.010  -2.162  -5.876  0.00  0.00     0.051 H 
ATOM     34  C   LIG d   1       8.042  -4.277  -4.447  0.00  0.00    -0.050 C 
ATOM     35  H   LIG d   1       7.280  -2.559  -3.392  0.00  0.00     0.028 H 
ATOM     36  H   LIG d   1       9.057  -2.656  -3.451  0.00  0.00     0.028 H 
ATOM     37  C   LIG d   1       6.779  -4.472  -5.289  0.00  0.00    -0.040 C 
ATOM     38  H   LIG d   1       7.993  -4.914  -3.564  0.00  0.00     0.027 H 
ATOM     39  H   LIG d   1       8.919  -4.541  -5.038  0.00  0.00     0.027 H 
ATOM     40  C   LIG d   1       6.826  -3.532  -6.495  0.00  0.00     0.000 C 
ATOM     41  H   LIG d   1       5.900  -4.246  -4.685  0.00  0.00     0.028 H 
ATOM     42  H   LIG d   1       6.727  -5.504  -5.635  0.00  0.00     0.028 H 
ATOM     43  H   LIG d   1       5.921  -3.658  -7.090  0.00  0.00     0.043 H 
ATOM     44  H   LIG d   1       7.697  -3.768  -7.106  0.00  0.00     0.043 H 
BRANCH  31  45
ATOM     45  C   LIG d   1       8.219  -0.473  -4.839  0.00  0.00    -0.012 A 
ATOM     46  C   LIG d   1       9.285   0.314  -5.230  0.00  0.00     0.032 A 
ATOM     47  N   LIG d   1       9.353   1.582  -4.873  0.00  0.00    -0.263 NA
ATOM     48  H   LIG d   1      10.068  -0.112  -5.839  0.00  0.00     0.083 H 
ATOM     49  C   LIG d   1       8.424   2.143  -4.125  0.00  0.00     0.028 A 
ATOM     50  C   LIG d   1       7.331   1.416  -3.692  0.00  0.00    -0.043 A 
ATOM     51  H   LIG d   1       8.516   3.183  -3.848  0.00  0.00     0.083 H 
ATOM     52  C   LIG d   1       7.221   0.082  -4.052  0.00  0.00    -0.054 A 
ATOM     53  H   LIG d   1       6.572   1.881  -3.081  0.00  0.00     0.063 H 
ATOM     54  H   LIG d   1       6.378  -0.510  -3.729  0.00  0.00     0.062 H 
ENDBRANCH  31  45
ENDBRANCH   1  30
TORSDOF 9
ENDMDL
MODEL 2
REMARK VINA RESULT:      -6.5      1.330      3.721
REMARK  9 active torsions:
REMARK  status: ('A' for Active; 'I' for Inactive)
REMARK    1  A    between atoms: C_1  and  C_2 
REMARK    2  A    between atoms: C_2  and  C_3 
REMARK    3  A    between atoms: C_2  and  C_11 
REMARK    4  A    between atoms: C_2  and  O_27 
REMARK    5  A    between atoms: C_3  and  C_4 
REMARK    6  A    between atoms: C_4  and  C_5 
REMARK    7  A    between atoms: C_12  and  C_13 
REMARK    8  A    between atoms: C_13  and  N_14 
REMARK    9  A    between atoms: C_19  and  C_21 
ROOT
ATOM      1  C   LIG d   1       6.359  -2.132  -7.374  0.00  0.00     0.061 C 
ATOM      2  H   LIG d   1       6.074  -3.181  -7.463  0.00  0.00     0.056 H 
ATOM      3  H   LIG d   1       7.001  -1.858  -8.211  0.00  0.00     0.056 H 
ENDROOT
BRANCH   1   4
ATOM      4  C   LIG d   1       5.150  -1.292  -7.388  0.00  0.00    -0.084 C 
ATOM      5  C   LIG d   1       4.187  -0.622  -7.398  0.00  0.00    -0.067 C 
BRANCH   5   6
ATOM      6  C   LIG d   1       2.979   0.219  -7.411  0.00  0.00     0.124 C 
BRANCH   6   7
ATOM      7  C   LIG d   1       2.087  -0.186  -8.587  0.00  0.00    -0.025 C 
ATOM      8  H   LIG d   1       2.648  -0.835  -9.261  0.00  0.00     0.027 H 
ATOM      9  H   LIG d   1       1.212  -0.718  -8.213  0.00  0.00     0.027 H 
ATOM     10  H   LIG d   1       1.768   0.707  -9.124  0.00  0.00     0.027 H 
ENDBRANCH   6   7
BRANCH   6  11
ATOM     11  C   LIG d   1       2.212   0.029  -6.100  0.00  0.00    -0.009 C 
ATOM     12  H   LIG d   1       1.144   0.133  -6.285  0.00  0.00     0.031 H 
ATOM     13  H   LIG d   1       2.418  -0.964  -5.700  0.00  0.00     0.031 H 
BRANCH  11  14
ATOM     14  C   LIG d   1       2.660   1.087  -5.090  0.00  0.00    -0.024 C 
ATOM     15  H   LIG d   1       3.408   1.733  -5.548  0.00  0.00     0.031 H 
ATOM     16  H   LIG d   1       1.801   1.685  -4.785  0.00  0.00     0.031 H 
BRANCH  14  17
ATOM     17  C   LIG d   1       3.254   0.410  -3.882  0.00  0.00    -0.047 A 
ATOM     18  C   LIG d   1       3.966   1.149  -2.955  0.00  0.00    -0.059 A 
ATOM     19  C   LIG d   1       4.507   0.528  -1.845  0.00  0.00    -0.061 A 
ATOM     20  H   LIG d   1       4.096   2.212  -3.097  0.00  0.00     0.062 H 
ATOM     21  C   LIG d   1       4.346  -0.833  -1.666  0.00  0.00    -0.062 A 
ATOM     22  H   LIG d   1       5.060   1.106  -1.119  0.00  0.00     0.062 H 
ATOM     23  C   LIG d   1       3.639  -1.574  -2.597  0.00  0.00    -0.061 A 
ATOM     24  H   LIG d   1       4.771  -1.319  -0.801  0.00  0.00     0.062 H 
ATOM     25  C   LIG d   1       3.093  -0.952  -3.704  0.00  0.00    -0.059 A 
ATOM     26  H   LIG d   1       3.513  -2.637  -2.458  0.00  0.00     0.062 H 
ATOM     27  H   LIG d   1       2.542  -1.529  -4.431  0.00  0.00     0.062 H 
ENDBRANCH  14  17
ENDBRANCH  11  14
ENDBRANCH   6  11
BRANCH   6  28
ATOM     28  O   LIG d   1       3.354   1.591  -7.549  0.00  0.00    -0.377 OA
ATOM     29  H   LIG d   1       3.667   1.998  -6.729  0.00  0.00     0.211 HD
ENDBRANCH   6  28
ENDBRANCH   5   6
ENDBRANCH   1   4
BRANCH   1  30
ATOM     30  N   LIG d   1       7.084  -1.926  -6.113  0.00  0.00    -0.284 N 
ATOM     31  C   LIG d   1       6.301  -2.414  -4.970  0.00  0.00     0.038 C 
ATOM     32  C   LIG d   1       7.142  -2.318  -3.695  0.00  0.00    -0.033 C 
ATOM     33  H   LIG d   1       5.402  -1.807  -4.860  0.00  0.00     0.051 H 
ATOM     34  C   LIG d   1       7.553  -0.861  -3.470  0.00  0.00    -0.050 C 
ATOM     35  H   LIG d   1       8.033  -2.937  -3.800  0.00  0.00     0.028 H 
ATOM     36  H   LIG d   1       6.554  -2.667  -2.845  0.00  0.00     0.028 H 
ATOM     37  C   LIG d   1       8.325  -0.362  -4.694  0.00  0.00    -0.040 C 
ATOM     38  H   LIG d   1       8.189  -0.795  -2.587  0.00  0.00     0.027 H 
ATOM     39  H   LIG d   1       6.664  -0.249  -3.326  0.00  0.00     0.027 H 
ATOM     40  C   LIG d   1       7.451  -0.515  -5.940  0.00  0.00     0.000 C 
ATOM     41  H   LIG d   1       9.236  -0.950  -4.815  0.00  0.00     0.028 H 
ATOM     42  H   LIG d   1       8.585   0.687  -4.558  0.00  0.00     0.028 H 
ATOM     43  H   LIG d   1       8.003  -0.173  -6.817  0.00  0.00     0.043 H 
ATOM     44  H   LIG d   1       6.547   0.084  -5.825  0.00  0.00     0.043 H 
BRANCH  31  45
ATOM     45  C   LIG d   1       5.909  -3.851  -5.207  0.00  0.00    -0.012 A 
ATOM     46  C   LIG d   1       4.581  -4.228  -5.170  0.00  0.00     0.032 A 
ATOM     47  N   LIG d   1       4.229  -5.481  -5.383  0.00  0.00    -0.263 NA
ATOM     48  H   LIG d   1       3.821  -3.487  -4.969  0.00  0.00     0.083 H 
ATOM     49  C   LIG d   1       5.122  -6.420  -5.626  0.00  0.00     0.028 A 
ATOM     50  C   LIG d   1       6.470  -6.118  -5.673  0.00  0.00    -0.043 A 
ATOM     51  H   LIG d   1       4.797  -7.437  -5.790  0.00  0.00     0.083 H 
ATOM     52  C   LIG d   1       6.877  -4.810  -5.460  0.00  0.00    -0.054 A 
ATOM     53  H   LIG d   1       7.197  -6.891  -5.874  0.00  0.00     0.063 H 
ATOM     54  H   LIG d   1       7.924  -4.545  -5.492  0.00  0.00     0.062 H 
ENDBRANCH  31  45
ENDBRANCH   1  30
TORSDOF 9
ENDMDL
MODEL 3
REMARK VINA RESULT:      -6.4      1.057      3.323
REMARK  9 active torsions:
REMARK  status: ('A' for Active; 'I' for Inactive)
REMARK    1  A    between atoms: C_1  and  C_2 
REMARK    2  A    between atoms: C_2  and  C_3 
REMARK    3  A    between atoms: C_2  and  C_11 
REMARK    4  A    between atoms: C_2  and  O_27 
REMARK    5  A    between atoms: C_3  and  C_4 
REMARK    6  A    between atoms: C_4  and  C_5 
REMARK    7  A    between atoms: C_12  and  C_13 
REMARK    8  A    between atoms: C_13  and  N_14 
REMARK    9  A    between atoms: C_19  and  C_21 
ROOT
ATOM      1  C   LIG d   1       7.088  -0.395  -7.462  0.00  0.00     0.061 C 
ATOM      2  H   LIG d   1       7.220  -1.477  -7.473  0.00  0.00     0.056 H 
ATOM      3  H   LIG d   1       7.559   0.037  -8.344  0.00  0.00     0.056 H 
ENDROOT
BRANCH   1   4
ATOM      4  C   LIG d   1       5.652  -0.073  -7.464  0.00  0.00    -0.084 C 
ATOM      5  C   LIG d   1       4.507   0.183  -7.467  0.00  0.00    -0.067 C 
BRANCH   5   6
ATOM      6  C   LIG d   1       3.070   0.505  -7.469  0.00  0.00     0.124 C 
BRANCH   6   7
ATOM      7  C   LIG d   1       2.402  -0.151  -8.679  0.00  0.00    -0.025 C 
ATOM      8  H   LIG d   1       2.493   0.505  -9.545  0.00  0.00     0.027 H 
ATOM      9  H   LIG d   1       2.888  -1.103  -8.890  0.00  0.00     0.027 H 
ATOM     10  H   LIG d   1       1.347  -0.322  -8.462  0.00  0.00     0.027 H 
ENDBRANCH   6   7
BRANCH   6  11
ATOM     11  C   LIG d   1       2.428  -0.020  -6.183  0.00  0.00    -0.009 C 
ATOM     12  H   LIG d   1       1.375  -0.230  -6.363  0.00  0.00     0.031 H 
ATOM     13  H   LIG d   1       2.934  -0.935  -5.872  0.00  0.00     0.031 H 
BRANCH  11  14
ATOM     14  C   LIG d   1       2.558   1.034  -5.081  0.00  0.00    -0.024 C 
ATOM     15  H   LIG d   1       3.161   1.866  -5.444  0.00  0.00     0.031 H 
ATOM     16  H   LIG d   1       1.568   1.396  -4.806  0.00  0.00     0.031 H 
BRANCH  14  17
ATOM     17  C   LIG d   1       3.222   0.420  -3.875  0.00  0.00    -0.047 A 
ATOM     18  C   LIG d   1       3.016  -0.915  -3.577  0.00  0.00    -0.059 A 
ATOM     19  C   LIG d   1       3.628  -1.478  -2.474  0.00  0.00    -0.061 A 
ATOM     20  H   LIG d   1       2.380  -1.516  -4.209  0.00  0.00     0.062 H 
ATOM     21  C   LIG d   1       4.439  -0.706  -1.662  0.00  0.00    -0.062 A 
ATOM     22  H   LIG d   1       3.471  -2.521  -2.243  0.00  0.00     0.062 H 
ATOM     23  C   LIG d   1       4.640   0.630  -1.957  0.00  0.00    -0.061 A 
ATOM     24  H   LIG d   1       4.915  -1.145  -0.798  0.00  0.00     0.062 H 
ATOM     25  C   LIG d   1       4.032   1.193  -3.064  0.00  0.00    -0.059 A 
ATOM     26  H   LIG d   1       5.273   1.234  -1.324  0.00  0.00     0.062 H 
ATOM     27  H   LIG d   1       4.188   2.236  -3.294  0.00  0.00     0.062 H 
ENDBRANCH  14  17
ENDBRANCH  11  14
ENDBRANCH   6  11
BRANCH   6  28
ATOM     28  O   LIG d   1       2.900   1.923  -7.542  0.00  0.00    -0.377 OA
ATOM     29  H   LIG d   1       2.604   2.240  -8.406  0.00  0.00     0.211 HD
ENDBRANCH   6  28
ENDBRANCH   5   6
ENDBRANCH   1   4
BRANCH   1  30
ATOM     30  N   LIG d   1       7.711   0.161  -6.253  0.00  0.00    -0.284 N 
ATOM     31  C   LIG d   1       7.053  -0.344  -5.041  0.00  0.00     0.038 C 
ATOM     32  C   LIG d   1       7.816   0.138  -3.805  0.00  0.00    -0.033 C 
ATOM     33  H   LIG d   1       6.028   0.027  -5.003  0.00  0.00     0.051 H 
ATOM     34  C   LIG d   1       7.843   1.668  -3.793  0.00  0.00    -0.050 C 
ATOM     35  H   LIG d   1       8.835  -0.245  -3.835  0.00  0.00     0.028 H 
ATOM     36  H   LIG d   1       7.317  -0.225  -2.906  0.00  0.00     0.028 H 
ATOM     37  C   LIG d   1       8.490   2.169  -5.086  0.00  0.00    -0.040 C 
ATOM     38  H   LIG d   1       8.422   2.015  -2.937  0.00  0.00     0.027 H 
ATOM     39  H   LIG d   1       6.825   2.051  -3.723  0.00  0.00     0.027 H 
ATOM     40  C   LIG d   1       7.708   1.629  -6.285  0.00  0.00     0.000 C 
ATOM     41  H   LIG d   1       9.521   1.819  -5.137  0.00  0.00     0.028 H 
ATOM     42  H   LIG d   1       8.474   3.259  -5.103  0.00  0.00     0.028 H 
ATOM     43  H   LIG d   1       8.175   1.973  -7.209  0.00  0.00     0.043 H 
ATOM     44  H   LIG d   1       6.681   1.991  -6.242  0.00  0.00     0.043 H 
BRANCH  31  45
ATOM     45  C   LIG d   1       7.039  -1.851  -5.068  0.00  0.00    -0.012 A 
ATOM     46  C   LIG d   1       8.224  -2.560  -5.101  0.00  0.00     0.032 A 
ATOM     47  N   LIG d   1       8.220  -3.879  -5.118  0.00  0.00    -0.263 NA
ATOM     48  H   LIG d   1       9.164  -2.029  -5.109  0.00  0.00     0.083 H 
ATOM     49  C   LIG d   1       7.097  -4.570  -5.117  0.00  0.00     0.028 A 
ATOM     50  C   LIG d   1       5.873  -3.928  -5.090  0.00  0.00    -0.043 A 
ATOM     51  H   LIG d   1       7.134  -5.649  -5.136  0.00  0.00     0.083 H 
ATOM     52  C   LIG d   1       5.837  -2.543  -5.065  0.00  0.00    -0.054 A 
ATOM     53  H   LIG d   1       4.957  -4.499  -5.087  0.00  0.00     0.063 H 
ATOM     54  H   LIG d   1       4.895  -2.015  -5.042  0.00  0.00     0.062 H 
ENDBRANCH  31  45
ENDBRANCH   1  30
TORSDOF 9
ENDMDL
MODEL 4
REMARK VINA RESULT:      -6.3      3.076      5.569
REMARK  9 active torsions:
REMARK  status: ('A' for Active; 'I' for Inactive)
REMARK    1  A    between atoms: C_1  and  C_2 
REMARK    2  A    between atoms: C_2  and  C_3 
REMARK    3  A    between atoms: C_2  and  C_11 
REMARK    4  A    between atoms: C_2  and  O_27 
REMARK    5  A    between atoms: C_3  and  C_4 
REMARK    6  A    between atoms: C_4  and  C_5 
REMARK    7  A    between atoms: C_12  and  C_13 
REMARK    8  A    between atoms: C_13  and  N_14 
REMARK    9  A    between atoms: C_19  and  C_21 
ROOT
ATOM      1  C   LIG d   1       5.258  -1.871  -9.137  0.00  0.00     0.061 C 
ATOM      2  H   LIG d   1       5.266  -0.796  -8.959  0.00  0.00     0.056 H 
ATOM      3  H   LIG d   1       6.141  -2.151  -9.712  0.00  0.00     0.056 H 
ENDROOT
BRANCH   1   4
ATOM      4  C   LIG d   1       5.264  -2.584  -7.849  0.00  0.00    -0.084 C 
ATOM      5  C   LIG d   1       5.269  -3.151  -6.822  0.00  0.00    -0.067 C 
BRANCH   5   6
ATOM      6  C   LIG d   1       5.276  -3.863  -5.534  0.00  0.00     0.124 C 
BRANCH   6   7
ATOM      7  C   LIG d   1       6.358  -4.944  -5.554  0.00  0.00    -0.025 C 
ATOM      8  H   LIG d   1       6.895  -4.903  -6.501  0.00  0.00     0.027 H 
ATOM      9  H   LIG d   1       7.055  -4.777  -4.733  0.00  0.00     0.027 H 
ATOM     10  H   LIG d   1       5.894  -5.924  -5.443  0.00  0.00     0.027 H 
ENDBRANCH   6   7
BRANCH   6  11
ATOM     11  C   LIG d   1       5.567  -2.870  -4.405  0.00  0.00    -0.009 C 
ATOM     12  H   LIG d   1       6.414  -3.225  -3.819  0.00  0.00     0.031 H 
ATOM     13  H   LIG d   1       5.801  -1.895  -4.832  0.00  0.00     0.031 H 
BRANCH  11  14
ATOM     14  C   LIG d   1       4.336  -2.750  -3.503  0.00  0.00    -0.024 C 
ATOM     15  H   LIG d   1       3.465  -3.148  -4.022  0.00  0.00     0.031 H 
ATOM     16  H   LIG d   1       4.503  -3.315  -2.585  0.00  0.00     0.031 H 
BRANCH  14  17
ATOM     17  C   LIG d   1       4.101  -1.300  -3.166  0.00  0.00    -0.047 A 
ATOM     18  C   LIG d   1       3.357  -0.505  -4.018  0.00  0.00    -0.059 A 
ATOM     19  C   LIG d   1       3.137   0.824  -3.706  0.00  0.00    -0.061 A 
ATOM     20  H   LIG d   1       2.945  -0.923  -4.924  0.00  0.00     0.062 H 
ATOM     21  C   LIG d   1       3.670   1.360  -2.548  0.00  0.00    -0.062 A 
ATOM     22  H   LIG d   1       2.553   1.445  -4.369  0.00  0.00     0.062 H 
ATOM     23  C   LIG d   1       4.419   0.566  -1.700  0.00  0.00    -0.061 A 
ATOM     24  H   LIG d   1       3.501   2.399  -2.306  0.00  0.00     0.062 H 
ATOM     25  C   LIG d   1       4.634  -0.764  -2.009  0.00  0.00    -0.059 A 
ATOM     26  H   LIG d   1       4.835   0.984  -0.795  0.00  0.00     0.062 H 
ATOM     27  H   LIG d   1       5.220  -1.385  -1.346  0.00  0.00     0.062 H 
ENDBRANCH  14  17
ENDBRANCH  11  14
ENDBRANCH   6  11
BRANCH   6  28
ATOM     28  O   LIG d   1       4.000  -4.470  -5.317  0.00  0.00    -0.377 OA
ATOM     29  H   LIG d   1       3.632  -4.902  -6.100  0.00  0.00     0.211 HD
ENDBRANCH   6  28
ENDBRANCH   5   6
ENDBRANCH   1   4
BRANCH   1  30
ATOM     30  N   LIG d   1       4.049  -2.232  -9.890  0.00  0.00    -0.284 N 
ATOM     31  C   LIG d   1       2.855  -1.618  -9.295  0.00  0.00     0.038 C 
ATOM     32  C   LIG d   1       1.640  -1.894 -10.184  0.00  0.00    -0.033 C 
ATOM     33  H   LIG d   1       2.684  -2.041  -8.305  0.00  0.00     0.051 H 
ATOM     34  C   LIG d   1       1.446  -3.407 -10.318  0.00  0.00    -0.050 C 
ATOM     35  H   LIG d   1       1.804  -1.459 -11.170  0.00  0.00     0.028 H 
ATOM     36  H   LIG d   1       0.752  -1.451  -9.734  0.00  0.00     0.028 H 
ATOM     37  C   LIG d   1       2.720  -4.028 -10.895  0.00  0.00    -0.040 C 
ATOM     38  H   LIG d   1       0.608  -3.609 -10.986  0.00  0.00     0.027 H 
ATOM     39  H   LIG d   1       1.242  -3.837  -9.338  0.00  0.00     0.027 H 
ATOM     40  C   LIG d   1       3.903  -3.690  -9.986  0.00  0.00     0.000 C 
ATOM     41  H   LIG d   1       2.902  -3.627 -11.892  0.00  0.00     0.028 H 
ATOM     42  H   LIG d   1       2.604  -5.110 -10.953  0.00  0.00     0.028 H 
ATOM     43  H   LIG d   1       4.816  -4.120 -10.401  0.00  0.00     0.043 H 
ATOM     44  H   LIG d   1       3.728  -4.104  -8.992  0.00  0.00     0.043 H 
BRANCH  31  45
ATOM     45  C   LIG d   1       3.062  -0.130  -9.176  0.00  0.00    -0.012 A 
ATOM     46  C   LIG d   1       2.915   0.501  -7.955  0.00  0.00     0.032 A 
ATOM     47  N   LIG d   1       3.102   1.801  -7.841  0.00  0.00    -0.263 NA
ATOM     48  H   LIG d   1       2.649  -0.079  -7.084  0.00  0.00     0.083 H 
ATOM     49  C   LIG d   1       3.421   2.550  -8.879  0.00  0.00     0.028 A 
ATOM     50  C   LIG d   1       3.580   1.989 -10.132  0.00  0.00    -0.043 A 
ATOM     51  H   LIG d   1       3.561   3.613  -8.747  0.00  0.00     0.083 H 
ATOM     52  C   LIG d   1       3.398   0.624 -10.290  0.00  0.00    -0.054 A 
ATOM     53  H   LIG d   1       3.843   2.607 -10.978  0.00  0.00     0.063 H 
ATOM     54  H   LIG d   1       3.516   0.159 -11.257  0.00  0.00     0.062 H 
ENDBRANCH  31  45
ENDBRANCH   1  30
TORSDOF 9
ENDMDL
MODEL 5
REMARK VINA RESULT:      -6.2      2.507      5.477
REMARK  9 active torsions:
REMARK  status: ('A' for Active; 'I' for Inactive)
REMARK    1  A    between atoms: C_1  and  C_2 
REMARK    2  A    between atoms: C_2  and  C_3 
REMARK    3  A    between atoms: C_2  and  C_11 
REMARK    4  A    between atoms: C_2  and  O_27 
REMARK    5  A    between atoms: C_3  and  C_4 
REMARK    6  A    between atoms: C_4  and  C_5 
REMARK    7  A    between atoms: C_12  and  C_13 
REMARK    8  A    between atoms: C_13  and  N_14 
REMARK    9  A    between atoms: C_19  and  C_21 
ROOT
ATOM      1  C   LIG d   1       6.512   0.300  -8.348  0.00  0.00     0.061 C 
ATOM      2  H   LIG d   1       6.979   0.866  -9.155  0.00  0.00     0.056 H 
ATOM      3  H   LIG d   1       6.653  -0.767  -8.524  0.00  0.00     0.056 H 
ENDROOT
BRANCH   1   4
ATOM      4  C   LIG d   1       7.130   0.672  -7.065  0.00  0.00    -0.084 C 
ATOM      5  C   LIG d   1       7.622   0.969  -6.042  0.00  0.00    -0.067 C 
BRANCH   5   6
ATOM      6  C   LIG d   1       8.241   1.340  -4.759  0.00  0.00     0.124 C 
BRANCH   6   7
ATOM      7  C   LIG d   1       8.699   2.799  -4.817  0.00  0.00    -0.025 C 
ATOM      8  H   LIG d   1       8.231   3.359  -4.007  0.00  0.00     0.027 H 
ATOM      9  H   LIG d   1       9.783   2.844  -4.712  0.00  0.00     0.027 H 
ATOM     10  H   LIG d   1       8.408   3.233  -5.774  0.00  0.00     0.027 H 
ENDBRANCH   6   7
BRANCH   6  11
ATOM     11  C   LIG d   1       7.220   1.170  -3.633  0.00  0.00    -0.009 C 
ATOM     12  H   LIG d   1       7.611   1.613  -2.718  0.00  0.00     0.031 H 
ATOM     13  H   LIG d   1       6.289   1.666  -3.909  0.00  0.00     0.031 H 
BRANCH  11  14
ATOM     14  C   LIG d   1       6.955  -0.320  -3.405  0.00  0.00    -0.024 C 
ATOM     15  H   LIG d   1       7.300  -0.886  -4.270  0.00  0.00     0.031 H 
ATOM     16  H   LIG d   1       7.491  -0.652  -2.516  0.00  0.00     0.031 H 
BRANCH  14  17
ATOM     17  C   LIG d   1       5.477  -0.545  -3.215  0.00  0.00    -0.047 A 
ATOM     18  C   LIG d   1       5.026  -1.710  -2.623  0.00  0.00    -0.059 A 
ATOM     19  C   LIG d   1       3.670  -1.914  -2.445  0.00  0.00    -0.061 A 
ATOM     20  H   LIG d   1       5.733  -2.459  -2.297  0.00  0.00     0.062 H 
ATOM     21  C   LIG d   1       2.766  -0.958  -2.867  0.00  0.00    -0.062 A 
ATOM     22  H   LIG d   1       3.318  -2.822  -1.979  0.00  0.00     0.062 H 
ATOM     23  C   LIG d   1       3.217   0.205  -3.465  0.00  0.00    -0.061 A 
ATOM     24  H   LIG d   1       1.707  -1.118  -2.731  0.00  0.00     0.062 H 
ATOM     25  C   LIG d   1       4.573   0.411  -3.638  0.00  0.00    -0.059 A 
ATOM     26  H   LIG d   1       2.511   0.952  -3.795  0.00  0.00     0.062 H 
ATOM     27  H   LIG d   1       4.926   1.319  -4.105  0.00  0.00     0.062 H 
ENDBRANCH  14  17
ENDBRANCH  11  14
ENDBRANCH   6  11
BRANCH   6  28
ATOM     28  O   LIG d   1       9.369   0.497  -4.512  0.00  0.00    -0.377 OA
ATOM     29  H   LIG d   1       9.146  -0.343  -4.087  0.00  0.00     0.211 HD
ENDBRANCH   6  28
ENDBRANCH   5   6
ENDBRANCH   1   4
BRANCH   1  30
ATOM     30  N   LIG d   1       5.075   0.604  -8.306  0.00  0.00    -0.284 N 
ATOM     31  C   LIG d   1       4.282  -0.530  -8.798  0.00  0.00     0.038 C 
ATOM     32  C   LIG d   1       2.793  -0.236  -8.604  0.00  0.00    -0.033 C 
ATOM     33  H   LIG d   1       4.487  -0.684  -9.858  0.00  0.00     0.051 H 
ATOM     34  C   LIG d   1       2.426   1.037  -9.370  0.00  0.00    -0.050 C 
ATOM     35  H   LIG d   1       2.585  -0.096  -7.544  0.00  0.00     0.028 H 
ATOM     36  H   LIG d   1       2.205  -1.072  -8.984  0.00  0.00     0.028 H 
ATOM     37  C   LIG d   1       3.299   2.192  -8.872  0.00  0.00    -0.040 C 
ATOM     38  H   LIG d   1       1.376   1.275  -9.200  0.00  0.00     0.027 H 
ATOM     39  H   LIG d   1       2.596   0.885 -10.435  0.00  0.00     0.027 H 
ATOM     40  C   LIG d   1       4.773   1.828  -9.058  0.00  0.00     0.000 C 
ATOM     41  H   LIG d   1       3.098   2.371  -7.816  0.00  0.00     0.028 H 
ATOM     42  H   LIG d   1       3.072   3.093  -9.443  0.00  0.00     0.028 H 
ATOM     43  H   LIG d   1       5.398   2.643  -8.692  0.00  0.00     0.043 H 
ATOM     44  H   LIG d   1       4.976   1.663 -10.116  0.00  0.00     0.043 H 
BRANCH  31  45
ATOM     45  C   LIG d   1       4.653  -1.773  -8.030  0.00  0.00    -0.012 A 
ATOM     46  C   LIG d   1       5.177  -2.870  -8.686  0.00  0.00     0.032 A 
ATOM     47  N   LIG d   1       5.510  -3.958  -8.020  0.00  0.00    -0.263 NA
ATOM     48  H   LIG d   1       5.319  -2.834  -9.756  0.00  0.00     0.083 H 
ATOM     49  C   LIG d   1       5.348  -4.050  -6.715  0.00  0.00     0.028 A 
ATOM     50  C   LIG d   1       4.825  -2.995  -5.992  0.00  0.00    -0.043 A 
ATOM     51  H   LIG d   1       5.628  -4.960  -6.205  0.00  0.00     0.083 H 
ATOM     52  C   LIG d   1       4.468  -1.832  -6.657  0.00  0.00    -0.054 A 
ATOM     53  H   LIG d   1       4.695  -3.075  -4.923  0.00  0.00     0.063 H 
ATOM     54  H   LIG d   1       4.058  -0.991  -6.118  0.00  0.00     0.062 H 
ENDBRANCH  31  45
ENDBRANCH   1  30
TORSDOF 9
ENDMDL
MODEL 6
REMARK VINA RESULT:      -6.1      2.229      4.549
REMARK  9 active torsions:
REMARK  status: ('A' for Active; 'I' for Inactive)
REMARK    1  A    between atoms: C_1  and  C_2 
REMARK    2  A    between atoms: C_2  and  C_3 
REMARK    3  A    between atoms: C_2  and  C_11 
REMARK    4  A    between atoms: C_2  and  O_27 
REMARK    5  A    between atoms: C_3  and  C_4 
REMARK    6  A    between atoms: C_4  and  C_5 
REMARK    7  A    between atoms: C_12  and  C_13 
REMARK    8  A    between atoms: C_13  and  N_14 
REMARK    9  A    between atoms: C_19  and  C_21 
ROOT
ATOM      1  C   LIG d   1       6.988  -1.379  -7.885  0.00  0.00     0.061 C 
ATOM      2  H   LIG d   1       6.171  -0.894  -8.420  0.00  0.00     0.056 H 
ATOM      3  H   LIG d   1       7.808  -1.576  -8.576  0.00  0.00     0.056 H 
ENDROOT
BRANCH   1   4
ATOM      4  C   LIG d   1       7.459  -0.498  -6.804  0.00  0.00    -0.084 C 
ATOM      5  C   LIG d   1       7.834   0.204  -5.941  0.00  0.00    -0.067 C 
BRANCH   5   6
ATOM      6  C   LIG d   1       8.304   1.085  -4.860  0.00  0.00     0.124 C 
BRANCH   6   7
ATOM      7  C   LIG d   1       8.548   2.490  -5.417  0.00  0.00    -0.025 C 
ATOM      8  H   LIG d   1       9.524   2.846  -5.088  0.00  0.00     0.027 H 
ATOM      9  H   LIG d   1       8.519   2.459  -6.506  0.00  0.00     0.027 H 
ATOM     10  H   LIG d   1       7.773   3.164  -5.051  0.00  0.00     0.027 H 
ENDBRANCH   6   7
BRANCH   6  11
ATOM     11  C   LIG d   1       7.243   1.150  -3.758  0.00  0.00    -0.009 C 
ATOM     12  H   LIG d   1       7.603   1.778  -2.944  0.00  0.00     0.031 H 
ATOM     13  H   LIG d   1       6.323   1.571  -4.164  0.00  0.00     0.031 H 
BRANCH  11  14
ATOM     14  C   LIG d   1       6.969  -0.261  -3.232  0.00  0.00    -0.024 C 
ATOM     15  H   LIG d   1       7.351  -0.994  -3.942  0.00  0.00     0.031 H 
ATOM     16  H   LIG d   1       7.466  -0.392  -2.271  0.00  0.00     0.031 H 
BRANCH  14  17
ATOM     17  C   LIG d   1       5.484  -0.453  -3.061  0.00  0.00    -0.047 A 
ATOM     18  C   LIG d   1       4.973  -1.718  -2.831  0.00  0.00    -0.059 A 
ATOM     19  C   LIG d   1       3.612  -1.893  -2.670  0.00  0.00    -0.061 A 
ATOM     20  H   LIG d   1       5.638  -2.566  -2.775  0.00  0.00     0.062 H 
ATOM     21  C   LIG d   1       2.760  -0.807  -2.748  0.00  0.00    -0.062 A 
ATOM     22  H   LIG d   1       3.213  -2.880  -2.487  0.00  0.00     0.062 H 
ATOM     23  C   LIG d   1       3.271   0.457  -2.983  0.00  0.00    -0.061 A 
ATOM     24  H   LIG d   1       1.696  -0.944  -2.625  0.00  0.00     0.062 H 
ATOM     25  C   LIG d   1       4.633   0.633  -3.139  0.00  0.00    -0.059 A 
ATOM     26  H   LIG d   1       2.606   1.305  -3.044  0.00  0.00     0.062 H 
ATOM     27  H   LIG d   1       5.032   1.619  -3.323  0.00  0.00     0.062 H 
ENDBRANCH  14  17
ENDBRANCH  11  14
ENDBRANCH   6  11
BRANCH   6  28
ATOM     28  O   LIG d   1       9.522   0.569  -4.319  0.00  0.00    -0.377 OA
ATOM     29  H   LIG d   1       9.538   0.529  -3.353  0.00  0.00     0.211 HD
ENDBRANCH   6  28
ENDBRANCH   5   6
ENDBRANCH   1   4
BRANCH   1  30
ATOM     30  N   LIG d   1       6.515  -2.647  -7.313  0.00  0.00    -0.284 N 
ATOM     31  C   LIG d   1       5.395  -2.422  -6.389  0.00  0.00     0.038 C 
ATOM     32  C   LIG d   1       4.835  -3.769  -5.927  0.00  0.00    -0.033 C 
ATOM     33  H   LIG d   1       5.745  -1.857  -5.525  0.00  0.00     0.051 H 
ATOM     34  C   LIG d   1       5.942  -4.564  -5.230  0.00  0.00    -0.050 C 
ATOM     35  H   LIG d   1       4.472  -4.328  -6.789  0.00  0.00     0.028 H 
ATOM     36  H   LIG d   1       4.014  -3.601  -5.229  0.00  0.00     0.028 H 
ATOM     37  C   LIG d   1       7.116  -4.743  -6.197  0.00  0.00    -0.040 C 
ATOM     38  H   LIG d   1       5.560  -5.541  -4.937  0.00  0.00     0.027 H 
ATOM     39  H   LIG d   1       6.278  -4.024  -4.346  0.00  0.00     0.027 H 
ATOM     40  C   LIG d   1       7.610  -3.368  -6.652  0.00  0.00     0.000 C 
ATOM     41  H   LIG d   1       6.790  -5.317  -7.064  0.00  0.00     0.028 H 
ATOM     42  H   LIG d   1       7.925  -5.271  -5.693  0.00  0.00     0.028 H 
ATOM     43  H   LIG d   1       8.437  -3.492  -7.352  0.00  0.00     0.043 H 
ATOM     44  H   LIG d   1       7.949  -2.799  -5.786  0.00  0.00     0.043 H 
BRANCH  31  45
ATOM     45  C   LIG d   1       4.313  -1.643  -7.093  0.00  0.00    -0.012 A 
ATOM     46  C   LIG d   1       3.757  -2.119  -8.264  0.00  0.00     0.032 A 
ATOM     47  N   LIG d   1       2.806  -1.447  -8.881  0.00  0.00    -0.263 NA
ATOM     48  H   LIG d   1       4.102  -3.056  -8.676  0.00  0.00     0.083 H 
ATOM     49  C   LIG d   1       2.358  -0.296  -8.419  0.00  0.00     0.028 A 
ATOM     50  C   LIG d   1       2.870   0.246  -7.256  0.00  0.00    -0.043 A 
ATOM     51  H   LIG d   1       1.580   0.229  -8.955  0.00  0.00     0.083 H 
ATOM     52  C   LIG d   1       3.868  -0.436  -6.575  0.00  0.00    -0.054 A 
ATOM     53  H   LIG d   1       2.498   1.188  -6.881  0.00  0.00     0.063 H 
ATOM     54  H   LIG d   1       4.286  -0.037  -5.663  0.00  0.00     0.062 H 
ENDBRANCH  31  45
ENDBRANCH   1  30
TORSDOF 9
ENDMDL
MODEL 7
REMARK VINA RESULT:      -6.0      3.097      6.425
REMARK  9 active torsions:
REMARK  status: ('A' for Active; 'I' for Inactive)
REMARK    1  A    between atoms: C_1  and  C_2 
REMARK    2  A    between atoms: C_2  and  C_3 
REMARK    3  A    between atoms: C_2  and  C_11 
REMARK    4  A    between atoms: C_2  and  O_27 
REMARK    5  A    between atoms: C_3  and  C_4 
REMARK    6  A    between atoms: C_4  and  C_5 
REMARK    7  A    between atoms: C_12  and  C_13 
REMARK    8  A    between atoms: C_13  and  N_14 
REMARK    9  A    between atoms: C_19  and  C_21 
ROOT
ATOM      1  C   LIG d   1       4.652  -1.670  -9.037  0.00  0.00     0.061 C 
ATOM      2  H   LIG d   1       5.607  -1.259  -9.362  0.00  0.00     0.056 H 
ATOM      3  H   LIG d   1       4.253  -2.322  -9.814  0.00  0.00     0.056 H 
ENDROOT
BRANCH   1   4
ATOM      4  C   LIG d   1       4.845  -2.443  -7.799  0.00  0.00    -0.084 C 
ATOM      5  C   LIG d   1       5.000  -3.059  -6.813  0.00  0.00    -0.067 C 
BRANCH   5   6
ATOM      6  C   LIG d   1       5.193  -3.832  -5.574  0.00  0.00     0.124 C 
BRANCH   6   7
ATOM      7  C   LIG d   1       6.342  -4.824  -5.765  0.00  0.00    -0.025 C 
ATOM      8  H   LIG d   1       7.253  -4.412  -5.330  0.00  0.00     0.027 H 
ATOM      9  H   LIG d   1       6.097  -5.764  -5.272  0.00  0.00     0.027 H 
ATOM     10  H   LIG d   1       6.496  -5.000  -6.830  0.00  0.00     0.027 H 
ENDBRANCH   6   7
BRANCH   6  11
ATOM     11  C   LIG d   1       5.527  -2.878  -4.425  0.00  0.00    -0.009 C 
ATOM     12  H   LIG d   1       6.388  -3.257  -3.877  0.00  0.00     0.031 H 
ATOM     13  H   LIG d   1       5.757  -1.891  -4.828  0.00  0.00     0.031 H 
BRANCH  11  14
ATOM     14  C   LIG d   1       4.326  -2.776  -3.482  0.00  0.00    -0.024 C 
ATOM     15  H   LIG d   1       3.439  -3.166  -3.980  0.00  0.00     0.031 H 
ATOM     16  H   LIG d   1       4.523  -3.356  -2.581  0.00  0.00     0.031 H 
BRANCH  14  17
ATOM     17  C   LIG d   1       4.100  -1.333  -3.111  0.00  0.00    -0.047 A 
ATOM     18  C   LIG d   1       3.284  -0.537  -3.896  0.00  0.00    -0.059 A 
ATOM     19  C   LIG d   1       3.074   0.785  -3.553  0.00  0.00    -0.061 A 
ATOM     20  H   LIG d   1       2.810  -0.951  -4.773  0.00  0.00     0.062 H 
ATOM     21  C   LIG d   1       3.686   1.316  -2.433  0.00  0.00    -0.062 A 
ATOM     22  H   LIG d   1       2.434   1.405  -4.163  0.00  0.00     0.062 H 
ATOM     23  C   LIG d   1       4.507   0.522  -1.652  0.00  0.00    -0.061 A 
ATOM     24  H   LIG d   1       3.524   2.350  -2.167  0.00  0.00     0.062 H 
ATOM     25  C   LIG d   1       4.713  -0.802  -1.992  0.00  0.00    -0.059 A 
ATOM     26  H   LIG d   1       4.985   0.936  -0.777  0.00  0.00     0.062 H 
ATOM     27  H   LIG d   1       5.354  -1.422  -1.383  0.00  0.00     0.062 H 
ENDBRANCH  14  17
ENDBRANCH  11  14
ENDBRANCH   6  11
BRANCH   6  28
ATOM     28  O   LIG d   1       3.993  -4.547  -5.267  0.00  0.00    -0.377 OA
ATOM     29  H   LIG d   1       4.124  -5.495  -5.129  0.00  0.00     0.211 HD
ENDBRANCH   6  28
ENDBRANCH   5   6
ENDBRANCH   1   4
BRANCH   1  30
ATOM     30  N   LIG d   1       3.707  -0.574  -8.786  0.00  0.00    -0.284 N 
ATOM     31  C   LIG d   1       3.747   0.415  -9.871  0.00  0.00     0.038 C 
ATOM     32  C   LIG d   1       2.653   1.462  -9.650  0.00  0.00    -0.033 C 
ATOM     33  H   LIG d   1       4.721   0.904  -9.881  0.00  0.00     0.051 H 
ATOM     34  C   LIG d   1       2.876   2.150  -8.301  0.00  0.00    -0.050 C 
ATOM     35  H   LIG d   1       1.677   0.975  -9.654  0.00  0.00     0.028 H 
ATOM     36  H   LIG d   1       2.693   2.203 -10.449  0.00  0.00     0.028 H 
ATOM     37  C   LIG d   1       2.878   1.093  -7.193  0.00  0.00    -0.040 C 
ATOM     38  H   LIG d   1       2.075   2.866  -8.120  0.00  0.00     0.027 H 
ATOM     39  H   LIG d   1       3.834   2.669  -8.311  0.00  0.00     0.027 H 
ATOM     40  C   LIG d   1       3.965   0.057  -7.485  0.00  0.00     0.000 C 
ATOM     41  H   LIG d   1       1.906   0.601  -7.158  0.00  0.00     0.028 H 
ATOM     42  H   LIG d   1       3.079   1.571  -6.235  0.00  0.00     0.028 H 
ATOM     43  H   LIG d   1       3.961  -0.705  -6.704  0.00  0.00     0.043 H 
ATOM     44  H   LIG d   1       4.939   0.548  -7.506  0.00  0.00     0.043 H 
BRANCH  31  45
ATOM     45  C   LIG d   1       3.520  -0.279 -11.190  0.00  0.00    -0.012 A 
ATOM     46  C   LIG d   1       4.487  -0.240 -12.176  0.00  0.00     0.032 A 
ATOM     47  N   LIG d   1       4.299  -0.850 -13.329  0.00  0.00    -0.263 NA
ATOM     48  H   LIG d   1       5.410   0.292 -11.997  0.00  0.00     0.083 H 
ATOM     49  C   LIG d   1       3.187  -1.506 -13.594  0.00  0.00     0.028 A 
ATOM     50  C   LIG d   1       2.172  -1.583 -12.658  0.00  0.00    -0.043 A 
ATOM     51  H   LIG d   1       3.067  -1.990 -14.553  0.00  0.00     0.083 H 
ATOM     52  C   LIG d   1       2.336  -0.960 -11.431  0.00  0.00    -0.054 A 
ATOM     53  H   LIG d   1       1.264  -2.123 -12.880  0.00  0.00     0.063 H 
ATOM     54  H   LIG d   1       1.561  -1.004 -10.681  0.00  0.00     0.062 H 
ENDBRANCH  31  45
ENDBRANCH   1  30
TORSDOF 9
ENDMDL
MODEL 8
REMARK VINA RESULT:      -5.8      2.664      5.597
REMARK  9 active torsions:
REMARK  status: ('A' for Active; 'I' for Inactive)
REMARK    1  A    between atoms: C_1  and  C_2 
REMARK    2  A    between atoms: C_2  and  C_3 
REMARK    3  A    between atoms: C_2  and  C_11 
REMARK    4  A    between atoms: C_2  and  O_27 
REMARK    5  A    between atoms: C_3  and  C_4 
REMARK    6  A    between atoms: C_4  and  C_5 
REMARK    7  A    between atoms: C_12  and  C_13 
REMARK    8  A    between atoms: C_13  and  N_14 
REMARK    9  A    between atoms: C_19  and  C_21 
ROOT
ATOM      1  C   LIG d   1       6.139  -1.633  -8.905  0.00  0.00     0.061 C 
ATOM      2  H   LIG d   1       7.083  -1.984  -9.323  0.00  0.00     0.056 H 
ATOM      3  H   LIG d   1       5.346  -1.763  -9.641  0.00  0.00     0.056 H 
ENDROOT
BRANCH   1   4
ATOM      4  C   LIG d   1       5.819  -2.407  -7.695  0.00  0.00    -0.084 C 
ATOM      5  C   LIG d   1       5.564  -3.024  -6.730  0.00  0.00    -0.067 C 
BRANCH   5   6
ATOM      6  C   LIG d   1       5.245  -3.799  -5.519  0.00  0.00     0.124 C 
BRANCH   6   7
ATOM      7  C   LIG d   1       6.082  -5.080  -5.498  0.00  0.00    -0.025 C 
ATOM      8  H   LIG d   1       6.843  -5.003  -4.722  0.00  0.00     0.027 H 
ATOM      9  H   LIG d   1       5.435  -5.933  -5.292  0.00  0.00     0.027 H 
ATOM     10  H   LIG d   1       6.563  -5.214  -6.467  0.00  0.00     0.027 H 
ENDBRANCH   6   7
BRANCH   6  11
ATOM     11  C   LIG d   1       5.563  -2.961  -4.279  0.00  0.00    -0.009 C 
ATOM     12  H   LIG d   1       6.336  -3.458  -3.694  0.00  0.00     0.031 H 
ATOM     13  H   LIG d   1       5.916  -1.976  -4.587  0.00  0.00     0.031 H 
BRANCH  11  14
ATOM     14  C   LIG d   1       4.299  -2.807  -3.430  0.00  0.00    -0.024 C 
ATOM     15  H   LIG d   1       3.442  -3.190  -3.982  0.00  0.00     0.031 H 
ATOM     16  H   LIG d   1       4.415  -3.368  -2.503  0.00  0.00     0.031 H 
BRANCH  14  17
ATOM     17  C   LIG d   1       4.082  -1.350  -3.113  0.00  0.00    -0.047 A 
ATOM     18  C   LIG d   1       3.329  -0.562  -3.964  0.00  0.00    -0.059 A 
ATOM     19  C   LIG d   1       3.126   0.774  -3.671  0.00  0.00    -0.061 A 
ATOM     20  H   LIG d   1       2.897  -0.991  -4.856  0.00  0.00     0.062 H 
ATOM     21  C   LIG d   1       3.684   1.324  -2.532  0.00  0.00    -0.062 A 
ATOM     22  H   LIG d   1       2.535   1.388  -4.334  0.00  0.00     0.062 H 
ATOM     23  C   LIG d   1       4.442   0.538  -1.684  0.00  0.00    -0.061 A 
ATOM     24  H   LIG d   1       3.529   2.368  -2.304  0.00  0.00     0.062 H 
ATOM     25  C   LIG d   1       4.641  -0.799  -1.974  0.00  0.00    -0.059 A 
ATOM     26  H   LIG d   1       4.878   0.967  -0.794  0.00  0.00     0.062 H 
ATOM     27  H   LIG d   1       5.233  -1.413  -1.313  0.00  0.00     0.062 H 
ENDBRANCH  14  17
ENDBRANCH  11  14
ENDBRANCH   6  11
BRANCH   6  28
ATOM     28  O   LIG d   1       3.856  -4.137  -5.523  0.00  0.00    -0.377 OA
ATOM     29  H   LIG d   1       3.434  -4.076  -4.655  0.00  0.00     0.211 HD
ENDBRANCH   6  28
ENDBRANCH   5   6
ENDBRANCH   1   4
BRANCH   1  30
ATOM     30  N   LIG d   1       6.256  -0.210  -8.559  0.00  0.00    -0.284 N 
ATOM     31  C   LIG d   1       5.612   0.634  -9.574  0.00  0.00     0.038 C 
ATOM     32  C   LIG d   1       5.626   2.093  -9.111  0.00  0.00    -0.033 C 
ATOM     33  H   LIG d   1       6.154   0.547 -10.516  0.00  0.00     0.051 H 
ATOM     34  C   LIG d   1       7.073   2.540  -8.893  0.00  0.00    -0.050 C 
ATOM     35  H   LIG d   1       5.072   2.183  -8.177  0.00  0.00     0.028 H 
ATOM     36  H   LIG d   1       5.161   2.720  -9.872  0.00  0.00     0.028 H 
ATOM     37  C   LIG d   1       7.736   1.616  -7.868  0.00  0.00    -0.040 C 
ATOM     38  H   LIG d   1       7.086   3.565  -8.522  0.00  0.00     0.027 H 
ATOM     39  H   LIG d   1       7.617   2.488  -9.836  0.00  0.00     0.027 H 
ATOM     40  C   LIG d   1       7.661   0.172  -8.367  0.00  0.00     0.000 C 
ATOM     41  H   LIG d   1       7.216   1.699  -6.914  0.00  0.00     0.028 H 
ATOM     42  H   LIG d   1       8.780   1.903  -7.740  0.00  0.00     0.028 H 
ATOM     43  H   LIG d   1       8.120  -0.491  -7.632  0.00  0.00     0.043 H 
ATOM     44  H   LIG d   1       8.194   0.087  -9.314  0.00  0.00     0.043 H 
BRANCH  31  45
ATOM     45  C   LIG d   1       4.187   0.182  -9.771  0.00  0.00    -0.012 A 
ATOM     46  C   LIG d   1       3.731  -0.160 -11.029  0.00  0.00     0.032 A 
ATOM     47  N   LIG d   1       2.488  -0.563 -11.209  0.00  0.00    -0.263 NA
ATOM     48  H   LIG d   1       4.401  -0.102 -11.874  0.00  0.00     0.083 H 
ATOM     49  C   LIG d   1       1.633  -0.643 -10.208  0.00  0.00     0.028 A 
ATOM     50  C   LIG d   1       2.017  -0.311  -8.923  0.00  0.00    -0.043 A 
ATOM     51  H   LIG d   1       0.622  -0.972 -10.395  0.00  0.00     0.083 H 
ATOM     52  C   LIG d   1       3.318   0.110  -8.694  0.00  0.00    -0.054 A 
ATOM     53  H   LIG d   1       1.313  -0.380  -8.106  0.00  0.00     0.063 H 
ATOM     54  H   LIG d   1       3.646   0.375  -7.700  0.00  0.00     0.062 H 
ENDBRANCH  31  45
ENDBRANCH   1  30
TORSDOF 9
ENDMDL
MODEL 9
REMARK VINA RESULT:      -5.8      2.393      4.599
REMARK  9 active torsions:
REMARK  status: ('A' for Active; 'I' for Inactive)
REMARK    1  A    between atoms: C_1  and  C_2 
REMARK    2  A    between atoms: C_2  and  C_3 
REMARK    3  A    between atoms: C_2  and  C_11 
REMARK    4  A    between atoms: C_2  and  O_27 
REMARK    5  A    between atoms: C_3  and  C_4 
REMARK    6  A    between atoms: C_4  and  C_5 
REMARK    7  A    between atoms: C_12  and  C_13 
REMARK    8  A    between atoms: C_13  and  N_14 
REMARK    9  A    between atoms: C_19  and  C_21 
ROOT
ATOM      1  C   LIG d   1       5.354  -1.222  -6.095  0.00  0.00     0.061 C 
ATOM      2  H   LIG d   1       6.015  -0.428  -6.445  0.00  0.00     0.056 H 
ATOM      3  H   LIG d   1       4.603  -0.801  -5.428  0.00  0.00     0.056 H 
ENDROOT
BRANCH   1   4
ATOM      4  C   LIG d   1       4.690  -1.853  -7.247  0.00  0.00    -0.084 C 
ATOM      5  C   LIG d   1       4.161  -2.356  -8.165  0.00  0.00    -0.067 C 
BRANCH   5   6
ATOM      6  C   LIG d   1       3.497  -2.988  -9.317  0.00  0.00     0.124 C 
BRANCH   6   7
ATOM      7  C   LIG d   1       3.192  -4.452  -8.990  0.00  0.00    -0.025 C 
ATOM      8  H   LIG d   1       3.722  -4.739  -8.081  0.00  0.00     0.027 H 
ATOM      9  H   LIG d   1       2.120  -4.575  -8.840  0.00  0.00     0.027 H 
ATOM     10  H   LIG d   1       3.519  -5.084  -9.815  0.00  0.00     0.027 H 
ENDBRANCH   6   7
BRANCH   6  11
ATOM     11  C   LIG d   1       2.191  -2.250  -9.620  0.00  0.00    -0.009 C 
ATOM     12  H   LIG d   1       1.430  -2.968  -9.926  0.00  0.00     0.031 H 
ATOM     13  H   LIG d   1       1.855  -1.724  -8.726  0.00  0.00     0.031 H 
BRANCH  11  14
ATOM     14  C   LIG d   1       2.424  -1.243 -10.747  0.00  0.00    -0.024 C 
ATOM     15  H   LIG d   1       3.200  -1.617 -11.414  0.00  0.00     0.031 H 
ATOM     16  H   LIG d   1       1.500  -1.104 -11.308  0.00  0.00     0.031 H 
BRANCH  14  17
ATOM     17  C   LIG d   1       2.860   0.075 -10.160  0.00  0.00    -0.047 A 
ATOM     18  C   LIG d   1       3.829   0.829 -10.798  0.00  0.00    -0.059 A 
ATOM     19  C   LIG d   1       4.224   2.040 -10.261  0.00  0.00    -0.061 A 
ATOM     20  H   LIG d   1       4.273   0.473 -11.715  0.00  0.00     0.062 H 
ATOM     21  C   LIG d   1       3.660   2.493  -9.084  0.00  0.00    -0.062 A 
ATOM     22  H   LIG d   1       4.978   2.631 -10.761  0.00  0.00     0.062 H 
ATOM     23  C   LIG d   1       2.695   1.736  -8.444  0.00  0.00    -0.061 A 
ATOM     24  H   LIG d   1       3.971   3.437  -8.663  0.00  0.00     0.062 H 
ATOM     25  C   LIG d   1       2.295   0.528  -8.982  0.00  0.00    -0.059 A 
ATOM     26  H   LIG d   1       2.254   2.090  -7.524  0.00  0.00     0.062 H 
ATOM     27  H   LIG d   1       1.543  -0.064  -8.483  0.00  0.00     0.062 H 
ENDBRANCH  14  17
ENDBRANCH  11  14
ENDBRANCH   6  11
BRANCH   6  28
ATOM     28  O   LIG d   1       4.356  -2.924 -10.457  0.00  0.00    -0.377 OA
ATOM     29  H   LIG d   1       4.918  -2.137 -10.483  0.00  0.00     0.211 HD
ENDBRANCH   6  28
ENDBRANCH   5   6
ENDBRANCH   1   4
BRANCH   1  30
ATOM     30  N   LIG d   1       6.142  -2.229  -5.372  0.00  0.00    -0.284 N 
ATOM     31  C   LIG d   1       6.967  -1.605  -4.330  0.00  0.00     0.038 C 
ATOM     32  C   LIG d   1       7.659  -2.692  -3.505  0.00  0.00    -0.033 C 
ATOM     33  H   LIG d   1       7.719  -0.967  -4.796  0.00  0.00     0.051 H 
ATOM     34  C   LIG d   1       8.532  -3.547  -4.427  0.00  0.00    -0.050 C 
ATOM     35  H   LIG d   1       6.908  -3.320  -3.027  0.00  0.00     0.028 H 
ATOM     36  H   LIG d   1       8.284  -2.226  -2.741  0.00  0.00     0.028 H 
ATOM     37  C   LIG d   1       7.657  -4.147  -5.531  0.00  0.00    -0.040 C 
ATOM     38  H   LIG d   1       8.993  -4.349  -3.851  0.00  0.00     0.027 H 
ATOM     39  H   LIG d   1       9.308  -2.927  -4.874  0.00  0.00     0.027 H 
ATOM     40  C   LIG d   1       6.965  -3.019  -6.297  0.00  0.00     0.000 C 
ATOM     41  H   LIG d   1       6.905  -4.800  -5.086  0.00  0.00     0.028 H 
ATOM     42  H   LIG d   1       8.279  -4.723  -6.216  0.00  0.00     0.028 H 
ATOM     43  H   LIG d   1       6.330  -3.443  -7.076  0.00  0.00     0.043 H 
ATOM     44  H   LIG d   1       7.717  -2.375  -6.754  0.00  0.00     0.043 H 
BRANCH  31  45
ATOM     45  C   LIG d   1       6.092  -0.770  -3.429  0.00  0.00    -0.012 A 
ATOM     46  C   LIG d   1       6.283   0.594  -3.337  0.00  0.00     0.032 A 
ATOM     47  N   LIG d   1       5.517   1.332  -2.557  0.00  0.00    -0.263 NA
ATOM     48  H   LIG d   1       7.065   1.064  -3.915  0.00  0.00     0.083 H 
ATOM     49  C   LIG d   1       4.554   0.801  -1.829  0.00  0.00     0.028 A 
ATOM     50  C   LIG d   1       4.308  -0.558  -1.865  0.00  0.00    -0.043 A 
ATOM     51  H   LIG d   1       3.950   1.437  -1.198  0.00  0.00     0.083 H 
ATOM     52  C   LIG d   1       5.089  -1.365  -2.679  0.00  0.00    -0.054 A 
ATOM     53  H   LIG d   1       3.517  -0.987  -1.268  0.00  0.00     0.063 H 
ATOM     54  H   LIG d   1       4.919  -2.430  -2.728  0.00  0.00     0.062 H 
ENDBRANCH  31  45
ENDBRANCH   1  30
TORSDOF 9
ENDMDL
MODEL 10
REMARK VINA RESULT:      -5.7      2.544      4.680
REMARK  9 active torsions:
REMARK  status: ('A' for Active; 'I' for Inactive)
REMARK    1  A    between atoms: C_1  and  C_2 
REMARK    2  A    between atoms: C_2  and  C_3 
REMARK    3  A    between atoms: C_2  and  C_11 
REMARK    4  A    between atoms: C_2  and  O_27 
REMARK    5  A    between atoms: C_3  and  C_4 
REMARK    6  A    between atoms: C_4  and  C_5 
REMARK    7  A    between atoms: C_12  and  C_13 
REMARK    8  A    between atoms: C_13  and  N_14 
REMARK    9  A    between atoms: C_19  and  C_21 
ROOT
ATOM      1  C   LIG d   1       5.864  -2.029  -8.932  0.00  0.00     0.061 C 
ATOM      2  H   LIG d   1       6.753  -1.400  -8.981  0.00  0.00     0.056 H 
ATOM      3  H   LIG d   1       5.907  -2.781  -9.720  0.00  0.00     0.056 H 
ENDROOT
BRANCH   1   4
ATOM      4  C   LIG d   1       5.805  -2.695  -7.620  0.00  0.00    -0.084 C 
ATOM      5  C   LIG d   1       5.758  -3.226  -6.575  0.00  0.00    -0.067 C 
BRANCH   5   6
ATOM      6  C   LIG d   1       5.698  -3.893  -5.264  0.00  0.00     0.124 C 
BRANCH   6   7
ATOM      7  C   LIG d   1       6.856  -4.885  -5.143  0.00  0.00    -0.025 C 
ATOM      8  H   LIG d   1       7.134  -4.992  -4.094  0.00  0.00     0.027 H 
ATOM      9  H   LIG d   1       6.549  -5.853  -5.539  0.00  0.00     0.027 H 
ATOM     10  H   LIG d   1       7.711  -4.515  -5.708  0.00  0.00     0.027 H 
ENDBRANCH   6   7
BRANCH   6  11
ATOM     11  C   LIG d   1       5.805  -2.844  -4.154  0.00  0.00    -0.009 C 
ATOM     12  H   LIG d   1       6.575  -3.145  -3.444  0.00  0.00     0.031 H 
ATOM     13  H   LIG d   1       6.068  -1.880  -4.590  0.00  0.00     0.031 H 
BRANCH  11  14
ATOM     14  C   LIG d   1       4.462  -2.728  -3.431  0.00  0.00    -0.024 C 
ATOM     15  H   LIG d   1       3.673  -3.133  -4.064  0.00  0.00     0.031 H 
ATOM     16  H   LIG d   1       4.502  -3.289  -2.497  0.00  0.00     0.031 H 
BRANCH  14  17
ATOM     17  C   LIG d   1       4.174  -1.279  -3.135  0.00  0.00    -0.047 A 
ATOM     18  C   LIG d   1       3.429  -0.527  -4.025  0.00  0.00    -0.059 A 
ATOM     19  C   LIG d   1       3.162   0.802  -3.752  0.00  0.00    -0.061 A 
ATOM     20  H   LIG d   1       3.053  -0.978  -4.931  0.00  0.00     0.062 H 
ATOM     21  C   LIG d   1       3.647   1.381  -2.595  0.00  0.00    -0.062 A 
ATOM     22  H   LIG d   1       2.576   1.388  -4.445  0.00  0.00     0.062 H 
ATOM     23  C   LIG d   1       4.398   0.630  -1.708  0.00  0.00    -0.061 A 
ATOM     24  H   LIG d   1       3.442   2.420  -2.383  0.00  0.00     0.062 H 
ATOM     25  C   LIG d   1       4.661  -0.699  -1.979  0.00  0.00    -0.059 A 
ATOM     26  H   LIG d   1       4.777   1.083  -0.804  0.00  0.00     0.062 H 
ATOM     27  H   LIG d   1       5.247  -1.285  -1.287  0.00  0.00     0.062 H 
ENDBRANCH  14  17
ENDBRANCH  11  14
ENDBRANCH   6  11
BRANCH   6  28
ATOM     28  O   LIG d   1       4.457  -4.592  -5.141  0.00  0.00    -0.377 OA
ATOM     29  H   LIG d   1       3.943  -4.347  -4.359  0.00  0.00     0.211 HD
ENDBRANCH   6  28
ENDBRANCH   5   6
ENDBRANCH   1   4
BRANCH   1  30
ATOM     30  N   LIG d   1       4.666  -1.198  -9.113  0.00  0.00    -0.284 N 
ATOM     31  C   LIG d   1       4.620  -0.117  -8.120  0.00  0.00     0.038 C 
ATOM     32  C   LIG d   1       3.442   0.811  -8.428  0.00  0.00    -0.033 C 
ATOM     33  H   LIG d   1       4.496  -0.544  -7.124  0.00  0.00     0.051 H 
ATOM     34  C   LIG d   1       2.142   0.005  -8.392  0.00  0.00    -0.050 C 
ATOM     35  H   LIG d   1       3.573   1.248  -9.417  0.00  0.00     0.028 H 
ATOM     36  H   LIG d   1       3.400   1.604  -7.681  0.00  0.00     0.028 H 
ATOM     37  C   LIG d   1       2.234  -1.143  -9.400  0.00  0.00    -0.040 C 
ATOM     38  H   LIG d   1       1.305   0.652  -8.653  0.00  0.00     0.027 H 
ATOM     39  H   LIG d   1       1.991  -0.400  -7.391  0.00  0.00     0.027 H 
ATOM     40  C   LIG d   1       3.446  -2.014  -9.065  0.00  0.00     0.000 C 
ATOM     41  H   LIG d   1       2.345  -0.737 -10.406  0.00  0.00     0.028 H 
ATOM     42  H   LIG d   1       1.328  -1.746  -9.349  0.00  0.00     0.028 H 
ATOM     43  H   LIG d   1       3.523  -2.826  -9.790  0.00  0.00     0.043 H 
ATOM     44  H   LIG d   1       3.328  -2.432  -8.065  0.00  0.00     0.043 H 
BRANCH  31  45
ATOM     45  C   LIG d   1       5.906   0.668  -8.173  0.00  0.00    -0.012 A 
ATOM     46  C   LIG d   1       6.209   1.440  -9.278  0.00  0.00     0.032 A 
ATOM     47  N   LIG d   1       7.328   2.135  -9.328  0.00  0.00    -0.263 NA
ATOM     48  H   LIG d   1       5.518   1.479 -10.107  0.00  0.00     0.083 H 
ATOM     49  C   LIG d   1       8.204   2.113  -8.343  0.00  0.00     0.028 A 
ATOM     50  C   LIG d   1       7.971   1.359  -7.208  0.00  0.00    -0.043 A 
ATOM     51  H   LIG d   1       9.112   2.692  -8.422  0.00  0.00     0.083 H 
ATOM     52  C   LIG d   1       6.802   0.620  -7.116  0.00  0.00    -0.054 A 
ATOM     53  H   LIG d   1       8.691   1.346  -6.403  0.00  0.00     0.063 H 
ATOM     54  H   LIG d   1       6.593   0.023  -6.241  0.00  0.00     0.062 H 
ENDBRANCH  31  45
ENDBRANCH   1  30
TORSDOF 9
ENDMDL
