MODEL 1
REMARK VINA RESULT:      -6.8      0.000      0.000
REMARK  12 active torsions:
REMARK  status: ('A' for Active; 'I' for Inactive)
REMARK    1  A    between atoms: C_1  and  C_2 
REMARK    2  A    between atoms: C_2  and  C_3 
REMARK    3  A    between atoms: C_3  and  N_4 
REMARK    4  A    between atoms: N_4  and  C_5 
REMARK    5  A    between atoms: C_7  and  O_21 
REMARK    6  A    between atoms: C_9  and  O_11 
REMARK    7  A    between atoms: O_11  and  C_12 
REMARK    8  A    between atoms: C_12  and  C_13 
REMARK    9  A    between atoms: C_12  and  C_17 
REMARK   10  A    between atoms: O_21  and  C_22 
REMARK   11  A    between atoms: C_22  and  C_23 
REMARK   12  A    between atoms: C_22  and  C_27 
ROOT
ATOM      1  C   LIG d   1       7.504  -1.243  -6.430  0.00  0.00     0.224 A 
ATOM      2  N   LIG d   1       6.957  -0.977  -5.248  0.00  0.00    -0.161 NA
ATOM      3  C   LIG d   1       5.774  -0.379  -5.183  0.00  0.00     0.326 A 
ATOM      4  N   LIG d   1       5.131  -0.058  -6.299  0.00  0.00    -0.141 NA
ATOM      5  C   LIG d   1       5.673  -0.328  -7.481  0.00  0.00     0.326 A 
ATOM      6  N   LIG d   1       6.859  -0.920  -7.547  0.00  0.00    -0.161 NA
ENDROOT
BRANCH   1   7
ATOM      7  N   LIG d   1       8.738  -1.859  -6.497  0.00  0.00    -0.313 N 
ATOM      8  H   LIG d   1       9.036  -2.254  -7.331  0.00  0.00     0.149 HD
BRANCH   7   9
ATOM      9  C   LIG d   1       9.594  -1.915  -5.311  0.00  0.00     0.012 C 
ATOM     10  H   LIG d   1       9.152  -1.315  -4.515  0.00  0.00     0.046 H 
ATOM     11  H   LIG d   1      10.581  -1.522  -5.555  0.00  0.00     0.046 H 
BRANCH   9  12
ATOM     12  C   LIG d   1       9.724  -3.366  -4.844  0.00  0.00    -0.040 C 
ATOM     13  H   LIG d   1       9.417  -4.035  -5.648  0.00  0.00     0.028 H 
ATOM     14  H   LIG d   1      10.761  -3.570  -4.576  0.00  0.00     0.028 H 
BRANCH  12  15
ATOM     15  C   LIG d   1       8.829  -3.591  -3.624  0.00  0.00    -0.064 C 
ATOM     16  H   LIG d   1       9.448  -3.796  -2.751  0.00  0.00     0.023 H 
ATOM     17  H   LIG d   1       8.230  -2.698  -3.443  0.00  0.00     0.023 H 
ATOM     18  H   LIG d   1       8.169  -4.439  -3.809  0.00  0.00     0.023 H 
ENDBRANCH  12  15
ENDBRANCH   9  12
ENDBRANCH   7   9
ENDBRANCH   1   7
BRANCH   5  19
ATOM     19  O   LIG d   1       5.017  -0.001  -8.618  0.00  0.00    -0.441 OA
BRANCH  19  20
ATOM     20  C   LIG d   1       4.104   1.096  -8.547  0.00  0.00     0.291 C 
ATOM     21  H   LIG d   1       4.070   1.474  -7.524  0.00  0.00     0.092 H 
BRANCH  20  22
ATOM     22  C   LIG d   1       4.571   2.211  -9.486  0.00  0.00     0.435 C 
ATOM     23  F   LIG d   1       4.163   1.920 -10.792  0.00  0.00    -0.167 F 
ATOM     24  F   LIG d   1       4.010   3.427  -9.081  0.00  0.00    -0.167 F 
ATOM     25  F   LIG d   1       5.966   2.303  -9.443  0.00  0.00    -0.167 F 
ENDBRANCH  20  22
BRANCH  20  26
ATOM     26  C   LIG d   1       2.709   0.627  -8.966  0.00  0.00     0.435 C 
ATOM     27  F   LIG d   1       2.805  -0.139 -10.133  0.00  0.00    -0.167 F 
ATOM     28  F   LIG d   1       2.153  -0.149  -7.943  0.00  0.00    -0.167 F 
ATOM     29  F   LIG d   1       1.895   1.739  -9.203  0.00  0.00    -0.167 F 
ENDBRANCH  20  26
ENDBRANCH  19  20
ENDBRANCH   5  19
BRANCH   3  30
ATOM     30  O   LIG d   1       5.220  -0.103  -3.981  0.00  0.00    -0.441 OA
BRANCH  30  31
ATOM     31  C   LIG d   1       4.125  -0.924  -3.566  0.00  0.00     0.291 C 
ATOM     32  H   LIG d   1       3.883  -1.632  -4.358  0.00  0.00     0.092 H 
BRANCH  31  33
ATOM     33  C   LIG d   1       4.511  -1.688  -2.299  0.00  0.00     0.435 C 
ATOM     34  F   LIG d   1       4.433  -0.831  -1.195  0.00  0.00    -0.167 F 
ATOM     35  F   LIG d   1       3.634  -2.762  -2.117  0.00  0.00    -0.167 F 
ATOM     36  F   LIG d   1       5.819  -2.169  -2.423  0.00  0.00    -0.167 F 
ENDBRANCH  31  33
BRANCH  31  37
ATOM     37  C   LIG d   1       2.907  -0.043  -3.281  0.00  0.00     0.435 C 
ATOM     38  F   LIG d   1       2.347   0.386  -4.489  0.00  0.00    -0.167 F 
ATOM     39  F   LIG d   1       1.958  -0.778  -2.562  0.00  0.00    -0.167 F 
ATOM     40  F   LIG d   1       3.302   1.069  -2.529  0.00  0.00    -0.167 F 
ENDBRANCH  31  37
ENDBRANCH  30  31
ENDBRANCH   3  30
TORSDOF 12
ENDMDL
MODEL 2
REMARK VINA RESULT:      -6.7      0.217      5.956
REMARK  12 active torsions:
REMARK  status: ('A' for Active; 'I' for Inactive)
REMARK    1  A    between atoms: C_1  and  C_2 
REMARK    2  A    between atoms: C_2  and  C_3 
REMARK    3  A    between atoms: C_3  and  N_4 
REMARK    4  A    between atoms: N_4  and  C_5 
REMARK    5  A    between atoms: C_7  and  O_21 
REMARK    6  A    between atoms: C_9  and  O_11 
REMARK    7  A    between atoms: O_11  and  C_12 
REMARK    8  A    between atoms: C_12  and  C_13 
REMARK    9  A    between atoms: C_12  and  C_17 
REMARK   10  A    between atoms: O_21  and  C_22 
REMARK   11  A    between atoms: C_22  and  C_23 
REMARK   12  A    between atoms: C_22  and  C_27 
ROOT
ATOM      1  C   LIG d   1       7.493  -1.274  -6.368  0.00  0.00     0.224 A 
ATOM      2  N   LIG d   1       6.884  -0.916  -7.494  0.00  0.00    -0.161 NA
ATOM      3  C   LIG d   1       5.713  -0.292  -7.445  0.00  0.00     0.326 A 
ATOM      4  N   LIG d   1       5.157  -0.014  -6.272  0.00  0.00    -0.141 NA
ATOM      5  C   LIG d   1       5.767  -0.367  -5.146  0.00  0.00     0.326 A 
ATOM      6  N   LIG d   1       6.934  -0.997  -5.194  0.00  0.00    -0.161 NA
ENDROOT
BRANCH   1   7
ATOM      7  N   LIG d   1       8.708  -1.929  -6.418  0.00  0.00    -0.313 N 
ATOM      8  H   LIG d   1       8.856  -2.624  -7.077  0.00  0.00     0.149 HD
BRANCH   7   9
ATOM      9  C   LIG d   1       9.770  -1.571  -5.475  0.00  0.00     0.012 C 
ATOM     10  H   LIG d   1       9.358  -0.950  -4.681  0.00  0.00     0.046 H 
ATOM     11  H   LIG d   1      10.551  -1.021  -5.998  0.00  0.00     0.046 H 
BRANCH   9  12
ATOM     12  C   LIG d   1      10.364  -2.845  -4.870  0.00  0.00    -0.040 C 
ATOM     13  H   LIG d   1      10.638  -3.534  -5.670  0.00  0.00     0.028 H 
ATOM     14  H   LIG d   1      11.249  -2.593  -4.287  0.00  0.00     0.028 H 
BRANCH  12  15
ATOM     15  C   LIG d   1       9.327  -3.508  -3.961  0.00  0.00    -0.064 C 
ATOM     16  H   LIG d   1       9.835  -4.042  -3.159  0.00  0.00     0.023 H 
ATOM     17  H   LIG d   1       8.676  -2.745  -3.534  0.00  0.00     0.023 H 
ATOM     18  H   LIG d   1       8.730  -4.211  -4.543  0.00  0.00     0.023 H 
ENDBRANCH  12  15
ENDBRANCH   9  12
ENDBRANCH   7   9
ENDBRANCH   1   7
BRANCH   5  19
ATOM     19  O   LIG d   1       5.199  -0.083  -3.952  0.00  0.00    -0.441 OA
BRANCH  19  20
ATOM     20  C   LIG d   1       4.106  -0.907  -3.541  0.00  0.00     0.291 C 
ATOM     21  H   LIG d   1       3.869  -1.617  -4.334  0.00  0.00     0.092 H 
BRANCH  20  22
ATOM     22  C   LIG d   1       4.491  -1.670  -2.272  0.00  0.00     0.435 C 
ATOM     23  F   LIG d   1       4.376  -0.821  -1.166  0.00  0.00    -0.167 F 
ATOM     24  F   LIG d   1       3.635  -2.766  -2.110  0.00  0.00    -0.167 F 
ATOM     25  F   LIG d   1       5.811  -2.120  -2.380  0.00  0.00    -0.167 F 
ENDBRANCH  20  22
BRANCH  20  26
ATOM     26  C   LIG d   1       2.885  -0.030  -3.259  0.00  0.00     0.435 C 
ATOM     27  F   LIG d   1       3.257   1.040  -2.438  0.00  0.00    -0.167 F 
ATOM     28  F   LIG d   1       2.378   0.464  -4.466  0.00  0.00    -0.167 F 
ATOM     29  F   LIG d   1       1.902  -0.791  -2.618  0.00  0.00    -0.167 F 
ENDBRANCH  20  26
ENDBRANCH  19  20
ENDBRANCH   5  19
BRANCH   3  30
ATOM     30  O   LIG d   1       5.091   0.068  -8.591  0.00  0.00    -0.441 OA
BRANCH  30  31
ATOM     31  C   LIG d   1       4.124   1.117  -8.503  0.00  0.00     0.291 C 
ATOM     32  H   LIG d   1       4.064   1.470  -7.473  0.00  0.00     0.092 H 
BRANCH  31  33
ATOM     33  C   LIG d   1       4.539   2.272  -9.415  0.00  0.00     0.435 C 
ATOM     34  F   LIG d   1       4.181   1.978 -10.735  0.00  0.00    -0.167 F 
ATOM     35  F   LIG d   1       3.892   3.444  -9.007  0.00  0.00    -0.167 F 
ATOM     36  F   LIG d   1       5.924   2.454  -9.337  0.00  0.00    -0.167 F 
ENDBRANCH  31  33
BRANCH  31  37
ATOM     37  C   LIG d   1       2.756   0.588  -8.941  0.00  0.00     0.435 C 
ATOM     38  F   LIG d   1       2.906  -0.200 -10.087  0.00  0.00    -0.167 F 
ATOM     39  F   LIG d   1       2.205  -0.185  -7.913  0.00  0.00    -0.167 F 
ATOM     40  F   LIG d   1       1.908   1.664  -9.221  0.00  0.00    -0.167 F 
ENDBRANCH  31  37
ENDBRANCH  30  31
ENDBRANCH   3  30
TORSDOF 12
ENDMDL
MODEL 3
REMARK VINA RESULT:      -6.7      1.692      6.360
REMARK  12 active torsions:
REMARK  status: ('A' for Active; 'I' for Inactive)
REMARK    1  A    between atoms: C_1  and  C_2 
REMARK    2  A    between atoms: C_2  and  C_3 
REMARK    3  A    between atoms: C_3  and  N_4 
REMARK    4  A    between atoms: N_4  and  C_5 
REMARK    5  A    between atoms: C_7  and  O_21 
REMARK    6  A    between atoms: C_9  and  O_11 
REMARK    7  A    between atoms: O_11  and  C_12 
REMARK    8  A    between atoms: C_12  and  C_13 
REMARK    9  A    between atoms: C_12  and  C_17 
REMARK   10  A    between atoms: O_21  and  C_22 
REMARK   11  A    between atoms: C_22  and  C_23 
REMARK   12  A    between atoms: C_22  and  C_27 
ROOT
ATOM      1  C   LIG d   1       7.452   0.075  -6.242  0.00  0.00     0.224 A 
ATOM      2  N   LIG d   1       6.993   0.551  -7.395  0.00  0.00    -0.161 NA
ATOM      3  C   LIG d   1       5.697   0.482  -7.674  0.00  0.00     0.326 A 
ATOM      4  N   LIG d   1       4.857  -0.054  -6.797  0.00  0.00    -0.141 NA
ATOM      5  C   LIG d   1       5.312  -0.526  -5.642  0.00  0.00     0.326 A 
ATOM      6  N   LIG d   1       6.609  -0.462  -5.365  0.00  0.00    -0.161 NA
ENDROOT
BRANCH   1   7
ATOM      7  N   LIG d   1       8.800   0.142  -5.954  0.00  0.00    -0.313 N 
ATOM      8  H   LIG d   1       9.313  -0.674  -5.847  0.00  0.00     0.149 HD
BRANCH   7   9
ATOM      9  C   LIG d   1       9.454   1.444  -5.809  0.00  0.00     0.012 C 
ATOM     10  H   LIG d   1       9.439   1.966  -6.766  0.00  0.00     0.046 H 
ATOM     11  H   LIG d   1      10.485   1.300  -5.490  0.00  0.00     0.046 H 
BRANCH   9  12
ATOM     12  C   LIG d   1       8.708   2.276  -4.763  0.00  0.00    -0.040 C 
ATOM     13  H   LIG d   1       7.635   2.214  -4.948  0.00  0.00     0.028 H 
ATOM     14  H   LIG d   1       8.929   1.890  -3.768  0.00  0.00     0.028 H 
BRANCH  12  15
ATOM     15  C   LIG d   1       9.158   3.735  -4.857  0.00  0.00    -0.064 C 
ATOM     16  H   LIG d   1       9.512   4.069  -3.883  0.00  0.00     0.023 H 
ATOM     17  H   LIG d   1       9.963   3.821  -5.586  0.00  0.00     0.023 H 
ATOM     18  H   LIG d   1       8.317   4.355  -5.170  0.00  0.00     0.023 H 
ENDBRANCH  12  15
ENDBRANCH   9  12
ENDBRANCH   7   9
ENDBRANCH   1   7
BRANCH   5  19
ATOM     19  O   LIG d   1       4.455  -1.070  -4.748  0.00  0.00    -0.441 OA
BRANCH  19  20
ATOM     20  C   LIG d   1       4.431  -0.497  -3.440  0.00  0.00     0.291 C 
ATOM     21  H   LIG d   1       5.205   0.268  -3.365  0.00  0.00     0.092 H 
BRANCH  20  22
ATOM     22  C   LIG d   1       3.062   0.137  -3.185  0.00  0.00     0.435 C 
ATOM     23  F   LIG d   1       2.144  -0.861  -2.837  0.00  0.00    -0.167 F 
ATOM     24  F   LIG d   1       3.163   1.062  -2.141  0.00  0.00    -0.167 F 
ATOM     25  F   LIG d   1       2.626   0.786  -4.345  0.00  0.00    -0.167 F 
ENDBRANCH  20  22
BRANCH  20  26
ATOM     26  C   LIG d   1       4.689  -1.589  -2.400  0.00  0.00     0.435 C 
ATOM     27  F   LIG d   1       3.821  -2.663  -2.625  0.00  0.00    -0.167 F 
ATOM     28  F   LIG d   1       6.013  -2.030  -2.507  0.00  0.00    -0.167 F 
ATOM     29  F   LIG d   1       4.472  -1.073  -1.118  0.00  0.00    -0.167 F 
ENDBRANCH  20  26
ENDBRANCH  19  20
ENDBRANCH   5  19
BRANCH   3  30
ATOM     30  O   LIG d   1       5.232   0.962  -8.850  0.00  0.00    -0.441 OA
BRANCH  30  31
ATOM     31  C   LIG d   1       3.832   0.818  -9.102  0.00  0.00     0.291 C 
ATOM     32  H   LIG d   1       3.427   0.034  -8.462  0.00  0.00     0.092 H 
BRANCH  31  33
ATOM     33  C   LIG d   1       3.121   2.138  -8.803  0.00  0.00     0.435 C 
ATOM     34  F   LIG d   1       3.975   3.206  -9.102  0.00  0.00    -0.167 F 
ATOM     35  F   LIG d   1       1.966   2.233  -9.586  0.00  0.00    -0.167 F 
ATOM     36  F   LIG d   1       2.772   2.186  -7.450  0.00  0.00    -0.167 F 
ENDBRANCH  31  33
BRANCH  31  37
ATOM     37  C   LIG d   1       3.615   0.441 -10.569  0.00  0.00     0.435 C 
ATOM     38  F   LIG d   1       4.517  -0.565 -10.931  0.00  0.00    -0.167 F 
ATOM     39  F   LIG d   1       2.306  -0.022 -10.743  0.00  0.00    -0.167 F 
ATOM     40  F   LIG d   1       3.822   1.566 -11.375  0.00  0.00    -0.167 F 
ENDBRANCH  31  37
ENDBRANCH  30  31
ENDBRANCH   3  30
TORSDOF 12
ENDMDL
MODEL 4
REMARK VINA RESULT:      -6.7      1.605      2.831
REMARK  12 active torsions:
REMARK  status: ('A' for Active; 'I' for Inactive)
REMARK    1  A    between atoms: C_1  and  C_2 
REMARK    2  A    between atoms: C_2  and  C_3 
REMARK    3  A    between atoms: C_3  and  N_4 
REMARK    4  A    between atoms: N_4  and  C_5 
REMARK    5  A    between atoms: C_7  and  O_21 
REMARK    6  A    between atoms: C_9  and  O_11 
REMARK    7  A    between atoms: O_11  and  C_12 
REMARK    8  A    between atoms: C_12  and  C_13 
REMARK    9  A    between atoms: C_12  and  C_17 
REMARK   10  A    between atoms: O_21  and  C_22 
REMARK   11  A    between atoms: C_22  and  C_23 
REMARK   12  A    between atoms: C_22  and  C_27 
ROOT
ATOM      1  C   LIG d   1       7.448  -0.114  -6.266  0.00  0.00     0.224 A 
ATOM      2  N   LIG d   1       6.594  -0.624  -5.384  0.00  0.00    -0.161 NA
ATOM      3  C   LIG d   1       5.291  -0.603  -5.632  0.00  0.00     0.326 A 
ATOM      4  N   LIG d   1       4.839  -0.085  -6.768  0.00  0.00    -0.141 NA
ATOM      5  C   LIG d   1       5.690   0.420  -7.654  0.00  0.00     0.326 A 
ATOM      6  N   LIG d   1       6.994   0.406  -7.403  0.00  0.00    -0.161 NA
ENDROOT
BRANCH   1   7
ATOM      7  N   LIG d   1       8.803  -0.129  -6.006  0.00  0.00    -0.313 N 
ATOM      8  H   LIG d   1       9.277  -0.974  -5.955  0.00  0.00     0.149 HD
BRANCH   7   9
ATOM      9  C   LIG d   1       9.524   1.130  -5.809  0.00  0.00     0.012 C 
ATOM     10  H   LIG d   1       9.403   1.760  -6.690  0.00  0.00     0.046 H 
ATOM     11  H   LIG d   1      10.583   0.923  -5.655  0.00  0.00     0.046 H 
BRANCH   9  12
ATOM     12  C   LIG d   1       8.962   1.853  -4.583  0.00  0.00    -0.040 C 
ATOM     13  H   LIG d   1       7.923   1.559  -4.434  0.00  0.00     0.028 H 
ATOM     14  H   LIG d   1       9.546   1.585  -3.703  0.00  0.00     0.028 H 
BRANCH  12  15
ATOM     15  C   LIG d   1       9.037   3.365  -4.804  0.00  0.00    -0.064 C 
ATOM     16  H   LIG d   1       8.735   3.881  -3.894  0.00  0.00     0.023 H 
ATOM     17  H   LIG d   1      10.060   3.645  -5.058  0.00  0.00     0.023 H 
ATOM     18  H   LIG d   1       8.371   3.647  -5.620  0.00  0.00     0.023 H 
ENDBRANCH  12  15
ENDBRANCH   9  12
ENDBRANCH   7   9
ENDBRANCH   1   7
BRANCH   5  19
ATOM     19  O   LIG d   1       5.229   0.947  -8.811  0.00  0.00    -0.441 OA
BRANCH  19  20
ATOM     20  C   LIG d   1       3.831   0.813  -9.073  0.00  0.00     0.291 C 
ATOM     21  H   LIG d   1       3.417   0.028  -8.439  0.00  0.00     0.092 H 
BRANCH  20  22
ATOM     22  C   LIG d   1       3.125   2.137  -8.773  0.00  0.00     0.435 C 
ATOM     23  F   LIG d   1       1.963   2.230  -9.546  0.00  0.00    -0.167 F 
ATOM     24  F   LIG d   1       2.789   2.188  -7.416  0.00  0.00    -0.167 F 
ATOM     25  F   LIG d   1       3.978   3.201  -9.084  0.00  0.00    -0.167 F 
ENDBRANCH  20  22
BRANCH  20  26
ATOM     26  C   LIG d   1       3.622   0.445 -10.544  0.00  0.00     0.435 C 
ATOM     27  F   LIG d   1       4.539  -0.546 -10.912  0.00  0.00    -0.167 F 
ATOM     28  F   LIG d   1       2.320  -0.035 -10.722  0.00  0.00    -0.167 F 
ATOM     29  F   LIG d   1       3.814   1.578 -11.340  0.00  0.00    -0.167 F 
ENDBRANCH  20  26
ENDBRANCH  19  20
ENDBRANCH   5  19
BRANCH   3  30
ATOM     30  O   LIG d   1       4.423  -1.117  -4.731  0.00  0.00    -0.441 OA
BRANCH  30  31
ATOM     31  C   LIG d   1       4.404  -0.519  -3.433  0.00  0.00     0.291 C 
ATOM     32  H   LIG d   1       5.172   0.251  -3.377  0.00  0.00     0.092 H 
BRANCH  31  33
ATOM     33  C   LIG d   1       3.032   0.108  -3.180  0.00  0.00     0.435 C 
ATOM     34  F   LIG d   1       3.133   1.054  -2.154  0.00  0.00    -0.167 F 
ATOM     35  F   LIG d   1       2.584   0.734  -4.348  0.00  0.00    -0.167 F 
ATOM     36  F   LIG d   1       2.124  -0.888  -2.807  0.00  0.00    -0.167 F 
ENDBRANCH  31  33
BRANCH  31  37
ATOM     37  C   LIG d   1       4.679  -1.590  -2.374  0.00  0.00     0.435 C 
ATOM     38  F   LIG d   1       6.003  -2.028  -2.487  0.00  0.00    -0.167 F 
ATOM     39  F   LIG d   1       4.472  -1.050  -1.100  0.00  0.00    -0.167 F 
ATOM     40  F   LIG d   1       3.812  -2.671  -2.569  0.00  0.00    -0.167 F 
ENDBRANCH  31  37
ENDBRANCH  30  31
ENDBRANCH   3  30
TORSDOF 12
ENDMDL
MODEL 5
REMARK VINA RESULT:      -6.6      2.277      6.412
REMARK  12 active torsions:
REMARK  status: ('A' for Active; 'I' for Inactive)
REMARK    1  A    between atoms: C_1  and  C_2 
REMARK    2  A    between atoms: C_2  and  C_3 
REMARK    3  A    between atoms: C_3  and  N_4 
REMARK    4  A    between atoms: N_4  and  C_5 
REMARK    5  A    between atoms: C_7  and  O_21 
REMARK    6  A    between atoms: C_9  and  O_11 
REMARK    7  A    between atoms: O_11  and  C_12 
REMARK    8  A    between atoms: C_12  and  C_13 
REMARK    9  A    between atoms: C_12  and  C_17 
REMARK   10  A    between atoms: O_21  and  C_22 
REMARK   11  A    between atoms: C_22  and  C_23 
REMARK   12  A    between atoms: C_22  and  C_27 
ROOT
ATOM      1  C   LIG d   1       7.956   1.105  -6.005  0.00  0.00     0.224 A 
ATOM      2  N   LIG d   1       7.249   1.048  -7.129  0.00  0.00    -0.161 NA
ATOM      3  C   LIG d   1       6.059   0.460  -7.135  0.00  0.00     0.326 A 
ATOM      4  N   LIG d   1       5.569  -0.060  -6.016  0.00  0.00    -0.141 NA
ATOM      5  C   LIG d   1       6.273   0.001  -4.890  0.00  0.00     0.326 A 
ATOM      6  N   LIG d   1       7.465   0.583  -4.885  0.00  0.00    -0.161 NA
ENDROOT
BRANCH   1   7
ATOM      7  N   LIG d   1       9.197   1.711  -5.999  0.00  0.00    -0.313 N 
ATOM      8  H   LIG d   1       9.999   1.171  -5.935  0.00  0.00     0.149 HD
BRANCH   7   9
ATOM      9  C   LIG d   1       9.299   3.169  -6.092  0.00  0.00     0.012 C 
ATOM     10  H   LIG d   1       8.480   3.553  -6.700  0.00  0.00     0.046 H 
ATOM     11  H   LIG d   1      10.250   3.439  -6.551  0.00  0.00     0.046 H 
BRANCH   9  12
ATOM     12  C   LIG d   1       9.220   3.775  -4.689  0.00  0.00    -0.040 C 
ATOM     13  H   LIG d   1       8.266   3.512  -4.233  0.00  0.00     0.028 H 
ATOM     14  H   LIG d   1      10.035   3.386  -4.079  0.00  0.00     0.028 H 
BRANCH  12  15
ATOM     15  C   LIG d   1       9.336   5.298  -4.784  0.00  0.00    -0.064 C 
ATOM     16  H   LIG d   1       9.773   5.570  -5.745  0.00  0.00     0.023 H 
ATOM     17  H   LIG d   1       8.346   5.744  -4.697  0.00  0.00     0.023 H 
ATOM     18  H   LIG d   1       9.973   5.665  -3.979  0.00  0.00     0.023 H 
ENDBRANCH  12  15
ENDBRANCH   9  12
ENDBRANCH   7   9
ENDBRANCH   1   7
BRANCH   5  19
ATOM     19  O   LIG d   1       5.773  -0.529  -3.751  0.00  0.00    -0.441 OA
BRANCH  19  20
ATOM     20  C   LIG d   1       4.427  -0.190  -3.413  0.00  0.00     0.291 C 
ATOM     21  H   LIG d   1       3.933   0.242  -4.284  0.00  0.00     0.092 H 
BRANCH  20  22
ATOM     22  C   LIG d   1       3.677  -1.449  -2.974  0.00  0.00     0.435 C 
ATOM     23  F   LIG d   1       3.712  -2.395  -4.005  0.00  0.00    -0.167 F 
ATOM     24  F   LIG d   1       4.288  -1.981  -1.833  0.00  0.00    -0.167 F 
ATOM     25  F   LIG d   1       2.348  -1.123  -2.685  0.00  0.00    -0.167 F 
ENDBRANCH  20  22
BRANCH  20  26
ATOM     26  C   LIG d   1       4.429   0.828  -2.271  0.00  0.00     0.435 C 
ATOM     27  F   LIG d   1       4.634   0.165  -1.056  0.00  0.00    -0.167 F 
ATOM     28  F   LIG d   1       5.456   1.756  -2.475  0.00  0.00    -0.167 F 
ATOM     29  F   LIG d   1       3.199   1.494  -2.237  0.00  0.00    -0.167 F 
ENDBRANCH  20  26
ENDBRANCH  19  20
ENDBRANCH   5  19
BRANCH   3  30
ATOM     30  O   LIG d   1       5.341   0.397  -8.280  0.00  0.00    -0.441 OA
BRANCH  30  31
ATOM     31  C   LIG d   1       3.933   0.622  -8.177  0.00  0.00     0.291 C 
ATOM     32  H   LIG d   1       3.663   0.756  -7.130  0.00  0.00     0.092 H 
BRANCH  31  33
ATOM     33  C   LIG d   1       3.558   1.876  -8.967  0.00  0.00     0.435 C 
ATOM     34  F   LIG d   1       3.278   1.527 -10.293  0.00  0.00    -0.167 F 
ATOM     35  F   LIG d   1       2.428   2.467  -8.393  0.00  0.00    -0.167 F 
ATOM     36  F   LIG d   1       4.623   2.782  -8.938  0.00  0.00    -0.167 F 
ENDBRANCH  31  33
BRANCH  31  37
ATOM     37  C   LIG d   1       3.182  -0.584  -8.746  0.00  0.00     0.435 C 
ATOM     38  F   LIG d   1       1.827  -0.264  -8.891  0.00  0.00    -0.167 F 
ATOM     39  F   LIG d   1       3.717  -0.921  -9.994  0.00  0.00    -0.167 F 
ATOM     40  F   LIG d   1       3.314  -1.670  -7.874  0.00  0.00    -0.167 F 
ENDBRANCH  31  37
ENDBRANCH  30  31
ENDBRANCH   3  30
TORSDOF 12
ENDMDL
MODEL 6
REMARK VINA RESULT:      -6.6      1.800      2.505
REMARK  12 active torsions:
REMARK  status: ('A' for Active; 'I' for Inactive)
REMARK    1  A    between atoms: C_1  and  C_2 
REMARK    2  A    between atoms: C_2  and  C_3 
REMARK    3  A    between atoms: C_3  and  N_4 
REMARK    4  A    between atoms: N_4  and  C_5 
REMARK    5  A    between atoms: C_7  and  O_21 
REMARK    6  A    between atoms: C_9  and  O_11 
REMARK    7  A    between atoms: O_11  and  C_12 
REMARK    8  A    between atoms: C_12  and  C_13 
REMARK    9  A    between atoms: C_12  and  C_17 
REMARK   10  A    between atoms: O_21  and  C_22 
REMARK   11  A    between atoms: C_22  and  C_23 
REMARK   12  A    between atoms: C_22  and  C_27 
ROOT
ATOM      1  C   LIG d   1       8.100   0.453  -6.083  0.00  0.00     0.224 A 
ATOM      2  N   LIG d   1       7.583   0.111  -4.907  0.00  0.00    -0.161 NA
ATOM      3  C   LIG d   1       6.297  -0.203  -4.814  0.00  0.00     0.326 A 
ATOM      4  N   LIG d   1       5.529  -0.189  -5.897  0.00  0.00    -0.141 NA
ATOM      5  C   LIG d   1       6.045   0.147  -7.074  0.00  0.00     0.326 A 
ATOM      6  N   LIG d   1       7.330   0.468  -7.167  0.00  0.00    -0.161 NA
ENDROOT
BRANCH   1   7
ATOM      7  N   LIG d   1       9.436   0.786  -6.181  0.00  0.00    -0.313 N 
ATOM      8  H   LIG d   1       9.907   0.659  -7.019  0.00  0.00     0.149 HD
BRANCH   7   9
ATOM      9  C   LIG d   1      10.140   1.333  -5.018  0.00  0.00     0.012 C 
ATOM     10  H   LIG d   1      11.103   0.834  -4.910  0.00  0.00     0.046 H 
ATOM     11  H   LIG d   1       9.544   1.169  -4.122  0.00  0.00     0.046 H 
BRANCH   9  12
ATOM     12  C   LIG d   1      10.362   2.833  -5.217  0.00  0.00    -0.040 C 
ATOM     13  H   LIG d   1      11.280   3.134  -4.712  0.00  0.00     0.028 H 
ATOM     14  H   LIG d   1      10.445   3.051  -6.281  0.00  0.00     0.028 H 
BRANCH  12  15
ATOM     15  C   LIG d   1       9.180   3.605  -4.628  0.00  0.00    -0.064 C 
ATOM     16  H   LIG d   1       8.950   4.459  -5.264  0.00  0.00     0.023 H 
ATOM     17  H   LIG d   1       8.311   2.951  -4.570  0.00  0.00     0.023 H 
ATOM     18  H   LIG d   1       9.438   3.957  -3.628  0.00  0.00     0.023 H 
ENDBRANCH  12  15
ENDBRANCH   9  12
ENDBRANCH   7   9
ENDBRANCH   1   7
BRANCH   5  19
ATOM     19  O   LIG d   1       5.262   0.161  -8.177  0.00  0.00    -0.441 OA
BRANCH  19  20
ATOM     20  C   LIG d   1       4.251   1.167  -8.242  0.00  0.00     0.291 C 
ATOM     21  H   LIG d   1       4.156   1.649  -7.268  0.00  0.00     0.092 H 
BRANCH  20  22
ATOM     22  C   LIG d   1       4.635   2.211  -9.292  0.00  0.00     0.435 C 
ATOM     23  F   LIG d   1       4.379   1.702 -10.570  0.00  0.00    -0.167 F 
ATOM     24  F   LIG d   1       3.881   3.373  -9.093  0.00  0.00    -0.167 F 
ATOM     25  F   LIG d   1       5.996   2.511  -9.174  0.00  0.00    -0.167 F 
ENDBRANCH  20  22
BRANCH  20  26
ATOM     26  C   LIG d   1       2.916   0.525  -8.625  0.00  0.00     0.435 C 
ATOM     27  F   LIG d   1       3.133  -0.455  -9.600  0.00  0.00    -0.167 F 
ATOM     28  F   LIG d   1       2.340  -0.063  -7.494  0.00  0.00    -0.167 F 
ATOM     29  F   LIG d   1       2.055   1.504  -9.131  0.00  0.00    -0.167 F 
ENDBRANCH  20  26
ENDBRANCH  19  20
ENDBRANCH   5  19
BRANCH   3  30
ATOM     30  O   LIG d   1       5.770  -0.546  -3.616  0.00  0.00    -0.441 OA
BRANCH  30  31
ATOM     31  C   LIG d   1       4.416  -0.160  -3.368  0.00  0.00     0.291 C 
ATOM     32  H   LIG d   1       3.946   0.136  -4.306  0.00  0.00     0.092 H 
BRANCH  31  33
ATOM     33  C   LIG d   1       3.652  -1.340  -2.765  0.00  0.00     0.435 C 
ATOM     34  F   LIG d   1       3.700  -2.427  -3.645  0.00  0.00    -0.167 F 
ATOM     35  F   LIG d   1       4.239  -1.701  -1.548  0.00  0.00    -0.167 F 
ATOM     36  F   LIG d   1       2.320  -0.973  -2.549  0.00  0.00    -0.167 F 
ENDBRANCH  31  33
BRANCH  31  37
ATOM     37  C   LIG d   1       4.391   1.018  -2.391  0.00  0.00     0.435 C 
ATOM     38  F   LIG d   1       4.698   0.562  -1.104  0.00  0.00    -0.167 F 
ATOM     39  F   LIG d   1       5.336   1.971  -2.786  0.00  0.00    -0.167 F 
ATOM     40  F   LIG d   1       3.118   1.596  -2.391  0.00  0.00    -0.167 F 
ENDBRANCH  31  37
ENDBRANCH  30  31
ENDBRANCH   3  30
TORSDOF 12
ENDMDL
MODEL 7
REMARK VINA RESULT:      -6.6      1.612      2.564
REMARK  12 active torsions:
REMARK  status: ('A' for Active; 'I' for Inactive)
REMARK    1  A    between atoms: C_1  and  C_2 
REMARK    2  A    between atoms: C_2  and  C_3 
REMARK    3  A    between atoms: C_3  and  N_4 
REMARK    4  A    between atoms: N_4  and  C_5 
REMARK    5  A    between atoms: C_7  and  O_21 
REMARK    6  A    between atoms: C_9  and  O_11 
REMARK    7  A    between atoms: O_11  and  C_12 
REMARK    8  A    between atoms: C_12  and  C_13 
REMARK    9  A    between atoms: C_12  and  C_17 
REMARK   10  A    between atoms: O_21  and  C_22 
REMARK   11  A    between atoms: C_22  and  C_23 
REMARK   12  A    between atoms: C_22  and  C_27 
ROOT
ATOM      1  C   LIG d   1       6.951  -1.882  -6.727  0.00  0.00     0.224 A 
ATOM      2  N   LIG d   1       6.718  -1.722  -5.428  0.00  0.00    -0.161 NA
ATOM      3  C   LIG d   1       5.976  -0.705  -5.006  0.00  0.00     0.326 A 
ATOM      4  N   LIG d   1       5.457   0.146  -5.883  0.00  0.00    -0.141 NA
ATOM      5  C   LIG d   1       5.684  -0.015  -7.182  0.00  0.00     0.326 A 
ATOM      6  N   LIG d   1       6.430  -1.028  -7.604  0.00  0.00    -0.161 NA
ENDROOT
BRANCH   1   7
ATOM      7  N   LIG d   1       7.727  -2.936  -7.165  0.00  0.00    -0.313 N 
ATOM      8  H   LIG d   1       8.423  -2.783  -7.823  0.00  0.00     0.149 HD
BRANCH   7   9
ATOM      9  C   LIG d   1       7.498  -4.282  -6.637  0.00  0.00     0.012 C 
ATOM     10  H   LIG d   1       7.638  -4.278  -5.557  0.00  0.00     0.046 H 
ATOM     11  H   LIG d   1       8.204  -4.976  -7.092  0.00  0.00     0.046 H 
BRANCH   9  12
ATOM     12  C   LIG d   1       6.069  -4.722  -6.965  0.00  0.00    -0.040 C 
ATOM     13  H   LIG d   1       5.536  -3.899  -7.441  0.00  0.00     0.028 H 
ATOM     14  H   LIG d   1       6.098  -5.576  -7.642  0.00  0.00     0.028 H 
BRANCH  12  15
ATOM     15  C   LIG d   1       5.349  -5.117  -5.674  0.00  0.00    -0.064 C 
ATOM     16  H   LIG d   1       4.451  -4.512  -5.559  0.00  0.00     0.023 H 
ATOM     17  H   LIG d   1       5.074  -6.171  -5.719  0.00  0.00     0.023 H 
ATOM     18  H   LIG d   1       6.010  -4.951  -4.824  0.00  0.00     0.023 H 
ENDBRANCH  12  15
ENDBRANCH   9  12
ENDBRANCH   7   9
ENDBRANCH   1   7
BRANCH   5  19
ATOM     19  O   LIG d   1       5.154   0.853  -8.074  0.00  0.00    -0.441 OA
BRANCH  19  20
ATOM     20  C   LIG d   1       4.122   0.356  -8.928  0.00  0.00     0.291 C 
ATOM     21  H   LIG d   1       4.166  -0.734  -8.954  0.00  0.00     0.092 H 
BRANCH  20  22
ATOM     22  C   LIG d   1       2.759   0.798  -8.394  0.00  0.00     0.435 C 
ATOM     23  F   LIG d   1       1.810   0.720  -9.419  0.00  0.00    -0.167 F 
ATOM     24  F   LIG d   1       2.377  -0.038  -7.340  0.00  0.00    -0.167 F 
ATOM     25  F   LIG d   1       2.843   2.117  -7.937  0.00  0.00    -0.167 F 
ENDBRANCH  20  22
BRANCH  20  26
ATOM     26  C   LIG d   1       4.321   0.907 -10.342  0.00  0.00     0.435 C 
ATOM     27  F   LIG d   1       3.942   2.254 -10.374  0.00  0.00    -0.167 F 
ATOM     28  F   LIG d   1       5.669   0.794 -10.700  0.00  0.00    -0.167 F 
ATOM     29  F   LIG d   1       3.536   0.179 -11.241  0.00  0.00    -0.167 F 
ENDBRANCH  20  26
ENDBRANCH  19  20
ENDBRANCH   5  19
BRANCH   3  30
ATOM     30  O   LIG d   1       5.744  -0.540  -3.684  0.00  0.00    -0.441 OA
BRANCH  30  31
ATOM     31  C   LIG d   1       4.405  -0.222  -3.295  0.00  0.00     0.291 C 
ATOM     32  H   LIG d   1       3.822   0.035  -4.179  0.00  0.00     0.092 H 
BRANCH  31  33
ATOM     33  C   LIG d   1       3.776  -1.429  -2.600  0.00  0.00     0.435 C 
ATOM     34  F   LIG d   1       2.420  -1.176  -2.362  0.00  0.00    -0.167 F 
ATOM     35  F   LIG d   1       3.902  -2.556  -3.418  0.00  0.00    -0.167 F 
ATOM     36  F   LIG d   1       4.427  -1.660  -1.384  0.00  0.00    -0.167 F 
ENDBRANCH  31  33
BRANCH  31  37
ATOM     37  C   LIG d   1       4.424   0.969  -2.334  0.00  0.00     0.435 C 
ATOM     38  F   LIG d   1       4.741   0.524  -1.046  0.00  0.00    -0.167 F 
ATOM     39  F   LIG d   1       5.383   1.895  -2.757  0.00  0.00    -0.167 F 
ATOM     40  F   LIG d   1       3.164   1.577  -2.320  0.00  0.00    -0.167 F 
ENDBRANCH  31  37
ENDBRANCH  30  31
ENDBRANCH   3  30
TORSDOF 12
ENDMDL
MODEL 8
REMARK VINA RESULT:      -6.5      1.170      2.235
REMARK  12 active torsions:
REMARK  status: ('A' for Active; 'I' for Inactive)
REMARK    1  A    between atoms: C_1  and  C_2 
REMARK    2  A    between atoms: C_2  and  C_3 
REMARK    3  A    between atoms: C_3  and  N_4 
REMARK    4  A    between atoms: N_4  and  C_5 
REMARK    5  A    between atoms: C_7  and  O_21 
REMARK    6  A    between atoms: C_9  and  O_11 
REMARK    7  A    between atoms: O_11  and  C_12 
REMARK    8  A    between atoms: C_12  and  C_13 
REMARK    9  A    between atoms: C_12  and  C_17 
REMARK   10  A    between atoms: O_21  and  C_22 
REMARK   11  A    between atoms: C_22  and  C_23 
REMARK   12  A    between atoms: C_22  and  C_27 
ROOT
ATOM      1  C   LIG d   1       6.870  -1.529  -6.957  0.00  0.00     0.224 A 
ATOM      2  N   LIG d   1       6.469  -1.317  -5.707  0.00  0.00    -0.161 NA
ATOM      3  C   LIG d   1       5.529  -0.414  -5.456  0.00  0.00     0.326 A 
ATOM      4  N   LIG d   1       4.981   0.269  -6.453  0.00  0.00    -0.141 NA
ATOM      5  C   LIG d   1       5.377   0.055  -7.703  0.00  0.00     0.326 A 
ATOM      6  N   LIG d   1       6.321  -0.843  -7.955  0.00  0.00    -0.161 NA
ENDROOT
BRANCH   1   7
ATOM      7  N   LIG d   1       7.851  -2.464  -7.219  0.00  0.00    -0.313 N 
ATOM      8  H   LIG d   1       7.848  -2.946  -8.060  0.00  0.00     0.149 HD
BRANCH   7   9
ATOM      9  C   LIG d   1       8.896  -2.725  -6.227  0.00  0.00     0.012 C 
ATOM     10  H   LIG d   1       9.219  -3.764  -6.304  0.00  0.00     0.046 H 
ATOM     11  H   LIG d   1       8.504  -2.541  -5.228  0.00  0.00     0.046 H 
BRANCH   9  12
ATOM     12  C   LIG d   1      10.087  -1.800  -6.485  0.00  0.00    -0.040 C 
ATOM     13  H   LIG d   1      11.006  -2.387  -6.499  0.00  0.00     0.028 H 
ATOM     14  H   LIG d   1       9.959  -1.302  -7.446  0.00  0.00     0.028 H 
BRANCH  12  15
ATOM     15  C   LIG d   1      10.169  -0.752  -5.374  0.00  0.00    -0.064 C 
ATOM     16  H   LIG d   1      11.163  -0.770  -4.929  0.00  0.00     0.023 H 
ATOM     17  H   LIG d   1       9.976   0.236  -5.791  0.00  0.00     0.023 H 
ATOM     18  H   LIG d   1       9.424  -0.975  -4.609  0.00  0.00     0.023 H 
ENDBRANCH  12  15
ENDBRANCH   9  12
ENDBRANCH   7   9
ENDBRANCH   1   7
BRANCH   5  19
ATOM     19  O   LIG d   1       4.817   0.752  -8.718  0.00  0.00    -0.441 OA
BRANCH  19  20
ATOM     20  C   LIG d   1       3.834   0.077  -9.504  0.00  0.00     0.291 C 
ATOM     21  H   LIG d   1       3.998  -1.000  -9.443  0.00  0.00     0.092 H 
BRANCH  20  22
ATOM     22  C   LIG d   1       2.438   0.411  -8.974  0.00  0.00     0.435 C 
ATOM     23  F   LIG d   1       2.172  -0.368  -7.842  0.00  0.00    -0.167 F 
ATOM     24  F   LIG d   1       2.381   1.766  -8.631  0.00  0.00    -0.167 F 
ATOM     25  F   LIG d   1       1.486   0.138  -9.962  0.00  0.00    -0.167 F 
ENDBRANCH  20  22
BRANCH  20  26
ATOM     26  C   LIG d   1       3.947   0.529 -10.962  0.00  0.00     0.435 C 
ATOM     27  F   LIG d   1       5.255   0.321 -11.414  0.00  0.00    -0.167 F 
ATOM     28  F   LIG d   1       3.059  -0.211 -11.749  0.00  0.00    -0.167 F 
ATOM     29  F   LIG d   1       3.632   1.889 -11.054  0.00  0.00    -0.167 F 
ENDBRANCH  20  26
ENDBRANCH  19  20
ENDBRANCH   5  19
BRANCH   3  30
ATOM     30  O   LIG d   1       5.125  -0.196  -4.184  0.00  0.00    -0.441 OA
BRANCH  30  31
ATOM     31  C   LIG d   1       4.055  -1.007  -3.694  0.00  0.00     0.291 C 
ATOM     32  H   LIG d   1       3.819  -1.778  -4.427  0.00  0.00     0.092 H 
BRANCH  31  33
ATOM     33  C   LIG d   1       4.474  -1.664  -2.378  0.00  0.00     0.435 C 
ATOM     34  F   LIG d   1       3.652  -2.768  -2.125  0.00  0.00    -0.167 F 
ATOM     35  F   LIG d   1       5.804  -2.085  -2.471  0.00  0.00    -0.167 F 
ATOM     36  F   LIG d   1       4.349  -0.741  -1.334  0.00  0.00    -0.167 F 
ENDBRANCH  31  33
BRANCH  31  37
ATOM     37  C   LIG d   1       2.820  -0.134  -3.458  0.00  0.00     0.435 C 
ATOM     38  F   LIG d   1       3.198   1.040  -2.797  0.00  0.00    -0.167 F 
ATOM     39  F   LIG d   1       2.236   0.190  -4.687  0.00  0.00    -0.167 F 
ATOM     40  F   LIG d   1       1.897  -0.834  -2.674  0.00  0.00    -0.167 F 
ENDBRANCH  31  37
ENDBRANCH  30  31
ENDBRANCH   3  30
TORSDOF 12
ENDMDL
MODEL 9
REMARK VINA RESULT:      -6.5      2.456      3.267
REMARK  12 active torsions:
REMARK  status: ('A' for Active; 'I' for Inactive)
REMARK    1  A    between atoms: C_1  and  C_2 
REMARK    2  A    between atoms: C_2  and  C_3 
REMARK    3  A    between atoms: C_3  and  N_4 
REMARK    4  A    between atoms: N_4  and  C_5 
REMARK    5  A    between atoms: C_7  and  O_21 
REMARK    6  A    between atoms: C_9  and  O_11 
REMARK    7  A    between atoms: O_11  and  C_12 
REMARK    8  A    between atoms: C_12  and  C_13 
REMARK    9  A    between atoms: C_12  and  C_17 
REMARK   10  A    between atoms: O_21  and  C_22 
REMARK   11  A    between atoms: C_22  and  C_23 
REMARK   12  A    between atoms: C_22  and  C_27 
ROOT
ATOM      1  C   LIG d   1       4.748  -3.420  -6.905  0.00  0.00     0.224 A 
ATOM      2  N   LIG d   1       4.622  -3.022  -5.643  0.00  0.00    -0.161 NA
ATOM      3  C   LIG d   1       4.595  -1.726  -5.355  0.00  0.00     0.326 A 
ATOM      4  N   LIG d   1       4.680  -0.828  -6.329  0.00  0.00    -0.141 NA
ATOM      5  C   LIG d   1       4.801  -1.224  -7.591  0.00  0.00     0.326 A 
ATOM      6  N   LIG d   1       4.835  -2.520  -7.879  0.00  0.00    -0.161 NA
ENDROOT
BRANCH   1   7
ATOM      7  N   LIG d   1       4.783  -4.767  -7.204  0.00  0.00    -0.313 N 
ATOM      8  H   LIG d   1       5.110  -5.063  -8.067  0.00  0.00     0.149 HD
BRANCH   7   9
ATOM      9  C   LIG d   1       4.326  -5.748  -6.216  0.00  0.00     0.012 C 
ATOM     10  H   LIG d   1       3.241  -5.699  -6.130  0.00  0.00     0.046 H 
ATOM     11  H   LIG d   1       4.777  -5.528  -5.249  0.00  0.00     0.046 H 
BRANCH   9  12
ATOM     12  C   LIG d   1       4.740  -7.152  -6.663  0.00  0.00    -0.040 C 
ATOM     13  H   LIG d   1       3.948  -7.587  -7.273  0.00  0.00     0.028 H 
ATOM     14  H   LIG d   1       5.658  -7.091  -7.248  0.00  0.00     0.028 H 
BRANCH  12  15
ATOM     15  C   LIG d   1       4.977  -8.029  -5.433  0.00  0.00    -0.064 C 
ATOM     16  H   LIG d   1       4.024  -8.243  -4.950  0.00  0.00     0.023 H 
ATOM     17  H   LIG d   1       5.446  -8.964  -5.738  0.00  0.00     0.023 H 
ATOM     18  H   LIG d   1       5.629  -7.506  -4.733  0.00  0.00     0.023 H 
ENDBRANCH  12  15
ENDBRANCH   9  12
ENDBRANCH   7   9
ENDBRANCH   1   7
BRANCH   5  19
ATOM     19  O   LIG d   1       4.887  -0.308  -8.583  0.00  0.00    -0.441 OA
BRANCH  19  20
ATOM     20  C   LIG d   1       4.084   0.866  -8.454  0.00  0.00     0.291 C 
ATOM     21  H   LIG d   1       4.064   1.178  -7.409  0.00  0.00     0.092 H 
BRANCH  20  22
ATOM     22  C   LIG d   1       4.677   1.987  -9.309  0.00  0.00     0.435 C 
ATOM     23  F   LIG d   1       4.104   3.209  -8.937  0.00  0.00    -0.167 F 
ATOM     24  F   LIG d   1       6.061   2.042  -9.113  0.00  0.00    -0.167 F 
ATOM     25  F   LIG d   1       4.405   1.737 -10.658  0.00  0.00    -0.167 F 
ENDBRANCH  20  22
BRANCH  20  26
ATOM     26  C   LIG d   1       2.660   0.563  -8.924  0.00  0.00     0.435 C 
ATOM     27  F   LIG d   1       1.994   1.763  -9.199  0.00  0.00    -0.167 F 
ATOM     28  F   LIG d   1       2.708  -0.219 -10.083  0.00  0.00    -0.167 F 
ATOM     29  F   LIG d   1       1.975  -0.131  -7.921  0.00  0.00    -0.167 F 
ENDBRANCH  20  26
ENDBRANCH  19  20
ENDBRANCH   5  19
BRANCH   3  30
ATOM     30  O   LIG d   1       4.472  -1.321  -4.071  0.00  0.00    -0.441 OA
BRANCH  30  31
ATOM     31  C   LIG d   1       4.534   0.086  -3.825  0.00  0.00     0.291 C 
ATOM     32  H   LIG d   1       4.874   0.597  -4.726  0.00  0.00     0.092 H 
BRANCH  31  33
ATOM     33  C   LIG d   1       3.146   0.598  -3.440  0.00  0.00     0.435 C 
ATOM     34  F   LIG d   1       3.273   1.766  -2.679  0.00  0.00    -0.167 F 
ATOM     35  F   LIG d   1       2.414   0.876  -4.599  0.00  0.00    -0.167 F 
ATOM     36  F   LIG d   1       2.479  -0.376  -2.691  0.00  0.00    -0.167 F 
ENDBRANCH  31  33
BRANCH  31  37
ATOM     37  C   LIG d   1       5.515   0.362  -2.683  0.00  0.00     0.435 C 
ATOM     38  F   LIG d   1       5.971   1.681  -2.768  0.00  0.00    -0.167 F 
ATOM     39  F   LIG d   1       4.869   0.169  -1.457  0.00  0.00    -0.167 F 
ATOM     40  F   LIG d   1       6.601  -0.515  -2.780  0.00  0.00    -0.167 F 
ENDBRANCH  31  37
ENDBRANCH  30  31
ENDBRANCH   3  30
TORSDOF 12
ENDMDL
MODEL 10
REMARK VINA RESULT:      -6.5      4.143      7.371
REMARK  12 active torsions:
REMARK  status: ('A' for Active; 'I' for Inactive)
REMARK    1  A    between atoms: C_1  and  C_2 
REMARK    2  A    between atoms: C_2  and  C_3 
REMARK    3  A    between atoms: C_3  and  N_4 
REMARK    4  A    between atoms: N_4  and  C_5 
REMARK    5  A    between atoms: C_7  and  O_21 
REMARK    6  A    between atoms: C_9  and  O_11 
REMARK    7  A    between atoms: O_11  and  C_12 
REMARK    8  A    between atoms: C_12  and  C_13 
REMARK    9  A    between atoms: C_12  and  C_17 
REMARK   10  A    between atoms: O_21  and  C_22 
REMARK   11  A    between atoms: C_22  and  C_23 
REMARK   12  A    between atoms: C_22  and  C_27 
ROOT
ATOM      1  C   LIG d   1       7.230   0.856  -6.398  0.00  0.00     0.224 A 
ATOM      2  N   LIG d   1       8.245   1.699  -6.244  0.00  0.00    -0.161 NA
ATOM      3  C   LIG d   1       8.611   2.082  -5.026  0.00  0.00     0.326 A 
ATOM      4  N   LIG d   1       7.971   1.613  -3.962  0.00  0.00    -0.141 NA
ATOM      5  C   LIG d   1       6.958   0.766  -4.115  0.00  0.00     0.326 A 
ATOM      6  N   LIG d   1       6.588   0.388  -5.332  0.00  0.00    -0.161 NA
ENDROOT
BRANCH   1   7
ATOM      7  N   LIG d   1       6.845   0.463  -7.664  0.00  0.00    -0.313 N 
ATOM      8  H   LIG d   1       6.904  -0.471  -7.920  0.00  0.00     0.149 HD
BRANCH   7   9
ATOM      9  C   LIG d   1       6.345   1.455  -8.619  0.00  0.00     0.012 C 
ATOM     10  H   LIG d   1       6.803   1.284  -9.593  0.00  0.00     0.046 H 
ATOM     11  H   LIG d   1       6.598   2.455  -8.270  0.00  0.00     0.046 H 
BRANCH   9  12
ATOM     12  C   LIG d   1       4.825   1.326  -8.739  0.00  0.00    -0.040 C 
ATOM     13  H   LIG d   1       4.583   0.499  -9.407  0.00  0.00     0.028 H 
ATOM     14  H   LIG d   1       4.397   1.137  -7.755  0.00  0.00     0.028 H 
BRANCH  12  15
ATOM     15  C   LIG d   1       4.247   2.625  -9.306  0.00  0.00    -0.064 C 
ATOM     16  H   LIG d   1       4.110   3.344  -8.499  0.00  0.00     0.023 H 
ATOM     17  H   LIG d   1       4.934   3.036 -10.045  0.00  0.00     0.023 H 
ATOM     18  H   LIG d   1       3.286   2.420  -9.776  0.00  0.00     0.023 H 
ENDBRANCH  12  15
ENDBRANCH   9  12
ENDBRANCH   7   9
ENDBRANCH   1   7
BRANCH   5  19
ATOM     19  O   LIG d   1       6.307   0.289  -3.030  0.00  0.00    -0.441 OA
BRANCH  19  20
ATOM     20  C   LIG d   1       4.926  -0.038  -3.194  0.00  0.00     0.291 C 
ATOM     21  H   LIG d   1       4.656   0.048  -4.248  0.00  0.00     0.092 H 
BRANCH  20  22
ATOM     22  C   LIG d   1       4.679  -1.471  -2.720  0.00  0.00     0.435 C 
ATOM     23  F   LIG d   1       4.469  -1.474  -1.336  0.00  0.00    -0.167 F 
ATOM     24  F   LIG d   1       3.550  -1.988  -3.364  0.00  0.00    -0.167 F 
ATOM     25  F   LIG d   1       5.793  -2.260  -3.023  0.00  0.00    -0.167 F 
ENDBRANCH  20  22
BRANCH  20  26
ATOM     26  C   LIG d   1       4.072   0.928  -2.369  0.00  0.00     0.435 C 
ATOM     27  F   LIG d   1       4.652   1.103  -1.108  0.00  0.00    -0.167 F 
ATOM     28  F   LIG d   1       3.999   2.162  -3.024  0.00  0.00    -0.167 F 
ATOM     29  F   LIG d   1       2.784   0.402  -2.221  0.00  0.00    -0.167 F 
ENDBRANCH  20  26
ENDBRANCH  19  20
ENDBRANCH   5  19
BRANCH   3  30
ATOM     30  O   LIG d   1       9.642   2.944  -4.869  0.00  0.00    -0.441 OA
BRANCH  30  31
ATOM     31  C   LIG d   1       9.334   4.339  -4.916  0.00  0.00     0.291 C 
ATOM     32  H   LIG d   1       8.256   4.470  -4.997  0.00  0.00     0.092 H 
BRANCH  31  33
ATOM     33  C   LIG d   1       9.837   5.015  -3.640  0.00  0.00     0.435 C 
ATOM     34  F   LIG d   1       9.605   4.175  -2.544  0.00  0.00    -0.167 F 
ATOM     35  F   LIG d   1      11.209   5.263  -3.753  0.00  0.00    -0.167 F 
ATOM     36  F   LIG d   1       9.158   6.223  -3.452  0.00  0.00    -0.167 F 
ENDBRANCH  31  33
BRANCH  31  37
ATOM     37  C   LIG d   1      10.017   4.971  -6.131  0.00  0.00     0.435 C 
ATOM     38  F   LIG d   1       9.979   6.365  -6.014  0.00  0.00    -0.167 F 
ATOM     39  F   LIG d   1      11.347   4.544  -6.194  0.00  0.00    -0.167 F 
ATOM     40  F   LIG d   1       9.347   4.582  -7.296  0.00  0.00    -0.167 F 
ENDBRANCH  31  37
ENDBRANCH  30  31
ENDBRANCH   3  30
TORSDOF 12
ENDMDL
