MODEL 1
REMARK VINA RESULT:      -5.0      0.000      0.000
REMARK  4 active torsions:
REMARK  status: ('A' for Active; 'I' for Inactive)
REMARK    1  A    between atoms: C_1  and  C_2 
REMARK    2  A    between atoms: C_4  and  N_31 
REMARK    3  A    between atoms: C_14  and  N_31 
REMARK    4  A    between atoms: C_15  and  N_31 
ROOT
ATOM      1  C   LIG d   1       7.625  -0.916  -4.189  0.00  0.00     0.140 C 
ATOM      2  H   LIG d   1       8.713  -0.875  -4.124  0.00  0.00     0.079 H 
ATOM      3  C   LIG d   1       7.134  -2.304  -3.759  0.00  0.00     0.020 C 
ATOM      4  H   LIG d   1       7.367  -2.468  -2.707  0.00  0.00     0.089 H 
ATOM      5  C   LIG d   1       5.619  -2.364  -3.968  0.00  0.00     0.022 C 
ATOM      6  C   LIG d   1       4.976  -1.136  -3.374  0.00  0.00    -0.000 A 
ATOM      7  C   LIG d   1       3.615  -1.152  -3.121  0.00  0.00    -0.055 A 
ATOM      8  C   LIG d   1       2.991  -0.042  -2.585  0.00  0.00    -0.061 A 
ATOM      9  C   LIG d   1       3.729   1.092  -2.298  0.00  0.00    -0.058 A 
ATOM     10  C   LIG d   1       5.084   1.114  -2.546  0.00  0.00    -0.020 A 
ATOM     11  C   LIG d   1       5.717  -0.003  -3.085  0.00  0.00     0.124 A 
ATOM     12  O   LIG d   1       7.055   0.055  -3.312  0.00  0.00    -0.483 OA
ATOM     13  H   LIG d   1       5.401  -2.406  -5.035  0.00  0.00     0.037 H 
ATOM     14  H   LIG d   1       5.220  -3.253  -3.481  0.00  0.00     0.037 H 
ATOM     15  H   LIG d   1       3.037  -2.037  -3.345  0.00  0.00     0.062 H 
ATOM     16  H   LIG d   1       1.929  -0.061  -2.390  0.00  0.00     0.062 H 
ATOM     17  H   LIG d   1       3.241   1.961  -1.880  0.00  0.00     0.062 H 
ATOM     18  H   LIG d   1       5.659   2.001  -2.321  0.00  0.00     0.065 H 
ENDROOT
BRANCH   3  19
ATOM     19  N   LIG d   1       7.781  -3.330  -4.604  0.00  0.00     0.236 N 
ATOM     20  H   LIG d   1       8.230  -2.869  -5.404  0.00  0.00     0.203 HD
BRANCH  19  21
ATOM     21  C   LIG d   1       8.810  -4.050  -3.825  0.00  0.00    -0.043 C 
ATOM     22  H   LIG d   1       9.784  -3.601  -4.024  0.00  0.00     0.078 H 
ATOM     23  H   LIG d   1       8.578  -3.960  -2.765  0.00  0.00     0.078 H 
ATOM     24  H   LIG d   1       8.833  -5.104  -4.105  0.00  0.00     0.078 H 
ENDBRANCH  19  21
BRANCH  19  25
ATOM     25  C   LIG d   1       6.769  -4.283  -5.106  0.00  0.00    -0.043 C 
ATOM     26  H   LIG d   1       6.236  -4.747  -4.276  0.00  0.00     0.078 H 
ATOM     27  H   LIG d   1       6.061  -3.746  -5.737  0.00  0.00     0.078 H 
ATOM     28  H   LIG d   1       7.267  -5.054  -5.694  0.00  0.00     0.078 H 
ENDBRANCH  19  25
ENDBRANCH   3  19
BRANCH   1  29
ATOM     29  C   LIG d   1       7.184  -0.635  -5.626  0.00  0.00    -0.022 C 
ATOM     30  H   LIG d   1       6.588   0.277  -5.652  0.00  0.00     0.027 H 
ATOM     31  H   LIG d   1       8.063  -0.513  -6.259  0.00  0.00     0.027 H 
ATOM     32  H   LIG d   1       6.586  -1.470  -5.993  0.00  0.00     0.027 H 
ENDBRANCH   1  29
TORSDOF 4
ENDMDL
MODEL 2
REMARK VINA RESULT:      -4.8      3.642      4.771
REMARK  4 active torsions:
REMARK  status: ('A' for Active; 'I' for Inactive)
REMARK    1  A    between atoms: C_1  and  C_2 
REMARK    2  A    between atoms: C_4  and  N_31 
REMARK    3  A    between atoms: C_14  and  N_31 
REMARK    4  A    between atoms: C_15  and  N_31 
ROOT
ATOM      1  C   LIG d   1       4.707  -1.321  -7.179  0.00  0.00     0.140 C 
ATOM      2  H   LIG d   1       4.915  -1.905  -8.075  0.00  0.00     0.079 H 
ATOM      3  C   LIG d   1       3.343  -0.633  -7.315  0.00  0.00     0.020 C 
ATOM      4  H   LIG d   1       2.555  -1.383  -7.361  0.00  0.00     0.089 H 
ATOM      5  C   LIG d   1       3.134   0.264  -6.092  0.00  0.00     0.022 C 
ATOM      6  C   LIG d   1       3.448  -0.509  -4.836  0.00  0.00    -0.000 A 
ATOM      7  C   LIG d   1       2.982  -0.029  -3.624  0.00  0.00    -0.055 A 
ATOM      8  C   LIG d   1       3.259  -0.707  -2.452  0.00  0.00    -0.061 A 
ATOM      9  C   LIG d   1       4.004  -1.872  -2.488  0.00  0.00    -0.058 A 
ATOM     10  C   LIG d   1       4.469  -2.355  -3.693  0.00  0.00    -0.020 A 
ATOM     11  C   LIG d   1       4.192  -1.676  -4.875  0.00  0.00     0.124 A 
ATOM     12  O   LIG d   1       4.663  -2.186  -6.043  0.00  0.00    -0.483 OA
ATOM     13  H   LIG d   1       3.792   1.130  -6.159  0.00  0.00     0.037 H 
ATOM     14  H   LIG d   1       2.097   0.599  -6.061  0.00  0.00     0.037 H 
ATOM     15  H   LIG d   1       2.400   0.881  -3.594  0.00  0.00     0.062 H 
ATOM     16  H   LIG d   1       2.893  -0.328  -1.510  0.00  0.00     0.062 H 
ATOM     17  H   LIG d   1       4.221  -2.402  -1.572  0.00  0.00     0.062 H 
ATOM     18  H   LIG d   1       5.051  -3.265  -3.719  0.00  0.00     0.065 H 
ENDROOT
BRANCH   3  19
ATOM     19  N   LIG d   1       3.343   0.203  -8.535  0.00  0.00     0.236 N 
ATOM     20  H   LIG d   1       4.294   0.231  -8.921  0.00  0.00     0.203 HD
BRANCH  19  21
ATOM     21  C   LIG d   1       2.433  -0.378  -9.544  0.00  0.00    -0.043 C 
ATOM     22  H   LIG d   1       2.803  -1.362  -9.831  0.00  0.00     0.078 H 
ATOM     23  H   LIG d   1       1.439  -0.477  -9.108  0.00  0.00     0.078 H 
ATOM     24  H   LIG d   1       2.381   0.262 -10.425  0.00  0.00     0.078 H 
ENDBRANCH  19  21
BRANCH  19  25
ATOM     25  C   LIG d   1       2.919   1.580  -8.204  0.00  0.00    -0.043 C 
ATOM     26  H   LIG d   1       2.641   1.652  -7.152  0.00  0.00     0.078 H 
ATOM     27  H   LIG d   1       3.743   2.262  -8.409  0.00  0.00     0.078 H 
ATOM     28  H   LIG d   1       2.064   1.846  -8.825  0.00  0.00     0.078 H 
ENDBRANCH  19  25
ENDBRANCH   3  19
BRANCH   1  29
ATOM     29  C   LIG d   1       5.800  -0.268  -6.983  0.00  0.00    -0.022 C 
ATOM     30  H   LIG d   1       5.474   0.677  -7.416  0.00  0.00     0.027 H 
ATOM     31  H   LIG d   1       5.989  -0.135  -5.918  0.00  0.00     0.027 H 
ATOM     32  H   LIG d   1       6.714  -0.598  -7.476  0.00  0.00     0.027 H 
ENDBRANCH   1  29
TORSDOF 4
ENDMDL
MODEL 3
REMARK VINA RESULT:      -4.8      2.387      2.715
REMARK  4 active torsions:
REMARK  status: ('A' for Active; 'I' for Inactive)
REMARK    1  A    between atoms: C_1  and  C_2 
REMARK    2  A    between atoms: C_4  and  N_31 
REMARK    3  A    between atoms: C_14  and  N_31 
REMARK    4  A    between atoms: C_15  and  N_31 
ROOT
ATOM      1  C   LIG d   1       5.155  -0.535  -6.550  0.00  0.00     0.140 C 
ATOM      2  H   LIG d   1       5.710  -0.194  -7.424  0.00  0.00     0.079 H 
ATOM      3  C   LIG d   1       5.482  -2.007  -6.271  0.00  0.00     0.020 C 
ATOM      4  H   LIG d   1       6.533  -2.107  -6.002  0.00  0.00     0.089 H 
ATOM      5  C   LIG d   1       4.603  -2.483  -5.111  0.00  0.00     0.022 C 
ATOM      6  C   LIG d   1       4.670  -1.485  -3.982  0.00  0.00    -0.000 A 
ATOM      7  C   LIG d   1       4.263  -1.881  -2.719  0.00  0.00    -0.055 A 
ATOM      8  C   LIG d   1       4.303  -0.991  -1.663  0.00  0.00    -0.061 A 
ATOM      9  C   LIG d   1       4.752   0.302  -1.866  0.00  0.00    -0.058 A 
ATOM     10  C   LIG d   1       5.160   0.700  -3.121  0.00  0.00    -0.020 A 
ATOM     11  C   LIG d   1       5.122  -0.194  -4.188  0.00  0.00     0.124 A 
ATOM     12  O   LIG d   1       5.536   0.235  -5.408  0.00  0.00    -0.483 OA
ATOM     13  H   LIG d   1       3.572  -2.577  -5.451  0.00  0.00     0.037 H 
ATOM     14  H   LIG d   1       4.959  -3.452  -4.760  0.00  0.00     0.037 H 
ATOM     15  H   LIG d   1       3.913  -2.890  -2.558  0.00  0.00     0.062 H 
ATOM     16  H   LIG d   1       3.985  -1.304  -0.680  0.00  0.00     0.062 H 
ATOM     17  H   LIG d   1       4.782   0.999  -1.041  0.00  0.00     0.062 H 
ATOM     18  H   LIG d   1       5.510   1.710  -3.279  0.00  0.00     0.065 H 
ENDROOT
BRANCH   3  19
ATOM     19  N   LIG d   1       5.171  -2.808  -7.475  0.00  0.00     0.236 N 
ATOM     20  H   LIG d   1       4.607  -2.239  -8.118  0.00  0.00     0.203 HD
BRANCH  19  21
ATOM     21  C   LIG d   1       6.422  -3.203  -8.154  0.00  0.00    -0.043 C 
ATOM     22  H   LIG d   1       7.079  -2.336  -8.221  0.00  0.00     0.078 H 
ATOM     23  H   LIG d   1       6.909  -3.984  -7.572  0.00  0.00     0.078 H 
ATOM     24  H   LIG d   1       6.210  -3.576  -9.157  0.00  0.00     0.078 H 
ENDBRANCH  19  21
BRANCH  19  25
ATOM     25  C   LIG d   1       4.399  -4.011  -7.096  0.00  0.00    -0.043 C 
ATOM     26  H   LIG d   1       5.021  -4.903  -7.173  0.00  0.00     0.078 H 
ATOM     27  H   LIG d   1       4.051  -3.898  -6.070  0.00  0.00     0.078 H 
ATOM     28  H   LIG d   1       3.543  -4.107  -7.762  0.00  0.00     0.078 H 
ENDBRANCH  19  25
ENDBRANCH   3  19
BRANCH   1  29
ATOM     29  C   LIG d   1       3.654  -0.377  -6.799  0.00  0.00    -0.022 C 
ATOM     30  H   LIG d   1       3.314   0.572  -6.385  0.00  0.00     0.027 H 
ATOM     31  H   LIG d   1       3.460  -0.397  -7.872  0.00  0.00     0.027 H 
ATOM     32  H   LIG d   1       3.118  -1.196  -6.319  0.00  0.00     0.027 H 
ENDBRANCH   1  29
TORSDOF 4
ENDMDL
MODEL 4
REMARK VINA RESULT:      -4.8      1.621      2.921
REMARK  4 active torsions:
REMARK  status: ('A' for Active; 'I' for Inactive)
REMARK    1  A    between atoms: C_1  and  C_2 
REMARK    2  A    between atoms: C_4  and  N_31 
REMARK    3  A    between atoms: C_14  and  N_31 
REMARK    4  A    between atoms: C_15  and  N_31 
ROOT
ATOM      1  C   LIG d   1       6.895  -1.698  -4.913  0.00  0.00     0.140 C 
ATOM      2  H   LIG d   1       7.171  -2.288  -5.787  0.00  0.00     0.079 H 
ATOM      3  C   LIG d   1       7.489  -0.288  -5.033  0.00  0.00     0.020 C 
ATOM      4  H   LIG d   1       7.044   0.228  -5.883  0.00  0.00     0.089 H 
ATOM      5  C   LIG d   1       7.176   0.476  -3.743  0.00  0.00     0.022 C 
ATOM      6  C   LIG d   1       5.717   0.316  -3.401  0.00  0.00    -0.000 A 
ATOM      7  C   LIG d   1       5.142   1.203  -2.505  0.00  0.00    -0.055 A 
ATOM      8  C   LIG d   1       3.810   1.081  -2.162  0.00  0.00    -0.061 A 
ATOM      9  C   LIG d   1       3.043   0.071  -2.714  0.00  0.00    -0.058 A 
ATOM     10  C   LIG d   1       3.610  -0.814  -3.607  0.00  0.00    -0.020 A 
ATOM     11  C   LIG d   1       4.952  -0.695  -3.956  0.00  0.00     0.124 A 
ATOM     12  O   LIG d   1       5.473  -1.582  -4.843  0.00  0.00    -0.483 OA
ATOM     13  H   LIG d   1       7.785   0.080  -2.930  0.00  0.00     0.037 H 
ATOM     14  H   LIG d   1       7.402   1.532  -3.884  0.00  0.00     0.037 H 
ATOM     15  H   LIG d   1       5.739   1.992  -2.073  0.00  0.00     0.062 H 
ATOM     16  H   LIG d   1       3.367   1.775  -1.463  0.00  0.00     0.062 H 
ATOM     17  H   LIG d   1       2.002  -0.026  -2.444  0.00  0.00     0.062 H 
ATOM     18  H   LIG d   1       3.010  -1.603  -4.037  0.00  0.00     0.065 H 
ENDROOT
BRANCH   3  19
ATOM     19  N   LIG d   1       8.955  -0.393  -5.192  0.00  0.00     0.236 N 
ATOM     20  H   LIG d   1       9.316  -1.079  -4.518  0.00  0.00     0.203 HD
BRANCH  19  21
ATOM     21  C   LIG d   1       9.283  -0.845  -6.560  0.00  0.00    -0.043 C 
ATOM     22  H   LIG d   1       9.672  -1.862  -6.514  0.00  0.00     0.078 H 
ATOM     23  H   LIG d   1       8.377  -0.829  -7.165  0.00  0.00     0.078 H 
ATOM     24  H   LIG d   1      10.031  -0.190  -7.009  0.00  0.00     0.078 H 
ENDBRANCH  19  21
BRANCH  19  25
ATOM     25  C   LIG d   1       9.587   0.917  -4.926  0.00  0.00    -0.043 C 
ATOM     26  H   LIG d   1      10.587   0.782  -4.515  0.00  0.00     0.078 H 
ATOM     27  H   LIG d   1       9.651   1.474  -5.861  0.00  0.00     0.078 H 
ATOM     28  H   LIG d   1       8.973   1.469  -4.215  0.00  0.00     0.078 H 
ENDBRANCH  19  25
ENDBRANCH   3  19
BRANCH   1  29
ATOM     29  C   LIG d   1       7.421  -2.373  -3.646  0.00  0.00    -0.022 C 
ATOM     30  H   LIG d   1       7.549  -3.440  -3.829  0.00  0.00     0.027 H 
ATOM     31  H   LIG d   1       8.379  -1.934  -3.371  0.00  0.00     0.027 H 
ATOM     32  H   LIG d   1       6.708  -2.227  -2.834  0.00  0.00     0.027 H 
ENDBRANCH   1  29
TORSDOF 4
ENDMDL
MODEL 5
REMARK VINA RESULT:      -4.7      1.555      2.281
REMARK  4 active torsions:
REMARK  status: ('A' for Active; 'I' for Inactive)
REMARK    1  A    between atoms: C_1  and  C_2 
REMARK    2  A    between atoms: C_4  and  N_31 
REMARK    3  A    between atoms: C_14  and  N_31 
REMARK    4  A    between atoms: C_15  and  N_31 
ROOT
ATOM      1  C   LIG d   1       5.265  -2.393  -5.426  0.00  0.00     0.140 C 
ATOM      2  H   LIG d   1       5.356  -2.768  -6.446  0.00  0.00     0.079 H 
ATOM      3  C   LIG d   1       6.646  -1.978  -4.904  0.00  0.00     0.020 C 
ATOM      4  H   LIG d   1       7.024  -1.139  -5.487  0.00  0.00     0.089 H 
ATOM      5  C   LIG d   1       6.500  -1.564  -3.437  0.00  0.00     0.022 C 
ATOM      6  C   LIG d   1       5.339  -0.613  -3.292  0.00  0.00    -0.000 A 
ATOM      7  C   LIG d   1       5.253   0.164  -2.149  0.00  0.00    -0.055 A 
ATOM      8  C   LIG d   1       4.198   1.040  -1.979  0.00  0.00    -0.061 A 
ATOM      9  C   LIG d   1       3.223   1.145  -2.954  0.00  0.00    -0.058 A 
ATOM     10  C   LIG d   1       3.305   0.375  -4.095  0.00  0.00    -0.020 A 
ATOM     11  C   LIG d   1       4.366  -0.508  -4.271  0.00  0.00     0.124 A 
ATOM     12  O   LIG d   1       4.414  -1.246  -5.410  0.00  0.00    -0.483 OA
ATOM     13  H   LIG d   1       6.323  -2.449  -2.826  0.00  0.00     0.037 H 
ATOM     14  H   LIG d   1       7.415  -1.073  -3.106  0.00  0.00     0.037 H 
ATOM     15  H   LIG d   1       6.013   0.084  -1.386  0.00  0.00     0.062 H 
ATOM     16  H   LIG d   1       4.136   1.643  -1.085  0.00  0.00     0.062 H 
ATOM     17  H   LIG d   1       2.398   1.829  -2.821  0.00  0.00     0.062 H 
ATOM     18  H   LIG d   1       2.543   0.458  -4.856  0.00  0.00     0.065 H 
ENDROOT
BRANCH   3  19
ATOM     19  N   LIG d   1       7.564  -3.133  -4.992  0.00  0.00     0.236 N 
ATOM     20  H   LIG d   1       7.011  -3.992  -5.098  0.00  0.00     0.203 HD
BRANCH  19  21
ATOM     21  C   LIG d   1       8.450  -2.986  -6.166  0.00  0.00    -0.043 C 
ATOM     22  H   LIG d   1       9.096  -2.121  -6.016  0.00  0.00     0.078 H 
ATOM     23  H   LIG d   1       9.060  -3.882  -6.264  0.00  0.00     0.078 H 
ATOM     24  H   LIG d   1       7.861  -2.846  -7.074  0.00  0.00     0.078 H 
ENDBRANCH  19  21
BRANCH  19  25
ATOM     25  C   LIG d   1       8.373  -3.232  -3.759  0.00  0.00    -0.043 C 
ATOM     26  H   LIG d   1       8.793  -4.233  -3.656  0.00  0.00     0.078 H 
ATOM     27  H   LIG d   1       9.181  -2.503  -3.806  0.00  0.00     0.078 H 
ATOM     28  H   LIG d   1       7.738  -3.016  -2.900  0.00  0.00     0.078 H 
ENDBRANCH  19  25
ENDBRANCH   3  19
BRANCH   1  29
ATOM     29  C   LIG d   1       4.679  -3.482  -4.527  0.00  0.00    -0.022 C 
ATOM     30  H   LIG d   1       4.035  -3.026  -3.776  0.00  0.00     0.027 H 
ATOM     31  H   LIG d   1       4.097  -4.178  -5.131  0.00  0.00     0.027 H 
ATOM     32  H   LIG d   1       5.488  -4.020  -4.033  0.00  0.00     0.027 H 
ENDBRANCH   1  29
TORSDOF 4
ENDMDL
MODEL 6
REMARK VINA RESULT:      -4.7      2.427      3.442
REMARK  4 active torsions:
REMARK  status: ('A' for Active; 'I' for Inactive)
REMARK    1  A    between atoms: C_1  and  C_2 
REMARK    2  A    between atoms: C_4  and  N_31 
REMARK    3  A    between atoms: C_14  and  N_31 
REMARK    4  A    between atoms: C_15  and  N_31 
ROOT
ATOM      1  C   LIG d   1       4.871  -3.571  -5.255  0.00  0.00     0.140 C 
ATOM      2  H   LIG d   1       4.414  -4.474  -5.660  0.00  0.00     0.079 H 
ATOM      3  C   LIG d   1       4.710  -2.418  -6.255  0.00  0.00     0.020 C 
ATOM      4  H   LIG d   1       3.654  -2.179  -6.375  0.00  0.00     0.089 H 
ATOM      5  C   LIG d   1       5.458  -1.200  -5.707  0.00  0.00     0.022 C 
ATOM      6  C   LIG d   1       5.083  -0.983  -4.262  0.00  0.00    -0.000 A 
ATOM      7  C   LIG d   1       5.342   0.249  -3.685  0.00  0.00    -0.055 A 
ATOM      8  C   LIG d   1       5.020   0.481  -2.362  0.00  0.00    -0.061 A 
ATOM      9  C   LIG d   1       4.435  -0.520  -1.608  0.00  0.00    -0.058 A 
ATOM     10  C   LIG d   1       4.173  -1.748  -2.178  0.00  0.00    -0.020 A 
ATOM     11  C   LIG d   1       4.495  -1.985  -3.511  0.00  0.00     0.124 A 
ATOM     12  O   LIG d   1       4.217  -3.206  -4.039  0.00  0.00    -0.483 OA
ATOM     13  H   LIG d   1       6.532  -1.369  -5.781  0.00  0.00     0.037 H 
ATOM     14  H   LIG d   1       5.189  -0.318  -6.288  0.00  0.00     0.037 H 
ATOM     15  H   LIG d   1       5.800   1.032  -4.272  0.00  0.00     0.062 H 
ATOM     16  H   LIG d   1       5.225   1.443  -1.917  0.00  0.00     0.062 H 
ATOM     17  H   LIG d   1       4.184  -0.340  -0.573  0.00  0.00     0.062 H 
ATOM     18  H   LIG d   1       3.716  -2.529  -1.589  0.00  0.00     0.065 H 
ENDROOT
BRANCH   3  19
ATOM     19  N   LIG d   1       5.308  -2.813  -7.548  0.00  0.00     0.236 N 
ATOM     20  H   LIG d   1       6.116  -3.422  -7.371  0.00  0.00     0.203 HD
BRANCH  19  21
ATOM     21  C   LIG d   1       4.317  -3.553  -8.357  0.00  0.00    -0.043 C 
ATOM     22  H   LIG d   1       4.214  -4.561  -7.956  0.00  0.00     0.078 H 
ATOM     23  H   LIG d   1       3.359  -3.039  -8.299  0.00  0.00     0.078 H 
ATOM     24  H   LIG d   1       4.638  -3.607  -9.398  0.00  0.00     0.078 H 
ENDBRANCH  19  21
BRANCH  19  25
ATOM     25  C   LIG d   1       5.764  -1.613  -8.281  0.00  0.00    -0.043 C 
ATOM     26  H   LIG d   1       5.167  -1.464  -9.181  0.00  0.00     0.078 H 
ATOM     27  H   LIG d   1       5.664  -0.743  -7.631  0.00  0.00     0.078 H 
ATOM     28  H   LIG d   1       6.810  -1.742  -8.557  0.00  0.00     0.078 H 
ENDBRANCH  19  25
ENDBRANCH   3  19
BRANCH   1  29
ATOM     29  C   LIG d   1       6.356  -3.820  -4.988  0.00  0.00    -0.022 C 
ATOM     30  H   LIG d   1       6.667  -4.736  -5.490  0.00  0.00     0.027 H 
ATOM     31  H   LIG d   1       6.939  -2.981  -5.369  0.00  0.00     0.027 H 
ATOM     32  H   LIG d   1       6.521  -3.918  -3.915  0.00  0.00     0.027 H 
ENDBRANCH   1  29
TORSDOF 4
ENDMDL
MODEL 7
REMARK VINA RESULT:      -4.6      1.763      2.313
REMARK  4 active torsions:
REMARK  status: ('A' for Active; 'I' for Inactive)
REMARK    1  A    between atoms: C_1  and  C_2 
REMARK    2  A    between atoms: C_4  and  N_31 
REMARK    3  A    between atoms: C_14  and  N_31 
REMARK    4  A    between atoms: C_15  and  N_31 
ROOT
ATOM      1  C   LIG d   1       6.458  -0.419  -6.120  0.00  0.00     0.140 C 
ATOM      2  H   LIG d   1       6.953   0.281  -6.793  0.00  0.00     0.079 H 
ATOM      3  C   LIG d   1       7.395  -0.768  -4.957  0.00  0.00     0.020 C 
ATOM      4  H   LIG d   1       7.586   0.122  -4.358  0.00  0.00     0.089 H 
ATOM      5  C   LIG d   1       6.714  -1.834  -4.095  0.00  0.00     0.022 C 
ATOM      6  C   LIG d   1       5.295  -1.418  -3.801  0.00  0.00    -0.000 A 
ATOM      7  C   LIG d   1       4.623  -2.031  -2.756  0.00  0.00    -0.055 A 
ATOM      8  C   LIG d   1       3.320  -1.680  -2.463  0.00  0.00    -0.061 A 
ATOM      9  C   LIG d   1       2.679  -0.712  -3.216  0.00  0.00    -0.058 A 
ATOM     10  C   LIG d   1       3.343  -0.098  -4.256  0.00  0.00    -0.020 A 
ATOM     11  C   LIG d   1       4.657  -0.447  -4.554  0.00  0.00     0.124 A 
ATOM     12  O   LIG d   1       5.279   0.184  -5.583  0.00  0.00    -0.483 OA
ATOM     13  H   LIG d   1       6.710  -2.785  -4.628  0.00  0.00     0.037 H 
ATOM     14  H   LIG d   1       7.260  -1.947  -3.159  0.00  0.00     0.037 H 
ATOM     15  H   LIG d   1       5.122  -2.787  -2.167  0.00  0.00     0.062 H 
ATOM     16  H   LIG d   1       2.801  -2.161  -1.647  0.00  0.00     0.062 H 
ATOM     17  H   LIG d   1       1.660  -0.439  -2.988  0.00  0.00     0.062 H 
ATOM     18  H   LIG d   1       2.842   0.658  -4.843  0.00  0.00     0.065 H 
ENDROOT
BRANCH   3  19
ATOM     19  N   LIG d   1       8.656  -1.315  -5.499  0.00  0.00     0.236 N 
ATOM     20  H   LIG d   1       8.529  -1.523  -6.497  0.00  0.00     0.203 HD
BRANCH  19  21
ATOM     21  C   LIG d   1       9.742  -0.324  -5.350  0.00  0.00    -0.043 C 
ATOM     22  H   LIG d   1       9.323   0.678  -5.442  0.00  0.00     0.078 H 
ATOM     23  H   LIG d   1      10.194  -0.440  -4.366  0.00  0.00     0.078 H 
ATOM     24  H   LIG d   1      10.502  -0.472  -6.119  0.00  0.00     0.078 H 
ENDBRANCH  19  21
BRANCH  19  25
ATOM     25  C   LIG d   1       9.011  -2.564  -4.791  0.00  0.00    -0.043 C 
ATOM     26  H   LIG d   1       9.990  -2.921  -5.112  0.00  0.00     0.078 H 
ATOM     27  H   LIG d   1       9.030  -2.369  -3.719  0.00  0.00     0.078 H 
ATOM     28  H   LIG d   1       8.259  -3.322  -5.009  0.00  0.00     0.078 H 
ENDBRANCH  19  25
ENDBRANCH   3  19
BRANCH   1  29
ATOM     29  C   LIG d   1       6.085  -1.691  -6.882  0.00  0.00    -0.022 C 
ATOM     30  H   LIG d   1       5.282  -1.472  -7.585  0.00  0.00     0.027 H 
ATOM     31  H   LIG d   1       6.956  -2.056  -7.428  0.00  0.00     0.027 H 
ATOM     32  H   LIG d   1       5.754  -2.453  -6.177  0.00  0.00     0.027 H 
ENDBRANCH   1  29
TORSDOF 4
ENDMDL
MODEL 8
REMARK VINA RESULT:      -4.4      4.028      5.273
REMARK  4 active torsions:
REMARK  status: ('A' for Active; 'I' for Inactive)
REMARK    1  A    between atoms: C_1  and  C_2 
REMARK    2  A    between atoms: C_4  and  N_31 
REMARK    3  A    between atoms: C_14  and  N_31 
REMARK    4  A    between atoms: C_15  and  N_31 
ROOT
ATOM      1  C   LIG d   1       5.081  -1.365  -6.435  0.00  0.00     0.140 C 
ATOM      2  H   LIG d   1       5.859  -1.856  -5.850  0.00  0.00     0.079 H 
ATOM      3  C   LIG d   1       4.175  -0.548  -5.505  0.00  0.00     0.020 C 
ATOM      4  H   LIG d   1       4.747   0.260  -5.049  0.00  0.00     0.089 H 
ATOM      5  C   LIG d   1       3.031   0.035  -6.340  0.00  0.00     0.022 C 
ATOM      6  C   LIG d   1       3.589   0.681  -7.583  0.00  0.00    -0.000 A 
ATOM      7  C   LIG d   1       2.796   1.577  -8.281  0.00  0.00    -0.055 A 
ATOM      8  C   LIG d   1       3.272   2.181  -9.428  0.00  0.00    -0.061 A 
ATOM      9  C   LIG d   1       4.546   1.893  -9.884  0.00  0.00    -0.058 A 
ATOM     10  C   LIG d   1       5.340   1.004  -9.192  0.00  0.00    -0.020 A 
ATOM     11  C   LIG d   1       4.865   0.393  -8.035  0.00  0.00     0.124 A 
ATOM     12  O   LIG d   1       5.679  -0.474  -7.378  0.00  0.00    -0.483 OA
ATOM     13  H   LIG d   1       2.345  -0.763  -6.623  0.00  0.00     0.037 H 
ATOM     14  H   LIG d   1       2.497   0.781  -5.752  0.00  0.00     0.037 H 
ATOM     15  H   LIG d   1       1.801   1.803  -7.927  0.00  0.00     0.062 H 
ATOM     16  H   LIG d   1       2.649   2.878  -9.969  0.00  0.00     0.062 H 
ATOM     17  H   LIG d   1       4.917   2.364 -10.782  0.00  0.00     0.062 H 
ATOM     18  H   LIG d   1       6.334   0.779  -9.548  0.00  0.00     0.065 H 
ENDROOT
BRANCH   3  19
ATOM     19  N   LIG d   1       3.613  -1.441  -4.469  0.00  0.00     0.236 N 
ATOM     20  H   LIG d   1       3.086  -2.194  -4.927  0.00  0.00     0.203 HD
BRANCH  19  21
ATOM     21  C   LIG d   1       4.704  -2.036  -3.670  0.00  0.00    -0.043 C 
ATOM     22  H   LIG d   1       4.873  -3.059  -4.006  0.00  0.00     0.078 H 
ATOM     23  H   LIG d   1       5.611  -1.451  -3.819  0.00  0.00     0.078 H 
ATOM     24  H   LIG d   1       4.444  -2.039  -2.611  0.00  0.00     0.078 H 
ENDBRANCH  19  21
BRANCH  19  25
ATOM     25  C   LIG d   1       2.698  -0.682  -3.590  0.00  0.00    -0.043 C 
ATOM     26  H   LIG d   1       2.472  -1.253  -2.690  0.00  0.00     0.078 H 
ATOM     27  H   LIG d   1       3.173   0.258  -3.314  0.00  0.00     0.078 H 
ATOM     28  H   LIG d   1       1.775  -0.478  -4.131  0.00  0.00     0.078 H 
ENDBRANCH  19  25
ENDBRANCH   3  19
BRANCH   1  29
ATOM     29  C   LIG d   1       4.250  -2.416  -7.173  0.00  0.00    -0.022 C 
ATOM     30  H   LIG d   1       3.211  -2.349  -6.851  0.00  0.00     0.027 H 
ATOM     31  H   LIG d   1       4.311  -2.238  -8.246  0.00  0.00     0.027 H 
ATOM     32  H   LIG d   1       4.637  -3.409  -6.947  0.00  0.00     0.027 H 
ENDBRANCH   1  29
TORSDOF 4
ENDMDL
MODEL 9
REMARK VINA RESULT:      -4.1      2.130      4.931
REMARK  4 active torsions:
REMARK  status: ('A' for Active; 'I' for Inactive)
REMARK    1  A    between atoms: C_1  and  C_2 
REMARK    2  A    between atoms: C_4  and  N_31 
REMARK    3  A    between atoms: C_14  and  N_31 
REMARK    4  A    between atoms: C_15  and  N_31 
ROOT
ATOM      1  C   LIG d   1       4.046  -1.301  -4.344  0.00  0.00     0.140 C 
ATOM      2  H   LIG d   1       3.079  -0.951  -3.983  0.00  0.00     0.079 H 
ATOM      3  C   LIG d   1       5.136  -0.953  -3.322  0.00  0.00     0.020 C 
ATOM      4  H   LIG d   1       4.959  -1.498  -2.395  0.00  0.00     0.089 H 
ATOM      5  C   LIG d   1       6.492  -1.358  -3.909  0.00  0.00     0.022 C 
ATOM      6  C   LIG d   1       6.409  -2.762  -4.452  0.00  0.00    -0.000 A 
ATOM      7  C   LIG d   1       7.586  -3.455  -4.687  0.00  0.00    -0.055 A 
ATOM      8  C   LIG d   1       7.549  -4.740  -5.192  0.00  0.00    -0.061 A 
ATOM      9  C   LIG d   1       6.333  -5.340  -5.466  0.00  0.00    -0.058 A 
ATOM     10  C   LIG d   1       5.159  -4.655  -5.233  0.00  0.00    -0.020 A 
ATOM     11  C   LIG d   1       5.192  -3.361  -4.723  0.00  0.00     0.124 A 
ATOM     12  O   LIG d   1       4.014  -2.720  -4.502  0.00  0.00    -0.483 OA
ATOM     13  H   LIG d   1       6.758  -0.672  -4.713  0.00  0.00     0.037 H 
ATOM     14  H   LIG d   1       7.251  -1.315  -3.129  0.00  0.00     0.037 H 
ATOM     15  H   LIG d   1       8.536  -2.988  -4.474  0.00  0.00     0.062 H 
ATOM     16  H   LIG d   1       8.469  -5.276  -5.373  0.00  0.00     0.062 H 
ATOM     17  H   LIG d   1       6.303  -6.344  -5.863  0.00  0.00     0.062 H 
ATOM     18  H   LIG d   1       4.210  -5.125  -5.447  0.00  0.00     0.065 H 
ENDROOT
BRANCH   3  19
ATOM     19  N   LIG d   1       5.127   0.505  -3.083  0.00  0.00     0.236 N 
ATOM     20  H   LIG d   1       4.500   0.952  -3.762  0.00  0.00     0.203 HD
BRANCH  19  21
ATOM     21  C   LIG d   1       4.637   0.790  -1.718  0.00  0.00    -0.043 C 
ATOM     22  H   LIG d   1       4.416   1.854  -1.635  0.00  0.00     0.078 H 
ATOM     23  H   LIG d   1       3.729   0.215  -1.541  0.00  0.00     0.078 H 
ATOM     24  H   LIG d   1       5.389   0.517  -0.977  0.00  0.00     0.078 H 
ENDBRANCH  19  21
BRANCH  19  25
ATOM     25  C   LIG d   1       6.489   1.054  -3.255  0.00  0.00    -0.043 C 
ATOM     26  H   LIG d   1       6.917   1.327  -2.290  0.00  0.00     0.078 H 
ATOM     27  H   LIG d   1       7.116   0.300  -3.729  0.00  0.00     0.078 H 
ATOM     28  H   LIG d   1       6.438   1.937  -3.892  0.00  0.00     0.078 H 
ENDBRANCH  19  25
ENDBRANCH   3  19
BRANCH   1  29
ATOM     29  C   LIG d   1       4.367  -0.640  -5.685  0.00  0.00    -0.022 C 
ATOM     30  H   LIG d   1       3.821   0.299  -5.767  0.00  0.00     0.027 H 
ATOM     31  H   LIG d   1       5.438  -0.445  -5.748  0.00  0.00     0.027 H 
ATOM     32  H   LIG d   1       4.072  -1.304  -6.498  0.00  0.00     0.027 H 
ENDBRANCH   1  29
TORSDOF 4
ENDMDL
MODEL 10
REMARK VINA RESULT:      -3.8      8.373      9.742
REMARK  4 active torsions:
REMARK  status: ('A' for Active; 'I' for Inactive)
REMARK    1  A    between atoms: C_1  and  C_2 
REMARK    2  A    between atoms: C_4  and  N_31 
REMARK    3  A    between atoms: C_14  and  N_31 
REMARK    4  A    between atoms: C_15  and  N_31 
ROOT
ATOM      1  C   LIG d   1      10.807   5.620  -0.544  0.00  0.00     0.140 C 
ATOM      2  H   LIG d   1      10.552   4.764   0.081  0.00  0.00     0.079 H 
ATOM      3  C   LIG d   1      10.658   5.242  -2.024  0.00  0.00     0.020 C 
ATOM      4  H   LIG d   1       9.613   5.024  -2.244  0.00  0.00     0.089 H 
ATOM      5  C   LIG d   1      11.130   6.426  -2.872  0.00  0.00     0.022 C 
ATOM      6  C   LIG d   1      10.495   7.697  -2.366  0.00  0.00    -0.000 A 
ATOM      7  C   LIG d   1      10.484   8.810  -3.190  0.00  0.00    -0.055 A 
ATOM      8  C   LIG d   1       9.918   9.993  -2.757  0.00  0.00    -0.061 A 
ATOM      9  C   LIG d   1       9.359  10.069  -1.494  0.00  0.00    -0.058 A 
ATOM     10  C   LIG d   1       9.366   8.964  -0.669  0.00  0.00    -0.020 A 
ATOM     11  C   LIG d   1       9.934   7.770  -1.103  0.00  0.00     0.124 A 
ATOM     12  O   LIG d   1       9.918   6.701  -0.264  0.00  0.00    -0.483 OA
ATOM     13  H   LIG d   1      12.215   6.511  -2.805  0.00  0.00     0.037 H 
ATOM     14  H   LIG d   1      10.842   6.266  -3.910  0.00  0.00     0.037 H 
ATOM     15  H   LIG d   1      10.920   8.752  -4.177  0.00  0.00     0.062 H 
ATOM     16  H   LIG d   1       9.912  10.858  -3.404  0.00  0.00     0.062 H 
ATOM     17  H   LIG d   1       8.918  10.995  -1.153  0.00  0.00     0.062 H 
ATOM     18  H   LIG d   1       8.929   9.025   0.317  0.00  0.00     0.065 H 
ENDROOT
BRANCH   3  19
ATOM     19  N   LIG d   1      11.510   4.069  -2.312  0.00  0.00     0.236 N 
ATOM     20  H   LIG d   1      12.047   3.830  -1.469  0.00  0.00     0.203 HD
BRANCH  19  21
ATOM     21  C   LIG d   1      10.668   2.914  -2.687  0.00  0.00    -0.043 C 
ATOM     22  H   LIG d   1       9.784   3.275  -3.214  0.00  0.00     0.078 H 
ATOM     23  H   LIG d   1      11.239   2.258  -3.343  0.00  0.00     0.078 H 
ATOM     24  H   LIG d   1      10.360   2.361  -1.799  0.00  0.00     0.078 H 
ENDBRANCH  19  21
BRANCH  19  25
ATOM     25  C   LIG d   1      12.451   4.385  -3.407  0.00  0.00    -0.043 C 
ATOM     26  H   LIG d   1      13.479   4.374  -3.043  0.00  0.00     0.078 H 
ATOM     27  H   LIG d   1      12.338   3.641  -4.195  0.00  0.00     0.078 H 
ATOM     28  H   LIG d   1      12.217   5.372  -3.803  0.00  0.00     0.078 H 
ENDBRANCH  19  25
ENDBRANCH   3  19
BRANCH   1  29
ATOM     29  C   LIG d   1      12.248   6.051  -0.265  0.00  0.00    -0.022 C 
ATOM     30  H   LIG d   1      12.473   5.904   0.791  0.00  0.00     0.027 H 
ATOM     31  H   LIG d   1      12.930   5.452  -0.869  0.00  0.00     0.027 H 
ATOM     32  H   LIG d   1      12.368   7.104  -0.519  0.00  0.00     0.027 H 
ENDBRANCH   1  29
TORSDOF 4
ENDMDL
