MODEL 1
REMARK VINA RESULT:      -8.1      0.000      0.000
REMARK  11 active torsions:
REMARK  status: ('A' for Active; 'I' for Inactive)
REMARK    1  A    between atoms: C_1  and  C_2 
REMARK    2  A    between atoms: C_13  and  O_15 
REMARK    3  A    between atoms: N_21  and  O_22 
REMARK    4  A    between atoms: O_22  and  C_23 
REMARK    5  A    between atoms: C_23  and  C_24 
REMARK       I    between atoms: C_24  and  N_26 
REMARK    6  A    between atoms: N_26  and  C_27 
REMARK    7  A    between atoms: C_27  and  C_29 
REMARK    8  A    between atoms: C_27  and  C_35 
REMARK    9  A    between atoms: C_35  and  O_37 
REMARK   10  A    between atoms: O_37  and  C_38 
REMARK   11  A    between atoms: C_41  and  C_42 
ROOT
ATOM      1  C   LIG d   1      10.085   8.845  -2.186  0.00  0.00    -0.003 C 
ATOM      2  C   LIG d   1       9.406   7.769  -1.361  0.00  0.00    -0.045 C 
ATOM      3  C   LIG d   1       9.869   6.412  -1.917  0.00  0.00    -0.049 C 
ATOM      4  C   LIG d   1       9.547   6.271  -3.401  0.00  0.00    -0.029 C 
ATOM      5  H   LIG d   1       8.465   6.247  -3.528  0.00  0.00     0.031 H 
ATOM      6  C   LIG d   1      10.119   7.435  -4.223  0.00  0.00    -0.034 C 
ATOM      7  H   LIG d   1      11.208   7.436  -4.160  0.00  0.00     0.031 H 
ATOM      8  C   LIG d   1       9.540   8.723  -3.634  0.00  0.00    -0.030 C 
ATOM      9  H   LIG d   1       8.451   8.691  -3.629  0.00  0.00     0.031 H 
ATOM     10  C   LIG d   1      10.048  10.023  -4.268  0.00  0.00    -0.047 C 
ATOM     11  C   LIG d   1       9.802  11.073  -3.150  0.00  0.00    -0.026 C 
ATOM     12  C   LIG d   1       9.771  10.291  -1.814  0.00  0.00     0.061 C 
ATOM     13  H   LIG d   1      10.528  10.678  -1.132  0.00  0.00     0.060 H 
ATOM     14  C   LIG d   1       9.678   7.281  -5.682  0.00  0.00    -0.046 C 
ATOM     15  C   LIG d   1      10.307   6.015  -6.266  0.00  0.00    -0.031 C 
ATOM     16  C   LIG d   1       9.934   4.835  -5.387  0.00  0.00    -0.062 C 
ATOM     17  C   LIG d   1       9.453   3.749  -5.982  0.00  0.00    -0.037 C 
ATOM     18  C   LIG d   1       9.091   2.568  -5.178  0.00  0.00     0.080 C 
ATOM     19  N   LIG d   1       8.266   1.671  -5.615  0.00  0.00    -0.089 NA
ATOM     20  C   LIG d   1       9.741   2.460  -3.811  0.00  0.00    -0.006 C 
ATOM     21  C   LIG d   1       9.548   3.802  -3.108  0.00  0.00    -0.038 C 
ATOM     22  C   LIG d   1      10.139   4.955  -3.922  0.00  0.00    -0.007 C 
ATOM     23  H   LIG d   1       9.700   7.861  -0.316  0.00  0.00     0.027 H 
ATOM     24  H   LIG d   1       8.323   7.858  -1.453  0.00  0.00     0.027 H 
ATOM     25  H   LIG d   1      10.947   6.320  -1.777  0.00  0.00     0.027 H 
ATOM     26  H   LIG d   1       9.371   5.614  -1.367  0.00  0.00     0.027 H 
ATOM     27  H   LIG d   1      11.110   9.949  -4.500  0.00  0.00     0.027 H 
ATOM     28  H   LIG d   1       9.472  10.268  -5.161  0.00  0.00     0.027 H 
ATOM     29  H   LIG d   1      10.611  11.803  -3.139  0.00  0.00     0.029 H 
ATOM     30  H   LIG d   1       8.847  11.575  -3.312  0.00  0.00     0.029 H 
ATOM     31  H   LIG d   1       8.592   7.204  -5.727  0.00  0.00     0.027 H 
ATOM     32  H   LIG d   1      10.007   8.149  -6.254  0.00  0.00     0.027 H 
ATOM     33  H   LIG d   1       9.929   5.852  -7.276  0.00  0.00     0.031 H 
ATOM     34  H   LIG d   1      11.391   6.123  -6.294  0.00  0.00     0.031 H 
ATOM     35  H   LIG d   1       9.326   3.733  -7.054  0.00  0.00     0.064 H 
ATOM     36  H   LIG d   1       9.264   1.667  -3.237  0.00  0.00     0.033 H 
ATOM     37  H   LIG d   1      10.805   2.249  -3.922  0.00  0.00     0.033 H 
ATOM     38  H   LIG d   1       8.482   3.979  -2.967  0.00  0.00     0.028 H 
ATOM     39  H   LIG d   1      10.032   3.764  -2.132  0.00  0.00     0.028 H 
ENDROOT
BRANCH  19  40
ATOM     40  O   LIG d   1       7.682   1.810  -6.897  0.00  0.00    -0.384 OA
BRANCH  40  41
ATOM     41  C   LIG d   1       7.653   0.601  -7.658  0.00  0.00     0.193 C 
ATOM     42  H   LIG d   1       7.592   0.841  -8.720  0.00  0.00     0.082 H 
ATOM     43  H   LIG d   1       8.561   0.030  -7.465  0.00  0.00     0.082 H 
BRANCH  41  44
ATOM     44  C   LIG d   1       6.452  -0.215  -7.257  0.00  0.00     0.254 C 
ATOM     45  O   LIG d   1       6.227  -1.275  -7.802  0.00  0.00    -0.272 OA
ATOM     46  N   LIG d   1       5.625   0.233  -6.290  0.00  0.00    -0.296 N 
ATOM     47  H   LIG d   1       5.804   1.080  -5.854  0.00  0.00     0.150 HD
BRANCH  46  48
ATOM     48  C   LIG d   1       4.457  -0.560  -5.900  0.00  0.00     0.146 C 
ATOM     49  H   LIG d   1       4.504  -1.537  -6.380  0.00  0.00     0.067 H 
BRANCH  48  50
ATOM     50  C   LIG d   1       4.448  -0.737  -4.403  0.00  0.00    -0.017 A 
ATOM     51  C   LIG d   1       4.957   0.256  -3.587  0.00  0.00    -0.056 A 
ATOM     52  C   LIG d   1       4.945   0.095  -2.214  0.00  0.00    -0.061 A 
ATOM     53  H   LIG d   1       5.360   1.159  -4.021  0.00  0.00     0.062 H 
ATOM     54  C   LIG d   1       4.434  -1.062  -1.658  0.00  0.00    -0.062 A 
ATOM     55  H   LIG d   1       5.339   0.873  -1.576  0.00  0.00     0.062 H 
ATOM     56  C   LIG d   1       3.929  -2.057  -2.474  0.00  0.00    -0.061 A 
ATOM     57  H   LIG d   1       4.427  -1.189  -0.585  0.00  0.00     0.062 H 
ATOM     58  C   LIG d   1       3.937  -1.895  -3.847  0.00  0.00    -0.056 A 
ATOM     59  H   LIG d   1       3.529  -2.962  -2.040  0.00  0.00     0.062 H 
ATOM     60  H   LIG d   1       3.543  -2.672  -4.485  0.00  0.00     0.062 H 
ENDBRANCH  48  50
BRANCH  48  61
ATOM     61  C   LIG d   1       3.201   0.151  -6.330  0.00  0.00     0.332 C 
ATOM     62  O   LIG d   1       2.755   1.051  -5.658  0.00  0.00    -0.248 OA
BRANCH  61  63
ATOM     63  O   LIG d   1       2.575  -0.214  -7.461  0.00  0.00    -0.466 OA
BRANCH  63  64
ATOM     64  C   LIG d   1       2.860   0.547  -8.635  0.00  0.00     0.082 C 
ATOM     65  H   LIG d   1       3.824   1.045  -8.521  0.00  0.00     0.066 H 
ATOM     66  H   LIG d   1       2.894  -0.117  -9.500  0.00  0.00     0.066 H 
ATOM     67  H   LIG d   1       2.081   1.294  -8.782  0.00  0.00     0.066 H 
ENDBRANCH  63  64
ENDBRANCH  61  63
ENDBRANCH  48  61
ENDBRANCH  46  48
ENDBRANCH  41  44
ENDBRANCH  40  41
ENDBRANCH  19  40
BRANCH  22  68
ATOM     68  C   LIG d   1      11.648   4.983  -3.665  0.00  0.00    -0.056 C 
ATOM     69  H   LIG d   1      12.156   5.407  -4.530  0.00  0.00     0.024 H 
ATOM     70  H   LIG d   1      11.855   5.593  -2.787  0.00  0.00     0.024 H 
ATOM     71  H   LIG d   1      12.005   3.968  -3.494  0.00  0.00     0.024 H 
ENDBRANCH  22  68
BRANCH   1  72
ATOM     72  C   LIG d   1      11.599   8.625  -2.181  0.00  0.00    -0.057 C 
ATOM     73  H   LIG d   1      11.820   7.611  -2.513  0.00  0.00     0.024 H 
ATOM     74  H   LIG d   1      12.073   9.340  -2.853  0.00  0.00     0.024 H 
ATOM     75  H   LIG d   1      11.982   8.767  -1.170  0.00  0.00     0.024 H 
ENDBRANCH   1  72
BRANCH  12  76
ATOM     76  O   LIG d   1       8.475  10.379  -1.218  0.00  0.00    -0.391 OA
ATOM     77  H   LIG d   1       7.750  10.419  -1.857  0.00  0.00     0.210 HD
ENDBRANCH  12  76
TORSDOF 11
ENDMDL
MODEL 2
REMARK VINA RESULT:      -7.4      5.827      8.961
REMARK  11 active torsions:
REMARK  status: ('A' for Active; 'I' for Inactive)
REMARK    1  A    between atoms: C_1  and  C_2 
REMARK    2  A    between atoms: C_13  and  O_15 
REMARK    3  A    between atoms: N_21  and  O_22 
REMARK    4  A    between atoms: O_22  and  C_23 
REMARK    5  A    between atoms: C_23  and  C_24 
REMARK       I    between atoms: C_24  and  N_26 
REMARK    6  A    between atoms: N_26  and  C_27 
REMARK    7  A    between atoms: C_27  and  C_29 
REMARK    8  A    between atoms: C_27  and  C_35 
REMARK    9  A    between atoms: C_35  and  O_37 
REMARK   10  A    between atoms: O_37  and  C_38 
REMARK   11  A    between atoms: C_41  and  C_42 
ROOT
ATOM      1  C   LIG d   1       5.725  -1.108  -3.513  0.00  0.00    -0.003 C 
ATOM      2  C   LIG d   1       4.475  -1.952  -3.357  0.00  0.00    -0.045 C 
ATOM      3  C   LIG d   1       4.635  -3.173  -4.278  0.00  0.00    -0.049 C 
ATOM      4  C   LIG d   1       4.857  -2.760  -5.730  0.00  0.00    -0.029 C 
ATOM      5  H   LIG d   1       3.956  -2.271  -6.101  0.00  0.00     0.031 H 
ATOM      6  C   LIG d   1       6.043  -1.794  -5.873  0.00  0.00    -0.034 C 
ATOM      7  H   LIG d   1       6.965  -2.288  -5.567  0.00  0.00     0.031 H 
ATOM      8  C   LIG d   1       5.747  -0.590  -4.977  0.00  0.00    -0.030 C 
ATOM      9  H   LIG d   1       4.789  -0.140  -5.235  0.00  0.00     0.031 H 
ATOM     10  C   LIG d   1       6.852   0.471  -4.914  0.00  0.00    -0.047 C 
ATOM     11  C   LIG d   1       6.572   1.185  -3.563  0.00  0.00    -0.026 C 
ATOM     12  C   LIG d   1       5.793   0.172  -2.687  0.00  0.00     0.061 C 
ATOM     13  H   LIG d   1       6.326  -0.009  -1.754  0.00  0.00     0.060 H 
ATOM     14  C   LIG d   1       6.148  -1.346  -7.334  0.00  0.00    -0.046 C 
ATOM     15  C   LIG d   1       6.492  -2.554  -8.207  0.00  0.00    -0.031 C 
ATOM     16  C   LIG d   1       5.453  -3.636  -7.972  0.00  0.00    -0.062 C 
ATOM     17  C   LIG d   1       4.897  -4.199  -9.039  0.00  0.00    -0.037 C 
ATOM     18  C   LIG d   1       3.895  -5.267  -8.870  0.00  0.00     0.080 C 
ATOM     19  N   LIG d   1       3.043  -5.558  -9.801  0.00  0.00    -0.089 NA
ATOM     20  C   LIG d   1       3.918  -6.007  -7.546  0.00  0.00    -0.006 C 
ATOM     21  C   LIG d   1       3.934  -4.957  -6.437  0.00  0.00    -0.038 C 
ATOM     22  C   LIG d   1       5.129  -4.011  -6.574  0.00  0.00    -0.007 C 
ATOM     23  H   LIG d   1       4.375  -2.279  -2.322  0.00  0.00     0.027 H 
ATOM     24  H   LIG d   1       3.598  -1.376  -3.653  0.00  0.00     0.027 H 
ATOM     25  H   LIG d   1       5.488  -3.763  -3.942  0.00  0.00     0.027 H 
ATOM     26  H   LIG d   1       3.735  -3.784  -4.216  0.00  0.00     0.027 H 
ATOM     27  H   LIG d   1       7.836   0.003  -4.905  0.00  0.00     0.027 H 
ATOM     28  H   LIG d   1       6.763   1.171  -5.746  0.00  0.00     0.027 H 
ATOM     29  H   LIG d   1       7.512   1.452  -3.080  0.00  0.00     0.029 H 
ATOM     30  H   LIG d   1       5.969   2.077  -3.730  0.00  0.00     0.029 H 
ATOM     31  H   LIG d   1       5.196  -0.923  -7.654  0.00  0.00     0.027 H 
ATOM     32  H   LIG d   1       6.932  -0.594  -7.428  0.00  0.00     0.027 H 
ATOM     33  H   LIG d   1       6.483  -2.261  -9.257  0.00  0.00     0.031 H 
ATOM     34  H   LIG d   1       7.479  -2.930  -7.940  0.00  0.00     0.031 H 
ATOM     35  H   LIG d   1       5.177  -3.874 -10.030  0.00  0.00     0.064 H 
ATOM     36  H   LIG d   1       3.029  -6.630  -7.455  0.00  0.00     0.033 H 
ATOM     37  H   LIG d   1       4.813  -6.626  -7.483  0.00  0.00     0.033 H 
ATOM     38  H   LIG d   1       3.014  -4.374  -6.487  0.00  0.00     0.028 H 
ATOM     39  H   LIG d   1       3.980  -5.461  -5.472  0.00  0.00     0.028 H 
ENDROOT
BRANCH  19  40
ATOM     40  O   LIG d   1       3.056  -4.843 -11.023  0.00  0.00    -0.384 OA
BRANCH  40  41
ATOM     41  C   LIG d   1       1.794  -4.276 -11.378  0.00  0.00     0.193 C 
ATOM     42  H   LIG d   1       1.442  -4.727 -12.306  0.00  0.00     0.082 H 
ATOM     43  H   LIG d   1       1.073  -4.468 -10.583  0.00  0.00     0.082 H 
BRANCH  41  44
ATOM     44  C   LIG d   1       1.948  -2.789 -11.568  0.00  0.00     0.254 C 
ATOM     45  O   LIG d   1       1.322  -2.219 -12.437  0.00  0.00    -0.272 OA
ATOM     46  N   LIG d   1       2.782  -2.091 -10.772  0.00  0.00    -0.296 N 
ATOM     47  H   LIG d   1       3.283  -2.546 -10.078  0.00  0.00     0.150 HD
BRANCH  46  48
ATOM     48  C   LIG d   1       2.932  -0.645 -10.957  0.00  0.00     0.146 C 
ATOM     49  H   LIG d   1       2.122  -0.273 -11.583  0.00  0.00     0.067 H 
BRANCH  48  50
ATOM     50  C   LIG d   1       2.884   0.039  -9.615  0.00  0.00    -0.017 A 
ATOM     51  C   LIG d   1       2.833  -0.714  -8.456  0.00  0.00    -0.056 A 
ATOM     52  C   LIG d   1       2.793  -0.085  -7.225  0.00  0.00    -0.061 A 
ATOM     53  H   LIG d   1       2.830  -1.792  -8.512  0.00  0.00     0.062 H 
ATOM     54  C   LIG d   1       2.793   1.295  -7.153  0.00  0.00    -0.062 A 
ATOM     55  H   LIG d   1       2.758  -0.674  -6.320  0.00  0.00     0.062 H 
ATOM     56  C   LIG d   1       2.838   2.048  -8.312  0.00  0.00    -0.061 A 
ATOM     57  H   LIG d   1       2.759   1.786  -6.192  0.00  0.00     0.062 H 
ATOM     58  C   LIG d   1       2.883   1.420  -9.543  0.00  0.00    -0.056 A 
ATOM     59  H   LIG d   1       2.837   3.127  -8.256  0.00  0.00     0.062 H 
ATOM     60  H   LIG d   1       2.917   2.007 -10.448  0.00  0.00     0.062 H 
ENDBRANCH  48  50
BRANCH  48  61
ATOM     61  C   LIG d   1       4.253  -0.358 -11.620  0.00  0.00     0.332 C 
ATOM     62  O   LIG d   1       4.293  -0.085 -12.797  0.00  0.00    -0.248 OA
BRANCH  61  63
ATOM     63  O   LIG d   1       5.389  -0.405 -10.905  0.00  0.00    -0.466 OA
BRANCH  63  64
ATOM     64  C   LIG d   1       6.568  -0.835 -11.586  0.00  0.00     0.082 C 
ATOM     65  H   LIG d   1       6.359  -0.930 -12.652  0.00  0.00     0.066 H 
ATOM     66  H   LIG d   1       7.362  -0.103 -11.436  0.00  0.00     0.066 H 
ATOM     67  H   LIG d   1       6.885  -1.800 -11.191  0.00  0.00     0.066 H 
ENDBRANCH  63  64
ENDBRANCH  61  63
ENDBRANCH  48  61
ENDBRANCH  46  48
ENDBRANCH  41  44
ENDBRANCH  40  41
ENDBRANCH  19  40
BRANCH  22  68
ATOM     68  C   LIG d   1       6.353  -4.718  -5.987  0.00  0.00    -0.056 C 
ATOM     69  H   LIG d   1       6.042  -5.359  -5.162  0.00  0.00     0.024 H 
ATOM     70  H   LIG d   1       6.826  -5.325  -6.759  0.00  0.00     0.024 H 
ATOM     71  H   LIG d   1       7.062  -3.976  -5.623  0.00  0.00     0.024 H 
ENDBRANCH  22  68
BRANCH   1  72
ATOM     72  C   LIG d   1       6.966  -1.963  -3.247  0.00  0.00    -0.057 C 
ATOM     73  H   LIG d   1       6.699  -3.019  -3.311  0.00  0.00     0.024 H 
ATOM     74  H   LIG d   1       7.731  -1.735  -3.988  0.00  0.00     0.024 H 
ATOM     75  H   LIG d   1       7.349  -1.746  -2.250  0.00  0.00     0.024 H 
ENDBRANCH   1  72
BRANCH  12  76
ATOM     76  O   LIG d   1       4.476   0.659  -2.420  0.00  0.00    -0.391 OA
ATOM     77  H   LIG d   1       4.221   1.421  -2.958  0.00  0.00     0.210 HD
ENDBRANCH  12  76
TORSDOF 11
ENDMDL
MODEL 3
REMARK VINA RESULT:      -7.2      5.716     10.279
REMARK  11 active torsions:
REMARK  status: ('A' for Active; 'I' for Inactive)
REMARK    1  A    between atoms: C_1  and  C_2 
REMARK    2  A    between atoms: C_13  and  O_15 
REMARK    3  A    between atoms: N_21  and  O_22 
REMARK    4  A    between atoms: O_22  and  C_23 
REMARK    5  A    between atoms: C_23  and  C_24 
REMARK       I    between atoms: C_24  and  N_26 
REMARK    6  A    between atoms: N_26  and  C_27 
REMARK    7  A    between atoms: C_27  and  C_29 
REMARK    8  A    between atoms: C_27  and  C_35 
REMARK    9  A    between atoms: C_35  and  O_37 
REMARK   10  A    between atoms: O_37  and  C_38 
REMARK   11  A    between atoms: C_41  and  C_42 
ROOT
ATOM      1  C   LIG d   1       1.499  -2.587 -11.134  0.00  0.00    -0.003 C 
ATOM      2  C   LIG d   1       1.150  -1.475 -10.163  0.00  0.00    -0.045 C 
ATOM      3  C   LIG d   1       2.338  -0.499 -10.147  0.00  0.00    -0.049 C 
ATOM      4  C   LIG d   1       3.638  -1.198  -9.759  0.00  0.00    -0.029 C 
ATOM      5  H   LIG d   1       3.564  -1.535  -8.725  0.00  0.00     0.031 H 
ATOM      6  C   LIG d   1       3.924  -2.410 -10.657  0.00  0.00    -0.034 C 
ATOM      7  H   LIG d   1       4.065  -2.085 -11.688  0.00  0.00     0.031 H 
ATOM      8  C   LIG d   1       2.718  -3.345 -10.543  0.00  0.00    -0.030 C 
ATOM      9  H   LIG d   1       2.532  -3.611  -9.503  0.00  0.00     0.031 H 
ATOM     10  C   LIG d   1       2.766  -4.595 -11.429  0.00  0.00    -0.047 C 
ATOM     11  C   LIG d   1       1.268  -4.982 -11.566  0.00  0.00    -0.026 C 
ATOM     12  C   LIG d   1       0.457  -3.686 -11.316  0.00  0.00     0.061 C 
ATOM     13  H   LIG d   1      -0.177  -3.466 -12.174  0.00  0.00     0.060 H 
ATOM     14  C   LIG d   1       5.185  -3.119 -10.154  0.00  0.00    -0.046 C 
ATOM     15  C   LIG d   1       6.387  -2.187 -10.322  0.00  0.00    -0.031 C 
ATOM     16  C   LIG d   1       6.093  -0.879  -9.609  0.00  0.00    -0.062 C 
ATOM     17  C   LIG d   1       7.022  -0.404  -8.786  0.00  0.00    -0.037 C 
ATOM     18  C   LIG d   1       6.796   0.871  -8.081  0.00  0.00     0.080 C 
ATOM     19  N   LIG d   1       7.439   1.174  -6.998  0.00  0.00    -0.089 NA
ATOM     20  C   LIG d   1       5.773   1.808  -8.694  0.00  0.00    -0.006 C 
ATOM     21  C   LIG d   1       4.512   0.990  -8.965  0.00  0.00    -0.038 C 
ATOM     22  C   LIG d   1       4.800  -0.205  -9.878  0.00  0.00    -0.007 C 
ATOM     23  H   LIG d   1       0.251  -0.959 -10.497  0.00  0.00     0.027 H 
ATOM     24  H   LIG d   1       0.994  -1.888  -9.166  0.00  0.00     0.027 H 
ATOM     25  H   LIG d   1       2.453  -0.061 -11.138  0.00  0.00     0.027 H 
ATOM     26  H   LIG d   1       2.135   0.296  -9.430  0.00  0.00     0.027 H 
ATOM     27  H   LIG d   1       3.193  -4.359 -12.404  0.00  0.00     0.027 H 
ATOM     28  H   LIG d   1       3.328  -5.392 -10.942  0.00  0.00     0.027 H 
ATOM     29  H   LIG d   1       1.070  -5.360 -12.568  0.00  0.00     0.029 H 
ATOM     30  H   LIG d   1       1.008  -5.735 -10.822  0.00  0.00     0.029 H 
ATOM     31  H   LIG d   1       5.064  -3.372  -9.101  0.00  0.00     0.027 H 
ATOM     32  H   LIG d   1       5.346  -4.029 -10.733  0.00  0.00     0.027 H 
ATOM     33  H   LIG d   1       7.272  -2.651  -9.887  0.00  0.00     0.031 H 
ATOM     34  H   LIG d   1       6.557  -1.996 -11.382  0.00  0.00     0.031 H 
ATOM     35  H   LIG d   1       7.940  -0.951  -8.634  0.00  0.00     0.064 H 
ATOM     36  H   LIG d   1       5.549   2.616  -8.000  0.00  0.00     0.033 H 
ATOM     37  H   LIG d   1       6.158   2.216  -9.628  0.00  0.00     0.033 H 
ATOM     38  H   LIG d   1       4.116   0.623  -8.018  0.00  0.00     0.028 H 
ATOM     39  H   LIG d   1       3.766   1.632  -9.435  0.00  0.00     0.028 H 
ENDROOT
BRANCH  19  40
ATOM     40  O   LIG d   1       8.387   0.271  -6.459  0.00  0.00    -0.384 OA
BRANCH  40  41
ATOM     41  C   LIG d   1       8.483   0.311  -5.034  0.00  0.00     0.193 C 
ATOM     42  H   LIG d   1       9.431  -0.129  -4.722  0.00  0.00     0.082 H 
ATOM     43  H   LIG d   1       8.432   1.346  -4.696  0.00  0.00     0.082 H 
BRANCH  41  44
ATOM     44  C   LIG d   1       7.344  -0.471  -4.432  0.00  0.00     0.254 C 
ATOM     45  O   LIG d   1       7.032  -0.295  -3.273  0.00  0.00    -0.272 OA
ATOM     46  N   LIG d   1       6.672  -1.367  -5.182  0.00  0.00    -0.296 N 
ATOM     47  H   LIG d   1       6.922  -1.508  -6.109  0.00  0.00     0.150 HD
BRANCH  46  48
ATOM     48  C   LIG d   1       5.565  -2.128  -4.598  0.00  0.00     0.146 C 
ATOM     49  H   LIG d   1       5.809  -2.393  -3.570  0.00  0.00     0.067 H 
BRANCH  48  50
ATOM     50  C   LIG d   1       4.314  -1.286  -4.615  0.00  0.00    -0.017 A 
ATOM     51  C   LIG d   1       3.513  -1.216  -3.490  0.00  0.00    -0.056 A 
ATOM     52  C   LIG d   1       2.368  -0.441  -3.505  0.00  0.00    -0.061 A 
ATOM     53  H   LIG d   1       3.783  -1.762  -2.599  0.00  0.00     0.062 H 
ATOM     54  C   LIG d   1       2.020   0.256  -4.646  0.00  0.00    -0.062 A 
ATOM     55  H   LIG d   1       1.745  -0.382  -2.624  0.00  0.00     0.062 H 
ATOM     56  C   LIG d   1       2.818   0.182  -5.773  0.00  0.00    -0.061 A 
ATOM     57  H   LIG d   1       1.123   0.859  -4.658  0.00  0.00     0.062 H 
ATOM     58  C   LIG d   1       3.965  -0.590  -5.757  0.00  0.00    -0.056 A 
ATOM     59  H   LIG d   1       2.545   0.725  -6.665  0.00  0.00     0.062 H 
ATOM     60  H   LIG d   1       4.588  -0.649  -6.637  0.00  0.00     0.062 H 
ENDBRANCH  48  50
BRANCH  48  61
ATOM     61  C   LIG d   1       5.338  -3.382  -5.400  0.00  0.00     0.332 C 
ATOM     62  O   LIG d   1       4.687  -4.287  -4.936  0.00  0.00    -0.248 OA
BRANCH  61  63
ATOM     63  O   LIG d   1       5.858  -3.493  -6.633  0.00  0.00    -0.466 OA
BRANCH  63  64
ATOM     64  C   LIG d   1       6.649  -4.653  -6.901  0.00  0.00     0.082 C 
ATOM     65  H   LIG d   1       5.997  -5.520  -7.011  0.00  0.00     0.066 H 
ATOM     66  H   LIG d   1       7.212  -4.503  -7.823  0.00  0.00     0.066 H 
ATOM     67  H   LIG d   1       7.340  -4.820  -6.076  0.00  0.00     0.066 H 
ENDBRANCH  63  64
ENDBRANCH  61  63
ENDBRANCH  48  61
ENDBRANCH  46  48
ENDBRANCH  41  44
ENDBRANCH  40  41
ENDBRANCH  19  40
BRANCH  22  68
ATOM     68  C   LIG d   1       4.835   0.309 -11.320  0.00  0.00    -0.056 C 
ATOM     69  H   LIG d   1       3.902   0.826 -11.544  0.00  0.00     0.024 H 
ATOM     70  H   LIG d   1       5.670   0.998 -11.439  0.00  0.00     0.024 H 
ATOM     71  H   LIG d   1       4.958  -0.532 -12.002  0.00  0.00     0.024 H 
ENDBRANCH  22  68
BRANCH   1  72
ATOM     72  C   LIG d   1       1.867  -1.991 -12.494  0.00  0.00    -0.057 C 
ATOM     73  H   LIG d   1       2.560  -1.161 -12.351  0.00  0.00     0.024 H 
ATOM     74  H   LIG d   1       2.339  -2.757 -13.110  0.00  0.00     0.024 H 
ATOM     75  H   LIG d   1       0.965  -1.631 -12.988  0.00  0.00     0.024 H 
ENDBRANCH   1  72
BRANCH  12  76
ATOM     76  O   LIG d   1      -0.336  -3.818 -10.134  0.00  0.00    -0.391 OA
ATOM     77  H   LIG d   1      -0.860  -3.034  -9.922  0.00  0.00     0.210 HD
ENDBRANCH  12  76
TORSDOF 11
ENDMDL
MODEL 4
REMARK VINA RESULT:      -7.2      4.536     11.248
REMARK  11 active torsions:
REMARK  status: ('A' for Active; 'I' for Inactive)
REMARK    1  A    between atoms: C_1  and  C_2 
REMARK    2  A    between atoms: C_13  and  O_15 
REMARK    3  A    between atoms: N_21  and  O_22 
REMARK    4  A    between atoms: O_22  and  C_23 
REMARK    5  A    between atoms: C_23  and  C_24 
REMARK       I    between atoms: C_24  and  N_26 
REMARK    6  A    between atoms: N_26  and  C_27 
REMARK    7  A    between atoms: C_27  and  C_29 
REMARK    8  A    between atoms: C_27  and  C_35 
REMARK    9  A    between atoms: C_35  and  O_37 
REMARK   10  A    between atoms: O_37  and  C_38 
REMARK   11  A    between atoms: C_41  and  C_42 
ROOT
ATOM      1  C   LIG d   1       1.715  -3.026 -12.541  0.00  0.00    -0.003 C 
ATOM      2  C   LIG d   1       0.875  -1.791 -12.280  0.00  0.00    -0.045 C 
ATOM      3  C   LIG d   1       1.717  -0.847 -11.407  0.00  0.00    -0.049 C 
ATOM      4  C   LIG d   1       2.151  -1.517 -10.107  0.00  0.00    -0.029 C 
ATOM      5  H   LIG d   1       1.269  -1.716  -9.498  0.00  0.00     0.031 H 
ATOM      6  C   LIG d   1       2.886  -2.840 -10.365  0.00  0.00    -0.034 C 
ATOM      7  H   LIG d   1       3.806  -2.654 -10.918  0.00  0.00     0.031 H 
ATOM      8  C   LIG d   1       1.936  -3.727 -11.173  0.00  0.00    -0.030 C 
ATOM      9  H   LIG d   1       0.987  -3.853 -10.654  0.00  0.00     0.031 H 
ATOM     10  C   LIG d   1       2.508  -5.081 -11.607  0.00  0.00    -0.047 C 
ATOM     11  C   LIG d   1       1.632  -5.451 -12.835  0.00  0.00    -0.026 C 
ATOM     12  C   LIG d   1       1.079  -4.118 -13.396  0.00  0.00     0.061 C 
ATOM     13  H   LIG d   1       1.369  -3.997 -14.439  0.00  0.00     0.060 H 
ATOM     14  C   LIG d   1       3.206  -3.505  -9.022  0.00  0.00    -0.046 C 
ATOM     15  C   LIG d   1       4.194  -2.628  -8.250  0.00  0.00    -0.031 C 
ATOM     16  C   LIG d   1       3.609  -1.233  -8.119  0.00  0.00    -0.062 C 
ATOM     17  C   LIG d   1       3.609  -0.675  -6.914  0.00  0.00    -0.037 C 
ATOM     18  C   LIG d   1       3.069   0.685  -6.733  0.00  0.00     0.080 C 
ATOM     19  N   LIG d   1       2.670   1.112  -5.577  0.00  0.00    -0.089 NA
ATOM     20  C   LIG d   1       3.008   1.556  -7.973  0.00  0.00    -0.006 C 
ATOM     21  C   LIG d   1       2.335   0.736  -9.072  0.00  0.00    -0.038 C 
ATOM     22  C   LIG d   1       3.083  -0.572  -9.339  0.00  0.00    -0.007 C 
ATOM     23  H   LIG d   1       0.629  -1.303 -13.223  0.00  0.00     0.027 H 
ATOM     24  H   LIG d   1      -0.039  -2.068 -11.754  0.00  0.00     0.027 H 
ATOM     25  H   LIG d   1       2.603  -0.543 -11.963  0.00  0.00     0.027 H 
ATOM     26  H   LIG d   1       1.127   0.039 -11.170  0.00  0.00     0.027 H 
ATOM     27  H   LIG d   1       3.554  -4.983 -11.896  0.00  0.00     0.027 H 
ATOM     28  H   LIG d   1       2.393  -5.820 -10.814  0.00  0.00     0.027 H 
ATOM     29  H   LIG d   1       2.238  -5.952 -13.590  0.00  0.00     0.029 H 
ATOM     30  H   LIG d   1       0.810  -6.097 -12.526  0.00  0.00     0.029 H 
ATOM     31  H   LIG d   1       2.289  -3.617  -8.445  0.00  0.00     0.027 H 
ATOM     32  H   LIG d   1       3.650  -4.485  -9.199  0.00  0.00     0.027 H 
ATOM     33  H   LIG d   1       4.359  -3.050  -7.259  0.00  0.00     0.031 H 
ATOM     34  H   LIG d   1       5.140  -2.579  -8.790  0.00  0.00     0.031 H 
ATOM     35  H   LIG d   1       4.004  -1.217  -6.068  0.00  0.00     0.064 H 
ATOM     36  H   LIG d   1       2.424   2.452  -7.767  0.00  0.00     0.033 H 
ATOM     37  H   LIG d   1       4.016   1.832  -8.281  0.00  0.00     0.033 H 
ATOM     38  H   LIG d   1       1.315   0.504  -8.767  0.00  0.00     0.028 H 
ATOM     39  H   LIG d   1       2.303   1.328  -9.987  0.00  0.00     0.028 H 
ENDROOT
BRANCH  19  40
ATOM     40  O   LIG d   1       2.744   0.266  -4.444  0.00  0.00    -0.384 OA
BRANCH  40  41
ATOM     41  C   LIG d   1       3.260   0.904  -3.274  0.00  0.00     0.193 C 
ATOM     42  H   LIG d   1       3.109   1.981  -3.352  0.00  0.00     0.082 H 
ATOM     43  H   LIG d   1       2.738   0.526  -2.395  0.00  0.00     0.082 H 
BRANCH  41  44
ATOM     44  C   LIG d   1       4.732   0.610  -3.150  0.00  0.00     0.254 C 
ATOM     45  O   LIG d   1       5.410   1.223  -2.352  0.00  0.00    -0.272 OA
ATOM     46  N   LIG d   1       5.298  -0.335  -3.928  0.00  0.00    -0.296 N 
ATOM     47  H   LIG d   1       4.757  -0.825  -4.566  0.00  0.00     0.150 HD
BRANCH  46  48
ATOM     48  C   LIG d   1       6.730  -0.621  -3.808  0.00  0.00     0.146 C 
ATOM     49  H   LIG d   1       7.042  -0.488  -2.772  0.00  0.00     0.067 H 
BRANCH  48  50
ATOM     50  C   LIG d   1       6.994  -2.044  -4.231  0.00  0.00    -0.017 A 
ATOM     51  C   LIG d   1       8.181  -2.659  -3.881  0.00  0.00    -0.056 A 
ATOM     52  C   LIG d   1       8.422  -3.965  -4.267  0.00  0.00    -0.061 A 
ATOM     53  H   LIG d   1       8.919  -2.123  -3.303  0.00  0.00     0.062 H 
ATOM     54  C   LIG d   1       7.480  -4.651  -5.010  0.00  0.00    -0.062 A 
ATOM     55  H   LIG d   1       9.348  -4.448  -3.989  0.00  0.00     0.062 H 
ATOM     56  C   LIG d   1       6.295  -4.034  -5.364  0.00  0.00    -0.061 A 
ATOM     57  H   LIG d   1       7.670  -5.671  -5.313  0.00  0.00     0.062 H 
ATOM     58  C   LIG d   1       6.053  -2.730  -4.975  0.00  0.00    -0.056 A 
ATOM     59  H   LIG d   1       5.560  -4.570  -5.946  0.00  0.00     0.062 H 
ATOM     60  H   LIG d   1       5.128  -2.246  -5.253  0.00  0.00     0.062 H 
ENDBRANCH  48  50
BRANCH  48  61
ATOM     61  C   LIG d   1       7.506   0.319  -4.692  0.00  0.00     0.332 C 
ATOM     62  O   LIG d   1       7.075   0.620  -5.780  0.00  0.00    -0.248 OA
BRANCH  61  63
ATOM     63  O   LIG d   1       8.677   0.824  -4.271  0.00  0.00    -0.466 OA
BRANCH  63  64
ATOM     64  C   LIG d   1       8.668   2.170  -3.792  0.00  0.00     0.082 C 
ATOM     65  H   LIG d   1       7.663   2.432  -3.460  0.00  0.00     0.066 H 
ATOM     66  H   LIG d   1       9.363   2.263  -2.957  0.00  0.00     0.066 H 
ATOM     67  H   LIG d   1       8.972   2.843  -4.594  0.00  0.00     0.066 H 
ENDBRANCH  63  64
ENDBRANCH  61  63
ENDBRANCH  48  61
ENDBRANCH  46  48
ENDBRANCH  41  44
ENDBRANCH  40  41
ENDBRANCH  19  40
BRANCH  22  68
ATOM     68  C   LIG d   1       4.276  -0.250 -10.243  0.00  0.00    -0.056 C 
ATOM     69  H   LIG d   1       3.915   0.116 -11.204  0.00  0.00     0.024 H 
ATOM     70  H   LIG d   1       4.892   0.515  -9.771  0.00  0.00     0.024 H 
ATOM     71  H   LIG d   1       4.869  -1.150 -10.396  0.00  0.00     0.024 H 
ENDBRANCH  22  68
BRANCH   1  72
ATOM     72  C   LIG d   1       3.063  -2.619 -13.140  0.00  0.00    -0.057 C 
ATOM     73  H   LIG d   1       2.898  -1.949 -13.984  0.00  0.00     0.024 H 
ATOM     74  H   LIG d   1       3.659  -2.110 -12.382  0.00  0.00     0.024 H 
ATOM     75  H   LIG d   1       3.592  -3.509 -13.481  0.00  0.00     0.024 H 
ENDBRANCH   1  72
BRANCH  12  76
ATOM     76  O   LIG d   1      -0.344  -4.079 -13.269  0.00  0.00    -0.391 OA
ATOM     77  H   LIG d   1      -0.779  -3.479 -13.891  0.00  0.00     0.210 HD
ENDBRANCH  12  76
TORSDOF 11
ENDMDL
MODEL 5
REMARK VINA RESULT:      -7.2      1.826      2.974
REMARK  11 active torsions:
REMARK  status: ('A' for Active; 'I' for Inactive)
REMARK    1  A    between atoms: C_1  and  C_2 
REMARK    2  A    between atoms: C_13  and  O_15 
REMARK    3  A    between atoms: N_21  and  O_22 
REMARK    4  A    between atoms: O_22  and  C_23 
REMARK    5  A    between atoms: C_23  and  C_24 
REMARK       I    between atoms: C_24  and  N_26 
REMARK    6  A    between atoms: N_26  and  C_27 
REMARK    7  A    between atoms: C_27  and  C_29 
REMARK    8  A    between atoms: C_27  and  C_35 
REMARK    9  A    between atoms: C_35  and  O_37 
REMARK   10  A    between atoms: O_37  and  C_38 
REMARK   11  A    between atoms: C_41  and  C_42 
ROOT
ATOM      1  C   LIG d   1      10.745   5.954  -2.989  0.00  0.00    -0.003 C 
ATOM      2  C   LIG d   1       9.941   4.838  -2.350  0.00  0.00    -0.045 C 
ATOM      3  C   LIG d   1      10.029   3.623  -3.287  0.00  0.00    -0.049 C 
ATOM      4  C   LIG d   1       9.521   3.951  -4.688  0.00  0.00    -0.029 C 
ATOM      5  H   LIG d   1       8.453   4.163  -4.637  0.00  0.00     0.031 H 
ATOM      6  C   LIG d   1      10.242   5.169  -5.285  0.00  0.00    -0.034 C 
ATOM      7  H   LIG d   1      11.304   4.952  -5.404  0.00  0.00     0.031 H 
ATOM      8  C   LIG d   1      10.030   6.332  -4.314  0.00  0.00    -0.030 C 
ATOM      9  H   LIG d   1       8.968   6.502  -4.138  0.00  0.00     0.031 H 
ATOM     10  C   LIG d   1      10.739   7.640  -4.688  0.00  0.00    -0.047 C 
ATOM     11  C   LIG d   1      10.856   8.373  -3.324  0.00  0.00    -0.026 C 
ATOM     12  C   LIG d   1      10.801   7.277  -2.231  0.00  0.00     0.061 C 
ATOM     13  H   LIG d   1      11.695   7.318  -1.610  0.00  0.00     0.060 H 
ATOM     14  C   LIG d   1       9.619   5.501  -6.645  0.00  0.00    -0.046 C 
ATOM     15  C   LIG d   1       9.884   4.348  -7.614  0.00  0.00    -0.031 C 
ATOM     16  C   LIG d   1       9.360   3.063  -6.999  0.00  0.00    -0.062 C 
ATOM     17  C   LIG d   1       8.588   2.288  -7.752  0.00  0.00    -0.037 C 
ATOM     18  C   LIG d   1       8.066   1.020  -7.211  0.00  0.00     0.080 C 
ATOM     19  N   LIG d   1       7.019   0.444  -7.711  0.00  0.00    -0.089 NA
ATOM     20  C   LIG d   1       8.822   0.427  -6.037  0.00  0.00    -0.006 C 
ATOM     21  C   LIG d   1       9.009   1.540  -5.007  0.00  0.00    -0.038 C 
ATOM     22  C   LIG d   1       9.747   2.741  -5.603  0.00  0.00    -0.007 C 
ATOM     23  H   LIG d   1      10.362   4.588  -1.377  0.00  0.00     0.027 H 
ATOM     24  H   LIG d   1       8.901   5.147  -2.239  0.00  0.00     0.027 H 
ATOM     25  H   LIG d   1      11.068   3.299  -3.353  0.00  0.00     0.027 H 
ATOM     26  H   LIG d   1       9.431   2.811  -2.874  0.00  0.00     0.027 H 
ATOM     27  H   LIG d   1      11.726   7.437  -5.102  0.00  0.00     0.027 H 
ATOM     28  H   LIG d   1      10.136   8.219  -5.387  0.00  0.00     0.027 H 
ATOM     29  H   LIG d   1      11.802   8.910  -3.268  0.00  0.00     0.029 H 
ATOM     30  H   LIG d   1      10.024   9.067  -3.200  0.00  0.00     0.029 H 
ATOM     31  H   LIG d   1       8.545   5.641  -6.528  0.00  0.00     0.027 H 
ATOM     32  H   LIG d   1      10.066   6.416  -7.035  0.00  0.00     0.027 H 
ATOM     33  H   LIG d   1       9.370   4.538  -8.557  0.00  0.00     0.031 H 
ATOM     34  H   LIG d   1      10.956   4.258  -7.793  0.00  0.00     0.031 H 
ATOM     35  H   LIG d   1       8.343   2.587  -8.760  0.00  0.00     0.064 H 
ATOM     36  H   LIG d   1       8.248  -0.389  -5.602  0.00  0.00     0.033 H 
ATOM     37  H   LIG d   1       9.794   0.063  -6.369  0.00  0.00     0.033 H 
ATOM     38  H   LIG d   1       8.031   1.865  -4.654  0.00  0.00     0.028 H 
ATOM     39  H   LIG d   1       9.578   1.149  -4.163  0.00  0.00     0.028 H 
ENDROOT
BRANCH  19  40
ATOM     40  O   LIG d   1       6.342   1.031  -8.807  0.00  0.00    -0.384 OA
BRANCH  40  41
ATOM     41  C   LIG d   1       4.928   1.128  -8.633  0.00  0.00     0.193 C 
ATOM     42  H   LIG d   1       4.678   2.108  -8.225  0.00  0.00     0.082 H 
ATOM     43  H   LIG d   1       4.434   0.998  -9.596  0.00  0.00     0.082 H 
BRANCH  41  44
ATOM     44  C   LIG d   1       4.465   0.055  -7.682  0.00  0.00     0.254 C 
ATOM     45  O   LIG d   1       4.080  -1.012  -8.111  0.00  0.00    -0.272 OA
ATOM     46  N   LIG d   1       4.477   0.282  -6.352  0.00  0.00    -0.296 N 
ATOM     47  H   LIG d   1       4.785   1.135  -6.010  0.00  0.00     0.150 HD
BRANCH  46  48
ATOM     48  C   LIG d   1       4.027  -0.761  -5.428  0.00  0.00     0.146 C 
ATOM     49  H   LIG d   1       3.377  -1.459  -5.955  0.00  0.00     0.067 H 
BRANCH  48  50
ATOM     50  C   LIG d   1       5.223  -1.502  -4.887  0.00  0.00    -0.017 A 
ATOM     51  C   LIG d   1       5.512  -2.775  -5.343  0.00  0.00    -0.056 A 
ATOM     52  C   LIG d   1       6.612  -3.452  -4.849  0.00  0.00    -0.061 A 
ATOM     53  H   LIG d   1       4.883  -3.238  -6.088  0.00  0.00     0.062 H 
ATOM     54  C   LIG d   1       7.416  -2.862  -3.892  0.00  0.00    -0.062 A 
ATOM     55  H   LIG d   1       6.840  -4.445  -5.209  0.00  0.00     0.062 H 
ATOM     56  C   LIG d   1       7.123  -1.591  -3.432  0.00  0.00    -0.061 A 
ATOM     57  H   LIG d   1       8.273  -3.392  -3.504  0.00  0.00     0.062 H 
ATOM     58  C   LIG d   1       6.027  -0.912  -3.929  0.00  0.00    -0.056 A 
ATOM     59  H   LIG d   1       7.751  -1.130  -2.684  0.00  0.00     0.062 H 
ATOM     60  H   LIG d   1       5.797   0.081  -3.569  0.00  0.00     0.062 H 
ENDBRANCH  48  50
BRANCH  48  61
ATOM     61  C   LIG d   1       3.269  -0.130  -4.289  0.00  0.00     0.332 C 
ATOM     62  O   LIG d   1       2.557  -0.808  -3.588  0.00  0.00    -0.248 OA
BRANCH  61  63
ATOM     63  O   LIG d   1       3.386   1.187  -4.053  0.00  0.00    -0.466 OA
BRANCH  63  64
ATOM     64  C   LIG d   1       3.579   1.588  -2.696  0.00  0.00     0.082 C 
ATOM     65  H   LIG d   1       3.190   0.817  -2.030  0.00  0.00     0.066 H 
ATOM     66  H   LIG d   1       4.643   1.729  -2.506  0.00  0.00     0.066 H 
ATOM     67  H   LIG d   1       3.051   2.524  -2.516  0.00  0.00     0.066 H 
ENDBRANCH  63  64
ENDBRANCH  61  63
ENDBRANCH  48  61
ENDBRANCH  46  48
ENDBRANCH  41  44
ENDBRANCH  40  41
ENDBRANCH  19  40
BRANCH  22  68
ATOM     68  C   LIG d   1      11.243   2.419  -5.598  0.00  0.00    -0.056 C 
ATOM     69  H   LIG d   1      11.395   1.392  -5.929  0.00  0.00     0.024 H 
ATOM     70  H   LIG d   1      11.762   3.099  -6.273  0.00  0.00     0.024 H 
ATOM     71  H   LIG d   1      11.637   2.538  -4.589  0.00  0.00     0.024 H 
ENDBRANCH  22  68
BRANCH   1  72
ATOM     72  C   LIG d   1      12.164   5.466  -3.286  0.00  0.00    -0.057 C 
ATOM     73  H   LIG d   1      12.779   5.573  -2.392  0.00  0.00     0.024 H 
ATOM     74  H   LIG d   1      12.134   4.418  -3.584  0.00  0.00     0.024 H 
ATOM     75  H   LIG d   1      12.591   6.061  -4.094  0.00  0.00     0.024 H 
ENDBRANCH   1  72
BRANCH  12  76
ATOM     76  O   LIG d   1       9.630   7.437  -1.427  0.00  0.00    -0.391 OA
ATOM     77  H   LIG d   1       9.201   6.604  -1.186  0.00  0.00     0.210 HD
ENDBRANCH  12  76
TORSDOF 11
ENDMDL
MODEL 6
REMARK VINA RESULT:      -7.1      2.611      4.587
REMARK  11 active torsions:
REMARK  status: ('A' for Active; 'I' for Inactive)
REMARK    1  A    between atoms: C_1  and  C_2 
REMARK    2  A    between atoms: C_13  and  O_15 
REMARK    3  A    between atoms: N_21  and  O_22 
REMARK    4  A    between atoms: O_22  and  C_23 
REMARK    5  A    between atoms: C_23  and  C_24 
REMARK       I    between atoms: C_24  and  N_26 
REMARK    6  A    between atoms: N_26  and  C_27 
REMARK    7  A    between atoms: C_27  and  C_29 
REMARK    8  A    between atoms: C_27  and  C_35 
REMARK    9  A    between atoms: C_35  and  O_37 
REMARK   10  A    between atoms: O_37  and  C_38 
REMARK   11  A    between atoms: C_41  and  C_42 
ROOT
ATOM      1  C   LIG d   1      10.398   7.729  -7.683  0.00  0.00    -0.003 C 
ATOM      2  C   LIG d   1       9.895   7.946  -6.268  0.00  0.00    -0.045 C 
ATOM      3  C   LIG d   1      10.213   6.668  -5.474  0.00  0.00    -0.049 C 
ATOM      4  C   LIG d   1       9.583   5.435  -6.113  0.00  0.00    -0.029 C 
ATOM      5  H   LIG d   1       8.498   5.517  -6.048  0.00  0.00     0.031 H 
ATOM      6  C   LIG d   1       9.984   5.288  -7.588  0.00  0.00    -0.034 C 
ATOM      7  H   LIG d   1      11.061   5.139  -7.669  0.00  0.00     0.031 H 
ATOM      8  C   LIG d   1       9.558   6.576  -8.295  0.00  0.00    -0.030 C 
ATOM      9  H   LIG d   1       8.494   6.764  -8.153  0.00  0.00     0.031 H 
ATOM     10  C   LIG d   1       9.937   6.670  -9.778  0.00  0.00    -0.047 C 
ATOM     11  C   LIG d   1       9.946   8.201 -10.038  0.00  0.00    -0.026 C 
ATOM     12  C   LIG d   1      10.189   8.877  -8.666  0.00  0.00     0.061 C 
ATOM     13  H   LIG d   1      11.078   9.506  -8.706  0.00  0.00     0.060 H 
ATOM     14  C   LIG d   1       9.242   4.091  -8.191  0.00  0.00    -0.046 C 
ATOM     15  C   LIG d   1       9.717   2.808  -7.505  0.00  0.00    -0.031 C 
ATOM     16  C   LIG d   1       9.524   2.957  -6.006  0.00  0.00    -0.062 C 
ATOM     17  C   LIG d   1       8.913   1.968  -5.362  0.00  0.00    -0.037 C 
ATOM     18  C   LIG d   1       8.715   2.053  -3.904  0.00  0.00     0.080 C 
ATOM     19  N   LIG d   1       7.804   1.359  -3.298  0.00  0.00    -0.089 NA
ATOM     20  C   LIG d   1       9.637   2.993  -3.152  0.00  0.00    -0.006 C 
ATOM     21  C   LIG d   1       9.614   4.334  -3.884  0.00  0.00    -0.038 C 
ATOM     22  C   LIG d   1      10.035   4.185  -5.348  0.00  0.00    -0.007 C 
ATOM     23  H   LIG d   1      10.405   8.798  -5.820  0.00  0.00     0.027 H 
ATOM     24  H   LIG d   1       8.819   8.118  -6.280  0.00  0.00     0.027 H 
ATOM     25  H   LIG d   1      11.295   6.534  -5.434  0.00  0.00     0.027 H 
ATOM     26  H   LIG d   1       9.832   6.777  -4.459  0.00  0.00     0.027 H 
ATOM     27  H   LIG d   1      10.925   6.244  -9.951  0.00  0.00     0.027 H 
ATOM     28  H   LIG d   1       9.189   6.177 -10.399  0.00  0.00     0.027 H 
ATOM     29  H   LIG d   1      10.749   8.458 -10.729  0.00  0.00     0.029 H 
ATOM     30  H   LIG d   1       8.986   8.516 -10.446  0.00  0.00     0.029 H 
ATOM     31  H   LIG d   1       8.170   4.212  -8.037  0.00  0.00     0.027 H 
ATOM     32  H   LIG d   1       9.454   4.032  -9.259  0.00  0.00     0.027 H 
ATOM     33  H   LIG d   1       9.132   1.962  -7.867  0.00  0.00     0.031 H 
ATOM     34  H   LIG d   1      10.772   2.644  -7.723  0.00  0.00     0.031 H 
ATOM     35  H   LIG d   1       8.562   1.104  -5.906  0.00  0.00     0.064 H 
ATOM     36  H   LIG d   1       9.281   3.122  -2.131  0.00  0.00     0.033 H 
ATOM     37  H   LIG d   1      10.650   2.592  -3.145  0.00  0.00     0.033 H 
ATOM     38  H   LIG d   1       8.604   4.742  -3.846  0.00  0.00     0.028 H 
ATOM     39  H   LIG d   1      10.293   5.024  -3.382  0.00  0.00     0.028 H 
ENDROOT
BRANCH  19  40
ATOM     40  O   LIG d   1       6.964   0.492  -4.037  0.00  0.00    -0.384 OA
BRANCH  40  41
ATOM     41  C   LIG d   1       5.738   0.168  -3.379  0.00  0.00     0.193 C 
ATOM     42  H   LIG d   1       5.891  -0.696  -2.731  0.00  0.00     0.082 H 
ATOM     43  H   LIG d   1       5.412   1.019  -2.781  0.00  0.00     0.082 H 
BRANCH  41  44
ATOM     44  C   LIG d   1       4.686  -0.156  -4.408  0.00  0.00     0.254 C 
ATOM     45  O   LIG d   1       3.530  -0.301  -4.071  0.00  0.00    -0.272 OA
ATOM     46  N   LIG d   1       5.030  -0.284  -5.706  0.00  0.00    -0.296 N 
ATOM     47  H   LIG d   1       5.955  -0.168  -5.975  0.00  0.00     0.150 HD
BRANCH  46  48
ATOM     48  C   LIG d   1       4.008  -0.599  -6.706  0.00  0.00     0.146 C 
ATOM     49  H   LIG d   1       3.036  -0.678  -6.221  0.00  0.00     0.067 H 
BRANCH  48  50
ATOM     50  C   LIG d   1       3.964   0.497  -7.740  0.00  0.00    -0.017 A 
ATOM     51  C   LIG d   1       5.114   0.853  -8.419  0.00  0.00    -0.056 A 
ATOM     52  C   LIG d   1       5.072   1.857  -9.370  0.00  0.00    -0.061 A 
ATOM     53  H   LIG d   1       6.044   0.346  -8.211  0.00  0.00     0.062 H 
ATOM     54  C   LIG d   1       3.883   2.510  -9.634  0.00  0.00    -0.062 A 
ATOM     55  H   LIG d   1       5.970   2.132  -9.904  0.00  0.00     0.062 H 
ATOM     56  C   LIG d   1       2.734   2.157  -8.951  0.00  0.00    -0.061 A 
ATOM     57  H   LIG d   1       3.851   3.295 -10.375  0.00  0.00     0.062 H 
ATOM     58  C   LIG d   1       2.775   1.151  -8.003  0.00  0.00    -0.056 A 
ATOM     59  H   LIG d   1       1.805   2.668  -9.157  0.00  0.00     0.062 H 
ATOM     60  H   LIG d   1       1.878   0.876  -7.469  0.00  0.00     0.062 H 
ENDBRANCH  48  50
BRANCH  48  61
ATOM     61  C   LIG d   1       4.345  -1.906  -7.374  0.00  0.00     0.332 C 
ATOM     62  O   LIG d   1       5.304  -2.544  -7.007  0.00  0.00    -0.248 OA
BRANCH  61  63
ATOM     63  O   LIG d   1       3.580  -2.364  -8.378  0.00  0.00    -0.466 OA
BRANCH  63  64
ATOM     64  C   LIG d   1       3.664  -3.760  -8.674  0.00  0.00     0.082 C 
ATOM     65  H   LIG d   1       3.882  -3.894  -9.734  0.00  0.00     0.066 H 
ATOM     66  H   LIG d   1       4.460  -4.210  -8.080  0.00  0.00     0.066 H 
ATOM     67  H   LIG d   1       2.716  -4.240  -8.434  0.00  0.00     0.066 H 
ENDBRANCH  63  64
ENDBRANCH  61  63
ENDBRANCH  48  61
ENDBRANCH  46  48
ENDBRANCH  41  44
ENDBRANCH  40  41
ENDBRANCH  19  40
BRANCH  22  68
ATOM     68  C   LIG d   1      11.564   4.132  -5.391  0.00  0.00    -0.056 C 
ATOM     69  H   LIG d   1      11.964   4.414  -4.417  0.00  0.00     0.024 H 
ATOM     70  H   LIG d   1      11.885   3.121  -5.637  0.00  0.00     0.024 H 
ATOM     71  H   LIG d   1      11.930   4.824  -6.149  0.00  0.00     0.024 H 
ENDBRANCH  22  68
BRANCH   1  72
ATOM     72  C   LIG d   1      11.877   7.335  -7.653  0.00  0.00    -0.057 C 
ATOM     73  H   LIG d   1      12.150   6.878  -8.605  0.00  0.00     0.024 H 
ATOM     74  H   LIG d   1      12.486   8.223  -7.488  0.00  0.00     0.024 H 
ATOM     75  H   LIG d   1      12.046   6.622  -6.847  0.00  0.00     0.024 H 
ENDBRANCH   1  72
BRANCH  12  76
ATOM     76  O   LIG d   1       9.049   9.651  -8.287  0.00  0.00    -0.391 OA
ATOM     77  H   LIG d   1       9.230  10.596  -8.192  0.00  0.00     0.210 HD
ENDBRANCH  12  76
TORSDOF 11
ENDMDL
MODEL 7
REMARK VINA RESULT:      -7.0      4.038      6.424
REMARK  11 active torsions:
REMARK  status: ('A' for Active; 'I' for Inactive)
REMARK    1  A    between atoms: C_1  and  C_2 
REMARK    2  A    between atoms: C_13  and  O_15 
REMARK    3  A    between atoms: N_21  and  O_22 
REMARK    4  A    between atoms: O_22  and  C_23 
REMARK    5  A    between atoms: C_23  and  C_24 
REMARK       I    between atoms: C_24  and  N_26 
REMARK    6  A    between atoms: N_26  and  C_27 
REMARK    7  A    between atoms: C_27  and  C_29 
REMARK    8  A    between atoms: C_27  and  C_35 
REMARK    9  A    between atoms: C_35  and  O_37 
REMARK   10  A    between atoms: O_37  and  C_38 
REMARK   11  A    between atoms: C_41  and  C_42 
ROOT
ATOM      1  C   LIG d   1      10.341   3.854  -9.892  0.00  0.00    -0.003 C 
ATOM      2  C   LIG d   1       9.722   4.851  -8.930  0.00  0.00    -0.045 C 
ATOM      3  C   LIG d   1       9.832   4.248  -7.520  0.00  0.00    -0.049 C 
ATOM      4  C   LIG d   1       9.152   2.885  -7.434  0.00  0.00    -0.029 C 
ATOM      5  H   LIG d   1       8.079   3.015  -7.578  0.00  0.00     0.031 H 
ATOM      6  C   LIG d   1       9.682   1.914  -8.499  0.00  0.00    -0.034 C 
ATOM      7  H   LIG d   1      10.742   1.721  -8.332  0.00  0.00     0.031 H 
ATOM      8  C   LIG d   1       9.458   2.578  -9.859  0.00  0.00    -0.030 C 
ATOM      9  H   LIG d   1       8.409   2.838  -9.995  0.00  0.00     0.031 H 
ATOM     10  C   LIG d   1       9.992   1.800 -11.067  0.00  0.00    -0.047 C 
ATOM     11  C   LIG d   1      10.177   2.909 -12.140  0.00  0.00    -0.026 C 
ATOM     12  C   LIG d   1      10.345   4.241 -11.367  0.00  0.00     0.061 C 
ATOM     13  H   LIG d   1      11.290   4.714 -11.631  0.00  0.00     0.060 H 
ATOM     14  C   LIG d   1       8.892   0.604  -8.419  0.00  0.00    -0.046 C 
ATOM     15  C   LIG d   1       9.167  -0.068  -7.072  0.00  0.00    -0.031 C 
ATOM     16  C   LIG d   1       8.840   0.913  -5.961  0.00  0.00    -0.062 C 
ATOM     17  C   LIG d   1       8.074   0.483  -4.965  0.00  0.00    -0.037 C 
ATOM     18  C   LIG d   1       7.739   1.389  -3.851  0.00  0.00     0.080 C 
ATOM     19  N   LIG d   1       6.708   1.186  -3.093  0.00  0.00    -0.089 NA
ATOM     20  C   LIG d   1       8.668   2.568  -3.640  0.00  0.00    -0.006 C 
ATOM     21  C   LIG d   1       8.851   3.252  -4.994  0.00  0.00    -0.038 C 
ATOM     22  C   LIG d   1       9.399   2.285  -6.045  0.00  0.00    -0.007 C 
ATOM     23  H   LIG d   1      10.265   5.794  -8.973  0.00  0.00     0.027 H 
ATOM     24  H   LIG d   1       8.674   5.011  -9.185  0.00  0.00     0.027 H 
ATOM     25  H   LIG d   1      10.885   4.135  -7.262  0.00  0.00     0.027 H 
ATOM     26  H   LIG d   1       9.363   4.925  -6.807  0.00  0.00     0.027 H 
ATOM     27  H   LIG d   1      10.946   1.329 -10.832  0.00  0.00     0.027 H 
ATOM     28  H   LIG d   1       9.265   1.059 -11.400  0.00  0.00     0.027 H 
ATOM     29  H   LIG d   1      11.066   2.707 -12.736  0.00  0.00     0.029 H 
ATOM     30  H   LIG d   1       9.298   2.957 -12.782  0.00  0.00     0.029 H 
ATOM     31  H   LIG d   1       7.827   0.816  -8.510  0.00  0.00     0.027 H 
ATOM     32  H   LIG d   1       9.203  -0.058  -9.227  0.00  0.00     0.027 H 
ATOM     33  H   LIG d   1       8.542  -0.956  -6.973  0.00  0.00     0.031 H 
ATOM     34  H   LIG d   1      10.218  -0.352  -7.013  0.00  0.00     0.031 H 
ATOM     35  H   LIG d   1       7.697  -0.529  -4.971  0.00  0.00     0.064 H 
ATOM     36  H   LIG d   1       8.226   3.265  -2.929  0.00  0.00     0.033 H 
ATOM     37  H   LIG d   1       9.632   2.220  -3.269  0.00  0.00     0.033 H 
ATOM     38  H   LIG d   1       7.887   3.632  -5.332  0.00  0.00     0.028 H 
ATOM     39  H   LIG d   1       9.539   4.089  -4.878  0.00  0.00     0.028 H 
ENDROOT
BRANCH  19  40
ATOM     40  O   LIG d   1       5.866   0.071  -3.324  0.00  0.00    -0.384 OA
BRANCH  40  41
ATOM     41  C   LIG d   1       4.472   0.361  -3.206  0.00  0.00     0.193 C 
ATOM     42  H   LIG d   1       4.043  -0.242  -2.406  0.00  0.00     0.082 H 
ATOM     43  H   LIG d   1       4.340   1.418  -2.977  0.00  0.00     0.082 H 
BRANCH  41  44
ATOM     44  C   LIG d   1       3.781   0.038  -4.505  0.00  0.00     0.254 C 
ATOM     45  O   LIG d   1       2.576   0.143  -4.595  0.00  0.00    -0.272 OA
ATOM     46  N   LIG d   1       4.503  -0.368  -5.570  0.00  0.00    -0.296 N 
ATOM     47  H   LIG d   1       5.467  -0.452  -5.498  0.00  0.00     0.150 HD
BRANCH  46  48
ATOM     48  C   LIG d   1       3.832  -0.682  -6.833  0.00  0.00     0.146 C 
ATOM     49  H   LIG d   1       2.772  -0.858  -6.648  0.00  0.00     0.067 H 
BRANCH  48  50
ATOM     50  C   LIG d   1       3.988   0.475  -7.786  0.00  0.00    -0.017 A 
ATOM     51  C   LIG d   1       5.242   0.819  -8.255  0.00  0.00    -0.056 A 
ATOM     52  C   LIG d   1       5.385   1.879  -9.132  0.00  0.00    -0.061 A 
ATOM     53  H   LIG d   1       6.110   0.258  -7.942  0.00  0.00     0.062 H 
ATOM     54  C   LIG d   1       4.276   2.600  -9.531  0.00  0.00    -0.062 A 
ATOM     55  H   LIG d   1       6.364   2.144  -9.503  0.00  0.00     0.062 H 
ATOM     56  C   LIG d   1       3.023   2.260  -9.057  0.00  0.00    -0.061 A 
ATOM     57  H   LIG d   1       4.388   3.430 -10.214  0.00  0.00     0.062 H 
ATOM     58  C   LIG d   1       2.879   1.198  -8.184  0.00  0.00    -0.056 A 
ATOM     59  H   LIG d   1       2.156   2.825  -9.368  0.00  0.00     0.062 H 
ATOM     60  H   LIG d   1       1.900   0.932  -7.813  0.00  0.00     0.062 H 
ENDBRANCH  48  50
BRANCH  48  61
ATOM     61  C   LIG d   1       4.449  -1.917  -7.436  0.00  0.00     0.332 C 
ATOM     62  O   LIG d   1       3.895  -2.487  -8.345  0.00  0.00    -0.248 OA
BRANCH  61  63
ATOM     63  O   LIG d   1       5.616  -2.383  -6.964  0.00  0.00    -0.466 OA
BRANCH  63  64
ATOM     64  C   LIG d   1       6.616  -2.723  -7.926  0.00  0.00     0.082 C 
ATOM     65  H   LIG d   1       6.958  -1.818  -8.430  0.00  0.00     0.066 H 
ATOM     66  H   LIG d   1       7.458  -3.198  -7.422  0.00  0.00     0.066 H 
ATOM     67  H   LIG d   1       6.196  -3.410  -8.659  0.00  0.00     0.066 H 
ENDBRANCH  63  64
ENDBRANCH  61  63
ENDBRANCH  48  61
ENDBRANCH  46  48
ENDBRANCH  41  44
ENDBRANCH  40  41
ENDBRANCH  19  40
BRANCH  22  68
ATOM     68  C   LIG d   1      10.913   2.182  -5.839  0.00  0.00    -0.056 C 
ATOM     69  H   LIG d   1      11.144   2.297  -4.780  0.00  0.00     0.024 H 
ATOM     70  H   LIG d   1      11.260   1.208  -6.182  0.00  0.00     0.024 H 
ATOM     71  H   LIG d   1      11.411   2.966  -6.407  0.00  0.00     0.024 H 
ENDBRANCH  22  68
BRANCH   1  72
ATOM     72  C   LIG d   1      11.763   3.514  -9.441  0.00  0.00    -0.057 C 
ATOM     73  H   LIG d   1      11.976   4.018  -8.498  0.00  0.00     0.024 H 
ATOM     74  H   LIG d   1      11.854   2.436  -9.306  0.00  0.00     0.024 H 
ATOM     75  H   LIG d   1      12.473   3.846 -10.199  0.00  0.00     0.024 H 
ENDBRANCH   1  72
BRANCH  12  76
ATOM     76  O   LIG d   1       9.254   5.119 -11.652  0.00  0.00    -0.391 OA
ATOM     77  H   LIG d   1       9.198   5.882 -11.060  0.00  0.00     0.210 HD
ENDBRANCH  12  76
TORSDOF 11
ENDMDL
MODEL 8
REMARK VINA RESULT:      -6.9      7.246     12.417
REMARK  11 active torsions:
REMARK  status: ('A' for Active; 'I' for Inactive)
REMARK    1  A    between atoms: C_1  and  C_2 
REMARK    2  A    between atoms: C_13  and  O_15 
REMARK    3  A    between atoms: N_21  and  O_22 
REMARK    4  A    between atoms: O_22  and  C_23 
REMARK    5  A    between atoms: C_23  and  C_24 
REMARK       I    between atoms: C_24  and  N_26 
REMARK    6  A    between atoms: N_26  and  C_27 
REMARK    7  A    between atoms: C_27  and  C_29 
REMARK    8  A    between atoms: C_27  and  C_35 
REMARK    9  A    between atoms: C_35  and  O_37 
REMARK   10  A    between atoms: O_37  and  C_38 
REMARK   11  A    between atoms: C_41  and  C_42 
ROOT
ATOM      1  C   LIG d   1       6.507 -10.640  -3.322  0.00  0.00    -0.003 C 
ATOM      2  C   LIG d   1       5.790  -9.987  -4.488  0.00  0.00    -0.045 C 
ATOM      3  C   LIG d   1       6.857  -9.273  -5.333  0.00  0.00    -0.049 C 
ATOM      4  C   LIG d   1       7.640  -8.254  -4.511  0.00  0.00    -0.029 C 
ATOM      5  H   LIG d   1       6.967  -7.450  -4.210  0.00  0.00     0.031 H 
ATOM      6  C   LIG d   1       8.255  -8.886  -3.254  0.00  0.00    -0.034 C 
ATOM      7  H   LIG d   1       8.980  -9.649  -3.537  0.00  0.00     0.031 H 
ATOM      8  C   LIG d   1       7.104  -9.499  -2.455  0.00  0.00    -0.030 C 
ATOM      9  H   LIG d   1       6.342  -8.751  -2.235  0.00  0.00     0.031 H 
ATOM     10  C   LIG d   1       7.512 -10.255  -1.185  0.00  0.00    -0.047 C 
ATOM     11  C   LIG d   1       6.316 -11.219  -0.955  0.00  0.00    -0.026 C 
ATOM     12  C   LIG d   1       5.640 -11.414  -2.334  0.00  0.00     0.061 C 
ATOM     13  H   LIG d   1       5.620 -12.472  -2.598  0.00  0.00     0.060 H 
ATOM     14  C   LIG d   1       8.940  -7.792  -2.429  0.00  0.00    -0.046 C 
ATOM     15  C   LIG d   1      10.118  -7.225  -3.225  0.00  0.00    -0.031 C 
ATOM     16  C   LIG d   1       9.610  -6.747  -4.574  0.00  0.00    -0.062 C 
ATOM     17  C   LIG d   1       9.962  -5.529  -4.969  0.00  0.00    -0.037 C 
ATOM     18  C   LIG d   1       9.512  -5.021  -6.278  0.00  0.00     0.080 C 
ATOM     19  N   LIG d   1       9.466  -3.753  -6.539  0.00  0.00    -0.089 NA
ATOM     20  C   LIG d   1       9.106  -6.064  -7.302  0.00  0.00    -0.006 C 
ATOM     21  C   LIG d   1       8.137  -7.024  -6.614  0.00  0.00    -0.038 C 
ATOM     22  C   LIG d   1       8.763  -7.666  -5.374  0.00  0.00    -0.007 C 
ATOM     23  H   LIG d   1       5.289 -10.746  -5.088  0.00  0.00     0.027 H 
ATOM     24  H   LIG d   1       5.063  -9.263  -4.119  0.00  0.00     0.027 H 
ATOM     25  H   LIG d   1       7.550 -10.015  -5.732  0.00  0.00     0.027 H 
ATOM     26  H   LIG d   1       6.370  -8.762  -6.163  0.00  0.00     0.027 H 
ATOM     27  H   LIG d   1       8.432 -10.815  -1.350  0.00  0.00     0.027 H 
ATOM     28  H   LIG d   1       7.622  -9.568  -0.346  0.00  0.00     0.027 H 
ATOM     29  H   LIG d   1       6.675 -12.175  -0.574  0.00  0.00     0.029 H 
ATOM     30  H   LIG d   1       5.611 -10.777  -0.251  0.00  0.00     0.029 H 
ATOM     31  H   LIG d   1       8.227  -6.996  -2.217  0.00  0.00     0.027 H 
ATOM     32  H   LIG d   1       9.304  -8.217  -1.493  0.00  0.00     0.027 H 
ATOM     33  H   LIG d   1      10.556  -6.388  -2.682  0.00  0.00     0.031 H 
ATOM     34  H   LIG d   1      10.869  -8.001  -3.371  0.00  0.00     0.031 H 
ATOM     35  H   LIG d   1      10.578  -4.911  -4.333  0.00  0.00     0.064 H 
ATOM     36  H   LIG d   1       8.616  -5.583  -8.146  0.00  0.00     0.033 H 
ATOM     37  H   LIG d   1       9.986  -6.609  -7.644  0.00  0.00     0.033 H 
ATOM     38  H   LIG d   1       7.245  -6.474  -6.315  0.00  0.00     0.028 H 
ATOM     39  H   LIG d   1       7.851  -7.804  -7.320  0.00  0.00     0.028 H 
ENDROOT
BRANCH  19  40
ATOM     40  O   LIG d   1       9.854  -2.812  -5.554  0.00  0.00    -0.384 OA
BRANCH  40  41
ATOM     41  C   LIG d   1       8.879  -1.799  -5.303  0.00  0.00     0.193 C 
ATOM     42  H   LIG d   1       9.322  -1.014  -4.689  0.00  0.00     0.082 H 
ATOM     43  H   LIG d   1       8.543  -1.375  -6.249  0.00  0.00     0.082 H 
BRANCH  41  44
ATOM     44  C   LIG d   1       7.704  -2.402  -4.577  0.00  0.00     0.254 C 
ATOM     45  O   LIG d   1       7.754  -2.574  -3.377  0.00  0.00    -0.272 OA
ATOM     46  N   LIG d   1       6.596  -2.751  -5.262  0.00  0.00    -0.296 N 
ATOM     47  H   LIG d   1       6.557  -2.613  -6.221  0.00  0.00     0.150 HD
BRANCH  46  48
ATOM     48  C   LIG d   1       5.454  -3.337  -4.557  0.00  0.00     0.146 C 
ATOM     49  H   LIG d   1       5.808  -3.884  -3.683  0.00  0.00     0.067 H 
BRANCH  48  50
ATOM     50  C   LIG d   1       4.520  -2.240  -4.116  0.00  0.00    -0.017 A 
ATOM     51  C   LIG d   1       4.196  -1.217  -4.988  0.00  0.00    -0.056 A 
ATOM     52  C   LIG d   1       3.335  -0.212  -4.584  0.00  0.00    -0.061 A 
ATOM     53  H   LIG d   1       4.611  -1.204  -5.985  0.00  0.00     0.062 H 
ATOM     54  C   LIG d   1       2.807  -0.226  -3.308  0.00  0.00    -0.062 A 
ATOM     55  H   LIG d   1       3.079   0.585  -5.267  0.00  0.00     0.062 H 
ATOM     56  C   LIG d   1       3.135  -1.246  -2.434  0.00  0.00    -0.061 A 
ATOM     57  H   LIG d   1       2.137   0.560  -2.992  0.00  0.00     0.062 H 
ATOM     58  C   LIG d   1       3.992  -2.253  -2.839  0.00  0.00    -0.056 A 
ATOM     59  H   LIG d   1       2.723  -1.256  -1.436  0.00  0.00     0.062 H 
ATOM     60  H   LIG d   1       4.249  -3.050  -2.157  0.00  0.00     0.062 H 
ENDBRANCH  48  50
BRANCH  48  61
ATOM     61  C   LIG d   1       4.725  -4.279  -5.479  0.00  0.00     0.332 C 
ATOM     62  O   LIG d   1       4.113  -5.216  -5.025  0.00  0.00    -0.248 OA
BRANCH  61  63
ATOM     63  O   LIG d   1       4.755  -4.077  -6.806  0.00  0.00    -0.466 OA
BRANCH  63  64
ATOM     64  C   LIG d   1       3.975  -4.960  -7.614  0.00  0.00     0.082 C 
ATOM     65  H   LIG d   1       4.617  -5.439  -8.354  0.00  0.00     0.066 H 
ATOM     66  H   LIG d   1       3.517  -5.722  -6.983  0.00  0.00     0.066 H 
ATOM     67  H   LIG d   1       3.195  -4.393  -8.123  0.00  0.00     0.066 H 
ENDBRANCH  63  64
ENDBRANCH  61  63
ENDBRANCH  48  61
ENDBRANCH  46  48
ENDBRANCH  41  44
ENDBRANCH  40  41
ENDBRANCH  19  40
BRANCH  22  68
ATOM     68  C   LIG d   1       9.649  -8.822  -5.845  0.00  0.00    -0.056 C 
ATOM     69  H   LIG d   1      10.589  -8.426  -6.230  0.00  0.00     0.024 H 
ATOM     70  H   LIG d   1       9.853  -9.488  -5.007  0.00  0.00     0.024 H 
ATOM     71  H   LIG d   1       9.138  -9.375  -6.632  0.00  0.00     0.024 H 
ENDBRANCH  22  68
BRANCH   1  72
ATOM     72  C   LIG d   1       7.630 -11.539  -3.842  0.00  0.00    -0.057 C 
ATOM     73  H   LIG d   1       7.478 -11.734  -4.903  0.00  0.00     0.024 H 
ATOM     74  H   LIG d   1       8.590 -11.043  -3.696  0.00  0.00     0.024 H 
ATOM     75  H   LIG d   1       7.622 -12.482  -3.295  0.00  0.00     0.024 H 
ENDBRANCH   1  72
BRANCH  12  76
ATOM     76  O   LIG d   1       4.314 -10.882  -2.316  0.00  0.00    -0.391 OA
ATOM     77  H   LIG d   1       3.955 -10.749  -1.428  0.00  0.00     0.210 HD
ENDBRANCH  12  76
TORSDOF 11
ENDMDL
MODEL 9
REMARK VINA RESULT:      -6.9      1.902      3.298
REMARK  11 active torsions:
REMARK  status: ('A' for Active; 'I' for Inactive)
REMARK    1  A    between atoms: C_1  and  C_2 
REMARK    2  A    between atoms: C_13  and  O_15 
REMARK    3  A    between atoms: N_21  and  O_22 
REMARK    4  A    between atoms: O_22  and  C_23 
REMARK    5  A    between atoms: C_23  and  C_24 
REMARK       I    between atoms: C_24  and  N_26 
REMARK    6  A    between atoms: N_26  and  C_27 
REMARK    7  A    between atoms: C_27  and  C_29 
REMARK    8  A    between atoms: C_27  and  C_35 
REMARK    9  A    between atoms: C_35  and  O_37 
REMARK   10  A    between atoms: O_37  and  C_38 
REMARK   11  A    between atoms: C_41  and  C_42 
ROOT
ATOM      1  C   LIG d   1      10.342  10.289  -3.375  0.00  0.00    -0.003 C 
ATOM      2  C   LIG d   1      10.075   9.571  -2.066  0.00  0.00    -0.045 C 
ATOM      3  C   LIG d   1      10.553   8.120  -2.240  0.00  0.00    -0.049 C 
ATOM      4  C   LIG d   1       9.857   7.433  -3.411  0.00  0.00    -0.029 C 
ATOM      5  H   LIG d   1       8.796   7.332  -3.183  0.00  0.00     0.031 H 
ATOM      6  C   LIG d   1      10.011   8.231  -4.714  0.00  0.00    -0.034 C 
ATOM      7  H   LIG d   1      11.064   8.288  -4.994  0.00  0.00     0.031 H 
ATOM      8  C   LIG d   1       9.442   9.627  -4.452  0.00  0.00    -0.030 C 
ATOM      9  H   LIG d   1       8.412   9.566  -4.102  0.00  0.00     0.031 H 
ATOM     10  C   LIG d   1       9.567  10.618  -5.615  0.00  0.00    -0.047 C 
ATOM     11  C   LIG d   1       9.494  11.998  -4.904  0.00  0.00    -0.026 C 
ATOM     12  C   LIG d   1       9.943  11.760  -3.441  0.00  0.00     0.061 C 
ATOM     13  H   LIG d   1      10.797  12.394  -3.200  0.00  0.00     0.060 H 
ATOM     14  C   LIG d   1       9.211   7.539  -5.822  0.00  0.00    -0.046 C 
ATOM     15  C   LIG d   1       9.826   6.166  -6.103  0.00  0.00    -0.031 C 
ATOM     16  C   LIG d   1       9.880   5.381  -4.805  0.00  0.00    -0.062 C 
ATOM     17  C   LIG d   1       9.410   4.138  -4.815  0.00  0.00    -0.037 C 
ATOM     18  C   LIG d   1       9.454   3.325  -3.587  0.00  0.00     0.080 C 
ATOM     19  N   LIG d   1       8.674   2.305  -3.416  0.00  0.00    -0.089 NA
ATOM     20  C   LIG d   1      10.463   3.746  -2.536  0.00  0.00    -0.006 C 
ATOM     21  C   LIG d   1      10.286   5.246  -2.310  0.00  0.00    -0.038 C 
ATOM     22  C   LIG d   1      10.461   6.037  -3.608  0.00  0.00    -0.007 C 
ATOM     23  H   LIG d   1      10.630  10.050  -1.260  0.00  0.00     0.027 H 
ATOM     24  H   LIG d   1       9.008   9.587  -1.845  0.00  0.00     0.027 H 
ATOM     25  H   LIG d   1      11.629   8.118  -2.416  0.00  0.00     0.027 H 
ATOM     26  H   LIG d   1      10.343   7.565  -1.327  0.00  0.00     0.027 H 
ATOM     27  H   LIG d   1      10.524  10.497  -6.123  0.00  0.00     0.027 H 
ATOM     28  H   LIG d   1       8.739  10.500  -6.314  0.00  0.00     0.027 H 
ATOM     29  H   LIG d   1      10.165  12.705  -5.392  0.00  0.00     0.029 H 
ATOM     30  H   LIG d   1       8.472  12.375  -4.925  0.00  0.00     0.029 H 
ATOM     31  H   LIG d   1       8.177   7.417  -5.501  0.00  0.00     0.027 H 
ATOM     32  H   LIG d   1       9.245   8.145  -6.728  0.00  0.00     0.027 H 
ATOM     33  H   LIG d   1       9.211   5.632  -6.828  0.00  0.00     0.031 H 
ATOM     34  H   LIG d   1      10.834   6.290  -6.499  0.00  0.00     0.031 H 
ATOM     35  H   LIG d   1       8.996   3.725  -5.723  0.00  0.00     0.064 H 
ATOM     36  H   LIG d   1      10.279   3.206  -1.609  0.00  0.00     0.033 H 
ATOM     37  H   LIG d   1      11.474   3.542  -2.891  0.00  0.00     0.033 H 
ATOM     38  H   LIG d   1       9.286   5.430  -1.917  0.00  0.00     0.028 H 
ATOM     39  H   LIG d   1      11.020   5.584  -1.579  0.00  0.00     0.028 H 
ENDROOT
BRANCH  19  40
ATOM     40  O   LIG d   1       7.746   1.945  -4.422  0.00  0.00    -0.384 OA
BRANCH  40  41
ATOM     41  C   LIG d   1       7.574   0.535  -4.578  0.00  0.00     0.193 C 
ATOM     42  H   LIG d   1       8.280   0.163  -5.321  0.00  0.00     0.082 H 
ATOM     43  H   LIG d   1       7.754   0.040  -3.624  0.00  0.00     0.082 H 
BRANCH  41  44
ATOM     44  C   LIG d   1       6.166   0.249  -5.035  0.00  0.00     0.254 C 
ATOM     45  O   LIG d   1       5.237   0.399  -4.270  0.00  0.00    -0.272 OA
ATOM     46  N   LIG d   1       5.940  -0.174  -6.295  0.00  0.00    -0.296 N 
ATOM     47  H   LIG d   1       6.683  -0.294  -6.906  0.00  0.00     0.150 HD
BRANCH  46  48
ATOM     48  C   LIG d   1       4.572  -0.453  -6.738  0.00  0.00     0.146 C 
ATOM     49  H   LIG d   1       3.889  -0.352  -5.896  0.00  0.00     0.067 H 
BRANCH  48  50
ATOM     50  C   LIG d   1       4.186   0.527  -7.817  0.00  0.00    -0.017 A 
ATOM     51  C   LIG d   1       5.160   1.092  -8.619  0.00  0.00    -0.056 A 
ATOM     52  C   LIG d   1       4.805   1.987  -9.611  0.00  0.00    -0.061 A 
ATOM     53  H   LIG d   1       6.198   0.831  -8.474  0.00  0.00     0.062 H 
ATOM     54  C   LIG d   1       3.478   2.325  -9.794  0.00  0.00    -0.062 A 
ATOM     55  H   LIG d   1       5.566   2.425 -10.240  0.00  0.00     0.062 H 
ATOM     56  C   LIG d   1       2.504   1.764  -8.990  0.00  0.00    -0.061 A 
ATOM     57  H   LIG d   1       3.201   3.027 -10.568  0.00  0.00     0.062 H 
ATOM     58  C   LIG d   1       2.858   0.865  -8.000  0.00  0.00    -0.056 A 
ATOM     59  H   LIG d   1       1.466   2.028  -9.133  0.00  0.00     0.062 H 
ATOM     60  H   LIG d   1       2.098   0.427  -7.371  0.00  0.00     0.062 H 
ENDBRANCH  48  50
BRANCH  48  61
ATOM     61  C   LIG d   1       4.496  -1.855  -7.282  0.00  0.00     0.332 C 
ATOM     62  O   LIG d   1       4.552  -2.799  -6.530  0.00  0.00    -0.248 OA
BRANCH  61  63
ATOM     63  O   LIG d   1       4.366  -2.057  -8.603  0.00  0.00    -0.466 OA
BRANCH  63  64
ATOM     64  C   LIG d   1       3.312  -2.924  -9.026  0.00  0.00     0.082 C 
ATOM     65  H   LIG d   1       3.622  -3.962  -8.900  0.00  0.00     0.066 H 
ATOM     66  H   LIG d   1       2.422  -2.735  -8.425  0.00  0.00     0.066 H 
ATOM     67  H   LIG d   1       3.087  -2.738 -10.076  0.00  0.00     0.066 H 
ENDBRANCH  63  64
ENDBRANCH  61  63
ENDBRANCH  48  61
ENDBRANCH  46  48
ENDBRANCH  41  44
ENDBRANCH  40  41
ENDBRANCH  19  40
BRANCH  22  68
ATOM     68  C   LIG d   1      11.963   6.204  -3.853  0.00  0.00    -0.056 C 
ATOM     69  H   LIG d   1      12.494   5.341  -3.452  0.00  0.00     0.024 H 
ATOM     70  H   LIG d   1      12.149   6.279  -4.924  0.00  0.00     0.024 H 
ATOM     71  H   LIG d   1      12.314   7.109  -3.360  0.00  0.00     0.024 H 
ENDBRANCH  22  68
BRANCH   1  72
ATOM     72  C   LIG d   1      11.814  10.134  -3.762  0.00  0.00    -0.057 C 
ATOM     73  H   LIG d   1      12.016  10.710  -4.665  0.00  0.00     0.024 H 
ATOM     74  H   LIG d   1      12.444  10.498  -2.950  0.00  0.00     0.024 H 
ATOM     75  H   LIG d   1      12.032   9.082  -3.946  0.00  0.00     0.024 H 
ENDBRANCH   1  72
BRANCH  12  76
ATOM     76  O   LIG d   1       8.863  12.021  -2.542  0.00  0.00    -0.391 OA
ATOM     77  H   LIG d   1       9.000  11.673  -1.651  0.00  0.00     0.210 HD
ENDBRANCH  12  76
TORSDOF 11
ENDMDL
MODEL 10
REMARK VINA RESULT:      -6.8      4.273      9.450
REMARK  11 active torsions:
REMARK  status: ('A' for Active; 'I' for Inactive)
REMARK    1  A    between atoms: C_1  and  C_2 
REMARK    2  A    between atoms: C_13  and  O_15 
REMARK    3  A    between atoms: N_21  and  O_22 
REMARK    4  A    between atoms: O_22  and  C_23 
REMARK    5  A    between atoms: C_23  and  C_24 
REMARK       I    between atoms: C_24  and  N_26 
REMARK    6  A    between atoms: N_26  and  C_27 
REMARK    7  A    between atoms: C_27  and  C_29 
REMARK    8  A    between atoms: C_27  and  C_35 
REMARK    9  A    between atoms: C_35  and  O_37 
REMARK   10  A    between atoms: O_37  and  C_38 
REMARK   11  A    between atoms: C_41  and  C_42 
ROOT
ATOM      1  C   LIG d   1      10.203   2.582  -8.315  0.00  0.00    -0.003 C 
ATOM      2  C   LIG d   1      10.977   3.885  -8.363  0.00  0.00    -0.045 C 
ATOM      3  C   LIG d   1      11.602   4.092  -6.974  0.00  0.00    -0.049 C 
ATOM      4  C   LIG d   1      10.544   4.106  -5.875  0.00  0.00    -0.029 C 
ATOM      5  H   LIG d   1       9.908   4.982  -6.006  0.00  0.00     0.031 H 
ATOM      6  C   LIG d   1       9.669   2.845  -5.909  0.00  0.00    -0.034 C 
ATOM      7  H   LIG d   1      10.279   1.963  -5.715  0.00  0.00     0.031 H 
ATOM      8  C   LIG d   1       9.042   2.776  -7.303  0.00  0.00    -0.030 C 
ATOM      9  H   LIG d   1       8.492   3.691  -7.527  0.00  0.00     0.031 H 
ATOM     10  C   LIG d   1       8.180   1.538  -7.578  0.00  0.00    -0.047 C 
ATOM     11  C   LIG d   1       8.203   1.436  -9.128  0.00  0.00    -0.026 C 
ATOM     12  C   LIG d   1       9.487   2.164  -9.595  0.00  0.00     0.061 C 
ATOM     13  H   LIG d   1      10.115   1.488 -10.175  0.00  0.00     0.060 H 
ATOM     14  C   LIG d   1       8.572   2.968  -4.847  0.00  0.00    -0.046 C 
ATOM     15  C   LIG d   1       9.216   2.986  -3.459  0.00  0.00    -0.031 C 
ATOM     16  C   LIG d   1      10.242   4.104  -3.412  0.00  0.00    -0.062 C 
ATOM     17  C   LIG d   1      10.198   4.938  -2.379  0.00  0.00    -0.037 C 
ATOM     18  C   LIG d   1      11.182   6.031  -2.274  0.00  0.00     0.080 C 
ATOM     19  N   LIG d   1      10.957   7.085  -1.555  0.00  0.00    -0.089 NA
ATOM     20  C   LIG d   1      12.472   5.853  -3.053  0.00  0.00    -0.006 C 
ATOM     21  C   LIG d   1      12.092   5.463  -4.480  0.00  0.00    -0.038 C 
ATOM     22  C   LIG d   1      11.237   4.194  -4.509  0.00  0.00    -0.007 C 
ATOM     23  H   LIG d   1      11.761   3.824  -9.117  0.00  0.00     0.027 H 
ATOM     24  H   LIG d   1      10.302   4.710  -8.593  0.00  0.00     0.027 H 
ATOM     25  H   LIG d   1      12.308   3.285  -6.777  0.00  0.00     0.027 H 
ATOM     26  H   LIG d   1      12.138   5.041  -6.963  0.00  0.00     0.027 H 
ATOM     27  H   LIG d   1       8.625   0.652  -7.127  0.00  0.00     0.027 H 
ATOM     28  H   LIG d   1       7.163   1.688  -7.216  0.00  0.00     0.027 H 
ATOM     29  H   LIG d   1       8.233   0.390  -9.432  0.00  0.00     0.029 H 
ATOM     30  H   LIG d   1       7.323   1.923  -9.547  0.00  0.00     0.029 H 
ATOM     31  H   LIG d   1       8.017   3.893  -5.004  0.00  0.00     0.027 H 
ATOM     32  H   LIG d   1       7.894   2.118  -4.924  0.00  0.00     0.027 H 
ATOM     33  H   LIG d   1       8.449   3.161  -2.704  0.00  0.00     0.031 H 
ATOM     34  H   LIG d   1       9.705   2.031  -3.270  0.00  0.00     0.031 H 
ATOM     35  H   LIG d   1       9.442   4.816  -1.618  0.00  0.00     0.064 H 
ATOM     36  H   LIG d   1      13.031   6.787  -3.059  0.00  0.00     0.033 H 
ATOM     37  H   LIG d   1      13.071   5.064  -2.600  0.00  0.00     0.033 H 
ATOM     38  H   LIG d   1      11.529   6.279  -4.933  0.00  0.00     0.028 H 
ATOM     39  H   LIG d   1      13.002   5.299  -5.057  0.00  0.00     0.028 H 
ENDROOT
BRANCH  19  40
ATOM     40  O   LIG d   1       9.740   7.211  -0.843  0.00  0.00    -0.384 OA
BRANCH  40  41
ATOM     41  C   LIG d   1       9.216   8.540  -0.818  0.00  0.00     0.193 C 
ATOM     42  H   LIG d   1       8.138   8.509  -0.979  0.00  0.00     0.082 H 
ATOM     43  H   LIG d   1       9.428   8.995   0.150  0.00  0.00     0.082 H 
BRANCH  41  44
ATOM     44  C   LIG d   1       9.863   9.355  -1.908  0.00  0.00     0.254 C 
ATOM     45  O   LIG d   1      10.697  10.190  -1.629  0.00  0.00    -0.272 OA
ATOM     46  N   LIG d   1       9.515   9.156  -3.196  0.00  0.00    -0.296 N 
ATOM     47  H   LIG d   1       8.848   8.488  -3.419  0.00  0.00     0.150 HD
BRANCH  46  48
ATOM     48  C   LIG d   1      10.143   9.948  -4.255  0.00  0.00     0.146 C 
ATOM     49  H   LIG d   1      11.095  10.340  -3.900  0.00  0.00     0.067 H 
BRANCH  48  50
ATOM     50  C   LIG d   1      10.380   9.074  -5.461  0.00  0.00    -0.017 A 
ATOM     51  C   LIG d   1       9.365   8.265  -5.938  0.00  0.00    -0.056 A 
ATOM     52  C   LIG d   1       9.581   7.467  -7.046  0.00  0.00    -0.061 A 
ATOM     53  H   LIG d   1       8.402   8.260  -5.449  0.00  0.00     0.062 H 
ATOM     54  C   LIG d   1      10.814   7.470  -7.670  0.00  0.00    -0.062 A 
ATOM     55  H   LIG d   1       8.787   6.839  -7.422  0.00  0.00     0.062 H 
ATOM     56  C   LIG d   1      11.830   8.275  -7.190  0.00  0.00    -0.061 A 
ATOM     57  H   LIG d   1      10.984   6.844  -8.534  0.00  0.00     0.062 H 
ATOM     58  C   LIG d   1      11.613   9.076  -6.085  0.00  0.00    -0.056 A 
ATOM     59  H   LIG d   1      12.794   8.276  -7.677  0.00  0.00     0.062 H 
ATOM     60  H   LIG d   1      12.407   9.704  -5.708  0.00  0.00     0.062 H 
ENDBRANCH  48  50
BRANCH  48  61
ATOM     61  C   LIG d   1       9.237  11.090  -4.633  0.00  0.00     0.332 C 
ATOM     62  O   LIG d   1       9.407  11.678  -5.674  0.00  0.00    -0.248 OA
BRANCH  61  63
ATOM     63  O   LIG d   1       8.240  11.456  -3.811  0.00  0.00    -0.466 OA
BRANCH  63  64
ATOM     64  C   LIG d   1       8.391  12.696  -3.119  0.00  0.00     0.082 C 
ATOM     65  H   LIG d   1       9.330  13.166  -3.415  0.00  0.00     0.066 H 
ATOM     66  H   LIG d   1       7.561  13.357  -3.370  0.00  0.00     0.066 H 
ATOM     67  H   LIG d   1       8.399  12.514  -2.045  0.00  0.00     0.066 H 
ENDBRANCH  63  64
ENDBRANCH  61  63
ENDBRANCH  48  61
ENDBRANCH  46  48
ENDBRANCH  41  44
ENDBRANCH  40  41
ENDBRANCH  19  40
BRANCH  22  68
ATOM     68  C   LIG d   1      12.179   2.994  -4.381  0.00  0.00    -0.056 C 
ATOM     69  H   LIG d   1      13.128   3.225  -4.865  0.00  0.00     0.024 H 
ATOM     70  H   LIG d   1      12.352   2.780  -3.327  0.00  0.00     0.024 H 
ATOM     71  H   LIG d   1      11.728   2.125  -4.859  0.00  0.00     0.024 H 
ENDBRANCH  22  68
BRANCH   1  72
ATOM     72  C   LIG d   1      11.120   1.452  -7.841  0.00  0.00    -0.057 C 
ATOM     73  H   LIG d   1      11.132   1.427  -6.751  0.00  0.00     0.024 H 
ATOM     74  H   LIG d   1      10.750   0.500  -8.223  0.00  0.00     0.024 H 
ATOM     75  H   LIG d   1      12.130   1.625  -8.212  0.00  0.00     0.024 H 
ENDBRANCH   1  72
BRANCH  12  76
ATOM     76  O   LIG d   1       9.149   3.316 -10.371  0.00  0.00    -0.391 OA
ATOM     77  H   LIG d   1       9.853   3.610 -10.965  0.00  0.00     0.210 HD
ENDBRANCH  12  76
TORSDOF 11
ENDMDL
