MODEL 1
REMARK VINA RESULT:      -7.0      0.000      0.000
REMARK  8 active torsions:
REMARK  status: ('A' for Active; 'I' for Inactive)
REMARK    1  A    between atoms: C_1  and  C_2 
REMARK    2  A    between atoms: C_10  and  C_15 
REMARK    3  A    between atoms: C_11  and  O_13 
REMARK    4  A    between atoms: O_13  and  C_14 
REMARK    5  A    between atoms: C_15  and  C_16 
REMARK    6  A    between atoms: C_16  and  C_17 
REMARK       I    between atoms: C_17  and  N_19 
REMARK    7  A    between atoms: N_19  and  C_20 
REMARK    8  A    between atoms: C_20  and  C_21 
ROOT
ATOM      1  C   LIG d   1       2.965   0.690  -4.123  0.00  0.00     0.213 C 
ATOM      2  O   LIG d   1       2.307  -0.291  -3.852  0.00  0.00    -0.276 OA
ATOM      3  N   LIG d   1       3.221   0.994  -5.412  0.00  0.00    -0.315 N 
ATOM      4  H   LIG d   1       3.747   1.780  -5.630  0.00  0.00     0.149 HD
ENDROOT
BRANCH   3   5
ATOM      5  C   LIG d   1       2.704   0.138  -6.482  0.00  0.00     0.019 C 
ATOM      6  H   LIG d   1       2.671  -0.896  -6.137  0.00  0.00     0.047 H 
ATOM      7  H   LIG d   1       1.700   0.463  -6.755  0.00  0.00     0.047 H 
BRANCH   5   8
ATOM      8  C   LIG d   1       3.622   0.238  -7.703  0.00  0.00     0.018 C 
ATOM      9  H   LIG d   1       4.412   0.961  -7.504  0.00  0.00     0.037 H 
ATOM     10  C   LIG d   1       4.243  -1.134  -7.987  0.00  0.00    -0.017 C 
ATOM     11  N   LIG d   1       3.193  -2.112  -8.280  0.00  0.00     0.238 N 
ATOM     12  H   LIG d   1       4.917  -1.058  -8.839  0.00  0.00     0.085 H 
ATOM     13  C   LIG d   1       5.030  -1.566  -6.745  0.00  0.00    -0.009 C 
ATOM     14  C   LIG d   1       2.435  -1.701  -9.471  0.00  0.00    -0.032 C 
ATOM     15  C   LIG d   1       3.788  -3.429  -8.551  0.00  0.00    -0.032 C 
ATOM     16  H   LIG d   1       2.568  -2.181  -7.490  0.00  0.00     0.204 HD
ATOM     17  C   LIG d   1       1.742  -0.362  -9.218  0.00  0.00    -0.012 C 
ATOM     18  H   LIG d   1       1.686  -2.459  -9.700  0.00  0.00     0.081 H 
ATOM     19  H   LIG d   1       3.116  -1.602 -10.316  0.00  0.00     0.081 H 
ATOM     20  C   LIG d   1       2.806   0.696  -8.915  0.00  0.00    -0.039 C 
ATOM     21  H   LIG d   1       1.066  -0.455  -8.368  0.00  0.00     0.032 H 
ATOM     22  H   LIG d   1       1.178  -0.070 -10.105  0.00  0.00     0.032 H 
ATOM     23  H   LIG d   1       2.323   1.648  -8.692  0.00  0.00     0.027 H 
ATOM     24  H   LIG d   1       3.465   0.810  -9.776  0.00  0.00     0.027 H 
ATOM     25  C   LIG d   1       4.533  -3.934  -7.320  0.00  0.00    -0.012 C 
ATOM     26  H   LIG d   1       2.998  -4.136  -8.808  0.00  0.00     0.081 H 
ATOM     27  H   LIG d   1       4.482  -3.346  -9.387  0.00  0.00     0.081 H 
ATOM     28  C   LIG d   1       5.652  -2.943  -6.981  0.00  0.00    -0.043 C 
ATOM     29  H   LIG d   1       4.964  -4.913  -7.530  0.00  0.00     0.032 H 
ATOM     30  H   LIG d   1       3.844  -4.009  -6.479  0.00  0.00     0.032 H 
ATOM     31  H   LIG d   1       6.358  -2.890  -7.810  0.00  0.00     0.027 H 
ATOM     32  H   LIG d   1       6.168  -3.271  -6.078  0.00  0.00     0.027 H 
ATOM     33  H   LIG d   1       5.820  -0.841  -6.547  0.00  0.00     0.032 H 
ATOM     34  H   LIG d   1       4.359  -1.612  -5.888  0.00  0.00     0.032 H 
ENDBRANCH   5   8
ENDBRANCH   3   5
BRANCH   1  35
ATOM     35  C   LIG d   1       3.497   1.571  -3.022  0.00  0.00     0.028 C 
ATOM     36  H   LIG d   1       2.664   1.998  -2.464  0.00  0.00     0.036 H 
ATOM     37  H   LIG d   1       4.093   2.374  -3.455  0.00  0.00     0.036 H 
BRANCH  35  38
ATOM     38  C   LIG d   1       4.369   0.738  -2.081  0.00  0.00    -0.016 C 
ATOM     39  H   LIG d   1       3.790  -0.101  -1.696  0.00  0.00     0.032 H 
ATOM     40  H   LIG d   1       4.704   1.359  -1.250  0.00  0.00     0.032 H 
BRANCH  38  41
ATOM     41  C   LIG d   1       5.567   0.217  -2.834  0.00  0.00    -0.004 A 
ATOM     42  C   LIG d   1       6.481   1.093  -3.344  0.00  0.00    -0.044 A 
ATOM     43  C   LIG d   1       7.593   0.610  -4.043  0.00  0.00     0.021 A 
ATOM     44  H   LIG d   1       6.346   2.157  -3.208  0.00  0.00     0.063 H 
ATOM     45  C   LIG d   1       8.589   1.527  -4.601  0.00  0.00    -0.033 A 
ATOM     46  C   LIG d   1       7.764  -0.775  -4.222  0.00  0.00     0.143 A 
ATOM     47  C   LIG d   1       9.648   0.996  -5.264  0.00  0.00     0.026 A 
ATOM     48  C   LIG d   1       9.760  -0.403  -5.403  0.00  0.00     0.338 A 
ATOM     49  H   LIG d   1      10.403   1.643  -5.686  0.00  0.00     0.069 H 
ATOM     50  O   LIG d   1      10.715  -0.865  -5.999  0.00  0.00    -0.245 OA
ATOM     51  O   LIG d   1       8.841  -1.238  -4.892  0.00  0.00    -0.422 OA
ATOM     52  C   LIG d   1       6.824  -1.651  -3.702  0.00  0.00     0.023 A 
ATOM     53  C   LIG d   1       5.734  -1.155  -3.003  0.00  0.00     0.127 A 
ATOM     54  H   LIG d   1       6.946  -2.716  -3.830  0.00  0.00     0.069 H 
BRANCH  45  55
ATOM     55  C   LIG d   1       8.446   3.019  -4.438  0.00  0.00    -0.039 C 
ATOM     56  H   LIG d   1       7.574   3.363  -4.993  0.00  0.00     0.028 H 
ATOM     57  H   LIG d   1       8.323   3.259  -3.382  0.00  0.00     0.028 H 
ATOM     58  H   LIG d   1       9.339   3.512  -4.822  0.00  0.00     0.028 H 
ENDBRANCH  45  55
BRANCH  53  59
ATOM     59  O   LIG d   1       4.816  -2.015  -2.490  0.00  0.00    -0.495 OA
BRANCH  59  60
ATOM     60  C   LIG d   1       4.265  -2.984  -3.384  0.00  0.00     0.079 C 
ATOM     61  H   LIG d   1       3.374  -2.575  -3.859  0.00  0.00     0.066 H 
ATOM     62  H   LIG d   1       5.001  -3.235  -4.147  0.00  0.00     0.066 H 
ATOM     63  H   LIG d   1       4.000  -3.882  -2.825  0.00  0.00     0.066 H 
ENDBRANCH  59  60
ENDBRANCH  53  59
ENDBRANCH  38  41
ENDBRANCH  35  38
ENDBRANCH   1  35
TORSDOF 8
ENDMDL
MODEL 2
REMARK VINA RESULT:      -6.9      4.461      7.239
REMARK  8 active torsions:
REMARK  status: ('A' for Active; 'I' for Inactive)
REMARK    1  A    between atoms: C_1  and  C_2 
REMARK    2  A    between atoms: C_10  and  C_15 
REMARK    3  A    between atoms: C_11  and  O_13 
REMARK    4  A    between atoms: O_13  and  C_14 
REMARK    5  A    between atoms: C_15  and  C_16 
REMARK    6  A    between atoms: C_16  and  C_17 
REMARK       I    between atoms: C_17  and  N_19 
REMARK    7  A    between atoms: N_19  and  C_20 
REMARK    8  A    between atoms: C_20  and  C_21 
ROOT
ATOM      1  C   LIG d   1       8.659   1.815  -4.533  0.00  0.00     0.213 C 
ATOM      2  O   LIG d   1       7.645   2.434  -4.779  0.00  0.00    -0.276 OA
ATOM      3  N   LIG d   1       8.613   0.474  -4.399  0.00  0.00    -0.315 N 
ATOM      4  H   LIG d   1       9.424  -0.022  -4.203  0.00  0.00     0.149 HD
ENDROOT
BRANCH   3   5
ATOM      5  C   LIG d   1       7.340  -0.234  -4.549  0.00  0.00     0.019 C 
ATOM      6  H   LIG d   1       6.532   0.491  -4.663  0.00  0.00     0.047 H 
ATOM      7  H   LIG d   1       7.380  -0.874  -5.431  0.00  0.00     0.047 H 
BRANCH   5   8
ATOM      8  C   LIG d   1       7.083  -1.092  -3.308  0.00  0.00     0.018 C 
ATOM      9  H   LIG d   1       7.774  -0.800  -2.517  0.00  0.00     0.037 H 
ATOM     10  C   LIG d   1       5.642  -0.880  -2.831  0.00  0.00    -0.017 C 
ATOM     11  N   LIG d   1       4.701  -1.290  -3.876  0.00  0.00     0.238 N 
ATOM     12  H   LIG d   1       5.466  -1.470  -1.932  0.00  0.00     0.085 H 
ATOM     13  C   LIG d   1       5.458   0.607  -2.516  0.00  0.00    -0.009 C 
ATOM     14  C   LIG d   1       4.873  -2.718  -4.183  0.00  0.00    -0.032 C 
ATOM     15  C   LIG d   1       3.317  -1.087  -3.421  0.00  0.00    -0.032 C 
ATOM     16  H   LIG d   1       4.864  -0.745  -4.709  0.00  0.00     0.204 HD
ATOM     17  C   LIG d   1       6.280  -2.974  -4.722  0.00  0.00    -0.012 C 
ATOM     18  H   LIG d   1       4.139  -3.017  -4.931  0.00  0.00     0.081 H 
ATOM     19  H   LIG d   1       4.722  -3.303  -3.276  0.00  0.00     0.081 H 
ATOM     20  C   LIG d   1       7.301  -2.566  -3.656  0.00  0.00    -0.039 C 
ATOM     21  H   LIG d   1       6.439  -2.384  -5.625  0.00  0.00     0.032 H 
ATOM     22  H   LIG d   1       6.396  -4.034  -4.952  0.00  0.00     0.032 H 
ATOM     23  H   LIG d   1       8.311  -2.705  -4.043  0.00  0.00     0.027 H 
ATOM     24  H   LIG d   1       7.162  -3.176  -2.763  0.00  0.00     0.027 H 
ATOM     25  C   LIG d   1       3.063   0.393  -3.152  0.00  0.00    -0.012 C 
ATOM     26  H   LIG d   1       2.628  -1.435  -4.192  0.00  0.00     0.081 H 
ATOM     27  H   LIG d   1       3.151  -1.656  -2.507  0.00  0.00     0.081 H 
ATOM     28  C   LIG d   1       4.023   0.865  -2.054  0.00  0.00    -0.043 C 
ATOM     29  H   LIG d   1       2.034   0.532  -2.821  0.00  0.00     0.032 H 
ATOM     30  H   LIG d   1       3.238   0.966  -4.062  0.00  0.00     0.032 H 
ATOM     31  H   LIG d   1       3.828   0.312  -1.135  0.00  0.00     0.027 H 
ATOM     32  H   LIG d   1       3.881   1.932  -1.879  0.00  0.00     0.027 H 
ATOM     33  H   LIG d   1       6.150   0.898  -1.725  0.00  0.00     0.032 H 
ATOM     34  H   LIG d   1       5.663   1.196  -3.409  0.00  0.00     0.032 H 
ENDBRANCH   5   8
ENDBRANCH   3   5
BRANCH   1  35
ATOM     35  C   LIG d   1       9.969   2.543  -4.379  0.00  0.00     0.028 C 
ATOM     36  H   LIG d   1      10.159   3.141  -5.270  0.00  0.00     0.036 H 
ATOM     37  H   LIG d   1      10.773   1.819  -4.249  0.00  0.00     0.036 H 
BRANCH  35  38
ATOM     38  C   LIG d   1       9.902   3.457  -3.154  0.00  0.00    -0.016 C 
ATOM     39  H   LIG d   1      10.776   3.289  -2.526  0.00  0.00     0.032 H 
ATOM     40  H   LIG d   1       8.999   3.238  -2.585  0.00  0.00     0.032 H 
BRANCH  38  41
ATOM     41  C   LIG d   1       9.876   4.897  -3.603  0.00  0.00    -0.004 A 
ATOM     42  C   LIG d   1       9.788   5.192  -4.932  0.00  0.00    -0.044 A 
ATOM     43  C   LIG d   1       9.763   6.527  -5.349  0.00  0.00     0.021 A 
ATOM     44  H   LIG d   1       9.739   4.395  -5.661  0.00  0.00     0.063 H 
ATOM     45  C   LIG d   1       9.671   6.873  -6.768  0.00  0.00    -0.033 A 
ATOM     46  C   LIG d   1       9.833   7.562  -4.398  0.00  0.00     0.143 A 
ATOM     47  C   LIG d   1       9.646   8.187  -7.108  0.00  0.00     0.026 A 
ATOM     48  C   LIG d   1       9.713   9.174  -6.103  0.00  0.00     0.338 A 
ATOM     49  H   LIG d   1       9.575   8.478  -8.146  0.00  0.00     0.069 H 
ATOM     50  O   LIG d   1       9.689  10.348  -6.421  0.00  0.00    -0.245 OA
ATOM     51  O   LIG d   1       9.803   8.850  -4.803  0.00  0.00    -0.422 OA
ATOM     52  C   LIG d   1       9.926   7.245  -3.051  0.00  0.00     0.023 A 
ATOM     53  C   LIG d   1       9.938   5.917  -2.656  0.00  0.00     0.127 A 
ATOM     54  H   LIG d   1       9.976   8.031  -2.312  0.00  0.00     0.069 H 
BRANCH  45  55
ATOM     55  C   LIG d   1       9.599   5.799  -7.824  0.00  0.00    -0.039 C 
ATOM     56  H   LIG d   1       8.631   5.301  -7.771  0.00  0.00     0.028 H 
ATOM     57  H   LIG d   1       9.723   6.249  -8.809  0.00  0.00     0.028 H 
ATOM     58  H   LIG d   1      10.393   5.071  -7.655  0.00  0.00     0.028 H 
ENDBRANCH  45  55
BRANCH  53  59
ATOM     59  O   LIG d   1      10.025   5.608  -1.337  0.00  0.00    -0.495 OA
BRANCH  59  60
ATOM     60  C   LIG d   1      10.530   6.621  -0.465  0.00  0.00     0.079 C 
ATOM     61  H   LIG d   1      11.599   6.746  -0.635  0.00  0.00     0.066 H 
ATOM     62  H   LIG d   1      10.018   7.562  -0.666  0.00  0.00     0.066 H 
ATOM     63  H   LIG d   1      10.359   6.327   0.571  0.00  0.00     0.066 H 
ENDBRANCH  59  60
ENDBRANCH  53  59
ENDBRANCH  38  41
ENDBRANCH  35  38
ENDBRANCH   1  35
TORSDOF 8
ENDMDL
MODEL 3
REMARK VINA RESULT:      -6.8      4.887      7.611
REMARK  8 active torsions:
REMARK  status: ('A' for Active; 'I' for Inactive)
REMARK    1  A    between atoms: C_1  and  C_2 
REMARK    2  A    between atoms: C_10  and  C_15 
REMARK    3  A    between atoms: C_11  and  O_13 
REMARK    4  A    between atoms: O_13  and  C_14 
REMARK    5  A    between atoms: C_15  and  C_16 
REMARK    6  A    between atoms: C_16  and  C_17 
REMARK       I    between atoms: C_17  and  N_19 
REMARK    7  A    between atoms: N_19  and  C_20 
REMARK    8  A    between atoms: C_20  and  C_21 
ROOT
ATOM      1  C   LIG d   1       8.562   2.004  -3.922  0.00  0.00     0.213 C 
ATOM      2  O   LIG d   1       7.675   2.564  -4.530  0.00  0.00    -0.276 OA
ATOM      3  N   LIG d   1       8.535   0.664  -3.773  0.00  0.00    -0.315 N 
ATOM      4  H   LIG d   1       9.245   0.215  -3.288  0.00  0.00     0.149 HD
ENDROOT
BRANCH   3   5
ATOM      5  C   LIG d   1       7.432  -0.114  -4.344  0.00  0.00     0.019 C 
ATOM      6  H   LIG d   1       6.639   0.562  -4.665  0.00  0.00     0.047 H 
ATOM      7  H   LIG d   1       7.794  -0.683  -5.201  0.00  0.00     0.047 H 
BRANCH   5   8
ATOM      8  C   LIG d   1       6.886  -1.076  -3.287  0.00  0.00     0.018 C 
ATOM      9  H   LIG d   1       7.469  -0.979  -2.372  0.00  0.00     0.037 H 
ATOM     10  C   LIG d   1       5.420  -0.735  -2.997  0.00  0.00    -0.017 C 
ATOM     11  N   LIG d   1       4.618  -0.885  -4.214  0.00  0.00     0.238 N 
ATOM     12  H   LIG d   1       5.037  -1.402  -2.225  0.00  0.00     0.085 H 
ATOM     13  C   LIG d   1       5.357   0.714  -2.503  0.00  0.00    -0.009 C 
ATOM     14  C   LIG d   1       4.676  -2.273  -4.692  0.00  0.00    -0.032 C 
ATOM     15  C   LIG d   1       3.211  -0.556  -3.937  0.00  0.00    -0.032 C 
ATOM     16  H   LIG d   1       4.973  -0.267  -4.928  0.00  0.00     0.204 HD
ATOM     17  C   LIG d   1       6.113  -2.646  -5.055  0.00  0.00    -0.012 C 
ATOM     18  H   LIG d   1       4.042  -2.378  -5.572  0.00  0.00     0.081 H 
ATOM     19  H   LIG d   1       4.316  -2.940  -3.909  0.00  0.00     0.081 H 
ATOM     20  C   LIG d   1       6.989  -2.512  -3.806  0.00  0.00    -0.039 C 
ATOM     21  H   LIG d   1       6.479  -1.976  -5.832  0.00  0.00     0.032 H 
ATOM     22  H   LIG d   1       6.143  -3.676  -5.414  0.00  0.00     0.032 H 
ATOM     23  H   LIG d   1       8.026  -2.735  -4.060  0.00  0.00     0.027 H 
ATOM     24  H   LIG d   1       6.641  -3.203  -3.038  0.00  0.00     0.027 H 
ATOM     25  C   LIG d   1       3.086   0.899  -3.500  0.00  0.00    -0.012 C 
ATOM     26  H   LIG d   1       2.620  -0.712  -4.840  0.00  0.00     0.081 H 
ATOM     27  H   LIG d   1       2.838  -1.206  -3.147  0.00  0.00     0.081 H 
ATOM     28  C   LIG d   1       3.904   1.101  -2.220  0.00  0.00    -0.043 C 
ATOM     29  H   LIG d   1       2.039   1.133  -3.304  0.00  0.00     0.032 H 
ATOM     30  H   LIG d   1       3.467   1.553  -4.284  0.00  0.00     0.032 H 
ATOM     31  H   LIG d   1       3.504   0.470  -1.426  0.00  0.00     0.027 H 
ATOM     32  H   LIG d   1       3.857   2.147  -1.917  0.00  0.00     0.027 H 
ATOM     33  H   LIG d   1       5.942   0.810  -1.588  0.00  0.00     0.032 H 
ATOM     34  H   LIG d   1       5.767   1.376  -3.265  0.00  0.00     0.032 H 
ENDBRANCH   5   8
ENDBRANCH   3   5
BRANCH   1  35
ATOM     35  C   LIG d   1       9.697   2.803  -3.335  0.00  0.00     0.028 C 
ATOM     36  H   LIG d   1      10.548   2.148  -3.155  0.00  0.00     0.036 H 
ATOM     37  H   LIG d   1       9.377   3.250  -2.394  0.00  0.00     0.036 H 
BRANCH  35  38
ATOM     38  C   LIG d   1      10.100   3.908  -4.314  0.00  0.00    -0.016 C 
ATOM     39  H   LIG d   1       9.384   3.946  -5.135  0.00  0.00     0.032 H 
ATOM     40  H   LIG d   1      11.094   3.699  -4.708  0.00  0.00     0.032 H 
BRANCH  38  41
ATOM     41  C   LIG d   1      10.113   5.235  -3.597  0.00  0.00    -0.004 A 
ATOM     42  C   LIG d   1      10.449   5.288  -2.275  0.00  0.00    -0.044 A 
ATOM     43  C   LIG d   1      10.461   6.519  -1.610  0.00  0.00     0.021 A 
ATOM     44  H   LIG d   1      10.706   4.382  -1.744  0.00  0.00     0.063 H 
ATOM     45  C   LIG d   1      10.818   6.606  -0.192  0.00  0.00    -0.033 A 
ATOM     46  C   LIG d   1      10.123   7.697  -2.302  0.00  0.00     0.143 A 
ATOM     47  C   LIG d   1      10.816   7.830   0.395  0.00  0.00     0.026 A 
ATOM     48  C   LIG d   1      10.472   8.971  -0.359  0.00  0.00     0.338 A 
ATOM     49  H   LIG d   1      11.077   7.932   1.438  0.00  0.00     0.069 H 
ATOM     50  O   LIG d   1      10.475  10.062   0.179  0.00  0.00    -0.245 OA
ATOM     51  O   LIG d   1      10.141   8.883  -1.658  0.00  0.00    -0.422 OA
ATOM     52  C   LIG d   1       9.779   7.624  -3.643  0.00  0.00     0.023 A 
ATOM     53  C   LIG d   1       9.783   6.398  -4.288  0.00  0.00     0.127 A 
ATOM     54  H   LIG d   1       9.521   8.521  -4.186  0.00  0.00     0.069 H 
BRANCH  45  55
ATOM     55  C   LIG d   1      11.183   5.372   0.592  0.00  0.00    -0.039 C 
ATOM     56  H   LIG d   1      10.973   5.537   1.648  0.00  0.00     0.028 H 
ATOM     57  H   LIG d   1      10.597   4.527   0.232  0.00  0.00     0.028 H 
ATOM     58  H   LIG d   1      12.245   5.160   0.461  0.00  0.00     0.028 H 
ENDBRANCH  45  55
BRANCH  53  59
ATOM     59  O   LIG d   1       9.450   6.328  -5.603  0.00  0.00    -0.495 OA
BRANCH  59  60
ATOM     60  C   LIG d   1       9.570   7.530  -6.367  0.00  0.00     0.079 C 
ATOM     61  H   LIG d   1      10.454   7.471  -7.001  0.00  0.00     0.066 H 
ATOM     62  H   LIG d   1       8.684   7.655  -6.989  0.00  0.00     0.066 H 
ATOM     63  H   LIG d   1       9.663   8.381  -5.691  0.00  0.00     0.066 H 
ENDBRANCH  59  60
ENDBRANCH  53  59
ENDBRANCH  38  41
ENDBRANCH  35  38
ENDBRANCH   1  35
TORSDOF 8
ENDMDL
MODEL 4
REMARK VINA RESULT:      -6.8      3.543      6.403
REMARK  8 active torsions:
REMARK  status: ('A' for Active; 'I' for Inactive)
REMARK    1  A    between atoms: C_1  and  C_2 
REMARK    2  A    between atoms: C_10  and  C_15 
REMARK    3  A    between atoms: C_11  and  O_13 
REMARK    4  A    between atoms: O_13  and  C_14 
REMARK    5  A    between atoms: C_15  and  C_16 
REMARK    6  A    between atoms: C_16  and  C_17 
REMARK       I    between atoms: C_17  and  N_19 
REMARK    7  A    between atoms: N_19  and  C_20 
REMARK    8  A    between atoms: C_20  and  C_21 
ROOT
ATOM      1  C   LIG d   1       8.261   1.332  -6.887  0.00  0.00     0.213 C 
ATOM      2  O   LIG d   1       8.245   0.369  -7.624  0.00  0.00    -0.276 OA
ATOM      3  N   LIG d   1       7.516   1.333  -5.764  0.00  0.00    -0.315 N 
ATOM      4  H   LIG d   1       7.530   2.102  -5.173  0.00  0.00     0.149 HD
ENDROOT
BRANCH   3   5
ATOM      5  C   LIG d   1       6.686   0.171  -5.435  0.00  0.00     0.019 C 
ATOM      6  H   LIG d   1       5.648   0.486  -5.321  0.00  0.00     0.047 H 
ATOM      7  H   LIG d   1       6.756  -0.565  -6.236  0.00  0.00     0.047 H 
BRANCH   5   8
ATOM      8  C   LIG d   1       7.176  -0.452  -4.126  0.00  0.00     0.018 C 
ATOM      9  H   LIG d   1       8.005   0.136  -3.733  0.00  0.00     0.037 H 
ATOM     10  C   LIG d   1       6.031  -0.463  -3.107  0.00  0.00    -0.017 C 
ATOM     11  N   LIG d   1       4.917  -1.270  -3.612  0.00  0.00     0.238 N 
ATOM     12  H   LIG d   1       6.386  -0.882  -2.166  0.00  0.00     0.085 H 
ATOM     13  C   LIG d   1       5.573   0.982  -2.888  0.00  0.00    -0.009 C 
ATOM     14  C   LIG d   1       5.351  -2.659  -3.824  0.00  0.00    -0.032 C 
ATOM     15  C   LIG d   1       3.816  -1.281  -2.636  0.00  0.00    -0.032 C 
ATOM     16  H   LIG d   1       4.589  -0.882  -4.484  0.00  0.00     0.204 HD
ATOM     17  C   LIG d   1       6.454  -2.710  -4.880  0.00  0.00    -0.012 C 
ATOM     18  H   LIG d   1       4.502  -3.254  -4.158  0.00  0.00     0.081 H 
ATOM     19  H   LIG d   1       5.728  -3.066  -2.886  0.00  0.00     0.081 H 
ATOM     20  C   LIG d   1       7.647  -1.884  -4.390  0.00  0.00    -0.039 C 
ATOM     21  H   LIG d   1       6.083  -2.295  -5.817  0.00  0.00     0.032 H 
ATOM     22  H   LIG d   1       6.765  -3.744  -5.034  0.00  0.00     0.032 H 
ATOM     23  H   LIG d   1       8.427  -1.877  -5.152  0.00  0.00     0.027 H 
ATOM     24  H   LIG d   1       8.037  -2.315  -3.468  0.00  0.00     0.027 H 
ATOM     25  C   LIG d   1       3.282   0.132  -2.428  0.00  0.00    -0.012 C 
ATOM     26  H   LIG d   1       3.012  -1.919  -3.006  0.00  0.00     0.081 H 
ATOM     27  H   LIG d   1       4.179  -1.675  -1.687  0.00  0.00     0.081 H 
ATOM     28  C   LIG d   1       4.415   1.013  -1.890  0.00  0.00    -0.043 C 
ATOM     29  H   LIG d   1       2.463   0.110  -1.709  0.00  0.00     0.032 H 
ATOM     30  H   LIG d   1       2.926   0.533  -3.377  0.00  0.00     0.032 H 
ATOM     31  H   LIG d   1       4.751   0.629  -0.927  0.00  0.00     0.027 H 
ATOM     32  H   LIG d   1       4.058   2.037  -1.775  0.00  0.00     0.027 H 
ATOM     33  H   LIG d   1       6.404   1.569  -2.496  0.00  0.00     0.032 H 
ATOM     34  H   LIG d   1       5.247   1.408  -3.837  0.00  0.00     0.032 H 
ENDBRANCH   5   8
ENDBRANCH   3   5
BRANCH   1  35
ATOM     35  C   LIG d   1       9.115   2.527  -7.225  0.00  0.00     0.028 C 
ATOM     36  H   LIG d   1       8.622   3.435  -6.881  0.00  0.00     0.036 H 
ATOM     37  H   LIG d   1       9.258   2.578  -8.304  0.00  0.00     0.036 H 
BRANCH  35  38
ATOM     38  C   LIG d   1      10.475   2.392  -6.536  0.00  0.00    -0.016 C 
ATOM     39  H   LIG d   1      11.247   2.834  -7.165  0.00  0.00     0.032 H 
ATOM     40  H   LIG d   1      10.698   1.337  -6.376  0.00  0.00     0.032 H 
BRANCH  38  41
ATOM     41  C   LIG d   1      10.438   3.105  -5.209  0.00  0.00    -0.004 A 
ATOM     42  C   LIG d   1      10.063   4.416  -5.153  0.00  0.00    -0.044 A 
ATOM     43  C   LIG d   1      10.028   5.079  -3.921  0.00  0.00     0.021 A 
ATOM     44  H   LIG d   1       9.793   4.941  -6.059  0.00  0.00     0.063 H 
ATOM     45  C   LIG d   1       9.630   6.485  -3.832  0.00  0.00    -0.033 A 
ATOM     46  C   LIG d   1      10.384   4.395  -2.744  0.00  0.00     0.143 A 
ATOM     47  C   LIG d   1       9.612   7.070  -2.607  0.00  0.00     0.026 A 
ATOM     48  C   LIG d   1       9.976   6.324  -1.467  0.00  0.00     0.338 A 
ATOM     49  H   LIG d   1       9.320   8.105  -2.504  0.00  0.00     0.069 H 
ATOM     50  O   LIG d   1       9.954   6.860  -0.375  0.00  0.00    -0.245 OA
ATOM     51  O   LIG d   1      10.345   5.035  -1.556  0.00  0.00    -0.422 OA
ATOM     52  C   LIG d   1      10.768   3.064  -2.818  0.00  0.00     0.023 A 
ATOM     53  C   LIG d   1      10.785   2.421  -4.046  0.00  0.00     0.127 A 
ATOM     54  H   LIG d   1      11.039   2.528  -1.922  0.00  0.00     0.069 H 
BRANCH  45  55
ATOM     55  C   LIG d   1       9.245   7.261  -5.066  0.00  0.00    -0.039 C 
ATOM     56  H   LIG d   1       8.376   7.881  -4.849  0.00  0.00     0.028 H 
ATOM     57  H   LIG d   1      10.077   7.895  -5.371  0.00  0.00     0.028 H 
ATOM     58  H   LIG d   1       9.004   6.565  -5.871  0.00  0.00     0.028 H 
ENDBRANCH  45  55
BRANCH  53  59
ATOM     59  O   LIG d   1      11.157   1.117  -4.117  0.00  0.00    -0.495 OA
BRANCH  59  60
ATOM     60  C   LIG d   1      12.526   0.816  -3.841  0.00  0.00     0.079 C 
ATOM     61  H   LIG d   1      12.845  -0.023  -4.458  0.00  0.00     0.066 H 
ATOM     62  H   LIG d   1      13.141   1.687  -4.066  0.00  0.00     0.066 H 
ATOM     63  H   LIG d   1      12.635   0.556  -2.788  0.00  0.00     0.066 H 
ENDBRANCH  59  60
ENDBRANCH  53  59
ENDBRANCH  38  41
ENDBRANCH  35  38
ENDBRANCH   1  35
TORSDOF 8
ENDMDL
MODEL 5
REMARK VINA RESULT:      -6.7      4.171      6.903
REMARK  8 active torsions:
REMARK  status: ('A' for Active; 'I' for Inactive)
REMARK    1  A    between atoms: C_1  and  C_2 
REMARK    2  A    between atoms: C_10  and  C_15 
REMARK    3  A    between atoms: C_11  and  O_13 
REMARK    4  A    between atoms: O_13  and  C_14 
REMARK    5  A    between atoms: C_15  and  C_16 
REMARK    6  A    between atoms: C_16  and  C_17 
REMARK       I    between atoms: C_17  and  N_19 
REMARK    7  A    between atoms: N_19  and  C_20 
REMARK    8  A    between atoms: C_20  and  C_21 
ROOT
ATOM      1  C   LIG d   1       7.814   1.419  -6.927  0.00  0.00     0.213 C 
ATOM      2  O   LIG d   1       6.788   1.453  -7.572  0.00  0.00    -0.276 OA
ATOM      3  N   LIG d   1       7.877   0.683  -5.799  0.00  0.00    -0.315 N 
ATOM      4  H   LIG d   1       8.697   0.655  -5.283  0.00  0.00     0.149 HD
ENDROOT
BRANCH   3   5
ATOM      5  C   LIG d   1       6.705  -0.075  -5.354  0.00  0.00     0.019 C 
ATOM      6  H   LIG d   1       5.869   0.607  -5.194  0.00  0.00     0.047 H 
ATOM      7  H   LIG d   1       6.434  -0.808  -6.116  0.00  0.00     0.047 H 
BRANCH   5   8
ATOM      8  C   LIG d   1       7.031  -0.798  -4.045  0.00  0.00     0.018 C 
ATOM      9  H   LIG d   1       7.925  -0.358  -3.602  0.00  0.00     0.037 H 
ATOM     10  C   LIG d   1       5.854  -0.651  -3.075  0.00  0.00    -0.017 C 
ATOM     11  N   LIG d   1       4.651  -1.259  -3.648  0.00  0.00     0.238 N 
ATOM     12  H   LIG d   1       6.096  -1.142  -2.133  0.00  0.00     0.085 H 
ATOM     13  C   LIG d   1       5.621   0.843  -2.832  0.00  0.00    -0.009 C 
ATOM     14  C   LIG d   1       4.870  -2.694  -3.884  0.00  0.00    -0.032 C 
ATOM     15  C   LIG d   1       3.520  -1.118  -2.719  0.00  0.00    -0.032 C 
ATOM     16  H   LIG d   1       4.428  -0.805  -4.521  0.00  0.00     0.204 HD
ATOM     17  C   LIG d   1       5.998  -2.895  -4.895  0.00  0.00    -0.012 C 
ATOM     18  H   LIG d   1       3.954  -3.140  -4.270  0.00  0.00     0.081 H 
ATOM     19  H   LIG d   1       5.137  -3.177  -2.944  0.00  0.00     0.081 H 
ATOM     20  C   LIG d   1       7.282  -2.280  -4.333  0.00  0.00    -0.039 C 
ATOM     21  H   LIG d   1       5.739  -2.406  -5.834  0.00  0.00     0.032 H 
ATOM     22  H   LIG d   1       6.148  -3.962  -5.067  0.00  0.00     0.032 H 
ATOM     23  H   LIG d   1       8.087  -2.380  -5.062  0.00  0.00     0.027 H 
ATOM     24  H   LIG d   1       7.558  -2.789  -3.409  0.00  0.00     0.027 H 
ATOM     25  C   LIG d   1       3.206   0.356  -2.491  0.00  0.00    -0.012 C 
ATOM     26  H   LIG d   1       2.643  -1.612  -3.140  0.00  0.00     0.081 H 
ATOM     27  H   LIG d   1       3.773  -1.587  -1.768  0.00  0.00     0.081 H 
ATOM     28  C   LIG d   1       4.438   1.034  -1.881  0.00  0.00    -0.043 C 
ATOM     29  H   LIG d   1       2.363   0.448  -1.806  0.00  0.00     0.032 H 
ATOM     30  H   LIG d   1       2.961   0.830  -3.441  0.00  0.00     0.032 H 
ATOM     31  H   LIG d   1       4.665   0.580  -0.917  0.00  0.00     0.027 H 
ATOM     32  H   LIG d   1       4.242   2.098  -1.750  0.00  0.00     0.027 H 
ATOM     33  H   LIG d   1       6.515   1.282  -2.389  0.00  0.00     0.032 H 
ATOM     34  H   LIG d   1       5.408   1.336  -3.780  0.00  0.00     0.032 H 
ENDBRANCH   5   8
ENDBRANCH   3   5
BRANCH   1  35
ATOM     35  C   LIG d   1       9.020   2.199  -7.385  0.00  0.00     0.028 C 
ATOM     36  H   LIG d   1       8.695   3.128  -7.852  0.00  0.00     0.036 H 
ATOM     37  H   LIG d   1       9.583   1.607  -8.106  0.00  0.00     0.036 H 
BRANCH  35  38
ATOM     38  C   LIG d   1       9.908   2.516  -6.180  0.00  0.00    -0.016 C 
ATOM     39  H   LIG d   1      10.946   2.293  -6.424  0.00  0.00     0.032 H 
ATOM     40  H   LIG d   1       9.596   1.911  -5.329  0.00  0.00     0.032 H 
BRANCH  38  41
ATOM     41  C   LIG d   1       9.778   3.978  -5.831  0.00  0.00    -0.004 A 
ATOM     42  C   LIG d   1       9.784   4.915  -6.823  0.00  0.00    -0.044 A 
ATOM     43  C   LIG d   1       9.663   6.271  -6.500  0.00  0.00     0.021 A 
ATOM     44  H   LIG d   1       9.883   4.610  -7.855  0.00  0.00     0.063 H 
ATOM     45  C   LIG d   1       9.668   7.298  -7.543  0.00  0.00    -0.033 A 
ATOM     46  C   LIG d   1       9.539   6.666  -5.155  0.00  0.00     0.143 A 
ATOM     47  C   LIG d   1       9.542   8.596  -7.165  0.00  0.00     0.026 A 
ATOM     48  C   LIG d   1       9.416   8.921  -5.799  0.00  0.00     0.338 A 
ATOM     49  H   LIG d   1       9.537   9.380  -7.909  0.00  0.00     0.069 H 
ATOM     50  O   LIG d   1       9.303  10.089  -5.474  0.00  0.00    -0.245 OA
ATOM     51  O   LIG d   1       9.417   7.974  -4.846  0.00  0.00    -0.422 OA
ATOM     52  C   LIG d   1       9.539   5.701  -4.159  0.00  0.00     0.023 A 
ATOM     53  C   LIG d   1       9.649   4.362  -4.498  0.00  0.00     0.127 A 
ATOM     54  H   LIG d   1       9.441   5.991  -3.123  0.00  0.00     0.069 H 
BRANCH  45  55
ATOM     55  C   LIG d   1       9.802   6.925  -8.997  0.00  0.00    -0.039 C 
ATOM     56  H   LIG d   1      10.749   7.302  -9.383  0.00  0.00     0.028 H 
ATOM     57  H   LIG d   1       9.775   5.840  -9.098  0.00  0.00     0.028 H 
ATOM     58  H   LIG d   1       8.979   7.363  -9.562  0.00  0.00     0.028 H 
ENDBRANCH  45  55
BRANCH  53  59
ATOM     59  O   LIG d   1       9.644   3.417  -3.522  0.00  0.00    -0.495 OA
BRANCH  59  60
ATOM     60  C   LIG d   1      10.731   3.438  -2.594  0.00  0.00     0.079 C 
ATOM     61  H   LIG d   1      11.629   3.057  -3.079  0.00  0.00     0.066 H 
ATOM     62  H   LIG d   1      10.904   4.460  -2.260  0.00  0.00     0.066 H 
ATOM     63  H   LIG d   1      10.487   2.810  -1.736  0.00  0.00     0.066 H 
ENDBRANCH  59  60
ENDBRANCH  53  59
ENDBRANCH  38  41
ENDBRANCH  35  38
ENDBRANCH   1  35
TORSDOF 8
ENDMDL
MODEL 6
REMARK VINA RESULT:      -6.6      5.546      7.923
REMARK  8 active torsions:
REMARK  status: ('A' for Active; 'I' for Inactive)
REMARK    1  A    between atoms: C_1  and  C_2 
REMARK    2  A    between atoms: C_10  and  C_15 
REMARK    3  A    between atoms: C_11  and  O_13 
REMARK    4  A    between atoms: O_13  and  C_14 
REMARK    5  A    between atoms: C_15  and  C_16 
REMARK    6  A    between atoms: C_16  and  C_17 
REMARK       I    between atoms: C_17  and  N_19 
REMARK    7  A    between atoms: N_19  and  C_20 
REMARK    8  A    between atoms: C_20  and  C_21 
ROOT
ATOM      1  C   LIG d   1       4.789  -5.593  -5.785  0.00  0.00     0.213 C 
ATOM      2  O   LIG d   1       3.603  -5.650  -6.032  0.00  0.00    -0.276 OA
ATOM      3  N   LIG d   1       5.287  -4.535  -5.114  0.00  0.00    -0.315 N 
ATOM      4  H   LIG d   1       6.235  -4.489  -4.915  0.00  0.00     0.149 HD
ENDROOT
BRANCH   3   5
ATOM      5  C   LIG d   1       4.395  -3.455  -4.684  0.00  0.00     0.019 C 
ATOM      6  H   LIG d   1       3.711  -3.203  -5.496  0.00  0.00     0.047 H 
ATOM      7  H   LIG d   1       3.822  -3.779  -3.815  0.00  0.00     0.047 H 
BRANCH   5   8
ATOM      8  C   LIG d   1       5.225  -2.223  -4.317  0.00  0.00     0.018 C 
ATOM      9  H   LIG d   1       6.264  -2.389  -4.600  0.00  0.00     0.037 H 
ATOM     10  C   LIG d   1       4.681  -1.000  -5.063  0.00  0.00    -0.017 C 
ATOM     11  N   LIG d   1       3.291  -0.751  -4.674  0.00  0.00     0.238 N 
ATOM     12  H   LIG d   1       5.288  -0.128  -4.823  0.00  0.00     0.085 H 
ATOM     13  C   LIG d   1       4.760  -1.285  -6.566  0.00  0.00    -0.009 C 
ATOM     14  C   LIG d   1       3.209  -0.477  -3.232  0.00  0.00    -0.032 C 
ATOM     15  C   LIG d   1       2.766   0.422  -5.390  0.00  0.00    -0.032 C 
ATOM     16  H   LIG d   1       2.729  -1.559  -4.896  0.00  0.00     0.204 HD
ATOM     17  C   LIG d   1       3.685  -1.692  -2.437  0.00  0.00    -0.012 C 
ATOM     18  H   LIG d   1       2.176  -0.252  -2.966  0.00  0.00     0.081 H 
ATOM     19  H   LIG d   1       3.837   0.381  -2.991  0.00  0.00     0.081 H 
ATOM     20  C   LIG d   1       5.141  -1.986  -2.807  0.00  0.00    -0.039 C 
ATOM     21  H   LIG d   1       3.064  -2.554  -2.681  0.00  0.00     0.032 H 
ATOM     22  H   LIG d   1       3.614  -1.481  -1.369  0.00  0.00     0.032 H 
ATOM     23  H   LIG d   1       5.482  -2.877  -2.278  0.00  0.00     0.027 H 
ATOM     24  H   LIG d   1       5.767  -1.136  -2.536  0.00  0.00     0.027 H 
ATOM     25  C   LIG d   1       2.766   0.164  -6.893  0.00  0.00    -0.012 C 
ATOM     26  H   LIG d   1       1.746   0.620  -5.060  0.00  0.00     0.081 H 
ATOM     27  H   LIG d   1       3.390   1.288  -5.171  0.00  0.00     0.081 H 
ATOM     28  C   LIG d   1       4.207  -0.093  -7.349  0.00  0.00    -0.043 C 
ATOM     29  H   LIG d   1       2.370   1.036  -7.413  0.00  0.00     0.032 H 
ATOM     30  H   LIG d   1       2.151  -0.707  -7.116  0.00  0.00     0.032 H 
ATOM     31  H   LIG d   1       4.816   0.789  -7.153  0.00  0.00     0.027 H 
ATOM     32  H   LIG d   1       4.217  -0.320  -8.416  0.00  0.00     0.027 H 
ATOM     33  H   LIG d   1       5.800  -1.452  -6.849  0.00  0.00     0.032 H 
ATOM     34  H   LIG d   1       4.176  -2.175  -6.799  0.00  0.00     0.032 H 
ENDBRANCH   5   8
ENDBRANCH   3   5
BRANCH   1  35
ATOM     35  C   LIG d   1       5.706  -6.704  -6.226  0.00  0.00     0.028 C 
ATOM     36  H   LIG d   1       6.640  -6.649  -5.666  0.00  0.00     0.036 H 
ATOM     37  H   LIG d   1       5.915  -6.602  -7.291  0.00  0.00     0.036 H 
BRANCH  35  38
ATOM     38  C   LIG d   1       5.034  -8.053  -5.965  0.00  0.00    -0.016 C 
ATOM     39  H   LIG d   1       5.161  -8.698  -6.834  0.00  0.00     0.032 H 
ATOM     40  H   LIG d   1       3.971  -7.900  -5.780  0.00  0.00     0.032 H 
BRANCH  38  41
ATOM     41  C   LIG d   1       5.665  -8.705  -4.760  0.00  0.00    -0.004 A 
ATOM     42  C   LIG d   1       6.945  -8.387  -4.410  0.00  0.00    -0.044 A 
ATOM     43  C   LIG d   1       7.531  -8.991  -3.292  0.00  0.00     0.021 A 
ATOM     44  H   LIG d   1       7.505  -7.671  -4.995  0.00  0.00     0.063 H 
ATOM     45  C   LIG d   1       8.903  -8.670  -2.894  0.00  0.00    -0.033 A 
ATOM     46  C   LIG d   1       6.802  -9.926  -2.534  0.00  0.00     0.143 A 
ATOM     47  C   LIG d   1       9.413  -9.286  -1.796  0.00  0.00     0.026 A 
ATOM     48  C   LIG d   1       8.624 -10.209  -1.079  0.00  0.00     0.338 A 
ATOM     49  H   LIG d   1      10.420  -9.070  -1.472  0.00  0.00     0.069 H 
ATOM     50  O   LIG d   1       9.093 -10.754  -0.097  0.00  0.00    -0.245 OA
ATOM     51  O   LIG d   1       7.368 -10.503  -1.453  0.00  0.00    -0.422 OA
ATOM     52  C   LIG d   1       5.504 -10.241  -2.907  0.00  0.00     0.023 A 
ATOM     53  C   LIG d   1       4.936  -9.625  -4.011  0.00  0.00     0.127 A 
ATOM     54  H   LIG d   1       4.933 -10.954  -2.331  0.00  0.00     0.069 H 
BRANCH  45  55
ATOM     55  C   LIG d   1       9.724  -7.678  -3.676  0.00  0.00    -0.039 C 
ATOM     56  H   LIG d   1       9.194  -6.728  -3.728  0.00  0.00     0.028 H 
ATOM     57  H   LIG d   1      10.685  -7.532  -3.183  0.00  0.00     0.028 H 
ATOM     58  H   LIG d   1       9.888  -8.059  -4.685  0.00  0.00     0.028 H 
ENDBRANCH  45  55
BRANCH  53  59
ATOM     59  O   LIG d   1       3.663  -9.931  -4.371  0.00  0.00    -0.495 OA
BRANCH  59  60
ATOM     60  C   LIG d   1       2.998 -10.942  -3.611  0.00  0.00     0.079 C 
ATOM     61  H   LIG d   1       3.198 -10.788  -2.550  0.00  0.00     0.066 H 
ATOM     62  H   LIG d   1       1.925 -10.884  -3.790  0.00  0.00     0.066 H 
ATOM     63  H   LIG d   1       3.366 -11.923  -3.912  0.00  0.00     0.066 H 
ENDBRANCH  59  60
ENDBRANCH  53  59
ENDBRANCH  38  41
ENDBRANCH  35  38
ENDBRANCH   1  35
TORSDOF 8
ENDMDL
MODEL 7
REMARK VINA RESULT:      -6.6      5.047      9.750
REMARK  8 active torsions:
REMARK  status: ('A' for Active; 'I' for Inactive)
REMARK    1  A    between atoms: C_1  and  C_2 
REMARK    2  A    between atoms: C_10  and  C_15 
REMARK    3  A    between atoms: C_11  and  O_13 
REMARK    4  A    between atoms: O_13  and  C_14 
REMARK    5  A    between atoms: C_15  and  C_16 
REMARK    6  A    between atoms: C_16  and  C_17 
REMARK       I    between atoms: C_17  and  N_19 
REMARK    7  A    between atoms: N_19  and  C_20 
REMARK    8  A    between atoms: C_20  and  C_21 
ROOT
ATOM      1  C   LIG d   1      10.544   3.841  -3.007  0.00  0.00     0.213 C 
ATOM      2  O   LIG d   1      11.082   4.444  -3.911  0.00  0.00    -0.276 OA
ATOM      3  N   LIG d   1      10.482   4.386  -1.776  0.00  0.00    -0.315 N 
ATOM      4  H   LIG d   1      10.051   3.904  -1.053  0.00  0.00     0.149 HD
ENDROOT
BRANCH   3   5
ATOM      5  C   LIG d   1      11.064   5.708  -1.530  0.00  0.00     0.019 C 
ATOM      6  H   LIG d   1      11.713   5.662  -0.655  0.00  0.00     0.047 H 
ATOM      7  H   LIG d   1      11.647   6.016  -2.399  0.00  0.00     0.047 H 
BRANCH   5   8
ATOM      8  C   LIG d   1       9.944   6.721  -1.282  0.00  0.00     0.018 C 
ATOM      9  H   LIG d   1       9.150   6.249  -0.703  0.00  0.00     0.037 H 
ATOM     10  C   LIG d   1      10.502   7.917  -0.503  0.00  0.00    -0.017 C 
ATOM     11  N   LIG d   1      11.555   8.576  -1.279  0.00  0.00     0.238 N 
ATOM     12  H   LIG d   1       9.700   8.626  -0.302  0.00  0.00     0.085 H 
ATOM     13  C   LIG d   1      11.075   7.398   0.820  0.00  0.00    -0.009 C 
ATOM     14  C   LIG d   1      11.011   9.075  -2.550  0.00  0.00    -0.032 C 
ATOM     15  C   LIG d   1      12.093   9.723  -0.532  0.00  0.00    -0.032 C 
ATOM     16  H   LIG d   1      12.297   7.918  -1.466  0.00  0.00     0.204 HD
ATOM     17  C   LIG d   1      10.494   7.912  -3.396  0.00  0.00    -0.012 C 
ATOM     18  H   LIG d   1      11.794   9.599  -3.097  0.00  0.00     0.081 H 
ATOM     19  H   LIG d   1      10.192   9.765  -2.346  0.00  0.00     0.081 H 
ATOM     20  C   LIG d   1       9.382   7.195  -2.624  0.00  0.00    -0.039 C 
ATOM     21  H   LIG d   1      11.308   7.215  -3.594  0.00  0.00     0.032 H 
ATOM     22  H   LIG d   1      10.098   8.292  -4.338  0.00  0.00     0.032 H 
ATOM     23  H   LIG d   1       9.032   6.337  -3.198  0.00  0.00     0.027 H 
ATOM     24  H   LIG d   1       8.555   7.884  -2.450  0.00  0.00     0.027 H 
ATOM     25  C   LIG d   1      12.732   9.252   0.770  0.00  0.00    -0.012 C 
ATOM     26  H   LIG d   1      12.845  10.229  -1.139  0.00  0.00     0.081 H 
ATOM     27  H   LIG d   1      11.285  10.419  -0.309  0.00  0.00     0.081 H 
ATOM     28  C   LIG d   1      11.661   8.561   1.622  0.00  0.00    -0.043 C 
ATOM     29  H   LIG d   1      13.132  10.109   1.311  0.00  0.00     0.032 H 
ATOM     30  H   LIG d   1      13.535   8.548   0.550  0.00  0.00     0.032 H 
ATOM     31  H   LIG d   1      10.873   9.273   1.866  0.00  0.00     0.027 H 
ATOM     32  H   LIG d   1      12.113   8.182   2.539  0.00  0.00     0.027 H 
ATOM     33  H   LIG d   1      10.280   6.925   1.398  0.00  0.00     0.032 H 
ATOM     34  H   LIG d   1      11.856   6.667   0.616  0.00  0.00     0.032 H 
ENDBRANCH   5   8
ENDBRANCH   3   5
BRANCH   1  35
ATOM     35  C   LIG d   1       9.944   2.481  -3.260  0.00  0.00     0.028 C 
ATOM     36  H   LIG d   1       9.604   2.053  -2.317  0.00  0.00     0.036 H 
ATOM     37  H   LIG d   1      10.696   1.829  -3.704  0.00  0.00     0.036 H 
BRANCH  35  38
ATOM     38  C   LIG d   1       8.758   2.618  -4.216  0.00  0.00    -0.016 C 
ATOM     39  H   LIG d   1       9.123   2.813  -5.224  0.00  0.00     0.032 H 
ATOM     40  H   LIG d   1       8.124   3.444  -3.893  0.00  0.00     0.032 H 
BRANCH  38  41
ATOM     41  C   LIG d   1       7.958   1.340  -4.210  0.00  0.00    -0.004 A 
ATOM     42  C   LIG d   1       6.864   1.228  -3.403  0.00  0.00    -0.044 A 
ATOM     43  C   LIG d   1       6.121   0.042  -3.399  0.00  0.00     0.021 A 
ATOM     44  H   LIG d   1       6.571   2.053  -2.769  0.00  0.00     0.063 H 
ATOM     45  C   LIG d   1       4.943  -0.107  -2.542  0.00  0.00    -0.033 A 
ATOM     46  C   LIG d   1       6.506  -1.033  -4.222  0.00  0.00     0.143 A 
ATOM     47  C   LIG d   1       4.261  -1.281  -2.587  0.00  0.00     0.026 A 
ATOM     48  C   LIG d   1       4.700  -2.315  -3.440  0.00  0.00     0.338 A 
ATOM     49  H   LIG d   1       3.386  -1.423  -1.971  0.00  0.00     0.069 H 
ATOM     50  O   LIG d   1       4.080  -3.362  -3.470  0.00  0.00    -0.245 OA
ATOM     51  O   LIG d   1       5.785  -2.174  -4.219  0.00  0.00    -0.422 OA
ATOM     52  C   LIG d   1       7.624  -0.904  -5.032  0.00  0.00     0.023 A 
ATOM     53  C   LIG d   1       8.341   0.282  -5.032  0.00  0.00     0.127 A 
ATOM     54  H   LIG d   1       7.927  -1.720  -5.671  0.00  0.00     0.069 H 
BRANCH  45  55
ATOM     55  C   LIG d   1       4.494   1.014  -1.641  0.00  0.00    -0.039 C 
ATOM     56  H   LIG d   1       3.497   0.798  -1.260  0.00  0.00     0.028 H 
ATOM     57  H   LIG d   1       5.189   1.110  -0.807  0.00  0.00     0.028 H 
ATOM     58  H   LIG d   1       4.473   1.947  -2.205  0.00  0.00     0.028 H 
ENDBRANCH  45  55
BRANCH  53  59
ATOM     59  O   LIG d   1       9.432   0.408  -5.830  0.00  0.00    -0.495 OA
BRANCH  59  60
ATOM     60  C   LIG d   1      10.448  -0.588  -5.702  0.00  0.00     0.079 C 
ATOM     61  H   LIG d   1      11.271  -0.356  -6.378  0.00  0.00     0.066 H 
ATOM     62  H   LIG d   1      10.815  -0.604  -4.676  0.00  0.00     0.066 H 
ATOM     63  H   LIG d   1      10.033  -1.564  -5.955  0.00  0.00     0.066 H 
ENDBRANCH  59  60
ENDBRANCH  53  59
ENDBRANCH  38  41
ENDBRANCH  35  38
ENDBRANCH   1  35
TORSDOF 8
ENDMDL
MODEL 8
REMARK VINA RESULT:      -6.3      4.630      7.119
REMARK  8 active torsions:
REMARK  status: ('A' for Active; 'I' for Inactive)
REMARK    1  A    between atoms: C_1  and  C_2 
REMARK    2  A    between atoms: C_10  and  C_15 
REMARK    3  A    between atoms: C_11  and  O_13 
REMARK    4  A    between atoms: O_13  and  C_14 
REMARK    5  A    between atoms: C_15  and  C_16 
REMARK    6  A    between atoms: C_16  and  C_17 
REMARK       I    between atoms: C_17  and  N_19 
REMARK    7  A    between atoms: N_19  and  C_20 
REMARK    8  A    between atoms: C_20  and  C_21 
ROOT
ATOM      1  C   LIG d   1       8.213   1.800  -4.497  0.00  0.00     0.213 C 
ATOM      2  O   LIG d   1       8.792   0.757  -4.715  0.00  0.00    -0.276 OA
ATOM      3  N   LIG d   1       7.044   1.794  -3.827  0.00  0.00    -0.315 N 
ATOM      4  H   LIG d   1       6.580   2.628  -3.652  0.00  0.00     0.149 HD
ENDROOT
BRANCH   3   5
ATOM      5  C   LIG d   1       6.473   0.527  -3.363  0.00  0.00     0.019 C 
ATOM      6  H   LIG d   1       7.009  -0.304  -3.823  0.00  0.00     0.047 H 
ATOM      7  H   LIG d   1       6.563   0.462  -2.278  0.00  0.00     0.047 H 
BRANCH   5   8
ATOM      8  C   LIG d   1       4.995   0.459  -3.756  0.00  0.00     0.018 C 
ATOM      9  H   LIG d   1       4.755   1.296  -4.411  0.00  0.00     0.037 H 
ATOM     10  C   LIG d   1       4.723  -0.859  -4.491  0.00  0.00    -0.017 C 
ATOM     11  N   LIG d   1       5.019  -1.994  -3.613  0.00  0.00     0.238 N 
ATOM     12  H   LIG d   1       3.678  -0.896  -4.795  0.00  0.00     0.085 H 
ATOM     13  C   LIG d   1       5.622  -0.907  -5.730  0.00  0.00    -0.009 C 
ATOM     14  C   LIG d   1       4.159  -1.952  -2.422  0.00  0.00    -0.032 C 
ATOM     15  C   LIG d   1       4.760  -3.259  -4.317  0.00  0.00    -0.032 C 
ATOM     16  H   LIG d   1       5.987  -1.958  -3.331  0.00  0.00     0.204 HD
ATOM     17  C   LIG d   1       4.434  -0.682  -1.618  0.00  0.00    -0.012 C 
ATOM     18  H   LIG d   1       4.360  -2.824  -1.801  0.00  0.00     0.081 H 
ATOM     19  H   LIG d   1       3.113  -1.965  -2.731  0.00  0.00     0.081 H 
ATOM     20  C   LIG d   1       4.131   0.535  -2.496  0.00  0.00    -0.039 C 
ATOM     21  H   LIG d   1       5.481  -0.662  -1.314  0.00  0.00     0.032 H 
ATOM     22  H   LIG d   1       3.796  -0.664  -0.734  0.00  0.00     0.032 H 
ATOM     23  H   LIG d   1       4.362   1.449  -1.948  0.00  0.00     0.027 H 
ATOM     24  H   LIG d   1       3.077   0.531  -2.776  0.00  0.00     0.027 H 
ATOM     25  C   LIG d   1       5.677  -3.385  -5.529  0.00  0.00    -0.012 C 
ATOM     26  H   LIG d   1       4.944  -4.094  -3.639  0.00  0.00     0.081 H 
ATOM     27  H   LIG d   1       3.721  -3.285  -4.644  0.00  0.00     0.081 H 
ATOM     28  C   LIG d   1       5.395  -2.219  -6.483  0.00  0.00    -0.043 C 
ATOM     29  H   LIG d   1       5.480  -4.329  -6.038  0.00  0.00     0.032 H 
ATOM     30  H   LIG d   1       6.717  -3.352  -5.207  0.00  0.00     0.032 H 
ATOM     31  H   LIG d   1       4.363  -2.270  -6.828  0.00  0.00     0.027 H 
ATOM     32  H   LIG d   1       6.073  -2.274  -7.336  0.00  0.00     0.027 H 
ATOM     33  H   LIG d   1       5.383  -0.069  -6.384  0.00  0.00     0.032 H 
ATOM     34  H   LIG d   1       6.666  -0.840  -5.425  0.00  0.00     0.032 H 
ENDBRANCH   5   8
ENDBRANCH   3   5
BRANCH   1  35
ATOM     35  C   LIG d   1       8.801   3.103  -4.974  0.00  0.00     0.028 C 
ATOM     36  H   LIG d   1       7.996   3.793  -5.227  0.00  0.00     0.036 H 
ATOM     37  H   LIG d   1       9.416   2.923  -5.856  0.00  0.00     0.036 H 
BRANCH  35  38
ATOM     38  C   LIG d   1       9.663   3.709  -3.865  0.00  0.00    -0.016 C 
ATOM     39  H   LIG d   1      10.673   3.303  -3.927  0.00  0.00     0.032 H 
ATOM     40  H   LIG d   1       9.233   3.463  -2.895  0.00  0.00     0.032 H 
BRANCH  38  41
ATOM     41  C   LIG d   1       9.713   5.207  -4.029  0.00  0.00    -0.004 A 
ATOM     42  C   LIG d   1       9.587   5.758  -5.270  0.00  0.00    -0.044 A 
ATOM     43  C   LIG d   1       9.632   7.148  -5.422  0.00  0.00     0.021 A 
ATOM     44  H   LIG d   1       9.453   5.122  -6.134  0.00  0.00     0.063 H 
ATOM     45  C   LIG d   1       9.501   7.767  -6.743  0.00  0.00    -0.033 A 
ATOM     46  C   LIG d   1       9.811   7.974  -4.297  0.00  0.00     0.143 A 
ATOM     47  C   LIG d   1       9.548   9.122  -6.824  0.00  0.00     0.026 A 
ATOM     48  C   LIG d   1       9.724   9.889  -5.654  0.00  0.00     0.338 A 
ATOM     49  H   LIG d   1       9.451   9.612  -7.781  0.00  0.00     0.069 H 
ATOM     50  O   LIG d   1       9.764  11.103  -5.740  0.00  0.00    -0.245 OA
ATOM     51  O   LIG d   1       9.849   9.315  -4.446  0.00  0.00    -0.422 OA
ATOM     52  C   LIG d   1       9.942   7.397  -3.043  0.00  0.00     0.023 A 
ATOM     53  C   LIG d   1       9.884   6.019  -2.910  0.00  0.00     0.127 A 
ATOM     54  H   LIG d   1      10.076   8.020  -2.171  0.00  0.00     0.069 H 
BRANCH  45  55
ATOM     55  C   LIG d   1       9.312   6.925  -7.978  0.00  0.00    -0.039 C 
ATOM     56  H   LIG d   1      10.013   6.091  -7.960  0.00  0.00     0.028 H 
ATOM     57  H   LIG d   1       8.292   6.542  -8.004  0.00  0.00     0.028 H 
ATOM     58  H   LIG d   1       9.495   7.534  -8.864  0.00  0.00     0.028 H 
ENDBRANCH  45  55
BRANCH  53  59
ATOM     59  O   LIG d   1      10.007   5.456  -1.680  0.00  0.00    -0.495 OA
BRANCH  59  60
ATOM     60  C   LIG d   1      10.513   6.287  -0.634  0.00  0.00     0.079 C 
ATOM     61  H   LIG d   1      10.986   5.666   0.127  0.00  0.00     0.066 H 
ATOM     62  H   LIG d   1      11.247   6.981  -1.043  0.00  0.00     0.066 H 
ATOM     63  H   LIG d   1       9.691   6.847  -0.187  0.00  0.00     0.066 H 
ENDBRANCH  59  60
ENDBRANCH  53  59
ENDBRANCH  38  41
ENDBRANCH  35  38
ENDBRANCH   1  35
TORSDOF 8
ENDMDL
MODEL 9
REMARK VINA RESULT:      -6.2      5.601      8.532
REMARK  8 active torsions:
REMARK  status: ('A' for Active; 'I' for Inactive)
REMARK    1  A    between atoms: C_1  and  C_2 
REMARK    2  A    between atoms: C_10  and  C_15 
REMARK    3  A    between atoms: C_11  and  O_13 
REMARK    4  A    between atoms: O_13  and  C_14 
REMARK    5  A    between atoms: C_15  and  C_16 
REMARK    6  A    between atoms: C_16  and  C_17 
REMARK       I    between atoms: C_17  and  N_19 
REMARK    7  A    between atoms: N_19  and  C_20 
REMARK    8  A    between atoms: C_20  and  C_21 
ROOT
ATOM      1  C   LIG d   1       5.402  -5.291  -5.537  0.00  0.00     0.213 C 
ATOM      2  O   LIG d   1       6.595  -5.093  -5.449  0.00  0.00    -0.276 OA
ATOM      3  N   LIG d   1       4.530  -4.382  -5.056  0.00  0.00    -0.315 N 
ATOM      4  H   LIG d   1       3.576  -4.539  -5.128  0.00  0.00     0.149 HD
ENDROOT
BRANCH   3   5
ATOM      5  C   LIG d   1       5.025  -3.156  -4.426  0.00  0.00     0.019 C 
ATOM      6  H   LIG d   1       4.560  -3.037  -3.446  0.00  0.00     0.047 H 
ATOM      7  H   LIG d   1       6.108  -3.217  -4.309  0.00  0.00     0.047 H 
BRANCH   5   8
ATOM      8  C   LIG d   1       4.675  -1.953  -5.305  0.00  0.00     0.018 C 
ATOM      9  H   LIG d   1       3.741  -2.149  -5.832  0.00  0.00     0.037 H 
ATOM     10  C   LIG d   1       4.514  -0.708  -4.425  0.00  0.00    -0.017 C 
ATOM     11  N   LIG d   1       5.770  -0.418  -3.729  0.00  0.00     0.238 N 
ATOM     12  H   LIG d   1       4.238   0.143  -5.047  0.00  0.00     0.085 H 
ATOM     13  C   LIG d   1       3.403  -0.985  -3.408  0.00  0.00    -0.009 C 
ATOM     14  C   LIG d   1       6.840  -0.153  -4.701  0.00  0.00    -0.032 C 
ATOM     15  C   LIG d   1       5.617   0.775  -2.883  0.00  0.00    -0.032 C 
ATOM     16  H   LIG d   1       6.025  -1.208  -3.154  0.00  0.00     0.204 HD
ATOM     17  C   LIG d   1       7.083  -1.388  -5.567  0.00  0.00    -0.012 C 
ATOM     18  H   LIG d   1       7.756   0.102  -4.169  0.00  0.00     0.081 H 
ATOM     19  H   LIG d   1       6.550   0.683  -5.338  0.00  0.00     0.081 H 
ATOM     20  C   LIG d   1       5.794  -1.725  -6.323  0.00  0.00    -0.039 C 
ATOM     21  H   LIG d   1       7.365  -2.229  -4.934  0.00  0.00     0.032 H 
ATOM     22  H   LIG d   1       7.882  -1.183  -6.281  0.00  0.00     0.032 H 
ATOM     23  H   LIG d   1       5.941  -2.629  -6.914  0.00  0.00     0.027 H 
ATOM     24  H   LIG d   1       5.527  -0.896  -6.979  0.00  0.00     0.027 H 
ATOM     25  C   LIG d   1       4.562   0.528  -1.810  0.00  0.00    -0.012 C 
ATOM     26  H   LIG d   1       6.570   1.003  -2.404  0.00  0.00     0.081 H 
ATOM     27  H   LIG d   1       5.315   1.619  -3.501  0.00  0.00     0.081 H 
ATOM     28  C   LIG d   1       3.223   0.229  -2.495  0.00  0.00    -0.043 C 
ATOM     29  H   LIG d   1       4.462   1.416  -1.186  0.00  0.00     0.032 H 
ATOM     30  H   LIG d   1       4.855  -0.322  -1.195  0.00  0.00     0.032 H 
ATOM     31  H   LIG d   1       2.915   1.091  -3.087  0.00  0.00     0.027 H 
ATOM     32  H   LIG d   1       2.467   0.011  -1.740  0.00  0.00     0.027 H 
ATOM     33  H   LIG d   1       2.469  -1.182  -3.935  0.00  0.00     0.032 H 
ATOM     34  H   LIG d   1       3.668  -1.855  -2.807  0.00  0.00     0.032 H 
ENDBRANCH   5   8
ENDBRANCH   3   5
BRANCH   1  35
ATOM     35  C   LIG d   1       4.893  -6.552  -6.186  0.00  0.00     0.028 C 
ATOM     36  H   LIG d   1       4.475  -6.315  -7.164  0.00  0.00     0.036 H 
ATOM     37  H   LIG d   1       4.120  -6.997  -5.560  0.00  0.00     0.036 H 
BRANCH  35  38
ATOM     38  C   LIG d   1       6.048  -7.542  -6.351  0.00  0.00    -0.016 C 
ATOM     39  H   LIG d   1       6.996  -7.010  -6.273  0.00  0.00     0.032 H 
ATOM     40  H   LIG d   1       5.980  -8.021  -7.327  0.00  0.00     0.032 H 
BRANCH  38  41
ATOM     41  C   LIG d   1       5.970  -8.590  -5.270  0.00  0.00    -0.004 A 
ATOM     42  C   LIG d   1       6.828  -8.537  -4.210  0.00  0.00    -0.044 A 
ATOM     43  C   LIG d   1       6.755  -9.509  -3.206  0.00  0.00     0.021 A 
ATOM     44  H   LIG d   1       7.562  -7.746  -4.147  0.00  0.00     0.063 H 
ATOM     45  C   LIG d   1       7.664  -9.477  -2.059  0.00  0.00    -0.033 A 
ATOM     46  C   LIG d   1       5.802 -10.540  -3.293  0.00  0.00     0.143 A 
ATOM     47  C   LIG d   1       7.539 -10.446  -1.115  0.00  0.00     0.026 A 
ATOM     48  C   LIG d   1       6.557 -11.448  -1.263  0.00  0.00     0.338 A 
ATOM     49  H   LIG d   1       8.190 -10.451  -0.254  0.00  0.00     0.069 H 
ATOM     50  O   LIG d   1       6.456 -12.310  -0.410  0.00  0.00    -0.245 OA
ATOM     51  O   LIG d   1       5.731 -11.474  -2.321  0.00  0.00    -0.422 OA
ATOM     52  C   LIG d   1       4.940 -10.583  -4.379  0.00  0.00     0.023 A 
ATOM     53  C   LIG d   1       5.020  -9.605  -5.358  0.00  0.00     0.127 A 
ATOM     54  H   LIG d   1       4.202 -11.366  -4.455  0.00  0.00     0.069 H 
BRANCH  45  55
ATOM     55  C   LIG d   1       8.704  -8.395  -1.924  0.00  0.00    -0.039 C 
ATOM     56  H   LIG d   1       8.236  -7.485  -1.551  0.00  0.00     0.028 H 
ATOM     57  H   LIG d   1       9.477  -8.719  -1.227  0.00  0.00     0.028 H 
ATOM     58  H   LIG d   1       9.152  -8.200  -2.899  0.00  0.00     0.028 H 
ENDBRANCH  45  55
BRANCH  53  59
ATOM     59  O   LIG d   1       4.172  -9.645  -6.419  0.00  0.00    -0.495 OA
BRANCH  59  60
ATOM     60  C   LIG d   1       4.422 -10.641  -7.412  0.00  0.00     0.079 C 
ATOM     61  H   LIG d   1       4.024 -10.307  -8.370  0.00  0.00     0.066 H 
ATOM     62  H   LIG d   1       5.496 -10.804  -7.501  0.00  0.00     0.066 H 
ATOM     63  H   LIG d   1       3.936 -11.573  -7.121  0.00  0.00     0.066 H 
ENDBRANCH  59  60
ENDBRANCH  53  59
ENDBRANCH  38  41
ENDBRANCH  35  38
ENDBRANCH   1  35
TORSDOF 8
ENDMDL
MODEL 10
REMARK VINA RESULT:      -6.0      5.336      8.418
REMARK  8 active torsions:
REMARK  status: ('A' for Active; 'I' for Inactive)
REMARK    1  A    between atoms: C_1  and  C_2 
REMARK    2  A    between atoms: C_10  and  C_15 
REMARK    3  A    between atoms: C_11  and  O_13 
REMARK    4  A    between atoms: O_13  and  C_14 
REMARK    5  A    between atoms: C_15  and  C_16 
REMARK    6  A    between atoms: C_16  and  C_17 
REMARK       I    between atoms: C_17  and  N_19 
REMARK    7  A    between atoms: N_19  and  C_20 
REMARK    8  A    between atoms: C_20  and  C_21 
ROOT
ATOM      1  C   LIG d   1       7.199  -4.668  -5.119  0.00  0.00     0.213 C 
ATOM      2  O   LIG d   1       8.171  -4.222  -4.548  0.00  0.00    -0.276 OA
ATOM      3  N   LIG d   1       6.022  -4.013  -5.057  0.00  0.00    -0.315 N 
ATOM      4  H   LIG d   1       5.244  -4.368  -5.515  0.00  0.00     0.149 HD
ENDROOT
BRANCH   3   5
ATOM      5  C   LIG d   1       5.919  -2.763  -4.300  0.00  0.00     0.019 C 
ATOM      6  H   LIG d   1       5.212  -2.892  -3.480  0.00  0.00     0.047 H 
ATOM      7  H   LIG d   1       6.897  -2.499  -3.897  0.00  0.00     0.047 H 
BRANCH   5   8
ATOM      8  C   LIG d   1       5.430  -1.645  -5.224  0.00  0.00     0.018 C 
ATOM      9  H   LIG d   1       4.617  -2.020  -5.847  0.00  0.00     0.037 H 
ATOM     10  C   LIG d   1       4.926  -0.470  -4.379  0.00  0.00    -0.017 C 
ATOM     11  N   LIG d   1       6.014   0.060  -3.554  0.00  0.00     0.238 N 
ATOM     12  H   LIG d   1       4.552   0.315  -5.036  0.00  0.00     0.085 H 
ATOM     13  C   LIG d   1       3.790  -0.978  -3.486  0.00  0.00    -0.009 C 
ATOM     14  C   LIG d   1       7.107   0.548  -4.407  0.00  0.00    -0.032 C 
ATOM     15  C   LIG d   1       5.531   1.187  -2.742  0.00  0.00    -0.032 C 
ATOM     16  H   LIG d   1       6.360  -0.668  -2.947  0.00  0.00     0.204 HD
ATOM     17  C   LIG d   1       7.688  -0.602  -5.229  0.00  0.00    -0.012 C 
ATOM     18  H   LIG d   1       7.889   0.977  -3.781  0.00  0.00     0.081 H 
ATOM     19  H   LIG d   1       6.724   1.316  -5.079  0.00  0.00     0.081 H 
ATOM     20  C   LIG d   1       6.584  -1.183  -6.116  0.00  0.00    -0.039 C 
ATOM     21  H   LIG d   1       8.064  -1.376  -4.560  0.00  0.00     0.032 H 
ATOM     22  H   LIG d   1       8.501  -0.230  -5.853  0.00  0.00     0.032 H 
ATOM     23  H   LIG d   1       6.974  -2.032  -6.679  0.00  0.00     0.027 H 
ATOM     24  H   LIG d   1       6.227  -0.418  -6.806  0.00  0.00     0.027 H 
ATOM     25  C   LIG d   1       4.438   0.719  -1.787  0.00  0.00    -0.012 C 
ATOM     26  H   LIG d   1       6.361   1.597  -2.164  0.00  0.00     0.081 H 
ATOM     27  H   LIG d   1       5.134   1.960  -3.398  0.00  0.00     0.081 H 
ATOM     28  C   LIG d   1       3.270   0.164  -2.610  0.00  0.00    -0.043 C 
ATOM     29  H   LIG d   1       4.093   1.561  -1.187  0.00  0.00     0.032 H 
ATOM     30  H   LIG d   1       4.830  -0.062  -1.135  0.00  0.00     0.032 H 
ATOM     31  H   LIG d   1       2.860   0.952  -3.241  0.00  0.00     0.027 H 
ATOM     32  H   LIG d   1       2.497  -0.212  -1.939  0.00  0.00     0.027 H 
ATOM     33  H   LIG d   1       2.978  -1.353  -4.110  0.00  0.00     0.032 H 
ATOM     34  H   LIG d   1       4.159  -1.783  -2.851  0.00  0.00     0.032 H 
ENDBRANCH   5   8
ENDBRANCH   3   5
BRANCH   1  35
ATOM     35  C   LIG d   1       7.305  -5.953  -5.898  0.00  0.00     0.028 C 
ATOM     36  H   LIG d   1       7.374  -5.729  -6.962  0.00  0.00     0.036 H 
ATOM     37  H   LIG d   1       6.422  -6.565  -5.713  0.00  0.00     0.036 H 
BRANCH  35  38
ATOM     38  C   LIG d   1       8.556  -6.715  -5.455  0.00  0.00    -0.016 C 
ATOM     39  H   LIG d   1       9.319  -6.006  -5.135  0.00  0.00     0.032 H 
ATOM     40  H   LIG d   1       8.936  -7.306  -6.288  0.00  0.00     0.032 H 
BRANCH  38  41
ATOM     41  C   LIG d   1       8.207  -7.630  -4.308  0.00  0.00    -0.004 A 
ATOM     42  C   LIG d   1       7.149  -8.484  -4.419  0.00  0.00    -0.044 A 
ATOM     43  C   LIG d   1       6.825  -9.333  -3.355  0.00  0.00     0.021 A 
ATOM     44  H   LIG d   1       6.562  -8.504  -5.327  0.00  0.00     0.063 H 
ATOM     45  C   LIG d   1       5.695 -10.259  -3.447  0.00  0.00    -0.033 A 
ATOM     46  C   LIG d   1       7.588  -9.302  -2.173  0.00  0.00     0.143 A 
ATOM     47  C   LIG d   1       5.435 -11.061  -2.382  0.00  0.00     0.026 A 
ATOM     48  C   LIG d   1       6.244 -10.982  -1.229  0.00  0.00     0.338 A 
ATOM     49  H   LIG d   1       4.611 -11.759  -2.416  0.00  0.00     0.069 H 
ATOM     50  O   LIG d   1       6.001 -11.707  -0.282  0.00  0.00    -0.245 OA
ATOM     51  O   LIG d   1       7.277 -10.127  -1.151  0.00  0.00    -0.422 OA
ATOM     52  C   LIG d   1       8.657  -8.425  -2.075  0.00  0.00     0.023 A 
ATOM     53  C   LIG d   1       8.969  -7.599  -3.143  0.00  0.00     0.127 A 
ATOM     54  H   LIG d   1       9.252  -8.395  -1.175  0.00  0.00     0.069 H 
BRANCH  45  55
ATOM     55  C   LIG d   1       4.846 -10.326  -4.690  0.00  0.00    -0.039 C 
ATOM     56  H   LIG d   1       4.534 -11.355  -4.863  0.00  0.00     0.028 H 
ATOM     57  H   LIG d   1       3.966  -9.695  -4.564  0.00  0.00     0.028 H 
ATOM     58  H   LIG d   1       5.426  -9.974  -5.544  0.00  0.00     0.028 H 
ENDBRANCH  45  55
BRANCH  53  59
ATOM     59  O   LIG d   1      10.020  -6.744  -3.047  0.00  0.00    -0.495 OA
BRANCH  59  60
ATOM     60  C   LIG d   1      10.026  -5.845  -1.936  0.00  0.00     0.079 C 
ATOM     61  H   LIG d   1      11.043  -5.499  -1.754  0.00  0.00     0.066 H 
ATOM     62  H   LIG d   1       9.386  -4.991  -2.157  0.00  0.00     0.066 H 
ATOM     63  H   LIG d   1       9.652  -6.361  -1.051  0.00  0.00     0.066 H 
ENDBRANCH  59  60
ENDBRANCH  53  59
ENDBRANCH  38  41
ENDBRANCH  35  38
ENDBRANCH   1  35
TORSDOF 8
ENDMDL
