MODEL 1
REMARK VINA RESULT:      -2.9      0.000      0.000
REMARK  4 active torsions:
REMARK  status: ('A' for Active; 'I' for Inactive)
REMARK    1  A    between atoms: C_1  and  C_2 
REMARK    2  A    between atoms: C_2  and  C_3 
REMARK    3  A    between atoms: C_2  and  S_4 
REMARK    4  A    between atoms: S_4  and  C_5 
ROOT
ATOM      1  C   LIG d   1       3.776  -0.277  -2.448  0.00  0.00    -0.001 C 
ATOM      2  H   LIG d   1       2.711  -0.209  -2.222  0.00  0.00     0.041 H 
ENDROOT
BRANCH   1   3
ATOM      3  C   LIG d   1       4.519   0.862  -1.747  0.00  0.00    -0.054 C 
ATOM      4  H   LIG d   1       4.404   1.779  -2.325  0.00  0.00     0.024 H 
ATOM      5  H   LIG d   1       4.105   1.006  -0.750  0.00  0.00     0.024 H 
ATOM      6  H   LIG d   1       5.578   0.612  -1.671  0.00  0.00     0.024 H 
ENDBRANCH   1   3
BRANCH   1   7
ATOM      7  C   LIG d   1       4.317  -1.620  -1.954  0.00  0.00    -0.054 C 
ATOM      8  H   LIG d   1       5.359  -1.505  -1.656  0.00  0.00     0.024 H 
ATOM      9  H   LIG d   1       3.730  -1.957  -1.099  0.00  0.00     0.024 H 
ATOM     10  H   LIG d   1       4.248  -2.356  -2.755  0.00  0.00     0.024 H 
ENDBRANCH   1   7
BRANCH   1  11
ATOM     11  S   LIG d   1       4.023  -0.148  -4.241  0.00  0.00    -0.161 SA
BRANCH  11  12
ATOM     12  C   LIG d   1       2.437   0.481  -4.858  0.00  0.00    -0.018 C 
ATOM     13  H   LIG d   1       1.659  -0.261  -4.683  0.00  0.00     0.034 H 
ATOM     14  H   LIG d   1       2.183   1.403  -4.335  0.00  0.00     0.034 H 
ATOM     15  H   LIG d   1       2.516   0.680  -5.927  0.00  0.00     0.034 H 
ENDBRANCH  11  12
ENDBRANCH   1  11
TORSDOF 4
ENDMDL
MODEL 2
REMARK VINA RESULT:      -2.7      1.789      2.971
REMARK  4 active torsions:
REMARK  status: ('A' for Active; 'I' for Inactive)
REMARK    1  A    between atoms: C_1  and  C_2 
REMARK    2  A    between atoms: C_2  and  C_3 
REMARK    3  A    between atoms: C_2  and  S_4 
REMARK    4  A    between atoms: S_4  and  C_5 
ROOT
ATOM      1  C   LIG d   1       4.797   0.324  -1.996  0.00  0.00    -0.001 C 
ATOM      2  H   LIG d   1       5.202   0.590  -1.020  0.00  0.00     0.041 H 
ENDROOT
BRANCH   1   3
ATOM      3  C   LIG d   1       4.297  -1.123  -1.964  0.00  0.00    -0.054 C 
ATOM      4  H   LIG d   1       4.390  -1.515  -0.951  0.00  0.00     0.024 H 
ATOM      5  H   LIG d   1       3.252  -1.152  -2.271  0.00  0.00     0.024 H 
ATOM      6  H   LIG d   1       4.895  -1.729  -2.644  0.00  0.00     0.024 H 
ENDBRANCH   1   3
BRANCH   1   7
ATOM      7  C   LIG d   1       3.634   1.258  -2.337  0.00  0.00    -0.054 C 
ATOM      8  H   LIG d   1       3.676   1.519  -3.394  0.00  0.00     0.024 H 
ATOM      9  H   LIG d   1       2.690   0.756  -2.124  0.00  0.00     0.024 H 
ATOM     10  H   LIG d   1       3.708   2.164  -1.736  0.00  0.00     0.024 H 
ENDBRANCH   1   7
BRANCH   1  11
ATOM     11  S   LIG d   1       6.093   0.487  -3.254  0.00  0.00    -0.161 SA
BRANCH  11  12
ATOM     12  C   LIG d   1       6.794  -1.181  -3.382  0.00  0.00    -0.018 C 
ATOM     13  H   LIG d   1       6.692  -1.541  -4.405  0.00  0.00     0.034 H 
ATOM     14  H   LIG d   1       7.849  -1.154  -3.110  0.00  0.00     0.034 H 
ATOM     15  H   LIG d   1       6.262  -1.852  -2.707  0.00  0.00     0.034 H 
ENDBRANCH  11  12
ENDBRANCH   1  11
TORSDOF 4
ENDMDL
MODEL 3
REMARK VINA RESULT:      -2.7      1.903      2.456
REMARK  4 active torsions:
REMARK  status: ('A' for Active; 'I' for Inactive)
REMARK    1  A    between atoms: C_1  and  C_2 
REMARK    2  A    between atoms: C_2  and  C_3 
REMARK    3  A    between atoms: C_2  and  S_4 
REMARK    4  A    between atoms: S_4  and  C_5 
ROOT
ATOM      1  C   LIG d   1       4.684  -0.362  -2.743  0.00  0.00    -0.001 C 
ATOM      2  H   LIG d   1       4.080  -0.109  -3.615  0.00  0.00     0.041 H 
ENDROOT
BRANCH   1   3
ATOM      3  C   LIG d   1       4.578   0.760  -1.708  0.00  0.00    -0.054 C 
ATOM      4  H   LIG d   1       5.494   1.351  -1.719  0.00  0.00     0.024 H 
ATOM      5  H   LIG d   1       3.730   1.400  -1.951  0.00  0.00     0.024 H 
ATOM      6  H   LIG d   1       4.437   0.328  -0.717  0.00  0.00     0.024 H 
ENDBRANCH   1   3
BRANCH   1   7
ATOM      7  C   LIG d   1       4.175  -1.669  -2.133  0.00  0.00    -0.054 C 
ATOM      8  H   LIG d   1       4.134  -2.438  -2.904  0.00  0.00     0.024 H 
ATOM      9  H   LIG d   1       4.850  -1.986  -1.338  0.00  0.00     0.024 H 
ATOM     10  H   LIG d   1       3.177  -1.514  -1.722  0.00  0.00     0.024 H 
ENDBRANCH   1   7
BRANCH   1  11
ATOM     11  S   LIG d   1       6.416  -0.562  -3.244  0.00  0.00    -0.161 SA
BRANCH  11  12
ATOM     12  C   LIG d   1       6.953   1.123  -3.648  0.00  0.00    -0.018 C 
ATOM     13  H   LIG d   1       7.783   1.080  -4.353  0.00  0.00     0.034 H 
ATOM     14  H   LIG d   1       6.124   1.671  -4.096  0.00  0.00     0.034 H 
ATOM     15  H   LIG d   1       7.275   1.631  -2.739  0.00  0.00     0.034 H 
ENDBRANCH  11  12
ENDBRANCH   1  11
TORSDOF 4
ENDMDL
MODEL 4
REMARK VINA RESULT:      -2.4      1.569      2.455
REMARK  4 active torsions:
REMARK  status: ('A' for Active; 'I' for Inactive)
REMARK    1  A    between atoms: C_1  and  C_2 
REMARK    2  A    between atoms: C_2  and  C_3 
REMARK    3  A    between atoms: C_2  and  S_4 
REMARK    4  A    between atoms: S_4  and  C_5 
ROOT
ATOM      1  C   LIG d   1       4.811   0.486  -3.151  0.00  0.00    -0.001 C 
ATOM      2  H   LIG d   1       4.711   1.355  -3.801  0.00  0.00     0.041 H 
ENDROOT
BRANCH   1   3
ATOM      3  C   LIG d   1       6.234  -0.069  -3.255  0.00  0.00    -0.054 C 
ATOM      4  H   LIG d   1       6.227  -0.974  -3.862  0.00  0.00     0.024 H 
ATOM      5  H   LIG d   1       6.880   0.676  -3.721  0.00  0.00     0.024 H 
ATOM      6  H   LIG d   1       6.607  -0.302  -2.258  0.00  0.00     0.024 H 
ENDBRANCH   1   3
BRANCH   1   7
ATOM      7  C   LIG d   1       4.528   0.895  -1.704  0.00  0.00    -0.054 C 
ATOM      8  H   LIG d   1       4.690   0.041  -1.047  0.00  0.00     0.024 H 
ATOM      9  H   LIG d   1       5.197   1.706  -1.418  0.00  0.00     0.024 H 
ATOM     10  H   LIG d   1       3.493   1.228  -1.617  0.00  0.00     0.024 H 
ENDBRANCH   1   7
BRANCH   1  11
ATOM     11  S   LIG d   1       3.627  -0.790  -3.662  0.00  0.00    -0.161 SA
BRANCH  11  12
ATOM     12  C   LIG d   1       3.855  -2.114  -2.444  0.00  0.00    -0.018 C 
ATOM     13  H   LIG d   1       3.547  -3.065  -2.878  0.00  0.00     0.034 H 
ATOM     14  H   LIG d   1       4.905  -2.168  -2.158  0.00  0.00     0.034 H 
ATOM     15  H   LIG d   1       3.249  -1.905  -1.562  0.00  0.00     0.034 H 
ENDBRANCH  11  12
ENDBRANCH   1  11
TORSDOF 4
ENDMDL
MODEL 5
REMARK VINA RESULT:      -2.3      1.652      2.613
REMARK  4 active torsions:
REMARK  status: ('A' for Active; 'I' for Inactive)
REMARK    1  A    between atoms: C_1  and  C_2 
REMARK    2  A    between atoms: C_2  and  C_3 
REMARK    3  A    between atoms: C_2  and  S_4 
REMARK    4  A    between atoms: S_4  and  C_5 
ROOT
ATOM      1  C   LIG d   1       4.028  -0.677  -3.138  0.00  0.00    -0.001 C 
ATOM      2  H   LIG d   1       4.404   0.327  -2.943  0.00  0.00     0.041 H 
ENDROOT
BRANCH   1   3
ATOM      3  C   LIG d   1       4.393  -1.596  -1.970  0.00  0.00    -0.054 C 
ATOM      4  H   LIG d   1       3.483  -1.999  -1.527  0.00  0.00     0.024 H 
ATOM      5  H   LIG d   1       5.015  -2.414  -2.333  0.00  0.00     0.024 H 
ATOM      6  H   LIG d   1       4.941  -1.027  -1.219  0.00  0.00     0.024 H 
ENDBRANCH   1   3
BRANCH   1   7
ATOM      7  C   LIG d   1       2.506  -0.630  -3.293  0.00  0.00    -0.054 C 
ATOM      8  H   LIG d   1       2.051  -1.376  -2.643  0.00  0.00     0.024 H 
ATOM      9  H   LIG d   1       2.144   0.361  -3.019  0.00  0.00     0.024 H 
ATOM     10  H   LIG d   1       2.240  -0.840  -4.329  0.00  0.00     0.024 H 
ENDBRANCH   1   7
BRANCH   1  11
ATOM     11  S   LIG d   1       4.771  -1.316  -4.665  0.00  0.00    -0.161 SA
BRANCH  11  12
ATOM     12  C   LIG d   1       4.909  -3.101  -4.373  0.00  0.00    -0.018 C 
ATOM     13  H   LIG d   1       5.811  -3.306  -3.796  0.00  0.00     0.034 H 
ATOM     14  H   LIG d   1       4.037  -3.447  -3.819  0.00  0.00     0.034 H 
ATOM     15  H   LIG d   1       4.964  -3.622  -5.328  0.00  0.00     0.034 H 
ENDBRANCH  11  12
ENDBRANCH   1  11
TORSDOF 4
ENDMDL
MODEL 6
REMARK VINA RESULT:      -2.2      1.725      2.946
REMARK  4 active torsions:
REMARK  status: ('A' for Active; 'I' for Inactive)
REMARK    1  A    between atoms: C_1  and  C_2 
REMARK    2  A    between atoms: C_2  and  C_3 
REMARK    3  A    between atoms: C_2  and  S_4 
REMARK    4  A    between atoms: S_4  and  C_5 
ROOT
ATOM      1  C   LIG d   1       3.474  -1.381  -3.286  0.00  0.00    -0.001 C 
ATOM      2  H   LIG d   1       2.676  -2.027  -2.918  0.00  0.00     0.041 H 
ENDROOT
BRANCH   1   3
ATOM      3  C   LIG d   1       4.412  -2.189  -4.185  0.00  0.00    -0.054 C 
ATOM      4  H   LIG d   1       4.122  -3.240  -4.159  0.00  0.00     0.024 H 
ATOM      5  H   LIG d   1       4.344  -1.818  -5.207  0.00  0.00     0.024 H 
ATOM      6  H   LIG d   1       5.436  -2.086  -3.826  0.00  0.00     0.024 H 
ENDBRANCH   1   3
BRANCH   1   7
ATOM      7  C   LIG d   1       2.866  -0.228  -4.088  0.00  0.00    -0.054 C 
ATOM      8  H   LIG d   1       2.021  -0.596  -4.669  0.00  0.00     0.024 H 
ATOM      9  H   LIG d   1       2.525   0.550  -3.405  0.00  0.00     0.024 H 
ATOM     10  H   LIG d   1       3.619   0.182  -4.761  0.00  0.00     0.024 H 
ENDBRANCH   1   7
BRANCH   1  11
ATOM     11  S   LIG d   1       4.408  -0.714  -1.881  0.00  0.00    -0.161 SA
BRANCH  11  12
ATOM     12  C   LIG d   1       4.166   1.080  -2.005  0.00  0.00    -0.018 C 
ATOM     13  H   LIG d   1       4.853   1.488  -2.745  0.00  0.00     0.034 H 
ATOM     14  H   LIG d   1       3.140   1.288  -2.308  0.00  0.00     0.034 H 
ATOM     15  H   LIG d   1       4.360   1.541  -1.037  0.00  0.00     0.034 H 
ENDBRANCH  11  12
ENDBRANCH   1  11
TORSDOF 4
ENDMDL
MODEL 7
REMARK VINA RESULT:      -2.1     15.639     16.637
REMARK  4 active torsions:
REMARK  status: ('A' for Active; 'I' for Inactive)
REMARK    1  A    between atoms: C_1  and  C_2 
REMARK    2  A    between atoms: C_2  and  C_3 
REMARK    3  A    between atoms: C_2  and  S_4 
REMARK    4  A    between atoms: S_4  and  C_5 
ROOT
ATOM      1  C   LIG d   1      -6.398  10.674  -9.304  0.00  0.00    -0.001 C 
ATOM      2  H   LIG d   1      -6.929  10.310  -8.425  0.00  0.00     0.041 H 
ENDROOT
BRANCH   1   3
ATOM      3  C   LIG d   1      -4.898  10.424  -9.134  0.00  0.00    -0.054 C 
ATOM      4  H   LIG d   1      -4.503   9.960 -10.038  0.00  0.00     0.024 H 
ATOM      5  H   LIG d   1      -4.389  11.372  -8.961  0.00  0.00     0.024 H 
ATOM      6  H   LIG d   1      -4.734   9.761  -8.284  0.00  0.00     0.024 H 
ENDBRANCH   1   3
BRANCH   1   7
ATOM      7  C   LIG d   1      -6.901   9.936 -10.546  0.00  0.00    -0.054 C 
ATOM      8  H   LIG d   1      -7.415   9.024 -10.243  0.00  0.00     0.024 H 
ATOM      9  H   LIG d   1      -7.591  10.576 -11.095  0.00  0.00     0.024 H 
ATOM     10  H   LIG d   1      -6.055   9.681 -11.185  0.00  0.00     0.024 H 
ENDBRANCH   1   7
BRANCH   1  11
ATOM     11  S   LIG d   1      -6.696  12.453  -9.496  0.00  0.00    -0.161 SA
BRANCH  11  12
ATOM     12  C   LIG d   1      -5.127  13.094 -10.144  0.00  0.00    -0.018 C 
ATOM     13  H   LIG d   1      -4.378  13.087  -9.353  0.00  0.00     0.034 H 
ATOM     14  H   LIG d   1      -4.791  12.465 -10.969  0.00  0.00     0.034 H 
ATOM     15  H   LIG d   1      -5.270  14.114 -10.500  0.00  0.00     0.034 H 
ENDBRANCH  11  12
ENDBRANCH   1  11
TORSDOF 4
ENDMDL
MODEL 8
REMARK VINA RESULT:      -2.0      4.941      6.817
REMARK  4 active torsions:
REMARK  status: ('A' for Active; 'I' for Inactive)
REMARK    1  A    between atoms: C_1  and  C_2 
REMARK    2  A    between atoms: C_2  and  C_3 
REMARK    3  A    between atoms: C_2  and  S_4 
REMARK    4  A    between atoms: S_4  and  C_5 
ROOT
ATOM      1  C   LIG d   1       4.003   1.115  -9.591  0.00  0.00    -0.001 C 
ATOM      2  H   LIG d   1       4.933   0.720  -9.181  0.00  0.00     0.041 H 
ENDROOT
BRANCH   1   3
ATOM      3  C   LIG d   1       3.873   2.596  -9.226  0.00  0.00    -0.054 C 
ATOM      4  H   LIG d   1       2.873   2.946  -9.481  0.00  0.00     0.024 H 
ATOM      5  H   LIG d   1       4.041   2.722  -8.157  0.00  0.00     0.024 H 
ATOM      6  H   LIG d   1       4.613   3.173  -9.782  0.00  0.00     0.024 H 
ENDBRANCH   1   3
BRANCH   1   7
ATOM      7  C   LIG d   1       4.012   0.963 -11.113  0.00  0.00    -0.054 C 
ATOM      8  H   LIG d   1       4.988   0.604 -11.437  0.00  0.00     0.024 H 
ATOM      9  H   LIG d   1       3.245   0.249 -11.411  0.00  0.00     0.024 H 
ATOM     10  H   LIG d   1       3.808   1.929 -11.576  0.00  0.00     0.024 H 
ENDBRANCH   1   7
BRANCH   1  11
ATOM     11  S   LIG d   1       2.599   0.197  -8.899  0.00  0.00    -0.161 SA
BRANCH  11  12
ATOM     12  C   LIG d   1       2.949   0.136  -7.120  0.00  0.00    -0.018 C 
ATOM     13  H   LIG d   1       4.017   0.270  -6.955  0.00  0.00     0.034 H 
ATOM     14  H   LIG d   1       2.401   0.931  -6.614  0.00  0.00     0.034 H 
ATOM     15  H   LIG d   1       2.638  -0.829  -6.721  0.00  0.00     0.034 H 
ENDBRANCH  11  12
ENDBRANCH   1  11
TORSDOF 4
ENDMDL
MODEL 9
REMARK VINA RESULT:      -2.0      6.216      6.831
REMARK  4 active torsions:
REMARK  status: ('A' for Active; 'I' for Inactive)
REMARK    1  A    between atoms: C_1  and  C_2 
REMARK    2  A    between atoms: C_2  and  C_3 
REMARK    3  A    between atoms: C_2  and  S_4 
REMARK    4  A    between atoms: S_4  and  C_5 
ROOT
ATOM      1  C   LIG d   1       3.764   1.035  -9.187  0.00  0.00    -0.001 C 
ATOM      2  H   LIG d   1       4.760   1.073  -8.746  0.00  0.00     0.041 H 
ENDROOT
BRANCH   1   3
ATOM      3  C   LIG d   1       2.884   2.115  -8.553  0.00  0.00    -0.054 C 
ATOM      4  H   LIG d   1       2.461   2.744  -9.336  0.00  0.00     0.024 H 
ATOM      5  H   LIG d   1       2.079   1.642  -7.992  0.00  0.00     0.024 H 
ATOM      6  H   LIG d   1       3.487   2.726  -7.882  0.00  0.00     0.024 H 
ENDBRANCH   1   3
BRANCH   1   7
ATOM      7  C   LIG d   1       3.865   1.279 -10.694  0.00  0.00    -0.054 C 
ATOM      8  H   LIG d   1       3.555   0.382 -11.229  0.00  0.00     0.024 H 
ATOM      9  H   LIG d   1       3.216   2.110 -10.973  0.00  0.00     0.024 H 
ATOM     10  H   LIG d   1       4.896   1.520 -10.955  0.00  0.00     0.024 H 
ENDBRANCH   1   7
BRANCH   1  11
ATOM     11  S   LIG d   1       3.031  -0.596  -8.886  0.00  0.00    -0.161 SA
BRANCH  11  12
ATOM     12  C   LIG d   1       1.555  -0.616  -9.942  0.00  0.00    -0.018 C 
ATOM     13  H   LIG d   1       0.794   0.036  -9.514  0.00  0.00     0.034 H 
ATOM     14  H   LIG d   1       1.817  -0.263 -10.939  0.00  0.00     0.034 H 
ATOM     15  H   LIG d   1       1.168  -1.632 -10.007  0.00  0.00     0.034 H 
ENDBRANCH  11  12
ENDBRANCH   1  11
TORSDOF 4
ENDMDL
MODEL 10
REMARK VINA RESULT:      -1.9      4.523      5.888
REMARK  4 active torsions:
REMARK  status: ('A' for Active; 'I' for Inactive)
REMARK    1  A    between atoms: C_1  and  C_2 
REMARK    2  A    between atoms: C_2  and  C_3 
REMARK    3  A    between atoms: C_2  and  S_4 
REMARK    4  A    between atoms: S_4  and  C_5 
ROOT
ATOM      1  C   LIG d   1       3.167   0.279  -8.162  0.00  0.00    -0.001 C 
ATOM      2  H   LIG d   1       4.180  -0.054  -8.387  0.00  0.00     0.041 H 
ENDROOT
BRANCH   1   3
ATOM      3  C   LIG d   1       2.162  -0.620  -8.886  0.00  0.00    -0.054 C 
ATOM      4  H   LIG d   1       1.454  -1.028  -8.163  0.00  0.00     0.024 H 
ATOM      5  H   LIG d   1       1.623  -0.035  -9.631  0.00  0.00     0.024 H 
ATOM      6  H   LIG d   1       2.692  -1.436  -9.376  0.00  0.00     0.024 H 
ENDBRANCH   1   3
BRANCH   1   7
ATOM      7  C   LIG d   1       2.928   0.200  -6.653  0.00  0.00    -0.054 C 
ATOM      8  H   LIG d   1       2.453   1.119  -6.311  0.00  0.00     0.024 H 
ATOM      9  H   LIG d   1       2.280  -0.648  -6.431  0.00  0.00     0.024 H 
ATOM     10  H   LIG d   1       3.882   0.072  -6.140  0.00  0.00     0.024 H 
ENDBRANCH   1   7
BRANCH   1  11
ATOM     11  S   LIG d   1       2.956   1.992  -8.719  0.00  0.00    -0.161 SA
BRANCH  11  12
ATOM     12  C   LIG d   1       4.612   2.481  -9.273  0.00  0.00    -0.018 C 
ATOM     13  H   LIG d   1       5.259   2.622  -8.407  0.00  0.00     0.034 H 
ATOM     14  H   LIG d   1       5.027   1.701  -9.912  0.00  0.00     0.034 H 
ATOM     15  H   LIG d   1       4.548   3.413  -9.834  0.00  0.00     0.034 H 
ENDBRANCH  11  12
ENDBRANCH   1  11
TORSDOF 4
ENDMDL
