MODEL 1
REMARK VINA RESULT:      -6.4      0.000      0.000
REMARK  5 active torsions:
REMARK  status: ('A' for Active; 'I' for Inactive)
REMARK    1  A    between atoms: C_1  and  N_2 
REMARK    2  A    between atoms: C_4  and  C_9 
REMARK    3  A    between atoms: C_9  and  C_10 
REMARK    4  A    between atoms: C_10  and  N_43 
REMARK    5  A    between atoms: C_13  and  C_16 
ROOT
ATOM      1  C   LIG d   1       2.726   0.152  -7.683  0.00  0.00    -0.028 C 
ATOM      2  C   LIG d   1       2.567   0.215  -6.162  0.00  0.00     0.013 C 
ATOM      3  C   LIG d   1       3.723  -0.484  -5.501  0.00  0.00    -0.034 C 
ATOM      4  C   LIG d   1       4.518  -1.306  -6.148  0.00  0.00    -0.035 C 
ATOM      5  C   LIG d   1       4.357  -1.624  -7.606  0.00  0.00    -0.012 C 
ATOM      6  H   LIG d   1       3.550   0.796  -7.991  0.00  0.00     0.082 H 
ATOM      7  H   LIG d   1       1.804   0.478  -8.162  0.00  0.00     0.082 H 
ATOM      8  H   LIG d   1       2.541   1.256  -5.842  0.00  0.00     0.036 H 
ATOM      9  H   LIG d   1       1.636  -0.275  -5.875  0.00  0.00     0.036 H 
ATOM     10  H   LIG d   1       5.325  -1.776  -5.604  0.00  0.00     0.063 H 
ATOM     11  H   LIG d   1       4.499  -2.695  -7.760  0.00  0.00     0.086 H 
ATOM     12  H   LIG d   1       5.106  -1.078  -8.180  0.00  0.00     0.086 H 
ATOM     13  N   LIG d   1       3.002  -1.252  -8.051  0.00  0.00     0.238 N 
ATOM     14  H   LIG d   1       2.317  -1.860  -7.586  0.00  0.00     0.204 HD
ENDROOT
BRANCH  13  15
ATOM     15  C   LIG d   1       2.884  -1.425  -9.517  0.00  0.00    -0.028 C 
ATOM     16  H   LIG d   1       3.863  -1.672  -9.927  0.00  0.00     0.082 H 
ATOM     17  H   LIG d   1       2.182  -2.225  -9.748  0.00  0.00     0.082 H 
BRANCH  15  18
ATOM     18  C   LIG d   1       2.387  -0.116 -10.134  0.00  0.00     0.026 C 
ATOM     19  H   LIG d   1       1.550  -0.323 -10.800  0.00  0.00     0.035 H 
ATOM     20  H   LIG d   1       2.063   0.560  -9.342  0.00  0.00     0.035 H 
BRANCH  18  21
ATOM     21  C   LIG d   1       3.521   0.536 -10.927  0.00  0.00     0.125 A 
ATOM     22  C   LIG d   1       4.740  -0.403 -11.002  0.00  0.00     0.055 A 
ATOM     23  N   LIG d   1       5.807   0.352 -10.330  0.00  0.00    -0.267 N 
ATOM     24  H   LIG d   1       4.538  -1.335 -10.473  0.00  0.00     0.050 H 
ATOM     25  H   LIG d   1       5.006  -0.604 -12.040  0.00  0.00     0.050 H 
ATOM     26  C   LIG d   1       5.314   1.531  -9.926  0.00  0.00     0.403 A 
ATOM     27  O   LIG d   1       4.024   1.711 -10.228  0.00  0.00    -0.445 OA
ATOM     28  O   LIG d   1       5.980   2.361  -9.337  0.00  0.00    -0.226 OA
ATOM     29  H   LIG d   1       3.181   0.802 -11.929  0.00  0.00     0.075 H 
BRANCH  23  30
ATOM     30  C   LIG d   1       7.183  -0.109 -10.132  0.00  0.00     0.006 C 
ATOM     31  H   LIG d   1       7.416  -0.882 -10.865  0.00  0.00     0.043 H 
ATOM     32  H   LIG d   1       7.870   0.728 -10.258  0.00  0.00     0.043 H 
ATOM     33  H   LIG d   1       7.288  -0.517  -9.127  0.00  0.00     0.043 H 
ENDBRANCH  23  30
ENDBRANCH  18  21
ENDBRANCH  15  18
ENDBRANCH  13  15
BRANCH   3  34
ATOM     34  C   LIG d   1       3.975  -0.234  -4.066  0.00  0.00    -0.022 A 
ATOM     35  C   LIG d   1       4.453  -1.259  -3.250  0.00  0.00    -0.054 A 
ATOM     36  C   LIG d   1       4.686  -1.020  -1.911  0.00  0.00    -0.061 A 
ATOM     37  H   LIG d   1       4.641  -2.239  -3.665  0.00  0.00     0.062 H 
ATOM     38  C   LIG d   1       4.447   0.234  -1.378  0.00  0.00    -0.062 A 
ATOM     39  H   LIG d   1       5.056  -1.813  -1.279  0.00  0.00     0.062 H 
ATOM     40  C   LIG d   1       3.974   1.256  -2.182  0.00  0.00    -0.061 A 
ATOM     41  H   LIG d   1       4.631   0.416  -0.329  0.00  0.00     0.062 H 
ATOM     42  C   LIG d   1       3.741   1.030  -3.523  0.00  0.00    -0.054 A 
ATOM     43  H   LIG d   1       3.789   2.233  -1.759  0.00  0.00     0.062 H 
ATOM     44  H   LIG d   1       3.375   1.830  -4.151  0.00  0.00     0.062 H 
ENDBRANCH   3  34
TORSDOF 5
ENDMDL
MODEL 2
REMARK VINA RESULT:      -6.3      3.114      6.639
REMARK  5 active torsions:
REMARK  status: ('A' for Active; 'I' for Inactive)
REMARK    1  A    between atoms: C_1  and  N_2 
REMARK    2  A    between atoms: C_4  and  C_9 
REMARK    3  A    between atoms: C_9  and  C_10 
REMARK    4  A    between atoms: C_10  and  N_43 
REMARK    5  A    between atoms: C_13  and  C_16 
ROOT
ATOM      1  C   LIG d   1       4.357  -1.353  -5.301  0.00  0.00    -0.028 C 
ATOM      2  C   LIG d   1       4.203  -1.432  -6.822  0.00  0.00     0.013 C 
ATOM      3  C   LIG d   1       3.491  -0.206  -7.324  0.00  0.00    -0.034 C 
ATOM      4  C   LIG d   1       2.813   0.594  -6.533  0.00  0.00    -0.035 C 
ATOM      5  C   LIG d   1       2.685   0.370  -5.053  0.00  0.00    -0.012 C 
ATOM      6  H   LIG d   1       5.084  -0.582  -5.046  0.00  0.00     0.082 H 
ATOM      7  H   LIG d   1       4.690  -2.316  -4.916  0.00  0.00     0.082 H 
ATOM      8  H   LIG d   1       5.188  -1.493  -7.284  0.00  0.00     0.036 H 
ATOM      9  H   LIG d   1       3.625  -2.319  -7.082  0.00  0.00     0.036 H 
ATOM     10  H   LIG d   1       2.322   1.453  -6.967  0.00  0.00     0.063 H 
ATOM     11  H   LIG d   1       1.656   0.558  -4.747  0.00  0.00     0.086 H 
ATOM     12  H   LIG d   1       3.348   1.056  -4.527  0.00  0.00     0.086 H 
ATOM     13  N   LIG d   1       3.034  -1.026  -4.730  0.00  0.00     0.238 N 
ATOM     14  H   LIG d   1       2.330  -1.651  -5.137  0.00  0.00     0.204 HD
ENDROOT
BRANCH  13  15
ATOM     15  C   LIG d   1       3.055  -1.215  -3.261  0.00  0.00    -0.028 C 
ATOM     16  H   LIG d   1       2.118  -1.675  -2.947  0.00  0.00     0.082 H 
ATOM     17  H   LIG d   1       3.888  -1.855  -2.974  0.00  0.00     0.082 H 
BRANCH  15  18
ATOM     18  C   LIG d   1       3.205   0.150  -2.586  0.00  0.00     0.026 C 
ATOM     19  H   LIG d   1       3.062   0.938  -3.325  0.00  0.00     0.035 H 
ATOM     20  H   LIG d   1       2.458   0.251  -1.798  0.00  0.00     0.035 H 
BRANCH  18  21
ATOM     21  C   LIG d   1       4.604   0.268  -1.979  0.00  0.00     0.125 A 
ATOM     22  C   LIG d   1       5.381   1.428  -2.631  0.00  0.00     0.055 A 
ATOM     23  N   LIG d   1       6.541   0.769  -3.250  0.00  0.00    -0.267 N 
ATOM     24  H   LIG d   1       4.770   1.920  -3.388  0.00  0.00     0.050 H 
ATOM     25  H   LIG d   1       5.703   2.145  -1.876  0.00  0.00     0.050 H 
ATOM     26  C   LIG d   1       6.470  -0.548  -3.011  0.00  0.00     0.403 A 
ATOM     27  O   LIG d   1       5.399  -0.911  -2.295  0.00  0.00    -0.445 OA
ATOM     28  O   LIG d   1       7.302  -1.339  -3.409  0.00  0.00    -0.226 OA
ATOM     29  H   LIG d   1       4.540   0.409  -0.900  0.00  0.00     0.075 H 
BRANCH  23  30
ATOM     30  C   LIG d   1       7.600   1.442  -4.006  0.00  0.00     0.006 C 
ATOM     31  H   LIG d   1       8.418   0.744  -4.184  0.00  0.00     0.043 H 
ATOM     32  H   LIG d   1       7.203   1.785  -4.962  0.00  0.00     0.043 H 
ATOM     33  H   LIG d   1       7.966   2.295  -3.437  0.00  0.00     0.043 H 
ENDBRANCH  23  30
ENDBRANCH  18  21
ENDBRANCH  15  18
ENDBRANCH  13  15
BRANCH   3  34
ATOM     34  C   LIG d   1       3.558   0.112  -8.767  0.00  0.00    -0.022 A 
ATOM     35  C   LIG d   1       3.343  -0.889  -9.714  0.00  0.00    -0.054 A 
ATOM     36  C   LIG d   1       3.408  -0.586 -11.059  0.00  0.00    -0.061 A 
ATOM     37  H   LIG d   1       3.127  -1.898  -9.397  0.00  0.00     0.062 H 
ATOM     38  C   LIG d   1       3.685   0.706 -11.468  0.00  0.00    -0.062 A 
ATOM     39  H   LIG d   1       3.242  -1.360 -11.794  0.00  0.00     0.062 H 
ATOM     40  C   LIG d   1       3.898   1.703 -10.533  0.00  0.00    -0.061 A 
ATOM     41  H   LIG d   1       3.734   0.938 -12.522  0.00  0.00     0.062 H 
ATOM     42  C   LIG d   1       3.831   1.414  -9.185  0.00  0.00    -0.054 A 
ATOM     43  H   LIG d   1       4.114   2.710 -10.858  0.00  0.00     0.062 H 
ATOM     44  H   LIG d   1       3.994   2.194  -8.456  0.00  0.00     0.062 H 
ENDBRANCH   3  34
TORSDOF 5
ENDMDL
MODEL 3
REMARK VINA RESULT:      -6.1      5.686      7.319
REMARK  5 active torsions:
REMARK  status: ('A' for Active; 'I' for Inactive)
REMARK    1  A    between atoms: C_1  and  N_2 
REMARK    2  A    between atoms: C_4  and  C_9 
REMARK    3  A    between atoms: C_9  and  C_10 
REMARK    4  A    between atoms: C_10  and  N_43 
REMARK    5  A    between atoms: C_13  and  C_16 
ROOT
ATOM      1  C   LIG d   1       8.853   0.029  -5.081  0.00  0.00    -0.028 C 
ATOM      2  C   LIG d   1       7.750  -0.768  -4.382  0.00  0.00     0.013 C 
ATOM      3  C   LIG d   1       6.779   0.175  -3.728  0.00  0.00    -0.034 C 
ATOM      4  C   LIG d   1       7.059   1.440  -3.506  0.00  0.00    -0.035 C 
ATOM      5  C   LIG d   1       8.369   2.069  -3.887  0.00  0.00    -0.012 C 
ATOM      6  H   LIG d   1       8.443   0.530  -5.958  0.00  0.00     0.082 H 
ATOM      7  H   LIG d   1       9.656  -0.643  -5.384  0.00  0.00     0.082 H 
ATOM      8  H   LIG d   1       7.224  -1.380  -5.114  0.00  0.00     0.036 H 
ATOM      9  H   LIG d   1       8.195  -1.414  -3.623  0.00  0.00     0.036 H 
ATOM     10  H   LIG d   1       6.313   2.056  -3.026  0.00  0.00     0.063 H 
ATOM     11  H   LIG d   1       8.708   2.714  -3.077  0.00  0.00     0.086 H 
ATOM     12  H   LIG d   1       8.233   2.665  -4.789  0.00  0.00     0.086 H 
ATOM     13  N   LIG d   1       9.377   1.018  -4.117  0.00  0.00     0.238 N 
ATOM     14  H   LIG d   1       9.578   0.545  -3.228  0.00  0.00     0.204 HD
ENDROOT
BRANCH  13  15
ATOM     15  C   LIG d   1      10.627   1.620  -4.636  0.00  0.00    -0.028 C 
ATOM     16  H   LIG d   1      11.219   0.848  -5.126  0.00  0.00     0.082 H 
ATOM     17  H   LIG d   1      10.397   2.410  -5.351  0.00  0.00     0.082 H 
BRANCH  15  18
ATOM     18  C   LIG d   1      11.419   2.206  -3.466  0.00  0.00     0.026 C 
ATOM     19  H   LIG d   1      10.830   2.127  -2.552  0.00  0.00     0.035 H 
ATOM     20  H   LIG d   1      12.352   1.655  -3.346  0.00  0.00     0.035 H 
BRANCH  18  21
ATOM     21  C   LIG d   1      11.730   3.678  -3.746  0.00  0.00     0.125 A 
ATOM     22  C   LIG d   1      11.359   4.550  -2.532  0.00  0.00     0.055 A 
ATOM     23  N   LIG d   1      10.331   5.462  -3.055  0.00  0.00    -0.267 N 
ATOM     24  H   LIG d   1      10.952   3.935  -1.728  0.00  0.00     0.050 H 
ATOM     25  H   LIG d   1      12.227   5.109  -2.182  0.00  0.00     0.050 H 
ATOM     26  C   LIG d   1      10.125   5.184  -4.350  0.00  0.00     0.403 A 
ATOM     27  O   LIG d   1      10.881   4.184  -4.816  0.00  0.00    -0.445 OA
ATOM     28  O   LIG d   1       9.323   5.786  -5.038  0.00  0.00    -0.226 OA
ATOM     29  H   LIG d   1      12.783   3.803  -4.000  0.00  0.00     0.075 H 
BRANCH  23  30
ATOM     30  C   LIG d   1       9.643   6.502  -2.287  0.00  0.00     0.006 C 
ATOM     31  H   LIG d   1       9.942   7.484  -2.657  0.00  0.00     0.043 H 
ATOM     32  H   LIG d   1       8.565   6.386  -2.401  0.00  0.00     0.043 H 
ATOM     33  H   LIG d   1       9.910   6.413  -1.235  0.00  0.00     0.043 H 
ENDBRANCH  23  30
ENDBRANCH  18  21
ENDBRANCH  15  18
ENDBRANCH  13  15
BRANCH   3  34
ATOM     34  C   LIG d   1       5.455  -0.341  -3.319  0.00  0.00    -0.022 A 
ATOM     35  C   LIG d   1       5.266  -1.710  -3.129  0.00  0.00    -0.054 A 
ATOM     36  C   LIG d   1       4.028  -2.186  -2.747  0.00  0.00    -0.061 A 
ATOM     37  H   LIG d   1       6.086  -2.396  -3.280  0.00  0.00     0.062 H 
ATOM     38  C   LIG d   1       2.976  -1.308  -2.554  0.00  0.00    -0.062 A 
ATOM     39  H   LIG d   1       3.880  -3.245  -2.600  0.00  0.00     0.062 H 
ATOM     40  C   LIG d   1       3.158   0.051  -2.739  0.00  0.00    -0.061 A 
ATOM     41  H   LIG d   1       2.010  -1.686  -2.255  0.00  0.00     0.062 H 
ATOM     42  C   LIG d   1       4.393   0.539  -3.116  0.00  0.00    -0.054 A 
ATOM     43  H   LIG d   1       2.333   0.731  -2.587  0.00  0.00     0.062 H 
ATOM     44  H   LIG d   1       4.534   1.601  -3.257  0.00  0.00     0.062 H 
ENDBRANCH   3  34
TORSDOF 5
ENDMDL
MODEL 4
REMARK VINA RESULT:      -6.1      6.541      7.936
REMARK  5 active torsions:
REMARK  status: ('A' for Active; 'I' for Inactive)
REMARK    1  A    between atoms: C_1  and  N_2 
REMARK    2  A    between atoms: C_4  and  C_9 
REMARK    3  A    between atoms: C_9  and  C_10 
REMARK    4  A    between atoms: C_10  and  N_43 
REMARK    5  A    between atoms: C_13  and  C_16 
ROOT
ATOM      1  C   LIG d   1       5.296  -4.420  -5.917  0.00  0.00    -0.028 C 
ATOM      2  C   LIG d   1       4.736  -3.481  -4.845  0.00  0.00     0.013 C 
ATOM      3  C   LIG d   1       5.857  -2.691  -4.228  0.00  0.00    -0.034 C 
ATOM      4  C   LIG d   1       7.119  -3.033  -4.353  0.00  0.00    -0.035 C 
ATOM      5  C   LIG d   1       7.568  -4.239  -5.127  0.00  0.00    -0.012 C 
ATOM      6  H   LIG d   1       5.626  -3.838  -6.777  0.00  0.00     0.082 H 
ATOM      7  H   LIG d   1       4.525  -5.127  -6.224  0.00  0.00     0.082 H 
ATOM      8  H   LIG d   1       4.018  -2.799  -5.299  0.00  0.00     0.036 H 
ATOM      9  H   LIG d   1       4.239  -4.069  -4.073  0.00  0.00     0.036 H 
ATOM     10  H   LIG d   1       7.869  -2.419  -3.876  0.00  0.00     0.063 H 
ATOM     11  H   LIG d   1       8.348  -4.757  -4.568  0.00  0.00     0.086 H 
ATOM     12  H   LIG d   1       7.968  -3.921  -6.090  0.00  0.00     0.086 H 
ATOM     13  N   LIG d   1       6.431  -5.156  -5.325  0.00  0.00     0.238 N 
ATOM     14  H   LIG d   1       6.145  -5.537  -4.415  0.00  0.00     0.204 HD
ENDROOT
BRANCH  13  15
ATOM     15  C   LIG d   1       6.830  -6.274  -6.211  0.00  0.00    -0.028 C 
ATOM     16  H   LIG d   1       7.074  -5.877  -7.197  0.00  0.00     0.082 H 
ATOM     17  H   LIG d   1       7.697  -6.789  -5.802  0.00  0.00     0.082 H 
BRANCH  15  18
ATOM     18  C   LIG d   1       5.662  -7.255  -6.331  0.00  0.00     0.026 C 
ATOM     19  H   LIG d   1       4.732  -6.700  -6.456  0.00  0.00     0.035 H 
ATOM     20  H   LIG d   1       5.817  -7.903  -7.193  0.00  0.00     0.035 H 
BRANCH  18  21
ATOM     21  C   LIG d   1       5.580  -8.106  -5.063  0.00  0.00     0.125 A 
ATOM     22  C   LIG d   1       6.576  -9.280  -5.133  0.00  0.00     0.055 A 
ATOM     23  N   LIG d   1       5.719 -10.473  -5.068  0.00  0.00    -0.267 N 
ATOM     24  H   LIG d   1       7.129  -9.256  -6.073  0.00  0.00     0.050 H 
ATOM     25  H   LIG d   1       7.261  -9.252  -4.286  0.00  0.00     0.050 H 
ATOM     26  C   LIG d   1       4.440 -10.082  -4.975  0.00  0.00     0.403 A 
ATOM     27  O   LIG d   1       4.279  -8.754  -4.966  0.00  0.00    -0.445 OA
ATOM     28  O   LIG d   1       3.511 -10.864  -4.907  0.00  0.00    -0.226 OA
ATOM     29  H   LIG d   1       5.771  -7.495  -4.180  0.00  0.00     0.075 H 
BRANCH  23  30
ATOM     30  C   LIG d   1       6.185 -11.861  -5.102  0.00  0.00     0.006 C 
ATOM     31  H   LIG d   1       6.898 -12.023  -4.293  0.00  0.00     0.043 H 
ATOM     32  H   LIG d   1       5.337 -12.533  -4.977  0.00  0.00     0.043 H 
ATOM     33  H   LIG d   1       6.668 -12.058  -6.058  0.00  0.00     0.043 H 
ENDBRANCH  23  30
ENDBRANCH  18  21
ENDBRANCH  15  18
ENDBRANCH  13  15
BRANCH   3  34
ATOM     34  C   LIG d   1       5.524  -1.479  -3.449  0.00  0.00    -0.022 A 
ATOM     35  C   LIG d   1       6.167  -0.272  -3.724  0.00  0.00    -0.054 A 
ATOM     36  C   LIG d   1       5.852   0.856  -2.993  0.00  0.00    -0.061 A 
ATOM     37  H   LIG d   1       6.910  -0.219  -4.505  0.00  0.00     0.062 H 
ATOM     38  C   LIG d   1       4.900   0.791  -1.991  0.00  0.00    -0.062 A 
ATOM     39  H   LIG d   1       6.349   1.791  -3.204  0.00  0.00     0.062 H 
ATOM     40  C   LIG d   1       4.258  -0.403  -1.715  0.00  0.00    -0.061 A 
ATOM     41  H   LIG d   1       4.657   1.676  -1.422  0.00  0.00     0.062 H 
ATOM     42  C   LIG d   1       4.561  -1.537  -2.442  0.00  0.00    -0.054 A 
ATOM     43  H   LIG d   1       3.516  -0.447  -0.931  0.00  0.00     0.062 H 
ATOM     44  H   LIG d   1       4.056  -2.467  -2.227  0.00  0.00     0.062 H 
ENDBRANCH   3  34
TORSDOF 5
ENDMDL
MODEL 5
REMARK VINA RESULT:      -6.0      3.218      4.388
REMARK  5 active torsions:
REMARK  status: ('A' for Active; 'I' for Inactive)
REMARK    1  A    between atoms: C_1  and  N_2 
REMARK    2  A    between atoms: C_4  and  C_9 
REMARK    3  A    between atoms: C_9  and  C_10 
REMARK    4  A    between atoms: C_10  and  N_43 
REMARK    5  A    between atoms: C_13  and  C_16 
ROOT
ATOM      1  C   LIG d   1       2.995   0.120  -7.921  0.00  0.00    -0.028 C 
ATOM      2  C   LIG d   1       2.770   0.301  -6.418  0.00  0.00     0.013 C 
ATOM      3  C   LIG d   1       3.756  -0.539  -5.653  0.00  0.00    -0.034 C 
ATOM      4  C   LIG d   1       4.433  -1.519  -6.207  0.00  0.00    -0.035 C 
ATOM      5  C   LIG d   1       4.296  -1.894  -7.655  0.00  0.00    -0.012 C 
ATOM      6  H   LIG d   1       3.931   0.599  -8.211  0.00  0.00     0.082 H 
ATOM      7  H   LIG d   1       2.167   0.566  -8.472  0.00  0.00     0.082 H 
ATOM      8  H   LIG d   1       2.905   1.349  -6.153  0.00  0.00     0.036 H 
ATOM      9  H   LIG d   1       1.756  -0.010  -6.163  0.00  0.00     0.036 H 
ATOM     10  H   LIG d   1       5.120  -2.082  -5.592  0.00  0.00     0.063 H 
ATOM     11  H   LIG d   1       4.262  -2.980  -7.744  0.00  0.00     0.086 H 
ATOM     12  H   LIG d   1       5.155  -1.515  -8.208  0.00  0.00     0.086 H 
ATOM     13  N   LIG d   1       3.048  -1.329  -8.199  0.00  0.00     0.238 N 
ATOM     14  H   LIG d   1       2.248  -1.786  -7.747  0.00  0.00     0.204 HD
ENDROOT
BRANCH  13  15
ATOM     15  C   LIG d   1       2.979  -1.569  -9.659  0.00  0.00    -0.028 C 
ATOM     16  H   LIG d   1       3.114  -0.623 -10.183  0.00  0.00     0.082 H 
ATOM     17  H   LIG d   1       3.756  -2.268  -9.964  0.00  0.00     0.082 H 
BRANCH  15  18
ATOM     18  C   LIG d   1       1.606  -2.150 -10.003  0.00  0.00     0.026 C 
ATOM     19  H   LIG d   1       1.069  -2.383  -9.084  0.00  0.00     0.035 H 
ATOM     20  H   LIG d   1       1.037  -1.423 -10.583  0.00  0.00     0.035 H 
BRANCH  18  21
ATOM     21  C   LIG d   1       1.785  -3.428 -10.825  0.00  0.00     0.125 A 
ATOM     22  C   LIG d   1       0.443  -4.170 -10.972  0.00  0.00     0.055 A 
ATOM     23  N   LIG d   1       0.687  -5.468 -10.324  0.00  0.00    -0.267 N 
ATOM     24  H   LIG d   1      -0.352  -3.629 -10.458  0.00  0.00     0.050 H 
ATOM     25  H   LIG d   1       0.193  -4.306 -12.024  0.00  0.00     0.050 H 
ATOM     26  C   LIG d   1       1.948  -5.496  -9.873  0.00  0.00     0.403 A 
ATOM     27  O   LIG d   1       2.636  -4.376 -10.119  0.00  0.00    -0.445 OA
ATOM     28  O   LIG d   1       2.423  -6.452  -9.291  0.00  0.00    -0.226 OA
ATOM     29  H   LIG d   1       2.202  -3.195 -11.806  0.00  0.00     0.075 H 
BRANCH  23  30
ATOM     30  C   LIG d   1      -0.290  -6.551 -10.193  0.00  0.00     0.006 C 
ATOM     31  H   LIG d   1      -0.345  -7.106 -11.130  0.00  0.00     0.043 H 
ATOM     32  H   LIG d   1       0.018  -7.223  -9.392  0.00  0.00     0.043 H 
ATOM     33  H   LIG d   1      -1.268  -6.132  -9.961  0.00  0.00     0.043 H 
ENDBRANCH  23  30
ENDBRANCH  18  21
ENDBRANCH  15  18
ENDBRANCH  13  15
BRANCH   3  34
ATOM     34  C   LIG d   1       3.972  -0.248  -4.219  0.00  0.00    -0.022 A 
ATOM     35  C   LIG d   1       4.603  -1.186  -3.402  0.00  0.00    -0.054 A 
ATOM     36  C   LIG d   1       4.802  -0.909  -2.065  0.00  0.00    -0.061 A 
ATOM     37  H   LIG d   1       4.935  -2.127  -3.814  0.00  0.00     0.062 H 
ATOM     38  C   LIG d   1       4.377   0.297  -1.535  0.00  0.00    -0.062 A 
ATOM     39  H   LIG d   1       5.290  -1.634  -1.431  0.00  0.00     0.062 H 
ATOM     40  C   LIG d   1       3.752   1.231  -2.340  0.00  0.00    -0.061 A 
ATOM     41  H   LIG d   1       4.535   0.509  -0.488  0.00  0.00     0.062 H 
ATOM     42  C   LIG d   1       3.551   0.968  -3.680  0.00  0.00    -0.054 A 
ATOM     43  H   LIG d   1       3.422   2.171  -1.920  0.00  0.00     0.062 H 
ATOM     44  H   LIG d   1       3.066   1.701  -4.309  0.00  0.00     0.062 H 
ENDBRANCH   3  34
TORSDOF 5
ENDMDL
MODEL 6
REMARK VINA RESULT:      -6.0      2.351      3.494
REMARK  5 active torsions:
REMARK  status: ('A' for Active; 'I' for Inactive)
REMARK    1  A    between atoms: C_1  and  N_2 
REMARK    2  A    between atoms: C_4  and  C_9 
REMARK    3  A    between atoms: C_9  and  C_10 
REMARK    4  A    between atoms: C_10  and  N_43 
REMARK    5  A    between atoms: C_13  and  C_16 
ROOT
ATOM      1  C   LIG d   1       3.504   1.091  -8.275  0.00  0.00    -0.028 C 
ATOM      2  C   LIG d   1       3.008   0.236  -7.106  0.00  0.00     0.013 C 
ATOM      3  C   LIG d   1       4.182  -0.321  -6.350  0.00  0.00    -0.034 C 
ATOM      4  C   LIG d   1       5.398  -0.349  -6.848  0.00  0.00    -0.035 C 
ATOM      5  C   LIG d   1       5.736   0.177  -8.214  0.00  0.00    -0.012 C 
ATOM      6  H   LIG d   1       3.949   2.009  -7.893  0.00  0.00     0.082 H 
ATOM      7  H   LIG d   1       2.670   1.331  -8.934  0.00  0.00     0.082 H 
ATOM      8  H   LIG d   1       2.404   0.849  -6.438  0.00  0.00     0.036 H 
ATOM      9  H   LIG d   1       2.401  -0.585  -7.490  0.00  0.00     0.036 H 
ATOM     10  H   LIG d   1       6.191  -0.771  -6.248  0.00  0.00     0.063 H 
ATOM     11  H   LIG d   1       6.415  -0.518  -8.710  0.00  0.00     0.086 H 
ATOM     12  H   LIG d   1       6.223   1.146  -8.117  0.00  0.00     0.086 H 
ATOM     13  N   LIG d   1       4.506   0.301  -9.019  0.00  0.00     0.238 N 
ATOM     14  H   LIG d   1       4.128  -0.636  -9.199  0.00  0.00     0.204 HD
ENDROOT
BRANCH  13  15
ATOM     15  C   LIG d   1       4.812   0.956 -10.311  0.00  0.00    -0.028 C 
ATOM     16  H   LIG d   1       4.830   2.036 -10.169  0.00  0.00     0.082 H 
ATOM     17  H   LIG d   1       5.779   0.623 -10.684  0.00  0.00     0.082 H 
BRANCH  15  18
ATOM     18  C   LIG d   1       3.722   0.593 -11.322  0.00  0.00     0.026 C 
ATOM     19  H   LIG d   1       2.755   0.934 -10.953  0.00  0.00     0.035 H 
ATOM     20  H   LIG d   1       3.937   1.073 -12.277  0.00  0.00     0.035 H 
BRANCH  18  21
ATOM     21  C   LIG d   1       3.688  -0.925 -11.512  0.00  0.00     0.125 A 
ATOM     22  C   LIG d   1       2.889  -1.295 -12.776  0.00  0.00     0.055 A 
ATOM     23  N   LIG d   1       1.774  -2.104 -12.262  0.00  0.00    -0.267 N 
ATOM     24  H   LIG d   1       2.515  -0.397 -13.268  0.00  0.00     0.050 H 
ATOM     25  H   LIG d   1       3.504  -1.878 -13.461  0.00  0.00     0.050 H 
ATOM     26  C   LIG d   1       1.887  -2.201 -10.930  0.00  0.00     0.403 A 
ATOM     27  O   LIG d   1       2.948  -1.559 -10.429  0.00  0.00    -0.445 OA
ATOM     28  O   LIG d   1       1.097  -2.815 -10.240  0.00  0.00    -0.226 OA
ATOM     29  H   LIG d   1       4.701  -1.325 -11.569  0.00  0.00     0.075 H 
BRANCH  23  30
ATOM     30  C   LIG d   1       0.712  -2.705 -13.072  0.00  0.00     0.006 C 
ATOM     31  H   LIG d   1       0.920  -2.532 -14.129  0.00  0.00     0.043 H 
ATOM     32  H   LIG d   1       0.672  -3.778 -12.882  0.00  0.00     0.043 H 
ATOM     33  H   LIG d   1      -0.244  -2.253 -12.811  0.00  0.00     0.043 H 
ENDBRANCH  23  30
ENDBRANCH  18  21
ENDBRANCH  15  18
ENDBRANCH  13  15
BRANCH   3  34
ATOM     34  C   LIG d   1       3.960  -0.859  -4.991  0.00  0.00    -0.022 A 
ATOM     35  C   LIG d   1       3.037  -0.251  -4.140  0.00  0.00    -0.054 A 
ATOM     36  C   LIG d   1       2.834  -0.757  -2.873  0.00  0.00    -0.061 A 
ATOM     37  H   LIG d   1       2.483   0.615  -4.471  0.00  0.00     0.062 H 
ATOM     38  C   LIG d   1       3.543  -1.866  -2.446  0.00  0.00    -0.062 A 
ATOM     39  H   LIG d   1       2.121  -0.287  -2.212  0.00  0.00     0.062 H 
ATOM     40  C   LIG d   1       4.458  -2.474  -3.286  0.00  0.00    -0.061 A 
ATOM     41  H   LIG d   1       3.380  -2.258  -1.453  0.00  0.00     0.062 H 
ATOM     42  C   LIG d   1       4.667  -1.980  -4.557  0.00  0.00    -0.054 A 
ATOM     43  H   LIG d   1       5.009  -3.340  -2.946  0.00  0.00     0.062 H 
ATOM     44  H   LIG d   1       5.379  -2.459  -5.213  0.00  0.00     0.062 H 
ENDBRANCH   3  34
TORSDOF 5
ENDMDL
MODEL 7
REMARK VINA RESULT:      -6.0      6.479      8.027
REMARK  5 active torsions:
REMARK  status: ('A' for Active; 'I' for Inactive)
REMARK    1  A    between atoms: C_1  and  N_2 
REMARK    2  A    between atoms: C_4  and  C_9 
REMARK    3  A    between atoms: C_9  and  C_10 
REMARK    4  A    between atoms: C_10  and  N_43 
REMARK    5  A    between atoms: C_13  and  C_16 
ROOT
ATOM      1  C   LIG d   1       7.505  -4.393  -4.779  0.00  0.00    -0.028 C 
ATOM      2  C   LIG d   1       7.348  -2.924  -4.380  0.00  0.00     0.013 C 
ATOM      3  C   LIG d   1       5.896  -2.616  -4.141  0.00  0.00    -0.034 C 
ATOM      4  C   LIG d   1       4.927  -3.396  -4.564  0.00  0.00    -0.035 C 
ATOM      5  C   LIG d   1       5.170  -4.670  -5.320  0.00  0.00    -0.012 C 
ATOM      6  H   LIG d   1       7.306  -5.030  -3.918  0.00  0.00     0.082 H 
ATOM      7  H   LIG d   1       8.518  -4.569  -5.141  0.00  0.00     0.082 H 
ATOM      8  H   LIG d   1       7.914  -2.733  -3.468  0.00  0.00     0.036 H 
ATOM      9  H   LIG d   1       7.727  -2.288  -5.181  0.00  0.00     0.036 H 
ATOM     10  H   LIG d   1       3.906  -3.106  -4.360  0.00  0.00     0.063 H 
ATOM     11  H   LIG d   1       4.462  -4.741  -6.146  0.00  0.00     0.086 H 
ATOM     12  H   LIG d   1       5.028  -5.519  -4.652  0.00  0.00     0.086 H 
ATOM     13  N   LIG d   1       6.541  -4.673  -5.863  0.00  0.00     0.238 N 
ATOM     14  H   LIG d   1       6.620  -3.941  -6.578  0.00  0.00     0.204 HD
ENDROOT
BRANCH  13  15
ATOM     15  C   LIG d   1       6.839  -5.985  -6.482  0.00  0.00    -0.028 C 
ATOM     16  H   LIG d   1       5.992  -6.290  -7.097  0.00  0.00     0.082 H 
ATOM     17  H   LIG d   1       7.732  -5.917  -7.101  0.00  0.00     0.082 H 
BRANCH  15  18
ATOM     18  C   LIG d   1       7.063  -7.017  -5.375  0.00  0.00     0.026 C 
ATOM     19  H   LIG d   1       8.131  -7.199  -5.258  0.00  0.00     0.035 H 
ATOM     20  H   LIG d   1       6.654  -6.640  -4.437  0.00  0.00     0.035 H 
BRANCH  18  21
ATOM     21  C   LIG d   1       6.360  -8.324  -5.747  0.00  0.00     0.125 A 
ATOM     22  C   LIG d   1       4.931  -8.354  -5.171  0.00  0.00     0.055 A 
ATOM     23  N   LIG d   1       4.942  -9.511  -4.264  0.00  0.00    -0.267 N 
ATOM     24  H   LIG d   1       4.722  -7.437  -4.619  0.00  0.00     0.050 H 
ATOM     25  H   LIG d   1       4.201  -8.496  -5.967  0.00  0.00     0.050 H 
ATOM     26  C   LIG d   1       6.159 -10.073  -4.293  0.00  0.00     0.403 A 
ATOM     27  O   LIG d   1       7.020  -9.457  -5.111  0.00  0.00    -0.445 OA
ATOM     28  O   LIG d   1       6.453 -11.052  -3.635  0.00  0.00    -0.226 OA
ATOM     29  H   LIG d   1       6.339  -8.451  -6.829  0.00  0.00     0.075 H 
BRANCH  23  30
ATOM     30  C   LIG d   1       3.809  -9.974  -3.459  0.00  0.00     0.006 C 
ATOM     31  H   LIG d   1       4.180 -10.476  -2.565  0.00  0.00     0.043 H 
ATOM     32  H   LIG d   1       3.197  -9.121  -3.168  0.00  0.00     0.043 H 
ATOM     33  H   LIG d   1       3.209 -10.670  -4.044  0.00  0.00     0.043 H 
ENDBRANCH  23  30
ENDBRANCH  18  21
ENDBRANCH  15  18
ENDBRANCH  13  15
BRANCH   3  34
ATOM     34  C   LIG d   1       5.545  -1.387  -3.399  0.00  0.00    -0.022 A 
ATOM     35  C   LIG d   1       6.157  -0.175  -3.722  0.00  0.00    -0.054 A 
ATOM     36  C   LIG d   1       5.826   0.969  -3.025  0.00  0.00    -0.061 A 
ATOM     37  H   LIG d   1       6.889  -0.133  -4.515  0.00  0.00     0.062 H 
ATOM     38  C   LIG d   1       4.889   0.916  -2.009  0.00  0.00    -0.062 A 
ATOM     39  H   LIG d   1       6.299   1.907  -3.274  0.00  0.00     0.062 H 
ATOM     40  C   LIG d   1       4.277  -0.281  -1.685  0.00  0.00    -0.061 A 
ATOM     41  H   LIG d   1       4.633   1.815  -1.467  0.00  0.00     0.062 H 
ATOM     42  C   LIG d   1       4.597  -1.432  -2.377  0.00  0.00    -0.054 A 
ATOM     43  H   LIG d   1       3.546  -0.316  -0.890  0.00  0.00     0.062 H 
ATOM     44  H   LIG d   1       4.116  -2.366  -2.125  0.00  0.00     0.062 H 
ENDBRANCH   3  34
TORSDOF 5
ENDMDL
MODEL 8
REMARK VINA RESULT:      -6.0      5.560      8.122
REMARK  5 active torsions:
REMARK  status: ('A' for Active; 'I' for Inactive)
REMARK    1  A    between atoms: C_1  and  N_2 
REMARK    2  A    between atoms: C_4  and  C_9 
REMARK    3  A    between atoms: C_9  and  C_10 
REMARK    4  A    between atoms: C_10  and  N_43 
REMARK    5  A    between atoms: C_13  and  C_16 
ROOT
ATOM      1  C   LIG d   1       0.552  -2.477 -12.322  0.00  0.00    -0.028 C 
ATOM      2  C   LIG d   1       0.886  -1.095 -11.757  0.00  0.00     0.013 C 
ATOM      3  C   LIG d   1       1.798  -1.239 -10.570  0.00  0.00    -0.034 C 
ATOM      4  C   LIG d   1       1.962  -2.378  -9.936  0.00  0.00    -0.035 C 
ATOM      5  C   LIG d   1       1.264  -3.647 -10.336  0.00  0.00    -0.012 C 
ATOM      6  H   LIG d   1       1.435  -2.901 -12.800  0.00  0.00     0.082 H 
ATOM      7  H   LIG d   1      -0.255  -2.391 -13.050  0.00  0.00     0.082 H 
ATOM      8  H   LIG d   1       1.382  -0.499 -12.524  0.00  0.00     0.036 H 
ATOM      9  H   LIG d   1      -0.034  -0.597 -11.450  0.00  0.00     0.036 H 
ATOM     10  H   LIG d   1       2.628  -2.403  -9.087  0.00  0.00     0.063 H 
ATOM     11  H   LIG d   1       0.906  -4.159  -9.442  0.00  0.00     0.086 H 
ATOM     12  H   LIG d   1       1.965  -4.293 -10.863  0.00  0.00     0.086 H 
ATOM     13  N   LIG d   1       0.111  -3.330 -11.199  0.00  0.00     0.238 N 
ATOM     14  H   LIG d   1      -0.591  -2.823 -10.649  0.00  0.00     0.204 HD
ENDROOT
BRANCH  13  15
ATOM     15  C   LIG d   1      -0.492  -4.580 -11.717  0.00  0.00    -0.028 C 
ATOM     16  H   LIG d   1       0.250  -5.115 -12.309  0.00  0.00     0.082 H 
ATOM     17  H   LIG d   1      -0.821  -5.210 -10.892  0.00  0.00     0.082 H 
BRANCH  15  18
ATOM     18  C   LIG d   1      -1.690  -4.225 -12.599  0.00  0.00     0.026 C 
ATOM     19  H   LIG d   1      -1.894  -3.158 -12.523  0.00  0.00     0.035 H 
ATOM     20  H   LIG d   1      -1.468  -4.480 -13.635  0.00  0.00     0.035 H 
BRANCH  18  21
ATOM     21  C   LIG d   1      -2.916  -5.013 -12.134  0.00  0.00     0.125 A 
ATOM     22  C   LIG d   1      -4.089  -4.060 -11.831  0.00  0.00     0.055 A 
ATOM     23  N   LIG d   1      -4.359  -4.279 -10.402  0.00  0.00    -0.267 N 
ATOM     24  H   LIG d   1      -3.797  -3.025 -12.011  0.00  0.00     0.050 H 
ATOM     25  H   LIG d   1      -4.960  -4.321 -12.432  0.00  0.00     0.050 H 
ATOM     26  C   LIG d   1      -3.503  -5.198  -9.935  0.00  0.00     0.403 A 
ATOM     27  O   LIG d   1      -2.652  -5.663 -10.857  0.00  0.00    -0.445 OA
ATOM     28  O   LIG d   1      -3.499  -5.574  -8.779  0.00  0.00    -0.226 OA
ATOM     29  H   LIG d   1      -3.205  -5.748 -12.886  0.00  0.00     0.075 H 
BRANCH  23  30
ATOM     30  C   LIG d   1      -5.394  -3.602  -9.617  0.00  0.00     0.006 C 
ATOM     31  H   LIG d   1      -4.924  -2.928  -8.901  0.00  0.00     0.043 H 
ATOM     32  H   LIG d   1      -6.041  -3.030 -10.283  0.00  0.00     0.043 H 
ATOM     33  H   LIG d   1      -5.987  -4.344  -9.083  0.00  0.00     0.043 H 
ENDBRANCH  23  30
ENDBRANCH  18  21
ENDBRANCH  15  18
ENDBRANCH  13  15
BRANCH   3  34
ATOM     34  C   LIG d   1       2.539  -0.051 -10.097  0.00  0.00    -0.022 A 
ATOM     35  C   LIG d   1       2.299   0.463  -8.823  0.00  0.00    -0.054 A 
ATOM     36  C   LIG d   1       2.995   1.573  -8.388  0.00  0.00    -0.061 A 
ATOM     37  H   LIG d   1       1.571  -0.005  -8.178  0.00  0.00     0.062 H 
ATOM     38  C   LIG d   1       3.928   2.175  -9.212  0.00  0.00    -0.062 A 
ATOM     39  H   LIG d   1       2.810   1.972  -7.402  0.00  0.00     0.062 H 
ATOM     40  C   LIG d   1       4.171   1.670 -10.477  0.00  0.00    -0.061 A 
ATOM     41  H   LIG d   1       4.470   3.044  -8.867  0.00  0.00     0.062 H 
ATOM     42  C   LIG d   1       3.486   0.558 -10.922  0.00  0.00    -0.054 A 
ATOM     43  H   LIG d   1       4.901   2.145 -11.116  0.00  0.00     0.062 H 
ATOM     44  H   LIG d   1       3.680   0.162 -11.908  0.00  0.00     0.062 H 
ENDBRANCH   3  34
TORSDOF 5
ENDMDL
MODEL 9
REMARK VINA RESULT:      -5.8      4.857      6.114
REMARK  5 active torsions:
REMARK  status: ('A' for Active; 'I' for Inactive)
REMARK    1  A    between atoms: C_1  and  N_2 
REMARK    2  A    between atoms: C_4  and  C_9 
REMARK    3  A    between atoms: C_9  and  C_10 
REMARK    4  A    between atoms: C_10  and  N_43 
REMARK    5  A    between atoms: C_13  and  C_16 
ROOT
ATOM      1  C   LIG d   1       8.828   0.917  -6.168  0.00  0.00    -0.028 C 
ATOM      2  C   LIG d   1       8.007   0.021  -5.238  0.00  0.00     0.013 C 
ATOM      3  C   LIG d   1       7.413   0.847  -4.131  0.00  0.00    -0.034 C 
ATOM      4  C   LIG d   1       7.843   2.053  -3.837  0.00  0.00    -0.035 C 
ATOM      5  C   LIG d   1       8.962   2.728  -4.579  0.00  0.00    -0.012 C 
ATOM      6  H   LIG d   1       8.161   1.563  -6.738  0.00  0.00     0.082 H 
ATOM      7  H   LIG d   1       9.414   0.300  -6.849  0.00  0.00     0.082 H 
ATOM      8  H   LIG d   1       7.206  -0.454  -5.806  0.00  0.00     0.036 H 
ATOM      9  H   LIG d   1       8.652  -0.747  -4.811  0.00  0.00     0.036 H 
ATOM     10  H   LIG d   1       7.372   2.584  -3.023  0.00  0.00     0.063 H 
ATOM     11  H   LIG d   1       9.620   3.224  -3.865  0.00  0.00     0.086 H 
ATOM     12  H   LIG d   1       8.547   3.470  -5.260  0.00  0.00     0.086 H 
ATOM     13  N   LIG d   1       9.738   1.724  -5.329  0.00  0.00     0.238 N 
ATOM     14  H   LIG d   1      10.218   1.106  -4.665  0.00  0.00     0.204 HD
ENDROOT
BRANCH  13  15
ATOM     15  C   LIG d   1      10.749   2.397  -6.178  0.00  0.00    -0.028 C 
ATOM     16  H   LIG d   1      11.724   2.323  -5.698  0.00  0.00     0.082 H 
ATOM     17  H   LIG d   1      10.791   1.926  -7.160  0.00  0.00     0.082 H 
BRANCH  15  18
ATOM     18  C   LIG d   1      10.366   3.869  -6.333  0.00  0.00     0.026 C 
ATOM     19  H   LIG d   1       9.308   3.996  -6.107  0.00  0.00     0.035 H 
ATOM     20  H   LIG d   1      10.960   4.474  -5.647  0.00  0.00     0.035 H 
BRANCH  18  21
ATOM     21  C   LIG d   1      10.637   4.318  -7.771  0.00  0.00     0.125 A 
ATOM     22  C   LIG d   1      10.833   5.845  -7.834  0.00  0.00     0.055 A 
ATOM     23  N   LIG d   1       9.743   6.302  -8.709  0.00  0.00    -0.267 N 
ATOM     24  H   LIG d   1      10.736   6.284  -6.841  0.00  0.00     0.050 H 
ATOM     25  H   LIG d   1      11.802   6.089  -8.267  0.00  0.00     0.050 H 
ATOM     26  C   LIG d   1       9.026   5.240  -9.100  0.00  0.00     0.403 A 
ATOM     27  O   LIG d   1       9.470   4.077  -8.609  0.00  0.00    -0.445 OA
ATOM     28  O   LIG d   1       8.059   5.326  -9.831  0.00  0.00    -0.226 OA
ATOM     29  H   LIG d   1      11.510   3.803  -8.173  0.00  0.00     0.075 H 
BRANCH  23  30
ATOM     30  C   LIG d   1       9.484   7.693  -9.091  0.00  0.00     0.006 C 
ATOM     31  H   LIG d   1      10.349   8.091  -9.621  0.00  0.00     0.043 H 
ATOM     32  H   LIG d   1       8.610   7.735  -9.741  0.00  0.00     0.043 H 
ATOM     33  H   LIG d   1       9.300   8.286  -8.197  0.00  0.00     0.043 H 
ENDBRANCH  23  30
ENDBRANCH  18  21
ENDBRANCH  15  18
ENDBRANCH  13  15
BRANCH   3  34
ATOM     34  C   LIG d   1       6.300   0.278  -3.342  0.00  0.00    -0.022 A 
ATOM     35  C   LIG d   1       6.107  -1.102  -3.296  0.00  0.00    -0.054 A 
ATOM     36  C   LIG d   1       5.066  -1.627  -2.558  0.00  0.00    -0.061 A 
ATOM     37  H   LIG d   1       6.771  -1.760  -3.838  0.00  0.00     0.062 H 
ATOM     38  C   LIG d   1       4.215  -0.786  -1.863  0.00  0.00    -0.062 A 
ATOM     39  H   LIG d   1       4.916  -2.695  -2.522  0.00  0.00     0.062 H 
ATOM     40  C   LIG d   1       4.401   0.584  -1.903  0.00  0.00    -0.061 A 
ATOM     41  H   LIG d   1       3.401  -1.202  -1.287  0.00  0.00     0.062 H 
ATOM     42  C   LIG d   1       5.442   1.120  -2.635  0.00  0.00    -0.054 A 
ATOM     43  H   LIG d   1       3.733   1.235  -1.359  0.00  0.00     0.062 H 
ATOM     44  H   LIG d   1       5.588   2.190  -2.662  0.00  0.00     0.062 H 
ENDBRANCH   3  34
TORSDOF 5
ENDMDL
MODEL 10
REMARK VINA RESULT:      -5.7      4.442      5.725
REMARK  5 active torsions:
REMARK  status: ('A' for Active; 'I' for Inactive)
REMARK    1  A    between atoms: C_1  and  N_2 
REMARK    2  A    between atoms: C_4  and  C_9 
REMARK    3  A    between atoms: C_9  and  C_10 
REMARK    4  A    between atoms: C_10  and  N_43 
REMARK    5  A    between atoms: C_13  and  C_16 
ROOT
ATOM      1  C   LIG d   1       8.623   1.578  -4.976  0.00  0.00    -0.028 C 
ATOM      2  C   LIG d   1       7.464   1.253  -4.031  0.00  0.00     0.013 C 
ATOM      3  C   LIG d   1       6.607   0.172  -4.631  0.00  0.00    -0.034 C 
ATOM      4  C   LIG d   1       6.664  -0.154  -5.902  0.00  0.00    -0.035 C 
ATOM      5  C   LIG d   1       7.590   0.513  -6.879  0.00  0.00    -0.012 C 
ATOM      6  H   LIG d   1       9.329   0.748  -4.988  0.00  0.00     0.082 H 
ATOM      7  H   LIG d   1       9.126   2.485  -4.642  0.00  0.00     0.082 H 
ATOM      8  H   LIG d   1       7.860   0.913  -3.074  0.00  0.00     0.036 H 
ATOM      9  H   LIG d   1       6.861   2.149  -3.876  0.00  0.00     0.036 H 
ATOM     10  H   LIG d   1       6.013  -0.937  -6.262  0.00  0.00     0.063 H 
ATOM     11  H   LIG d   1       7.056   0.704  -7.810  0.00  0.00     0.086 H 
ATOM     12  H   LIG d   1       8.436  -0.144  -7.079  0.00  0.00     0.086 H 
ATOM     13  N   LIG d   1       8.059   1.796  -6.324  0.00  0.00     0.238 N 
ATOM     14  H   LIG d   1       7.265   2.442  -6.254  0.00  0.00     0.204 HD
ENDROOT
BRANCH  13  15
ATOM     15  C   LIG d   1       9.085   2.387  -7.214  0.00  0.00    -0.028 C 
ATOM     16  H   LIG d   1       9.932   1.704  -7.286  0.00  0.00     0.082 H 
ATOM     17  H   LIG d   1       8.671   2.557  -8.207  0.00  0.00     0.082 H 
BRANCH  15  18
ATOM     18  C   LIG d   1       9.551   3.717  -6.620  0.00  0.00     0.026 C 
ATOM     19  H   LIG d   1       8.697   4.247  -6.200  0.00  0.00     0.035 H 
ATOM     20  H   LIG d   1      10.284   3.530  -5.835  0.00  0.00     0.035 H 
BRANCH  18  21
ATOM     21  C   LIG d   1      10.189   4.570  -7.718  0.00  0.00     0.125 A 
ATOM     22  C   LIG d   1      10.124   6.065  -7.350  0.00  0.00     0.055 A 
ATOM     23  N   LIG d   1       9.315   6.657  -8.425  0.00  0.00    -0.267 N 
ATOM     24  H   LIG d   1       9.636   6.200  -6.384  0.00  0.00     0.050 H 
ATOM     25  H   LIG d   1      11.124   6.500  -7.336  0.00  0.00     0.050 H 
ATOM     26  C   LIG d   1       8.960   5.690  -9.282  0.00  0.00     0.403 A 
ATOM     27  O   LIG d   1       9.418   4.478  -8.951  0.00  0.00    -0.445 OA
ATOM     28  O   LIG d   1       8.283   5.896 -10.271  0.00  0.00    -0.226 OA
ATOM     29  H   LIG d   1      11.222   4.263  -7.888  0.00  0.00     0.075 H 
BRANCH  23  30
ATOM     30  C   LIG d   1       8.954   8.072  -8.539  0.00  0.00     0.006 C 
ATOM     31  H   LIG d   1       8.632   8.444  -7.566  0.00  0.00     0.043 H 
ATOM     32  H   LIG d   1       9.819   8.642  -8.878  0.00  0.00     0.043 H 
ATOM     33  H   LIG d   1       8.142   8.182  -9.257  0.00  0.00     0.043 H 
ENDBRANCH  23  30
ENDBRANCH  18  21
ENDBRANCH  15  18
ENDBRANCH  13  15
BRANCH   3  34
ATOM     34  C   LIG d   1       5.664  -0.553  -3.753  0.00  0.00    -0.022 A 
ATOM     35  C   LIG d   1       5.230   0.027  -2.561  0.00  0.00    -0.054 A 
ATOM     36  C   LIG d   1       4.349  -0.655  -1.746  0.00  0.00    -0.061 A 
ATOM     37  H   LIG d   1       5.581   1.007  -2.276  0.00  0.00     0.062 H 
ATOM     38  C   LIG d   1       3.898  -1.912  -2.109  0.00  0.00    -0.062 A 
ATOM     39  H   LIG d   1       4.013  -0.208  -0.823  0.00  0.00     0.062 H 
ATOM     40  C   LIG d   1       4.324  -2.492  -3.291  0.00  0.00    -0.061 A 
ATOM     41  H   LIG d   1       3.209  -2.441  -1.468  0.00  0.00     0.062 H 
ATOM     42  C   LIG d   1       5.201  -1.817  -4.116  0.00  0.00    -0.054 A 
ATOM     43  H   LIG d   1       3.969  -3.473  -3.569  0.00  0.00     0.062 H 
ATOM     44  H   LIG d   1       5.530  -2.270  -5.041  0.00  0.00     0.062 H 
ENDBRANCH   3  34
TORSDOF 5
ENDMDL
