MODEL 1
REMARK VINA RESULT:      -7.3      0.000      0.000
REMARK  8 active torsions:
REMARK  status: ('A' for Active; 'I' for Inactive)
REMARK    1  A    between atoms: C_1  and  C_2 
REMARK    2  A    between atoms: C_17  and  C_20 
REMARK    3  A    between atoms: C_20  and  C_21 
REMARK    4  A    between atoms: C_21  and  S_22 
REMARK    5  A    between atoms: S_22  and  C_23 
REMARK    6  A    between atoms: N_26  and  C_29 
REMARK    7  A    between atoms: C_29  and  C_30 
REMARK    8  A    between atoms: C_30  and  C_31 
ROOT
ATOM      1  C   LIG d   1       4.288  -0.181 -11.364  0.00  0.00    -0.049 A 
ATOM      2  C   LIG d   1       4.541  -1.172 -10.433  0.00  0.00    -0.048 A 
ATOM      3  C   LIG d   1       4.388  -0.913  -9.089  0.00  0.00     0.036 A 
ATOM      4  C   LIG d   1       3.982   0.345  -8.652  0.00  0.00     0.061 A 
ATOM      5  C   LIG d   1       3.730   1.339  -9.596  0.00  0.00     0.063 A 
ATOM      6  C   LIG d   1       3.889   1.074 -10.942  0.00  0.00    -0.039 A 
ATOM      7 CL   LIG d   1       3.220   2.915  -9.078  0.00  0.00    -0.082 Cl
ATOM      8  N   LIG d   1       3.901   0.369  -7.258  0.00  0.00    -0.279 N 
ATOM      9  C   LIG d   1       4.235  -0.816  -6.709  0.00  0.00     0.274 A 
ATOM     10  O   LIG d   1       4.259  -1.086  -5.527  0.00  0.00    -0.269 OA
ATOM     11  C   LIG d   1       4.573  -1.739  -7.848  0.00  0.00     0.106 A 
ATOM     12  C   LIG d   1       6.006  -2.270  -7.734  0.00  0.00     0.111 A 
ATOM     13  H   LIG d   1       6.522  -2.293  -8.693  0.00  0.00     0.047 H 
ATOM     14  C   LIG d   1       5.851  -3.682  -7.102  0.00  0.00     0.096 A 
ATOM     15  H   LIG d   1       6.284  -4.472  -7.716  0.00  0.00     0.046 H 
ATOM     16  C   LIG d   1       4.331  -3.857  -6.892  0.00  0.00    -0.008 C 
ATOM     17  H   LIG d   1       4.054  -3.573  -5.877  0.00  0.00     0.086 H 
ATOM     18  N   LIG d   1       3.699  -2.927  -7.855  0.00  0.00     0.245 N 
ATOM     19  C   LIG d   1       6.539  -3.541  -5.762  0.00  0.00     0.231 A 
ATOM     20  O   LIG d   1       6.653  -4.423  -4.937  0.00  0.00    -0.275 OA
ATOM     21  N   LIG d   1       7.002  -2.294  -5.629  0.00  0.00    -0.241 N 
ATOM     22  C   LIG d   1       6.762  -1.485  -6.687  0.00  0.00     0.232 A 
ATOM     23  O   LIG d   1       7.093  -0.323  -6.786  0.00  0.00    -0.275 OA
ATOM     24  H   LIG d   1       4.857  -2.152 -10.760  0.00  0.00     0.063 H 
ATOM     25  H   LIG d   1       3.696   1.849 -11.668  0.00  0.00     0.064 H 
ATOM     26  H   LIG d   1       3.637   1.148  -6.744  0.00  0.00     0.155 HD
ATOM     27  H   LIG d   1       2.767  -2.681  -7.556  0.00  0.00     0.203 HD
ATOM     28  H   LIG d   1       3.678  -3.345  -8.773  0.00  0.00     0.203 HD
ENDROOT
BRANCH  16  29
ATOM     29  C   LIG d   1       3.918  -5.303  -7.172  0.00  0.00     0.000 C 
ATOM     30  H   LIG d   1       3.895  -5.863  -6.237  0.00  0.00     0.033 H 
ATOM     31  H   LIG d   1       2.927  -5.316  -7.627  0.00  0.00     0.033 H 
BRANCH  29  32
ATOM     32  C   LIG d   1       4.926  -5.946  -8.126  0.00  0.00    -0.002 C 
ATOM     33  H   LIG d   1       4.455  -6.109  -9.097  0.00  0.00     0.038 H 
ATOM     34  H   LIG d   1       5.784  -5.285  -8.247  0.00  0.00     0.038 H 
BRANCH  32  35
ATOM     35  S   LIG d   1       5.476  -7.534  -7.446  0.00  0.00    -0.164 SA
BRANCH  35  36
ATOM     36  C   LIG d   1       5.043  -7.432  -5.687  0.00  0.00    -0.018 C 
ATOM     37  H   LIG d   1       5.955  -7.402  -5.089  0.00  0.00     0.034 H 
ATOM     38  H   LIG d   1       4.461  -6.527  -5.508  0.00  0.00     0.034 H 
ATOM     39  H   LIG d   1       4.454  -8.304  -5.406  0.00  0.00     0.034 H 
ENDBRANCH  35  36
ENDBRANCH  32  35
ENDBRANCH  29  32
ENDBRANCH  16  29
BRANCH   1  40
ATOM     40  C   LIG d   1       4.454  -0.466 -12.834  0.00  0.00    -0.040 C 
ATOM     41  H   LIG d   1       4.696  -1.518 -12.976  0.00  0.00     0.028 H 
ATOM     42  H   LIG d   1       3.527  -0.231 -13.357  0.00  0.00     0.028 H 
ATOM     43  H   LIG d   1       5.262   0.149 -13.234  0.00  0.00     0.028 H 
ENDBRANCH   1  40
BRANCH  21  44
ATOM     44  C   LIG d   1       7.719  -1.838  -4.435  0.00  0.00     0.026 C 
ATOM     45  H   LIG d   1       8.693  -2.326  -4.389  0.00  0.00     0.047 H 
ATOM     46  H   LIG d   1       7.857  -0.758  -4.484  0.00  0.00     0.047 H 
BRANCH  44  47
ATOM     47  C   LIG d   1       6.910  -2.194  -3.188  0.00  0.00    -0.011 C 
ATOM     48  H   LIG d   1       6.321  -3.092  -3.380  0.00  0.00     0.033 H 
ATOM     49  H   LIG d   1       7.587  -2.377  -2.354  0.00  0.00     0.033 H 
BRANCH  47  50
ATOM     50  C   LIG d   1       5.987  -1.053  -2.846  0.00  0.00    -0.046 A 
ATOM     51  C   LIG d   1       6.363   0.248  -3.123  0.00  0.00    -0.059 A 
ATOM     52  C   LIG d   1       5.514   1.294  -2.813  0.00  0.00    -0.061 A 
ATOM     53  H   LIG d   1       7.319   0.446  -3.584  0.00  0.00     0.062 H 
ATOM     54  C   LIG d   1       4.293   1.040  -2.219  0.00  0.00    -0.062 A 
ATOM     55  H   LIG d   1       5.806   2.310  -3.034  0.00  0.00     0.062 H 
ATOM     56  C   LIG d   1       3.918  -0.260  -1.937  0.00  0.00    -0.061 A 
ATOM     57  H   LIG d   1       3.630   1.858  -1.974  0.00  0.00     0.062 H 
ATOM     58  C   LIG d   1       4.765  -1.307  -2.250  0.00  0.00    -0.059 A 
ATOM     59  H   LIG d   1       2.963  -0.458  -1.472  0.00  0.00     0.062 H 
ATOM     60  H   LIG d   1       4.473  -2.323  -2.030  0.00  0.00     0.062 H 
ENDBRANCH  47  50
ENDBRANCH  44  47
ENDBRANCH  21  44
TORSDOF 8
ENDMDL
MODEL 2
REMARK VINA RESULT:      -6.7      3.498      6.025
REMARK  8 active torsions:
REMARK  status: ('A' for Active; 'I' for Inactive)
REMARK    1  A    between atoms: C_1  and  C_2 
REMARK    2  A    between atoms: C_17  and  C_20 
REMARK    3  A    between atoms: C_20  and  C_21 
REMARK    4  A    between atoms: C_21  and  S_22 
REMARK    5  A    between atoms: S_22  and  C_23 
REMARK    6  A    between atoms: N_26  and  C_29 
REMARK    7  A    between atoms: C_29  and  C_30 
REMARK    8  A    between atoms: C_30  and  C_31 
ROOT
ATOM      1  C   LIG d   1       4.882  -7.330  -6.114  0.00  0.00    -0.049 A 
ATOM      2  C   LIG d   1       4.987  -6.171  -5.367  0.00  0.00    -0.048 A 
ATOM      3  C   LIG d   1       5.071  -4.948  -5.996  0.00  0.00     0.036 A 
ATOM      4  C   LIG d   1       5.055  -4.864  -7.385  0.00  0.00     0.061 A 
ATOM      5  C   LIG d   1       4.950  -6.037  -8.132  0.00  0.00     0.063 A 
ATOM      6  C   LIG d   1       4.870  -7.260  -7.496  0.00  0.00    -0.039 A 
ATOM      7 CL   LIG d   1       4.925  -5.960  -9.865  0.00  0.00    -0.082 Cl
ATOM      8  N   LIG d   1       5.155  -3.532  -7.790  0.00  0.00    -0.279 N 
ATOM      9  C   LIG d   1       5.240  -2.688  -6.742  0.00  0.00     0.274 A 
ATOM     10  O   LIG d   1       5.339  -1.480  -6.791  0.00  0.00    -0.269 OA
ATOM     11  C   LIG d   1       5.190  -3.536  -5.500  0.00  0.00     0.106 A 
ATOM     12  C   LIG d   1       6.444  -3.345  -4.639  0.00  0.00     0.111 A 
ATOM     13  H   LIG d   1       6.815  -4.283  -4.228  0.00  0.00     0.047 H 
ATOM     14  C   LIG d   1       6.014  -2.335  -3.539  0.00  0.00     0.096 A 
ATOM     15  H   LIG d   1       6.153  -2.722  -2.530  0.00  0.00     0.046 H 
ATOM     16  C   LIG d   1       4.537  -2.011  -3.855  0.00  0.00    -0.008 C 
ATOM     17  H   LIG d   1       4.468  -1.105  -4.456  0.00  0.00     0.086 H 
ATOM     18  N   LIG d   1       4.049  -3.166  -4.643  0.00  0.00     0.245 N 
ATOM     19  C   LIG d   1       6.873  -1.123  -3.824  0.00  0.00     0.231 A 
ATOM     20  O   LIG d   1       6.860  -0.090  -3.190  0.00  0.00    -0.275 OA
ATOM     21  N   LIG d   1       7.652  -1.369  -4.884  0.00  0.00    -0.241 N 
ATOM     22  C   LIG d   1       7.498  -2.599  -5.426  0.00  0.00     0.232 A 
ATOM     23  O   LIG d   1       8.098  -3.037  -6.383  0.00  0.00    -0.275 OA
ATOM     24  H   LIG d   1       5.001  -6.223  -4.288  0.00  0.00     0.063 H 
ATOM     25  H   LIG d   1       4.793  -8.165  -8.079  0.00  0.00     0.064 H 
ATOM     26  H   LIG d   1       5.162  -3.245  -8.717  0.00  0.00     0.155 HD
ATOM     27  H   LIG d   1       3.254  -2.904  -5.207  0.00  0.00     0.203 HD
ATOM     28  H   LIG d   1       3.810  -3.927  -4.025  0.00  0.00     0.203 HD
ENDROOT
BRANCH  16  29
ATOM     29  C   LIG d   1       3.739  -1.852  -2.559  0.00  0.00     0.000 C 
ATOM     30  H   LIG d   1       3.343  -2.821  -2.255  0.00  0.00     0.033 H 
ATOM     31  H   LIG d   1       4.391  -1.464  -1.777  0.00  0.00     0.033 H 
BRANCH  29  32
ATOM     32  C   LIG d   1       2.582  -0.878  -2.789  0.00  0.00    -0.002 C 
ATOM     33  H   LIG d   1       1.730  -1.416  -3.207  0.00  0.00     0.038 H 
ATOM     34  H   LIG d   1       2.296  -0.425  -1.841  0.00  0.00     0.038 H 
BRANCH  32  35
ATOM     35  S   LIG d   1       3.104   0.418  -3.945  0.00  0.00    -0.164 SA
BRANCH  35  36
ATOM     36  C   LIG d   1       3.814   1.700  -2.876  0.00  0.00    -0.018 C 
ATOM     37  H   LIG d   1       4.529   1.246  -2.188  0.00  0.00     0.034 H 
ATOM     38  H   LIG d   1       4.323   2.444  -3.489  0.00  0.00     0.034 H 
ATOM     39  H   LIG d   1       3.019   2.181  -2.307  0.00  0.00     0.034 H 
ENDBRANCH  35  36
ENDBRANCH  32  35
ENDBRANCH  29  32
ENDBRANCH  16  29
BRANCH   1  40
ATOM     40  C   LIG d   1       4.789  -8.667  -5.425  0.00  0.00    -0.040 C 
ATOM     41  H   LIG d   1       3.966  -8.652  -4.712  0.00  0.00     0.028 H 
ATOM     42  H   LIG d   1       4.615  -9.447  -6.167  0.00  0.00     0.028 H 
ATOM     43  H   LIG d   1       5.722  -8.869  -4.898  0.00  0.00     0.028 H 
ENDBRANCH   1  40
BRANCH  21  44
ATOM     44  C   LIG d   1       8.602  -0.388  -5.414  0.00  0.00     0.026 C 
ATOM     45  H   LIG d   1       9.120   0.099  -4.587  0.00  0.00     0.047 H 
ATOM     46  H   LIG d   1       9.329  -0.892  -6.050  0.00  0.00     0.047 H 
BRANCH  44  47
ATOM     47  C   LIG d   1       7.848   0.662  -6.232  0.00  0.00    -0.011 C 
ATOM     48  H   LIG d   1       7.863   0.382  -7.285  0.00  0.00     0.033 H 
ATOM     49  H   LIG d   1       6.816   0.719  -5.887  0.00  0.00     0.033 H 
BRANCH  47  50
ATOM     50  C   LIG d   1       8.512   2.004  -6.060  0.00  0.00    -0.046 A 
ATOM     51  C   LIG d   1       8.549   2.603  -4.815  0.00  0.00    -0.059 A 
ATOM     52  C   LIG d   1       9.162   3.832  -4.657  0.00  0.00    -0.061 A 
ATOM     53  H   LIG d   1       8.101   2.109  -3.965  0.00  0.00     0.062 H 
ATOM     54  C   LIG d   1       9.731   4.465  -5.746  0.00  0.00    -0.062 A 
ATOM     55  H   LIG d   1       9.194   4.298  -3.684  0.00  0.00     0.062 H 
ATOM     56  C   LIG d   1       9.690   3.869  -6.992  0.00  0.00    -0.061 A 
ATOM     57  H   LIG d   1      10.207   5.427  -5.623  0.00  0.00     0.062 H 
ATOM     58  C   LIG d   1       9.080   2.638  -7.149  0.00  0.00    -0.059 A 
ATOM     59  H   LIG d   1      10.134   4.364  -7.843  0.00  0.00     0.062 H 
ATOM     60  H   LIG d   1       9.048   2.171  -8.123  0.00  0.00     0.062 H 
ENDBRANCH  47  50
ENDBRANCH  44  47
ENDBRANCH  21  44
TORSDOF 8
ENDMDL
MODEL 3
REMARK VINA RESULT:      -6.7      3.442      5.777
REMARK  8 active torsions:
REMARK  status: ('A' for Active; 'I' for Inactive)
REMARK    1  A    between atoms: C_1  and  C_2 
REMARK    2  A    between atoms: C_17  and  C_20 
REMARK    3  A    between atoms: C_20  and  C_21 
REMARK    4  A    between atoms: C_21  and  S_22 
REMARK    5  A    between atoms: S_22  and  C_23 
REMARK    6  A    between atoms: N_26  and  C_29 
REMARK    7  A    between atoms: C_29  and  C_30 
REMARK    8  A    between atoms: C_30  and  C_31 
ROOT
ATOM      1  C   LIG d   1       2.610  -7.801  -9.886  0.00  0.00    -0.049 A 
ATOM      2  C   LIG d   1       3.010  -6.509  -9.591  0.00  0.00    -0.048 A 
ATOM      3  C   LIG d   1       4.141  -6.292  -8.837  0.00  0.00     0.036 A 
ATOM      4  C   LIG d   1       4.893  -7.363  -8.363  0.00  0.00     0.061 A 
ATOM      5  C   LIG d   1       4.484  -8.661  -8.664  0.00  0.00     0.063 A 
ATOM      6  C   LIG d   1       3.346  -8.873  -9.416  0.00  0.00    -0.039 A 
ATOM      7 CL   LIG d   1       5.404 -10.014  -8.086  0.00  0.00    -0.082 Cl
ATOM      8  N   LIG d   1       5.985  -6.898  -7.627  0.00  0.00    -0.279 N 
ATOM      9  C   LIG d   1       6.023  -5.552  -7.569  0.00  0.00     0.274 A 
ATOM     10  O   LIG d   1       6.851  -4.874  -6.999  0.00  0.00    -0.269 OA
ATOM     11  C   LIG d   1       4.836  -5.053  -8.349  0.00  0.00     0.106 A 
ATOM     12  C   LIG d   1       3.912  -4.195  -7.478  0.00  0.00     0.111 A 
ATOM     13  H   LIG d   1       2.858  -4.402  -7.657  0.00  0.00     0.047 H 
ATOM     14  C   LIG d   1       4.303  -2.730  -7.817  0.00  0.00     0.096 A 
ATOM     15  H   LIG d   1       3.462  -2.139  -8.178  0.00  0.00     0.046 H 
ATOM     16  C   LIG d   1       5.436  -2.854  -8.859  0.00  0.00    -0.008 C 
ATOM     17  H   LIG d   1       6.408  -2.806  -8.370  0.00  0.00     0.086 H 
ATOM     18  N   LIG d   1       5.255  -4.190  -9.469  0.00  0.00     0.245 N 
ATOM     19  C   LIG d   1       4.865  -2.209  -6.513  0.00  0.00     0.231 A 
ATOM     20  O   LIG d   1       5.291  -1.088  -6.331  0.00  0.00    -0.275 OA
ATOM     21  N   LIG d   1       4.818  -3.176  -5.591  0.00  0.00    -0.241 N 
ATOM     22  C   LIG d   1       4.293  -4.346  -6.022  0.00  0.00     0.232 A 
ATOM     23  O   LIG d   1       4.151  -5.351  -5.361  0.00  0.00    -0.275 OA
ATOM     24  H   LIG d   1       2.434  -5.670  -9.954  0.00  0.00     0.063 H 
ATOM     25  H   LIG d   1       3.032  -9.881  -9.643  0.00  0.00     0.064 H 
ATOM     26  H   LIG d   1       6.640  -7.476  -7.205  0.00  0.00     0.155 HD
ATOM     27  H   LIG d   1       6.120  -4.523  -9.867  0.00  0.00     0.203 HD
ATOM     28  H   LIG d   1       4.533  -4.151 -10.173  0.00  0.00     0.203 HD
ENDROOT
BRANCH  16  29
ATOM     29  C   LIG d   1       5.315  -1.748  -9.911  0.00  0.00     0.000 C 
ATOM     30  H   LIG d   1       6.024  -0.952  -9.685  0.00  0.00     0.033 H 
ATOM     31  H   LIG d   1       5.532  -2.160 -10.896  0.00  0.00     0.033 H 
BRANCH  29  32
ATOM     32  C   LIG d   1       3.893  -1.183  -9.896  0.00  0.00    -0.002 C 
ATOM     33  H   LIG d   1       3.335  -1.582 -10.744  0.00  0.00     0.038 H 
ATOM     34  H   LIG d   1       3.399  -1.470  -8.968  0.00  0.00     0.038 H 
BRANCH  32  35
ATOM     35  S   LIG d   1       3.960   0.625 -10.012  0.00  0.00    -0.164 SA
BRANCH  35  36
ATOM     36  C   LIG d   1       3.054   1.192  -8.546  0.00  0.00    -0.018 C 
ATOM     37  H   LIG d   1       3.668   1.041  -7.658  0.00  0.00     0.034 H 
ATOM     38  H   LIG d   1       2.820   2.252  -8.650  0.00  0.00     0.034 H 
ATOM     39  H   LIG d   1       2.129   0.625  -8.448  0.00  0.00     0.034 H 
ENDBRANCH  35  36
ENDBRANCH  32  35
ENDBRANCH  29  32
ENDBRANCH  16  29
BRANCH   1  40
ATOM     40  C   LIG d   1       1.372  -8.038 -10.712  0.00  0.00    -0.040 C 
ATOM     41  H   LIG d   1       1.441  -7.474 -11.641  0.00  0.00     0.028 H 
ATOM     42  H   LIG d   1       1.283  -9.101 -10.937  0.00  0.00     0.028 H 
ATOM     43  H   LIG d   1       0.495  -7.711 -10.153  0.00  0.00     0.028 H 
ENDBRANCH   1  40
BRANCH  21  44
ATOM     44  C   LIG d   1       5.292  -2.985  -4.217  0.00  0.00     0.026 C 
ATOM     45  H   LIG d   1       5.842  -3.870  -3.896  0.00  0.00     0.047 H 
ATOM     46  H   LIG d   1       5.949  -2.116  -4.177  0.00  0.00     0.047 H 
BRANCH  44  47
ATOM     47  C   LIG d   1       4.095  -2.765  -3.291  0.00  0.00    -0.011 C 
ATOM     48  H   LIG d   1       3.186  -3.109  -3.784  0.00  0.00     0.033 H 
ATOM     49  H   LIG d   1       4.242  -3.324  -2.367  0.00  0.00     0.033 H 
BRANCH  47  50
ATOM     50  C   LIG d   1       3.969  -1.296  -2.976  0.00  0.00    -0.046 A 
ATOM     51  C   LIG d   1       3.138  -0.494  -3.736  0.00  0.00    -0.059 A 
ATOM     52  C   LIG d   1       3.019   0.852  -3.444  0.00  0.00    -0.061 A 
ATOM     53  H   LIG d   1       2.580  -0.921  -4.556  0.00  0.00     0.062 H 
ATOM     54  C   LIG d   1       3.738   1.397  -2.397  0.00  0.00    -0.062 A 
ATOM     55  H   LIG d   1       2.367   1.477  -4.035  0.00  0.00     0.062 H 
ATOM     56  C   LIG d   1       4.572   0.597  -1.639  0.00  0.00    -0.061 A 
ATOM     57  H   LIG d   1       3.647   2.450  -2.170  0.00  0.00     0.062 H 
ATOM     58  C   LIG d   1       4.688  -0.749  -1.929  0.00  0.00    -0.059 A 
ATOM     59  H   LIG d   1       5.134   1.024  -0.822  0.00  0.00     0.062 H 
ATOM     60  H   LIG d   1       5.341  -1.375  -1.337  0.00  0.00     0.062 H 
ENDBRANCH  47  50
ENDBRANCH  44  47
ENDBRANCH  21  44
TORSDOF 8
ENDMDL
MODEL 4
REMARK VINA RESULT:      -6.5      1.528      1.984
REMARK  8 active torsions:
REMARK  status: ('A' for Active; 'I' for Inactive)
REMARK    1  A    between atoms: C_1  and  C_2 
REMARK    2  A    between atoms: C_17  and  C_20 
REMARK    3  A    between atoms: C_20  and  C_21 
REMARK    4  A    between atoms: C_21  and  S_22 
REMARK    5  A    between atoms: S_22  and  C_23 
REMARK    6  A    between atoms: N_26  and  C_29 
REMARK    7  A    between atoms: C_29  and  C_30 
REMARK    8  A    between atoms: C_30  and  C_31 
ROOT
ATOM      1  C   LIG d   1       5.058  -1.089 -11.465  0.00  0.00    -0.049 A 
ATOM      2  C   LIG d   1       5.758  -1.859 -10.554  0.00  0.00    -0.048 A 
ATOM      3  C   LIG d   1       5.229  -2.105  -9.307  0.00  0.00     0.036 A 
ATOM      4  C   LIG d   1       3.990  -1.583  -8.948  0.00  0.00     0.061 A 
ATOM      5  C   LIG d   1       3.290  -0.807  -9.871  0.00  0.00     0.063 A 
ATOM      6  C   LIG d   1       3.828  -0.560 -11.119  0.00  0.00    -0.039 A 
ATOM      7 CL   LIG d   1       1.743  -0.145  -9.449  0.00  0.00    -0.082 Cl
ATOM      8  N   LIG d   1       3.666  -1.962  -7.643  0.00  0.00    -0.279 N 
ATOM      9  C   LIG d   1       4.626  -2.723  -7.082  0.00  0.00     0.274 A 
ATOM     10  O   LIG d   1       4.618  -3.192  -5.963  0.00  0.00    -0.269 OA
ATOM     11  C   LIG d   1       5.711  -2.879  -8.113  0.00  0.00     0.106 A 
ATOM     12  C   LIG d   1       7.053  -2.345  -7.600  0.00  0.00     0.111 A 
ATOM     13  H   LIG d   1       7.598  -1.786  -8.360  0.00  0.00     0.047 H 
ATOM     14  C   LIG d   1       7.819  -3.609  -7.119  0.00  0.00     0.096 A 
ATOM     15  H   LIG d   1       8.781  -3.737  -7.615  0.00  0.00     0.046 H 
ATOM     16  C   LIG d   1       6.851  -4.783  -7.385  0.00  0.00    -0.008 C 
ATOM     17  H   LIG d   1       6.278  -5.013  -6.487  0.00  0.00     0.086 H 
ATOM     18  N   LIG d   1       5.937  -4.298  -8.444  0.00  0.00     0.245 N 
ATOM     19  C   LIG d   1       7.954  -3.388  -5.629  0.00  0.00     0.231 A 
ATOM     20  O   LIG d   1       8.500  -4.145  -4.855  0.00  0.00    -0.275 OA
ATOM     21  N   LIG d   1       7.378  -2.227  -5.298  0.00  0.00    -0.241 N 
ATOM     22  C   LIG d   1       6.838  -1.547  -6.335  0.00  0.00     0.232 A 
ATOM     23  O   LIG d   1       6.272  -0.477  -6.269  0.00  0.00    -0.275 OA
ATOM     24  H   LIG d   1       6.721  -2.270 -10.821  0.00  0.00     0.063 H 
ATOM     25  H   LIG d   1       3.284   0.045 -11.828  0.00  0.00     0.064 H 
ATOM     26  H   LIG d   1       2.845  -1.707  -7.193  0.00  0.00     0.155 HD
ATOM     27  H   LIG d   1       5.067  -4.808  -8.427  0.00  0.00     0.203 HD
ATOM     28  H   LIG d   1       6.381  -4.383  -9.346  0.00  0.00     0.203 HD
ENDROOT
BRANCH  16  29
ATOM     29  C   LIG d   1       7.627  -6.017  -7.851  0.00  0.00     0.000 C 
ATOM     30  H   LIG d   1       7.216  -6.370  -8.797  0.00  0.00     0.033 H 
ATOM     31  H   LIG d   1       8.677  -5.755  -7.987  0.00  0.00     0.033 H 
BRANCH  29  32
ATOM     32  C   LIG d   1       7.509  -7.121  -6.799  0.00  0.00    -0.002 C 
ATOM     33  H   LIG d   1       7.455  -8.091  -7.295  0.00  0.00     0.038 H 
ATOM     34  H   LIG d   1       8.382  -7.095  -6.147  0.00  0.00     0.038 H 
BRANCH  32  35
ATOM     35  S   LIG d   1       6.009  -6.860  -5.815  0.00  0.00    -0.164 SA
BRANCH  35  36
ATOM     36  C   LIG d   1       4.768  -7.909  -6.620  0.00  0.00    -0.018 C 
ATOM     37  H   LIG d   1       3.781  -7.458  -6.506  0.00  0.00     0.034 H 
ATOM     38  H   LIG d   1       5.003  -8.004  -7.680  0.00  0.00     0.034 H 
ATOM     39  H   LIG d   1       4.770  -8.896  -6.158  0.00  0.00     0.034 H 
ENDBRANCH  35  36
ENDBRANCH  32  35
ENDBRANCH  29  32
ENDBRANCH  16  29
BRANCH   1  40
ATOM     40  C   LIG d   1       5.637  -0.820 -12.830  0.00  0.00    -0.040 C 
ATOM     41  H   LIG d   1       4.840  -0.828 -13.572  0.00  0.00     0.028 H 
ATOM     42  H   LIG d   1       6.126   0.154 -12.832  0.00  0.00     0.028 H 
ATOM     43  H   LIG d   1       6.367  -1.593 -13.073  0.00  0.00     0.028 H 
ENDBRANCH   1  40
BRANCH  21  44
ATOM     44  C   LIG d   1       7.341  -1.725  -3.921  0.00  0.00     0.026 C 
ATOM     45  H   LIG d   1       8.217  -2.082  -3.381  0.00  0.00     0.047 H 
ATOM     46  H   LIG d   1       7.340  -0.636  -3.932  0.00  0.00     0.047 H 
BRANCH  44  47
ATOM     47  C   LIG d   1       6.074  -2.231  -3.230  0.00  0.00    -0.011 C 
ATOM     48  H   LIG d   1       5.571  -2.952  -3.874  0.00  0.00     0.033 H 
ATOM     49  H   LIG d   1       6.339  -2.709  -2.287  0.00  0.00     0.033 H 
BRANCH  47  50
ATOM     50  C   LIG d   1       5.151  -1.069  -2.962  0.00  0.00    -0.046 A 
ATOM     51  C   LIG d   1       3.782  -1.256  -2.971  0.00  0.00    -0.059 A 
ATOM     52  C   LIG d   1       2.937  -0.191  -2.721  0.00  0.00    -0.061 A 
ATOM     53  H   LIG d   1       3.373  -2.236  -3.171  0.00  0.00     0.062 H 
ATOM     54  C   LIG d   1       3.461   1.063  -2.470  0.00  0.00    -0.062 A 
ATOM     55  H   LIG d   1       1.867  -0.339  -2.724  0.00  0.00     0.062 H 
ATOM     56  C   LIG d   1       4.829   1.252  -2.466  0.00  0.00    -0.061 A 
ATOM     57  H   LIG d   1       2.800   1.895  -2.278  0.00  0.00     0.062 H 
ATOM     58  C   LIG d   1       5.675   0.186  -2.712  0.00  0.00    -0.059 A 
ATOM     59  H   LIG d   1       5.239   2.232  -2.270  0.00  0.00     0.062 H 
ATOM     60  H   LIG d   1       6.746   0.334  -2.708  0.00  0.00     0.062 H 
ENDBRANCH  47  50
ENDBRANCH  44  47
ENDBRANCH  21  44
TORSDOF 8
ENDMDL
MODEL 5
REMARK VINA RESULT:      -6.5      3.486      5.193
REMARK  8 active torsions:
REMARK  status: ('A' for Active; 'I' for Inactive)
REMARK    1  A    between atoms: C_1  and  C_2 
REMARK    2  A    between atoms: C_17  and  C_20 
REMARK    3  A    between atoms: C_20  and  C_21 
REMARK    4  A    between atoms: C_21  and  S_22 
REMARK    5  A    between atoms: S_22  and  C_23 
REMARK    6  A    between atoms: N_26  and  C_29 
REMARK    7  A    between atoms: C_29  and  C_30 
REMARK    8  A    between atoms: C_30  and  C_31 
ROOT
ATOM      1  C   LIG d   1       9.620  -0.942  -9.909  0.00  0.00    -0.049 A 
ATOM      2  C   LIG d   1       8.240  -1.005  -9.991  0.00  0.00    -0.048 A 
ATOM      3  C   LIG d   1       7.476   0.078  -9.618  0.00  0.00     0.036 A 
ATOM      4  C   LIG d   1       8.078   1.243  -9.153  0.00  0.00     0.061 A 
ATOM      5  C   LIG d   1       9.468   1.299  -9.073  0.00  0.00     0.063 A 
ATOM      6  C   LIG d   1      10.230   0.208  -9.444  0.00  0.00    -0.039 A 
ATOM      7 CL   LIG d   1      10.245   2.741  -8.499  0.00  0.00    -0.082 Cl
ATOM      8  N   LIG d   1       7.107   2.195  -8.835  0.00  0.00    -0.279 N 
ATOM      9  C   LIG d   1       5.858   1.741  -9.058  0.00  0.00     0.274 A 
ATOM     10  O   LIG d   1       4.823   2.345  -8.871  0.00  0.00    -0.269 OA
ATOM     11  C   LIG d   1       5.997   0.338  -9.584  0.00  0.00     0.106 A 
ATOM     12  C   LIG d   1       5.268  -0.672  -8.690  0.00  0.00     0.111 A 
ATOM     13  H   LIG d   1       5.838  -1.588  -8.543  0.00  0.00     0.047 H 
ATOM     14  C   LIG d   1       3.909  -0.917  -9.404  0.00  0.00     0.096 A 
ATOM     15  H   LIG d   1       3.739  -1.967  -9.643  0.00  0.00     0.046 H 
ATOM     16  C   LIG d   1       3.954  -0.020 -10.660  0.00  0.00    -0.008 C 
ATOM     17  H   LIG d   1       3.468   0.935 -10.461  0.00  0.00     0.086 H 
ATOM     18  N   LIG d   1       5.394   0.204 -10.923  0.00  0.00     0.245 N 
ATOM     19  C   LIG d   1       2.896  -0.370  -8.422  0.00  0.00     0.231 A 
ATOM     20  O   LIG d   1       1.695  -0.366  -8.585  0.00  0.00    -0.275 OA
ATOM     21  N   LIG d   1       3.533   0.107  -7.347  0.00  0.00    -0.241 N 
ATOM     22  C   LIG d   1       4.879  -0.014  -7.385  0.00  0.00     0.232 A 
ATOM     23  O   LIG d   1       5.653   0.344  -6.524  0.00  0.00    -0.275 OA
ATOM     24  H   LIG d   1       7.761  -1.904 -10.350  0.00  0.00     0.063 H 
ATOM     25  H   LIG d   1      11.306   0.256  -9.376  0.00  0.00     0.064 H 
ATOM     26  H   LIG d   1       7.307   3.081  -8.494  0.00  0.00     0.155 HD
ATOM     27  H   LIG d   1       5.533   1.048 -11.459  0.00  0.00     0.203 HD
ATOM     28  H   LIG d   1       5.782  -0.591 -11.407  0.00  0.00     0.203 HD
ENDROOT
BRANCH  16  29
ATOM     29  C   LIG d   1       3.282  -0.723 -11.841  0.00  0.00     0.000 C 
ATOM     30  H   LIG d   1       2.377  -1.224 -11.499  0.00  0.00     0.033 H 
ATOM     31  H   LIG d   1       3.024   0.014 -12.602  0.00  0.00     0.033 H 
BRANCH  29  32
ATOM     32  C   LIG d   1       4.243  -1.754 -12.435  0.00  0.00    -0.002 C 
ATOM     33  H   LIG d   1       5.269  -1.405 -12.317  0.00  0.00     0.038 H 
ATOM     34  H   LIG d   1       4.121  -2.705 -11.916  0.00  0.00     0.038 H 
BRANCH  32  35
ATOM     35  S   LIG d   1       3.878  -1.977 -14.197  0.00  0.00    -0.164 SA
BRANCH  35  36
ATOM     36  C   LIG d   1       4.404  -0.415 -14.955  0.00  0.00    -0.018 C 
ATOM     37  H   LIG d   1       3.646  -0.082 -15.665  0.00  0.00     0.034 H 
ATOM     38  H   LIG d   1       4.532   0.341 -14.179  0.00  0.00     0.034 H 
ATOM     39  H   LIG d   1       5.349  -0.564 -15.477  0.00  0.00     0.034 H 
ENDBRANCH  35  36
ENDBRANCH  32  35
ENDBRANCH  29  32
ENDBRANCH  16  29
BRANCH   1  40
ATOM     40  C   LIG d   1      10.455  -2.128 -10.318  0.00  0.00    -0.040 C 
ATOM     41  H   LIG d   1      11.291  -2.239  -9.627  0.00  0.00     0.028 H 
ATOM     42  H   LIG d   1       9.843  -3.029 -10.296  0.00  0.00     0.028 H 
ATOM     43  H   LIG d   1      10.837  -1.972 -11.327  0.00  0.00     0.028 H 
ENDBRANCH   1  40
BRANCH  21  44
ATOM     44  C   LIG d   1       2.828   0.707  -6.211  0.00  0.00     0.026 C 
ATOM     45  H   LIG d   1       3.478   1.433  -5.723  0.00  0.00     0.047 H 
ATOM     46  H   LIG d   1       1.928   1.209  -6.566  0.00  0.00     0.047 H 
BRANCH  44  47
ATOM     47  C   LIG d   1       2.444  -0.386  -5.213  0.00  0.00    -0.011 C 
ATOM     48  H   LIG d   1       1.370  -0.349  -5.028  0.00  0.00     0.033 H 
ATOM     49  H   LIG d   1       2.707  -1.361  -5.622  0.00  0.00     0.033 H 
BRANCH  47  50
ATOM     50  C   LIG d   1       3.184  -0.166  -3.919  0.00  0.00    -0.046 A 
ATOM     51  C   LIG d   1       3.614  -1.249  -3.175  0.00  0.00    -0.059 A 
ATOM     52  C   LIG d   1       4.296  -1.046  -1.990  0.00  0.00    -0.061 A 
ATOM     53  H   LIG d   1       3.418  -2.253  -3.521  0.00  0.00     0.062 H 
ATOM     54  C   LIG d   1       4.543   0.239  -1.546  0.00  0.00    -0.062 A 
ATOM     55  H   LIG d   1       4.635  -1.892  -1.411  0.00  0.00     0.062 H 
ATOM     56  C   LIG d   1       4.110   1.322  -2.287  0.00  0.00    -0.061 A 
ATOM     57  H   LIG d   1       5.074   0.397  -0.618  0.00  0.00     0.062 H 
ATOM     58  C   LIG d   1       3.430   1.120  -3.473  0.00  0.00    -0.059 A 
ATOM     59  H   LIG d   1       4.302   2.326  -1.939  0.00  0.00     0.062 H 
ATOM     60  H   LIG d   1       3.091   1.966  -4.053  0.00  0.00     0.062 H 
ENDBRANCH  47  50
ENDBRANCH  44  47
ENDBRANCH  21  44
TORSDOF 8
ENDMDL
MODEL 6
REMARK VINA RESULT:      -6.4      2.896      6.527
REMARK  8 active torsions:
REMARK  status: ('A' for Active; 'I' for Inactive)
REMARK    1  A    between atoms: C_1  and  C_2 
REMARK    2  A    between atoms: C_17  and  C_20 
REMARK    3  A    between atoms: C_20  and  C_21 
REMARK    4  A    between atoms: C_21  and  S_22 
REMARK    5  A    between atoms: S_22  and  C_23 
REMARK    6  A    between atoms: N_26  and  C_29 
REMARK    7  A    between atoms: C_29  and  C_30 
REMARK    8  A    between atoms: C_30  and  C_31 
ROOT
ATOM      1  C   LIG d   1       5.140  -7.872  -6.018  0.00  0.00    -0.049 A 
ATOM      2  C   LIG d   1       5.311  -6.594  -5.516  0.00  0.00    -0.048 A 
ATOM      3  C   LIG d   1       4.892  -5.504  -6.245  0.00  0.00     0.036 A 
ATOM      4  C   LIG d   1       4.295  -5.672  -7.491  0.00  0.00     0.061 A 
ATOM      5  C   LIG d   1       4.125  -6.962  -7.990  0.00  0.00     0.063 A 
ATOM      6  C   LIG d   1       4.552  -8.052  -7.257  0.00  0.00    -0.039 A 
ATOM      7 CL   LIG d   1       3.382  -7.200  -9.540  0.00  0.00    -0.082 Cl
ATOM      8  N   LIG d   1       3.958  -4.432  -8.037  0.00  0.00    -0.279 N 
ATOM      9  C   LIG d   1       4.297  -3.410  -7.225  0.00  0.00     0.274 A 
ATOM     10  O   LIG d   1       4.130  -2.228  -7.438  0.00  0.00    -0.269 OA
ATOM     11  C   LIG d   1       4.924  -4.022  -6.001  0.00  0.00     0.106 A 
ATOM     12  C   LIG d   1       6.357  -3.517  -5.793  0.00  0.00     0.111 A 
ATOM     13  H   LIG d   1       7.039  -4.310  -5.486  0.00  0.00     0.047 H 
ATOM     14  C   LIG d   1       6.224  -2.393  -4.728  0.00  0.00     0.096 A 
ATOM     15  H   LIG d   1       6.836  -2.572  -3.844  0.00  0.00     0.046 H 
ATOM     16  C   LIG d   1       4.715  -2.328  -4.406  0.00  0.00    -0.008 C 
ATOM     17  H   LIG d   1       4.231  -1.561  -5.010  0.00  0.00     0.086 H 
ATOM     18  N   LIG d   1       4.184  -3.659  -4.779  0.00  0.00     0.245 N 
ATOM     19  C   LIG d   1       6.638  -1.149  -5.482  0.00  0.00     0.231 A 
ATOM     20  O   LIG d   1       6.683  -0.030  -5.018  0.00  0.00    -0.275 OA
ATOM     21  N   LIG d   1       6.948  -1.475  -6.742  0.00  0.00    -0.241 N 
ATOM     22  C   LIG d   1       6.830  -2.791  -7.032  0.00  0.00     0.232 A 
ATOM     23  O   LIG d   1       7.061  -3.310  -8.102  0.00  0.00    -0.275 OA
ATOM     24  H   LIG d   1       5.774  -6.451  -4.551  0.00  0.00     0.063 H 
ATOM     25  H   LIG d   1       4.422  -9.049  -7.651  0.00  0.00     0.064 H 
ATOM     26  H   LIG d   1       3.531  -4.317  -8.900  0.00  0.00     0.155 HD
ATOM     27  H   LIG d   1       3.194  -3.609  -4.968  0.00  0.00     0.203 HD
ATOM     28  H   LIG d   1       4.371  -4.322  -4.042  0.00  0.00     0.203 HD
ENDROOT
BRANCH  16  29
ATOM     29  C   LIG d   1       4.500  -2.048  -2.917  0.00  0.00     0.000 C 
ATOM     30  H   LIG d   1       4.488  -2.988  -2.367  0.00  0.00     0.033 H 
ATOM     31  H   LIG d   1       5.310  -1.420  -2.546  0.00  0.00     0.033 H 
BRANCH  29  32
ATOM     32  C   LIG d   1       3.166  -1.326  -2.722  0.00  0.00    -0.002 C 
ATOM     33  H   LIG d   1       2.440  -1.700  -3.446  0.00  0.00     0.038 H 
ATOM     34  H   LIG d   1       2.799  -1.508  -1.713  0.00  0.00     0.038 H 
BRANCH  32  35
ATOM     35  S   LIG d   1       3.400   0.456  -2.967  0.00  0.00    -0.164 SA
BRANCH  35  36
ATOM     36  C   LIG d   1       4.674   0.901  -1.756  0.00  0.00    -0.018 C 
ATOM     37  H   LIG d   1       4.512   0.342  -0.834  0.00  0.00     0.034 H 
ATOM     38  H   LIG d   1       5.659   0.661  -2.158  0.00  0.00     0.034 H 
ATOM     39  H   LIG d   1       4.620   1.969  -1.546  0.00  0.00     0.034 H 
ENDBRANCH  35  36
ENDBRANCH  32  35
ENDBRANCH  29  32
ENDBRANCH  16  29
BRANCH   1  40
ATOM     40  C   LIG d   1       5.599  -9.065  -5.220  0.00  0.00    -0.040 C 
ATOM     41  H   LIG d   1       5.007  -9.937  -5.496  0.00  0.00     0.028 H 
ATOM     42  H   LIG d   1       6.651  -9.259  -5.429  0.00  0.00     0.028 H 
ATOM     43  H   LIG d   1       5.471  -8.861  -4.157  0.00  0.00     0.028 H 
ENDBRANCH   1  40
BRANCH  21  44
ATOM     44  C   LIG d   1       7.388  -0.487  -7.731  0.00  0.00     0.026 C 
ATOM     45  H   LIG d   1       8.388  -0.138  -7.475  0.00  0.00     0.047 H 
ATOM     46  H   LIG d   1       7.406  -0.946  -8.719  0.00  0.00     0.047 H 
BRANCH  44  47
ATOM     47  C   LIG d   1       6.420   0.696  -7.734  0.00  0.00    -0.011 C 
ATOM     48  H   LIG d   1       5.742   0.614  -6.885  0.00  0.00     0.033 H 
ATOM     49  H   LIG d   1       6.982   1.627  -7.661  0.00  0.00     0.033 H 
BRANCH  47  50
ATOM     50  C   LIG d   1       5.623   0.689  -9.014  0.00  0.00    -0.046 A 
ATOM     51  C   LIG d   1       5.840  -0.297  -9.958  0.00  0.00    -0.059 A 
ATOM     52  C   LIG d   1       5.106  -0.305 -11.130  0.00  0.00    -0.061 A 
ATOM     53  H   LIG d   1       6.581  -1.061  -9.779  0.00  0.00     0.062 H 
ATOM     54  C   LIG d   1       4.161   0.677 -11.360  0.00  0.00    -0.062 A 
ATOM     55  H   LIG d   1       5.273  -1.078 -11.866  0.00  0.00     0.062 H 
ATOM     56  C   LIG d   1       3.947   1.665 -10.419  0.00  0.00    -0.061 A 
ATOM     57  H   LIG d   1       3.589   0.671 -12.277  0.00  0.00     0.062 H 
ATOM     58  C   LIG d   1       4.678   1.672  -9.246  0.00  0.00    -0.059 A 
ATOM     59  H   LIG d   1       3.209   2.432 -10.599  0.00  0.00     0.062 H 
ATOM     60  H   LIG d   1       4.511   2.444  -8.509  0.00  0.00     0.062 H 
ENDBRANCH  47  50
ENDBRANCH  44  47
ENDBRANCH  21  44
TORSDOF 8
ENDMDL
MODEL 7
REMARK VINA RESULT:      -6.4      3.572      6.391
REMARK  8 active torsions:
REMARK  status: ('A' for Active; 'I' for Inactive)
REMARK    1  A    between atoms: C_1  and  C_2 
REMARK    2  A    between atoms: C_17  and  C_20 
REMARK    3  A    between atoms: C_20  and  C_21 
REMARK    4  A    between atoms: C_21  and  S_22 
REMARK    5  A    between atoms: S_22  and  C_23 
REMARK    6  A    between atoms: N_26  and  C_29 
REMARK    7  A    between atoms: C_29  and  C_30 
REMARK    8  A    between atoms: C_30  and  C_31 
ROOT
ATOM      1  C   LIG d   1       5.223  -9.115  -4.775  0.00  0.00    -0.049 A 
ATOM      2  C   LIG d   1       4.813  -8.157  -5.685  0.00  0.00    -0.048 A 
ATOM      3  C   LIG d   1       5.655  -7.122  -6.025  0.00  0.00     0.036 A 
ATOM      4  C   LIG d   1       6.923  -7.025  -5.459  0.00  0.00     0.061 A 
ATOM      5  C   LIG d   1       7.329  -7.994  -4.543  0.00  0.00     0.063 A 
ATOM      6  C   LIG d   1       6.479  -9.027  -4.202  0.00  0.00    -0.039 A 
ATOM      7 CL   LIG d   1       8.906  -7.899  -3.824  0.00  0.00    -0.082 Cl
ATOM      8  N   LIG d   1       7.587  -5.900  -5.952  0.00  0.00    -0.279 N 
ATOM      9  C   LIG d   1       6.836  -5.211  -6.833  0.00  0.00     0.274 A 
ATOM     10  O   LIG d   1       7.151  -4.196  -7.417  0.00  0.00    -0.269 OA
ATOM     11  C   LIG d   1       5.529  -5.948  -6.953  0.00  0.00     0.106 A 
ATOM     12  C   LIG d   1       4.344  -5.053  -6.571  0.00  0.00     0.111 A 
ATOM     13  H   LIG d   1       3.599  -5.578  -5.974  0.00  0.00     0.047 H 
ATOM     14  C   LIG d   1       3.779  -4.551  -7.929  0.00  0.00     0.096 A 
ATOM     15  H   LIG d   1       2.727  -4.800  -8.069  0.00  0.00     0.046 H 
ATOM     16  C   LIG d   1       4.691  -5.192  -8.998  0.00  0.00    -0.008 C 
ATOM     17  H   LIG d   1       5.485  -4.501  -9.282  0.00  0.00     0.086 H 
ATOM     18  N   LIG d   1       5.281  -6.379  -8.341  0.00  0.00     0.245 N 
ATOM     19  C   LIG d   1       4.023  -3.059  -7.878  0.00  0.00     0.231 A 
ATOM     20  O   LIG d   1       3.726  -2.270  -8.749  0.00  0.00    -0.275 OA
ATOM     21  N   LIG d   1       4.619  -2.746  -6.721  0.00  0.00    -0.241 N 
ATOM     22  C   LIG d   1       4.846  -3.796  -5.899  0.00  0.00     0.232 A 
ATOM     23  O   LIG d   1       5.366  -3.746  -4.806  0.00  0.00    -0.275 OA
ATOM     24  H   LIG d   1       3.831  -8.221  -6.130  0.00  0.00     0.063 H 
ATOM     25  H   LIG d   1       6.797  -9.773  -3.489  0.00  0.00     0.064 H 
ATOM     26  H   LIG d   1       8.486  -5.643  -5.690  0.00  0.00     0.155 HD
ATOM     27  H   LIG d   1       6.146  -6.643  -8.788  0.00  0.00     0.203 HD
ATOM     28  H   LIG d   1       4.623  -7.145  -8.361  0.00  0.00     0.203 HD
ENDROOT
BRANCH  16  29
ATOM     29  C   LIG d   1       3.870  -5.593 -10.226  0.00  0.00     0.000 C 
ATOM     30  H   LIG d   1       3.916  -4.798 -10.971  0.00  0.00     0.033 H 
ATOM     31  H   LIG d   1       4.277  -6.512 -10.650  0.00  0.00     0.033 H 
BRANCH  29  32
ATOM     32  C   LIG d   1       2.415  -5.823  -9.815  0.00  0.00    -0.002 C 
ATOM     33  H   LIG d   1       2.235  -6.892  -9.696  0.00  0.00     0.038 H 
ATOM     34  H   LIG d   1       2.221  -5.315  -8.870  0.00  0.00     0.038 H 
BRANCH  32  35
ATOM     35  S   LIG d   1       1.313  -5.162 -11.094  0.00  0.00    -0.164 SA
BRANCH  35  36
ATOM     36  C   LIG d   1       0.918  -3.490 -10.512  0.00  0.00    -0.018 C 
ATOM     37  H   LIG d   1       0.622  -3.530  -9.463  0.00  0.00     0.034 H 
ATOM     38  H   LIG d   1       1.795  -2.851 -10.618  0.00  0.00     0.034 H 
ATOM     39  H   LIG d   1       0.098  -3.083 -11.103  0.00  0.00     0.034 H 
ENDBRANCH  35  36
ENDBRANCH  32  35
ENDBRANCH  29  32
ENDBRANCH  16  29
BRANCH   1  40
ATOM     40  C   LIG d   1       4.301 -10.248  -4.403  0.00  0.00    -0.040 C 
ATOM     41  H   LIG d   1       3.960 -10.750  -5.308  0.00  0.00     0.028 H 
ATOM     42  H   LIG d   1       4.834 -10.958  -3.772  0.00  0.00     0.028 H 
ATOM     43  H   LIG d   1       3.442  -9.852  -3.861  0.00  0.00     0.028 H 
ENDBRANCH   1  40
BRANCH  21  44
ATOM     44  C   LIG d   1       4.990  -1.373  -6.368  0.00  0.00     0.026 C 
ATOM     45  H   LIG d   1       5.790  -1.393  -5.628  0.00  0.00     0.047 H 
ATOM     46  H   LIG d   1       5.333  -0.849  -7.259  0.00  0.00     0.047 H 
BRANCH  44  47
ATOM     47  C   LIG d   1       3.774  -0.650  -5.786  0.00  0.00    -0.011 C 
ATOM     48  H   LIG d   1       3.490   0.171  -6.444  0.00  0.00     0.033 H 
ATOM     49  H   LIG d   1       2.943  -1.349  -5.698  0.00  0.00     0.033 H 
BRANCH  47  50
ATOM     50  C   LIG d   1       4.120  -0.105  -4.423  0.00  0.00    -0.046 A 
ATOM     51  C   LIG d   1       3.150   0.518  -3.661  0.00  0.00    -0.059 A 
ATOM     52  C   LIG d   1       3.466   1.013  -2.410  0.00  0.00    -0.061 A 
ATOM     53  H   LIG d   1       2.144   0.614  -4.043  0.00  0.00     0.062 H 
ATOM     54  C   LIG d   1       4.755   0.893  -1.925  0.00  0.00    -0.062 A 
ATOM     55  H   LIG d   1       2.707   1.496  -1.813  0.00  0.00     0.062 H 
ATOM     56  C   LIG d   1       5.726   0.274  -2.689  0.00  0.00    -0.061 A 
ATOM     57  H   LIG d   1       5.002   1.282  -0.948  0.00  0.00     0.062 H 
ATOM     58  C   LIG d   1       5.409  -0.225  -3.938  0.00  0.00    -0.059 A 
ATOM     59  H   LIG d   1       6.733   0.181  -2.309  0.00  0.00     0.062 H 
ATOM     60  H   LIG d   1       6.168  -0.709  -4.536  0.00  0.00     0.062 H 
ENDBRANCH  47  50
ENDBRANCH  44  47
ENDBRANCH  21  44
TORSDOF 8
ENDMDL
MODEL 8
REMARK VINA RESULT:      -6.4      6.944      9.789
REMARK  8 active torsions:
REMARK  status: ('A' for Active; 'I' for Inactive)
REMARK    1  A    between atoms: C_1  and  C_2 
REMARK    2  A    between atoms: C_17  and  C_20 
REMARK    3  A    between atoms: C_20  and  C_21 
REMARK    4  A    between atoms: C_21  and  S_22 
REMARK    5  A    between atoms: S_22  and  C_23 
REMARK    6  A    between atoms: N_26  and  C_29 
REMARK    7  A    between atoms: C_29  and  C_30 
REMARK    8  A    between atoms: C_30  and  C_31 
ROOT
ATOM      1  C   LIG d   1      13.838   5.430  -1.415  0.00  0.00    -0.049 A 
ATOM      2  C   LIG d   1      13.353   4.912  -2.603  0.00  0.00    -0.048 A 
ATOM      3  C   LIG d   1      12.052   5.158  -2.984  0.00  0.00     0.036 A 
ATOM      4  C   LIG d   1      11.213   5.926  -2.182  0.00  0.00     0.061 A 
ATOM      5  C   LIG d   1      11.709   6.444  -0.987  0.00  0.00     0.063 A 
ATOM      6  C   LIG d   1      13.012   6.190  -0.608  0.00  0.00    -0.039 A 
ATOM      7 CL   LIG d   1      10.684   7.406   0.030  0.00  0.00    -0.082 Cl
ATOM      8  N   LIG d   1       9.951   6.035  -2.770  0.00  0.00    -0.279 N 
ATOM      9  C   LIG d   1       9.878   5.376  -3.943  0.00  0.00     0.274 A 
ATOM     10  O   LIG d   1       8.910   5.294  -4.670  0.00  0.00    -0.269 OA
ATOM     11  C   LIG d   1      11.231   4.759  -4.176  0.00  0.00     0.106 A 
ATOM     12  C   LIG d   1      11.137   3.235  -4.312  0.00  0.00     0.111 A 
ATOM     13  H   LIG d   1      11.944   2.719  -3.792  0.00  0.00     0.047 H 
ATOM     14  C   LIG d   1      11.148   2.977  -5.844  0.00  0.00     0.096 A 
ATOM     15  H   LIG d   1      11.958   2.319  -6.158  0.00  0.00     0.046 H 
ATOM     16  C   LIG d   1      11.240   4.381  -6.481  0.00  0.00    -0.008 C 
ATOM     17  H   LIG d   1      10.246   4.748  -6.736  0.00  0.00     0.086 H 
ATOM     18  N   LIG d   1      11.831   5.243  -5.433  0.00  0.00     0.245 N 
ATOM     19  C   LIG d   1       9.781   2.386  -6.107  0.00  0.00     0.231 A 
ATOM     20  O   LIG d   1       9.367   2.031  -7.191  0.00  0.00    -0.275 OA
ATOM     21  N   LIG d   1       9.099   2.315  -4.959  0.00  0.00    -0.241 N 
ATOM     22  C   LIG d   1       9.769   2.764  -3.873  0.00  0.00     0.232 A 
ATOM     23  O   LIG d   1       9.350   2.790  -2.736  0.00  0.00    -0.275 OA
ATOM     24  H   LIG d   1      13.995   4.314  -3.233  0.00  0.00     0.063 H 
ATOM     25  H   LIG d   1      13.389   6.591   0.321  0.00  0.00     0.064 H 
ATOM     26  H   LIG d   1       9.212   6.527  -2.379  0.00  0.00     0.155 HD
ATOM     27  H   LIG d   1      11.593   6.210  -5.589  0.00  0.00     0.203 HD
ATOM     28  H   LIG d   1      12.833   5.122  -5.415  0.00  0.00     0.203 HD
ENDROOT
BRANCH  16  29
ATOM     29  C   LIG d   1      12.127   4.342  -7.728  0.00  0.00     0.000 C 
ATOM     30  H   LIG d   1      13.116   4.730  -7.483  0.00  0.00     0.033 H 
ATOM     31  H   LIG d   1      12.216   3.313  -8.078  0.00  0.00     0.033 H 
BRANCH  29  32
ATOM     32  C   LIG d   1      11.501   5.202  -8.827  0.00  0.00    -0.002 C 
ATOM     33  H   LIG d   1      11.993   6.175  -8.853  0.00  0.00     0.038 H 
ATOM     34  H   LIG d   1      11.624   4.707  -9.789  0.00  0.00     0.038 H 
BRANCH  32  35
ATOM     35  S   LIG d   1       9.734   5.428  -8.485  0.00  0.00    -0.164 SA
BRANCH  35  36
ATOM     36  C   LIG d   1       9.017   5.800 -10.108  0.00  0.00    -0.018 C 
ATOM     37  H   LIG d   1       9.100   4.924 -10.752  0.00  0.00     0.034 H 
ATOM     38  H   LIG d   1       7.966   6.065  -9.989  0.00  0.00     0.034 H 
ATOM     39  H   LIG d   1       9.553   6.634 -10.561  0.00  0.00     0.034 H 
ENDBRANCH  35  36
ENDBRANCH  32  35
ENDBRANCH  29  32
ENDBRANCH  16  29
BRANCH   1  40
ATOM     40  C   LIG d   1      15.261   5.160  -0.999  0.00  0.00    -0.040 C 
ATOM     41  H   LIG d   1      15.447   4.087  -1.015  0.00  0.00     0.028 H 
ATOM     42  H   LIG d   1      15.942   5.657  -1.690  0.00  0.00     0.028 H 
ATOM     43  H   LIG d   1      15.423   5.543   0.009  0.00  0.00     0.028 H 
ENDBRANCH   1  40
BRANCH  21  44
ATOM     44  C   LIG d   1       7.734   1.786  -4.879  0.00  0.00     0.026 C 
ATOM     45  H   LIG d   1       7.142   2.410  -4.210  0.00  0.00     0.047 H 
ATOM     46  H   LIG d   1       7.284   1.791  -5.872  0.00  0.00     0.047 H 
BRANCH  44  47
ATOM     47  C   LIG d   1       7.773   0.355  -4.342  0.00  0.00    -0.011 C 
ATOM     48  H   LIG d   1       7.773  -0.347  -5.176  0.00  0.00     0.033 H 
ATOM     49  H   LIG d   1       8.676   0.213  -3.749  0.00  0.00     0.033 H 
BRANCH  47  50
ATOM     50  C   LIG d   1       6.561   0.110  -3.479  0.00  0.00    -0.046 A 
ATOM     51  C   LIG d   1       5.869   1.177  -2.939  0.00  0.00    -0.059 A 
ATOM     52  C   LIG d   1       4.756   0.952  -2.152  0.00  0.00    -0.061 A 
ATOM     53  H   LIG d   1       6.198   2.188  -3.134  0.00  0.00     0.062 H 
ATOM     54  C   LIG d   1       4.338  -0.341  -1.899  0.00  0.00    -0.062 A 
ATOM     55  H   LIG d   1       4.213   1.787  -1.733  0.00  0.00     0.062 H 
ATOM     56  C   LIG d   1       5.032  -1.409  -2.435  0.00  0.00    -0.061 A 
ATOM     57  H   LIG d   1       3.469  -0.517  -1.282  0.00  0.00     0.062 H 
ATOM     58  C   LIG d   1       6.144  -1.184  -3.225  0.00  0.00    -0.059 A 
ATOM     59  H   LIG d   1       4.706  -2.419  -2.237  0.00  0.00     0.062 H 
ATOM     60  H   LIG d   1       6.687  -2.018  -3.645  0.00  0.00     0.062 H 
ENDBRANCH  47  50
ENDBRANCH  44  47
ENDBRANCH  21  44
TORSDOF 8
ENDMDL
MODEL 9
REMARK VINA RESULT:      -6.3      3.566      5.273
REMARK  8 active torsions:
REMARK  status: ('A' for Active; 'I' for Inactive)
REMARK    1  A    between atoms: C_1  and  C_2 
REMARK    2  A    between atoms: C_17  and  C_20 
REMARK    3  A    between atoms: C_20  and  C_21 
REMARK    4  A    between atoms: C_21  and  S_22 
REMARK    5  A    between atoms: S_22  and  C_23 
REMARK    6  A    between atoms: N_26  and  C_29 
REMARK    7  A    between atoms: C_29  and  C_30 
REMARK    8  A    between atoms: C_30  and  C_31 
ROOT
ATOM      1  C   LIG d   1      10.592   3.347  -5.752  0.00  0.00    -0.049 A 
ATOM      2  C   LIG d   1      10.364   2.016  -5.450  0.00  0.00    -0.048 A 
ATOM      3  C   LIG d   1       9.597   1.239  -6.289  0.00  0.00     0.036 A 
ATOM      4  C   LIG d   1       9.041   1.781  -7.444  0.00  0.00     0.061 A 
ATOM      5  C   LIG d   1       9.275   3.122  -7.742  0.00  0.00     0.063 A 
ATOM      6  C   LIG d   1      10.041   3.898  -6.894  0.00  0.00    -0.039 A 
ATOM      7 CL   LIG d   1       8.595   3.822  -9.177  0.00  0.00    -0.082 Cl
ATOM      8  N   LIG d   1       8.308   0.809  -8.128  0.00  0.00    -0.279 N 
ATOM      9  C   LIG d   1       8.329  -0.382  -7.497  0.00  0.00     0.274 A 
ATOM     10  O   LIG d   1       7.780  -1.402  -7.856  0.00  0.00    -0.269 OA
ATOM     11  C   LIG d   1       9.166  -0.199  -6.261  0.00  0.00     0.106 A 
ATOM     12  C   LIG d   1       8.370  -0.524  -4.991  0.00  0.00     0.111 A 
ATOM     13  H   LIG d   1       8.564   0.183  -4.185  0.00  0.00     0.047 H 
ATOM     14  C   LIG d   1       8.787  -1.977  -4.629  0.00  0.00     0.096 A 
ATOM     15  H   LIG d   1       9.203  -2.061  -3.625  0.00  0.00     0.046 H 
ATOM     16  C   LIG d   1       9.792  -2.386  -5.728  0.00  0.00    -0.008 C 
ATOM     17  H   LIG d   1       9.282  -2.926  -6.526  0.00  0.00     0.086 H 
ATOM     18  N   LIG d   1      10.325  -1.111  -6.257  0.00  0.00     0.245 N 
ATOM     19  C   LIG d   1       7.502  -2.758  -4.796  0.00  0.00     0.231 A 
ATOM     20  O   LIG d   1       7.377  -3.950  -4.607  0.00  0.00    -0.275 OA
ATOM     21  N   LIG d   1       6.526  -1.931  -5.184  0.00  0.00    -0.241 N 
ATOM     22  C   LIG d   1       6.900  -0.639  -5.323  0.00  0.00     0.232 A 
ATOM     23  O   LIG d   1       6.184   0.280  -5.659  0.00  0.00    -0.275 OA
ATOM     24  H   LIG d   1      10.790   1.585  -4.556  0.00  0.00     0.063 H 
ATOM     25  H   LIG d   1      10.215   4.938  -7.127  0.00  0.00     0.064 H 
ATOM     26  H   LIG d   1       7.836   0.972  -8.961  0.00  0.00     0.155 HD
ATOM     27  H   LIG d   1      10.681  -1.233  -7.194  0.00  0.00     0.203 HD
ATOM     28  H   LIG d   1      11.048  -0.761  -5.646  0.00  0.00     0.203 HD
ENDROOT
BRANCH  16  29
ATOM     29  C   LIG d   1      10.909  -3.246  -5.133  0.00  0.00     0.000 C 
ATOM     30  H   LIG d   1      11.866  -2.943  -5.557  0.00  0.00     0.033 H 
ATOM     31  H   LIG d   1      10.932  -3.113  -4.051  0.00  0.00     0.033 H 
BRANCH  29  32
ATOM     32  C   LIG d   1      10.650  -4.717  -5.461  0.00  0.00    -0.002 C 
ATOM     33  H   LIG d   1       9.620  -4.838  -5.800  0.00  0.00     0.038 H 
ATOM     34  H   LIG d   1      11.331  -5.039  -6.248  0.00  0.00     0.038 H 
BRANCH  32  35
ATOM     35  S   LIG d   1      10.921  -5.724  -3.977  0.00  0.00    -0.164 SA
BRANCH  35  36
ATOM     36  C   LIG d   1      10.275  -4.699  -2.627  0.00  0.00    -0.018 C 
ATOM     37  H   LIG d   1      10.049  -3.701  -3.005  0.00  0.00     0.034 H 
ATOM     38  H   LIG d   1       9.366  -5.151  -2.229  0.00  0.00     0.034 H 
ATOM     39  H   LIG d   1      11.021  -4.626  -1.836  0.00  0.00     0.034 H 
ENDBRANCH  35  36
ENDBRANCH  32  35
ENDBRANCH  29  32
ENDBRANCH  16  29
BRANCH   1  40
ATOM     40  C   LIG d   1      11.432   4.197  -4.833  0.00  0.00    -0.040 C 
ATOM     41  H   LIG d   1      12.472   3.880  -4.895  0.00  0.00     0.028 H 
ATOM     42  H   LIG d   1      11.352   5.242  -5.131  0.00  0.00     0.028 H 
ATOM     43  H   LIG d   1      11.077   4.083  -3.808  0.00  0.00     0.028 H 
ENDBRANCH   1  40
BRANCH  21  44
ATOM     44  C   LIG d   1       5.155  -2.385  -5.432  0.00  0.00     0.026 C 
ATOM     45  H   LIG d   1       4.621  -1.629  -6.008  0.00  0.00     0.047 H 
ATOM     46  H   LIG d   1       5.177  -3.319  -5.993  0.00  0.00     0.047 H 
BRANCH  44  47
ATOM     47  C   LIG d   1       4.441  -2.607  -4.098  0.00  0.00    -0.011 C 
ATOM     48  H   LIG d   1       3.502  -3.131  -4.270  0.00  0.00     0.033 H 
ATOM     49  H   LIG d   1       5.074  -3.203  -3.441  0.00  0.00     0.033 H 
BRANCH  47  50
ATOM     50  C   LIG d   1       4.160  -1.274  -3.452  0.00  0.00    -0.046 A 
ATOM     51  C   LIG d   1       3.322  -0.367  -4.073  0.00  0.00    -0.059 A 
ATOM     52  C   LIG d   1       3.061   0.853  -3.478  0.00  0.00    -0.061 A 
ATOM     53  H   LIG d   1       2.869  -0.614  -5.022  0.00  0.00     0.062 H 
ATOM     54  C   LIG d   1       3.645   1.170  -2.266  0.00  0.00    -0.062 A 
ATOM     55  H   LIG d   1       2.403   1.560  -3.962  0.00  0.00     0.062 H 
ATOM     56  C   LIG d   1       4.487   0.266  -1.647  0.00  0.00    -0.061 A 
ATOM     57  H   LIG d   1       3.443   2.124  -1.803  0.00  0.00     0.062 H 
ATOM     58  C   LIG d   1       4.745  -0.956  -2.239  0.00  0.00    -0.059 A 
ATOM     59  H   LIG d   1       4.943   0.514  -0.700  0.00  0.00     0.062 H 
ATOM     60  H   LIG d   1       5.403  -1.664  -1.756  0.00  0.00     0.062 H 
ENDBRANCH  47  50
ENDBRANCH  44  47
ENDBRANCH  21  44
TORSDOF 8
ENDMDL
