MODEL 1
REMARK VINA RESULT:      -5.9      0.000      0.000
REMARK  4 active torsions:
REMARK  status: ('A' for Active; 'I' for Inactive)
REMARK    1  A    between atoms: C_1  and  C_2 
REMARK    2  A    between atoms: C_9  and  C_13 
REMARK    3  A    between atoms: C_16  and  O_19 
REMARK    4  A    between atoms: O_19  and  C_20 
ROOT
ATOM      1  C   LIG d   1       4.484  -0.134  -2.610  0.00  0.00    -0.047 A 
ATOM      2  C   LIG d   1       4.509  -1.458  -2.197  0.00  0.00    -0.058 A 
ATOM      3  C   LIG d   1       4.512  -2.476  -3.124  0.00  0.00    -0.047 A 
ATOM      4  C   LIG d   1       4.478  -2.167  -4.484  0.00  0.00     0.064 A 
ATOM      5  C   LIG d   1       4.475  -3.227  -5.512  0.00  0.00     0.193 A 
ATOM      6  O   LIG d   1       4.501  -4.408  -5.205  0.00  0.00    -0.287 OA
ATOM      7  C   LIG d   1       4.440  -2.821  -6.864  0.00  0.00     0.029 A 
ATOM      8  C   LIG d   1       4.413  -1.492  -7.165  0.00  0.00     0.139 A 
ATOM      9  O   LIG d   1       4.416  -0.539  -6.221  0.00  0.00    -0.455 OA
ATOM     10  C   LIG d   1       4.447  -0.829  -4.903  0.00  0.00     0.140 A 
ATOM     11  C   LIG d   1       4.451   0.184  -3.951  0.00  0.00    -0.016 A 
ATOM     12  H   LIG d   1       4.530  -1.691  -1.142  0.00  0.00     0.062 H 
ATOM     13  H   LIG d   1       4.536  -3.506  -2.802  0.00  0.00     0.063 H 
ATOM     14  H   LIG d   1       4.437  -3.557  -7.654  0.00  0.00     0.069 H 
ATOM     15  H   LIG d   1       4.427   1.218  -4.261  0.00  0.00     0.066 H 
ENDROOT
BRANCH   8  16
ATOM     16  C   LIG d   1       4.376  -1.087  -8.582  0.00  0.00     0.018 A 
ATOM     17  C   LIG d   1       3.213  -0.528  -9.121  0.00  0.00    -0.048 A 
ATOM     18  C   LIG d   1       3.183  -0.150 -10.445  0.00  0.00    -0.019 A 
ATOM     19  H   LIG d   1       2.340  -0.392  -8.501  0.00  0.00     0.063 H 
ATOM     20  C   LIG d   1       4.307  -0.323 -11.245  0.00  0.00     0.120 A 
ATOM     21  H   LIG d   1       2.286   0.282 -10.863  0.00  0.00     0.065 H 
ATOM     22  C   LIG d   1       5.465  -0.879 -10.713  0.00  0.00    -0.019 A 
ATOM     23  C   LIG d   1       5.505  -1.254  -9.389  0.00  0.00    -0.048 A 
ATOM     24  H   LIG d   1       6.336  -1.011 -11.338  0.00  0.00     0.065 H 
ATOM     25  H   LIG d   1       6.407  -1.682  -8.976  0.00  0.00     0.063 H 
BRANCH  20  26
ATOM     26  O   LIG d   1       4.274   0.051 -12.549  0.00  0.00    -0.495 OA
BRANCH  26  27
ATOM     27  C   LIG d   1       4.599  -0.946 -13.519  0.00  0.00     0.079 C 
ATOM     28  H   LIG d   1       4.348  -0.581 -14.515  0.00  0.00     0.066 H 
ATOM     29  H   LIG d   1       5.666  -1.166 -13.471  0.00  0.00     0.066 H 
ATOM     30  H   LIG d   1       4.032  -1.854 -13.312  0.00  0.00     0.066 H 
ENDBRANCH  26  27
ENDBRANCH  20  26
ENDBRANCH   8  16
BRANCH   1  31
ATOM     31  C   LIG d   1       4.486   0.968  -1.582  0.00  0.00    -0.040 C 
ATOM     32  H   LIG d   1       3.609   0.872  -0.943  0.00  0.00     0.028 H 
ATOM     33  H   LIG d   1       5.389   0.897  -0.975  0.00  0.00     0.028 H 
ATOM     34  H   LIG d   1       4.463   1.935  -2.086  0.00  0.00     0.028 H 
ENDBRANCH   1  31
TORSDOF 4
ENDMDL
MODEL 2
REMARK VINA RESULT:      -5.8      2.174      7.518
REMARK  4 active torsions:
REMARK  status: ('A' for Active; 'I' for Inactive)
REMARK    1  A    between atoms: C_1  and  C_2 
REMARK    2  A    between atoms: C_9  and  C_13 
REMARK    3  A    between atoms: C_16  and  O_19 
REMARK    4  A    between atoms: O_19  and  C_20 
ROOT
ATOM      1  C   LIG d   1       1.447  -2.098 -11.659  0.00  0.00    -0.047 A 
ATOM      2  C   LIG d   1       2.229  -1.299 -12.480  0.00  0.00    -0.058 A 
ATOM      3  C   LIG d   1       3.148  -0.430 -11.933  0.00  0.00    -0.047 A 
ATOM      4  C   LIG d   1       3.278  -0.350 -10.547  0.00  0.00     0.064 A 
ATOM      5  C   LIG d   1       4.247   0.572  -9.919  0.00  0.00     0.193 A 
ATOM      6  O   LIG d   1       4.963   1.294 -10.593  0.00  0.00    -0.287 OA
ATOM      7  C   LIG d   1       4.310   0.584  -8.508  0.00  0.00     0.029 A 
ATOM      8  C   LIG d   1       3.494  -0.238  -7.792  0.00  0.00     0.139 A 
ATOM      9  O   LIG d   1       2.618  -1.071  -8.376  0.00  0.00    -0.455 OA
ATOM     10  C   LIG d   1       2.484  -1.154  -9.716  0.00  0.00     0.140 A 
ATOM     11  C   LIG d   1       1.567  -2.028 -10.288  0.00  0.00    -0.016 A 
ATOM     12  H   LIG d   1       2.120  -1.361 -13.552  0.00  0.00     0.062 H 
ATOM     13  H   LIG d   1       3.759   0.189 -12.573  0.00  0.00     0.063 H 
ATOM     14  H   LIG d   1       5.002   1.240  -8.001  0.00  0.00     0.069 H 
ATOM     15  H   LIG d   1       0.950  -2.652  -9.658  0.00  0.00     0.066 H 
ENDROOT
BRANCH   8  16
ATOM     16  C   LIG d   1       3.574  -0.210  -6.320  0.00  0.00     0.018 A 
ATOM     17  C   LIG d   1       4.680  -0.765  -5.669  0.00  0.00    -0.048 A 
ATOM     18  C   LIG d   1       4.752  -0.736  -4.294  0.00  0.00    -0.019 A 
ATOM     19  H   LIG d   1       5.477  -1.214  -6.242  0.00  0.00     0.063 H 
ATOM     20  C   LIG d   1       3.727  -0.157  -3.554  0.00  0.00     0.120 A 
ATOM     21  H   LIG d   1       5.605  -1.164  -3.789  0.00  0.00     0.065 H 
ATOM     22  C   LIG d   1       2.626   0.396  -4.198  0.00  0.00    -0.019 A 
ATOM     23  C   LIG d   1       2.549   0.376  -5.573  0.00  0.00    -0.048 A 
ATOM     24  H   LIG d   1       1.832   0.845  -3.620  0.00  0.00     0.065 H 
ATOM     25  H   LIG d   1       1.695   0.809  -6.072  0.00  0.00     0.063 H 
BRANCH  20  26
ATOM     26  O   LIG d   1       3.803  -0.130  -2.199  0.00  0.00    -0.495 OA
BRANCH  26  27
ATOM     27  C   LIG d   1       4.650   0.862  -1.616  0.00  0.00     0.079 C 
ATOM     28  H   LIG d   1       4.064   1.752  -1.388  0.00  0.00     0.066 H 
ATOM     29  H   LIG d   1       5.088   0.471  -0.698  0.00  0.00     0.066 H 
ATOM     30  H   LIG d   1       5.444   1.120  -2.317  0.00  0.00     0.066 H 
ENDBRANCH  26  27
ENDBRANCH  20  26
ENDBRANCH   8  16
BRANCH   1  31
ATOM     31  C   LIG d   1       0.450  -3.047 -12.273  0.00  0.00    -0.040 C 
ATOM     32  H   LIG d   1       0.652  -4.060 -11.928  0.00  0.00     0.028 H 
ATOM     33  H   LIG d   1      -0.558  -2.756 -11.977  0.00  0.00     0.028 H 
ATOM     34  H   LIG d   1       0.534  -3.009 -13.360  0.00  0.00     0.028 H 
ENDBRANCH   1  31
TORSDOF 4
ENDMDL
MODEL 3
REMARK VINA RESULT:      -5.7      5.588      7.819
REMARK  4 active torsions:
REMARK  status: ('A' for Active; 'I' for Inactive)
REMARK    1  A    between atoms: C_1  and  C_2 
REMARK    2  A    between atoms: C_9  and  C_13 
REMARK    3  A    between atoms: C_16  and  O_19 
REMARK    4  A    between atoms: O_19  and  C_20 
ROOT
ATOM      1  C   LIG d   1       5.275  -1.003  -2.886  0.00  0.00    -0.047 A 
ATOM      2  C   LIG d   1       5.864  -1.991  -3.661  0.00  0.00    -0.058 A 
ATOM      3  C   LIG d   1       7.025  -1.731  -4.355  0.00  0.00    -0.047 A 
ATOM      4  C   LIG d   1       7.599  -0.463  -4.284  0.00  0.00     0.064 A 
ATOM      5  C   LIG d   1       8.841  -0.140  -5.016  0.00  0.00     0.193 A 
ATOM      6  O   LIG d   1       9.403  -0.973  -5.708  0.00  0.00    -0.287 OA
ATOM      7  C   LIG d   1       9.351   1.171  -4.883  0.00  0.00     0.029 A 
ATOM      8  C   LIG d   1       8.694   2.070  -4.100  0.00  0.00     0.139 A 
ATOM      9  O   LIG d   1       7.566   1.764  -3.439  0.00  0.00    -0.455 OA
ATOM     10  C   LIG d   1       7.003   0.540  -3.504  0.00  0.00     0.140 A 
ATOM     11  C   LIG d   1       5.835   0.255  -2.807  0.00  0.00    -0.016 A 
ATOM     12  H   LIG d   1       5.412  -2.970  -3.717  0.00  0.00     0.062 H 
ATOM     13  H   LIG d   1       7.484  -2.503  -4.955  0.00  0.00     0.063 H 
ATOM     14  H   LIG d   1      10.256   1.457  -5.398  0.00  0.00     0.069 H 
ATOM     15  H   LIG d   1       5.365   1.019  -2.203  0.00  0.00     0.066 H 
ENDROOT
BRANCH   8  16
ATOM     16  C   LIG d   1       9.241   3.434  -3.974  0.00  0.00     0.018 A 
ATOM     17  C   LIG d   1       9.919   3.812  -2.810  0.00  0.00    -0.048 A 
ATOM     18  C   LIG d   1      10.430   5.086  -2.697  0.00  0.00    -0.019 A 
ATOM     19  H   LIG d   1      10.043   3.107  -2.003  0.00  0.00     0.063 H 
ATOM     20  C   LIG d   1      10.273   5.994  -3.737  0.00  0.00     0.120 A 
ATOM     21  H   LIG d   1      10.953   5.379  -1.799  0.00  0.00     0.065 H 
ATOM     22  C   LIG d   1       9.599   5.623  -4.895  0.00  0.00    -0.019 A 
ATOM     23  C   LIG d   1       9.090   4.349  -5.018  0.00  0.00    -0.048 A 
ATOM     24  H   LIG d   1       9.480   6.332  -5.700  0.00  0.00     0.065 H 
ATOM     25  H   LIG d   1       8.571   4.061  -5.920  0.00  0.00     0.063 H 
BRANCH  20  26
ATOM     26  O   LIG d   1      10.778   7.249  -3.621  0.00  0.00    -0.495 OA
BRANCH  26  27
ATOM     27  C   LIG d   1      10.267   8.059  -2.560  0.00  0.00     0.079 C 
ATOM     28  H   LIG d   1      10.712   7.745  -1.616  0.00  0.00     0.066 H 
ATOM     29  H   LIG d   1      10.514   9.103  -2.748  0.00  0.00     0.066 H 
ATOM     30  H   LIG d   1       9.184   7.946  -2.505  0.00  0.00     0.066 H 
ENDBRANCH  26  27
ENDBRANCH  20  26
ENDBRANCH   8  16
BRANCH   1  31
ATOM     31  C   LIG d   1       4.009  -1.304  -2.129  0.00  0.00    -0.040 C 
ATOM     32  H   LIG d   1       3.927  -0.634  -1.273  0.00  0.00     0.028 H 
ATOM     33  H   LIG d   1       3.150  -1.162  -2.785  0.00  0.00     0.028 H 
ATOM     34  H   LIG d   1       4.031  -2.337  -1.780  0.00  0.00     0.028 H 
ENDBRANCH   1  31
TORSDOF 4
ENDMDL
MODEL 4
REMARK VINA RESULT:      -5.6      4.617      6.777
REMARK  4 active torsions:
REMARK  status: ('A' for Active; 'I' for Inactive)
REMARK    1  A    between atoms: C_1  and  C_2 
REMARK    2  A    between atoms: C_9  and  C_13 
REMARK    3  A    between atoms: C_16  and  O_19 
REMARK    4  A    between atoms: O_19  and  C_20 
ROOT
ATOM      1  C   LIG d   1       4.303   0.134  -2.609  0.00  0.00    -0.047 A 
ATOM      2  C   LIG d   1       3.292  -0.623  -3.183  0.00  0.00    -0.058 A 
ATOM      3  C   LIG d   1       3.588  -1.799  -3.835  0.00  0.00    -0.047 A 
ATOM      4  C   LIG d   1       4.914  -2.220  -3.926  0.00  0.00     0.064 A 
ATOM      5  C   LIG d   1       5.277  -3.472  -4.620  0.00  0.00     0.193 A 
ATOM      6  O   LIG d   1       4.427  -4.178  -5.139  0.00  0.00    -0.287 OA
ATOM      7  C   LIG d   1       6.645  -3.820  -4.661  0.00  0.00     0.029 A 
ATOM      8  C   LIG d   1       7.562  -3.004  -4.069  0.00  0.00     0.139 A 
ATOM      9  O   LIG d   1       7.219  -1.869  -3.441  0.00  0.00    -0.455 OA
ATOM     10  C   LIG d   1       5.939  -1.454  -3.350  0.00  0.00     0.140 A 
ATOM     11  C   LIG d   1       5.618  -0.273  -2.692  0.00  0.00    -0.016 A 
ATOM     12  H   LIG d   1       2.267  -0.289  -3.115  0.00  0.00     0.062 H 
ATOM     13  H   LIG d   1       2.799  -2.389  -4.278  0.00  0.00     0.063 H 
ATOM     14  H   LIG d   1       6.962  -4.725  -5.157  0.00  0.00     0.069 H 
ATOM     15  H   LIG d   1       6.398   0.327  -2.245  0.00  0.00     0.066 H 
ENDROOT
BRANCH   8  16
ATOM     16  C   LIG d   1       8.986  -3.383  -4.123  0.00  0.00     0.018 A 
ATOM     17  C   LIG d   1       9.735  -3.132  -5.277  0.00  0.00    -0.048 A 
ATOM     18  C   LIG d   1      11.066  -3.487  -5.322  0.00  0.00    -0.019 A 
ATOM     19  H   LIG d   1       9.273  -2.661  -6.130  0.00  0.00     0.063 H 
ATOM     20  C   LIG d   1      11.663  -4.093  -4.223  0.00  0.00     0.120 A 
ATOM     21  H   LIG d   1      11.645  -3.294  -6.213  0.00  0.00     0.065 H 
ATOM     22  C   LIG d   1      10.922  -4.345  -3.074  0.00  0.00    -0.019 A 
ATOM     23  C   LIG d   1       9.593  -3.988  -3.019  0.00  0.00    -0.048 A 
ATOM     24  H   LIG d   1      11.390  -4.815  -2.223  0.00  0.00     0.065 H 
ATOM     25  H   LIG d   1       9.019  -4.180  -2.124  0.00  0.00     0.063 H 
BRANCH  20  26
ATOM     26  O   LIG d   1      12.974  -4.440  -4.272  0.00  0.00    -0.495 OA
BRANCH  26  27
ATOM     27  C   LIG d   1      13.867  -3.728  -3.413  0.00  0.00     0.079 C 
ATOM     28  H   LIG d   1      14.594  -4.421  -2.989  0.00  0.00     0.066 H 
ATOM     29  H   LIG d   1      14.387  -2.960  -3.985  0.00  0.00     0.066 H 
ATOM     30  H   LIG d   1      13.300  -3.259  -2.607  0.00  0.00     0.066 H 
ENDBRANCH  26  27
ENDBRANCH  20  26
ENDBRANCH   8  16
BRANCH   1  31
ATOM     31  C   LIG d   1       3.962   1.415  -1.895  0.00  0.00    -0.040 C 
ATOM     32  H   LIG d   1       4.877   1.963  -1.672  0.00  0.00     0.028 H 
ATOM     33  H   LIG d   1       3.319   2.025  -2.530  0.00  0.00     0.028 H 
ATOM     34  H   LIG d   1       3.441   1.186  -0.965  0.00  0.00     0.028 H 
ENDBRANCH   1  31
TORSDOF 4
ENDMDL
MODEL 5
REMARK VINA RESULT:      -5.5      3.416      6.702
REMARK  4 active torsions:
REMARK  status: ('A' for Active; 'I' for Inactive)
REMARK    1  A    between atoms: C_1  and  C_2 
REMARK    2  A    between atoms: C_9  and  C_13 
REMARK    3  A    between atoms: C_16  and  O_19 
REMARK    4  A    between atoms: O_19  and  C_20 
ROOT
ATOM      1  C   LIG d   1       3.151   0.298  -7.186  0.00  0.00    -0.047 A 
ATOM      2  C   LIG d   1       2.418   0.729  -6.091  0.00  0.00    -0.058 A 
ATOM      3  C   LIG d   1       2.741   0.295  -4.824  0.00  0.00    -0.047 A 
ATOM      4  C   LIG d   1       3.803  -0.590  -4.650  0.00  0.00     0.064 A 
ATOM      5  C   LIG d   1       4.180  -1.084  -3.310  0.00  0.00     0.193 A 
ATOM      6  O   LIG d   1       3.572  -0.734  -2.312  0.00  0.00    -0.287 OA
ATOM      7  C   LIG d   1       5.271  -1.978  -3.230  0.00  0.00     0.029 A 
ATOM      8  C   LIG d   1       5.924  -2.344  -4.369  0.00  0.00     0.139 A 
ATOM      9  O   LIG d   1       5.571  -1.887  -5.581  0.00  0.00    -0.455 OA
ATOM     10  C   LIG d   1       4.543  -1.031  -5.758  0.00  0.00     0.140 A 
ATOM     11  C   LIG d   1       4.205  -0.577  -7.027  0.00  0.00    -0.016 A 
ATOM     12  H   LIG d   1       1.592   1.411  -6.232  0.00  0.00     0.062 H 
ATOM     13  H   LIG d   1       2.171   0.635  -3.971  0.00  0.00     0.063 H 
ATOM     14  H   LIG d   1       5.586  -2.368  -2.274  0.00  0.00     0.069 H 
ATOM     15  H   LIG d   1       4.767  -0.909  -7.888  0.00  0.00     0.066 H 
ENDROOT
BRANCH   8  16
ATOM     16  C   LIG d   1       7.060  -3.278  -4.266  0.00  0.00     0.018 A 
ATOM     17  C   LIG d   1       8.111  -3.007  -3.384  0.00  0.00    -0.048 A 
ATOM     18  C   LIG d   1       9.171  -3.882  -3.290  0.00  0.00    -0.019 A 
ATOM     19  H   LIG d   1       8.093  -2.114  -2.778  0.00  0.00     0.063 H 
ATOM     20  C   LIG d   1       9.194  -5.033  -4.069  0.00  0.00     0.120 A 
ATOM     21  H   LIG d   1       9.983  -3.675  -2.610  0.00  0.00     0.065 H 
ATOM     22  C   LIG d   1       8.151  -5.306  -4.947  0.00  0.00    -0.019 A 
ATOM     23  C   LIG d   1       7.086  -4.438  -5.043  0.00  0.00    -0.048 A 
ATOM     24  H   LIG d   1       8.174  -6.201  -5.550  0.00  0.00     0.065 H 
ATOM     25  H   LIG d   1       6.274  -4.653  -5.722  0.00  0.00     0.063 H 
BRANCH  20  26
ATOM     26  O   LIG d   1      10.240  -5.894  -3.973  0.00  0.00    -0.495 OA
BRANCH  26  27
ATOM     27  C   LIG d   1      10.847  -6.035  -2.687  0.00  0.00     0.079 C 
ATOM     28  H   LIG d   1      10.999  -5.050  -2.246  0.00  0.00     0.066 H 
ATOM     29  H   LIG d   1      10.197  -6.626  -2.041  0.00  0.00     0.066 H 
ATOM     30  H   LIG d   1      11.809  -6.538  -2.791  0.00  0.00     0.066 H 
ENDBRANCH  26  27
ENDBRANCH  20  26
ENDBRANCH   8  16
BRANCH   1  31
ATOM     31  C   LIG d   1       2.789   0.786  -8.565  0.00  0.00    -0.040 C 
ATOM     32  H   LIG d   1       1.915   0.244  -8.925  0.00  0.00     0.028 H 
ATOM     33  H   LIG d   1       2.565   1.852  -8.527  0.00  0.00     0.028 H 
ATOM     34  H   LIG d   1       3.626   0.615  -9.243  0.00  0.00     0.028 H 
ENDBRANCH   1  31
TORSDOF 4
ENDMDL
MODEL 6
REMARK VINA RESULT:      -5.4      1.838      2.769
REMARK  4 active torsions:
REMARK  status: ('A' for Active; 'I' for Inactive)
REMARK    1  A    between atoms: C_1  and  C_2 
REMARK    2  A    between atoms: C_9  and  C_13 
REMARK    3  A    between atoms: C_16  and  O_19 
REMARK    4  A    between atoms: O_19  and  C_20 
ROOT
ATOM      1  C   LIG d   1       6.462  -1.917  -4.017  0.00  0.00    -0.047 A 
ATOM      2  C   LIG d   1       5.833  -1.013  -3.174  0.00  0.00    -0.058 A 
ATOM      3  C   LIG d   1       4.765  -0.269  -3.624  0.00  0.00    -0.047 A 
ATOM      4  C   LIG d   1       4.327  -0.422  -4.939  0.00  0.00     0.064 A 
ATOM      5  C   LIG d   1       3.189   0.359  -5.465  0.00  0.00     0.193 A 
ATOM      6  O   LIG d   1       2.596   1.165  -4.766  0.00  0.00    -0.287 OA
ATOM      7  C   LIG d   1       2.814   0.137  -6.809  0.00  0.00     0.029 A 
ATOM      8  C   LIG d   1       3.501  -0.771  -7.556  0.00  0.00     0.139 A 
ATOM      9  O   LIG d   1       4.533  -1.475  -7.065  0.00  0.00    -0.455 OA
ATOM     10  C   LIG d   1       4.965  -1.333  -5.795  0.00  0.00     0.140 A 
ATOM     11  C   LIG d   1       6.037  -2.078  -5.319  0.00  0.00    -0.016 A 
ATOM     12  H   LIG d   1       6.180  -0.895  -2.158  0.00  0.00     0.062 H 
ATOM     13  H   LIG d   1       4.273   0.431  -2.966  0.00  0.00     0.063 H 
ATOM     14  H   LIG d   1       1.989   0.684  -7.241  0.00  0.00     0.069 H 
ATOM     15  H   LIG d   1       6.537  -2.782  -5.968  0.00  0.00     0.066 H 
ENDROOT
BRANCH   8  16
ATOM     16  C   LIG d   1       3.096  -0.989  -8.956  0.00  0.00     0.018 A 
ATOM     17  C   LIG d   1       1.812  -0.630  -9.378  0.00  0.00    -0.048 A 
ATOM     18  C   LIG d   1       1.437  -0.834 -10.687  0.00  0.00    -0.019 A 
ATOM     19  H   LIG d   1       1.115  -0.193  -8.679  0.00  0.00     0.063 H 
ATOM     20  C   LIG d   1       2.334  -1.396 -11.589  0.00  0.00     0.120 A 
ATOM     21  H   LIG d   1       0.446  -0.557 -11.014  0.00  0.00     0.065 H 
ATOM     22  C   LIG d   1       3.611  -1.754 -11.174  0.00  0.00    -0.019 A 
ATOM     23  C   LIG d   1       3.995  -1.548  -9.868  0.00  0.00    -0.048 A 
ATOM     24  H   LIG d   1       4.304  -2.190 -11.878  0.00  0.00     0.065 H 
ATOM     25  H   LIG d   1       4.989  -1.824  -9.548  0.00  0.00     0.063 H 
BRANCH  20  26
ATOM     26  O   LIG d   1       1.960  -1.594 -12.879  0.00  0.00    -0.495 OA
BRANCH  26  27
ATOM     27  C   LIG d   1       3.006  -1.702 -13.848  0.00  0.00     0.079 C 
ATOM     28  H   LIG d   1       3.875  -1.140 -13.508  0.00  0.00     0.066 H 
ATOM     29  H   LIG d   1       3.277  -2.750 -13.974  0.00  0.00     0.066 H 
ATOM     30  H   LIG d   1       2.662  -1.299 -14.801  0.00  0.00     0.066 H 
ENDBRANCH  26  27
ENDBRANCH  20  26
ENDBRANCH   8  16
BRANCH   1  31
ATOM     31  C   LIG d   1       7.625  -2.728  -3.507  0.00  0.00    -0.040 C 
ATOM     32  H   LIG d   1       7.397  -3.108  -2.512  0.00  0.00     0.028 H 
ATOM     33  H   LIG d   1       7.810  -3.564  -4.182  0.00  0.00     0.028 H 
ATOM     34  H   LIG d   1       8.514  -2.097  -3.459  0.00  0.00     0.028 H 
ENDBRANCH   1  31
TORSDOF 4
ENDMDL
MODEL 7
REMARK VINA RESULT:      -5.3      9.339     11.822
REMARK  4 active torsions:
REMARK  status: ('A' for Active; 'I' for Inactive)
REMARK    1  A    between atoms: C_1  and  C_2 
REMARK    2  A    between atoms: C_9  and  C_13 
REMARK    3  A    between atoms: C_16  and  O_19 
REMARK    4  A    between atoms: O_19  and  C_20 
ROOT
ATOM      1  C   LIG d   1      11.048  10.947  -0.109  0.00  0.00    -0.047 A 
ATOM      2  C   LIG d   1      11.394  10.504   1.159  0.00  0.00    -0.058 A 
ATOM      3  C   LIG d   1      11.421   9.157   1.441  0.00  0.00    -0.047 A 
ATOM      4  C   LIG d   1      11.088   8.239   0.446  0.00  0.00     0.064 A 
ATOM      5  C   LIG d   1      11.099   6.785   0.707  0.00  0.00     0.193 A 
ATOM      6  O   LIG d   1      11.400   6.340   1.802  0.00  0.00    -0.287 OA
ATOM      7  C   LIG d   1      10.748   5.931  -0.362  0.00  0.00     0.029 A 
ATOM      8  C   LIG d   1      10.419   6.467  -1.570  0.00  0.00     0.139 A 
ATOM      9  O   LIG d   1      10.413   7.791  -1.794  0.00  0.00    -0.455 OA
ATOM     10  C   LIG d   1      10.733   8.685  -0.836  0.00  0.00     0.140 A 
ATOM     11  C   LIG d   1      10.717  10.050  -1.102  0.00  0.00    -0.016 A 
ATOM     12  H   LIG d   1      11.646  11.220   1.928  0.00  0.00     0.062 H 
ATOM     13  H   LIG d   1      11.695   8.813   2.428  0.00  0.00     0.063 H 
ATOM     14  H   LIG d   1      10.741   4.860  -0.223  0.00  0.00     0.069 H 
ATOM     15  H   LIG d   1      10.445  10.406  -2.085  0.00  0.00     0.066 H 
ENDROOT
BRANCH   8  16
ATOM     16  C   LIG d   1      10.055   5.560  -2.673  0.00  0.00     0.018 A 
ATOM     17  C   LIG d   1      10.184   4.176  -2.514  0.00  0.00    -0.048 A 
ATOM     18  C   LIG d   1       9.842   3.331  -3.547  0.00  0.00    -0.019 A 
ATOM     19  H   LIG d   1      10.551   3.770  -1.584  0.00  0.00     0.063 H 
ATOM     20  C   LIG d   1       9.368   3.853  -4.745  0.00  0.00     0.120 A 
ATOM     21  H   LIG d   1       9.942   2.263  -3.425  0.00  0.00     0.065 H 
ATOM     22  C   LIG d   1       9.238   5.227  -4.908  0.00  0.00    -0.019 A 
ATOM     23  C   LIG d   1       9.573   6.078  -3.878  0.00  0.00    -0.048 A 
ATOM     24  H   LIG d   1       8.870   5.627  -5.840  0.00  0.00     0.065 H 
ATOM     25  H   LIG d   1       9.468   7.145  -4.004  0.00  0.00     0.063 H 
BRANCH  20  26
ATOM     26  O   LIG d   1       9.032   3.016  -5.760  0.00  0.00    -0.495 OA
BRANCH  26  27
ATOM     27  C   LIG d   1       8.238   1.876  -5.425  0.00  0.00     0.079 C 
ATOM     28  H   LIG d   1       8.835   1.178  -4.836  0.00  0.00     0.066 H 
ATOM     29  H   LIG d   1       7.373   2.194  -4.844  0.00  0.00     0.066 H 
ATOM     30  H   LIG d   1       7.902   1.384  -6.338  0.00  0.00     0.066 H 
ENDBRANCH  26  27
ENDBRANCH  20  26
ENDBRANCH   8  16
BRANCH   1  31
ATOM     31  C   LIG d   1      11.027  12.425  -0.403  0.00  0.00    -0.040 C 
ATOM     32  H   LIG d   1      10.128  12.869   0.022  0.00  0.00     0.028 H 
ATOM     33  H   LIG d   1      11.907  12.895   0.037  0.00  0.00     0.028 H 
ATOM     34  H   LIG d   1      11.034  12.581  -1.482  0.00  0.00     0.028 H 
ENDBRANCH   1  31
TORSDOF 4
ENDMDL
MODEL 8
REMARK VINA RESULT:      -5.3      5.707      8.293
REMARK  4 active torsions:
REMARK  status: ('A' for Active; 'I' for Inactive)
REMARK    1  A    between atoms: C_1  and  C_2 
REMARK    2  A    between atoms: C_9  and  C_13 
REMARK    3  A    between atoms: C_16  and  O_19 
REMARK    4  A    between atoms: O_19  and  C_20 
ROOT
ATOM      1  C   LIG d   1      11.616   5.099  -2.593  0.00  0.00    -0.047 A 
ATOM      2  C   LIG d   1      11.833   5.532  -3.893  0.00  0.00    -0.058 A 
ATOM      3  C   LIG d   1      11.116   4.989  -4.935  0.00  0.00    -0.047 A 
ATOM      4  C   LIG d   1      10.178   3.990  -4.677  0.00  0.00     0.064 A 
ATOM      5  C   LIG d   1       9.390   3.376  -5.766  0.00  0.00     0.193 A 
ATOM      6  O   LIG d   1       9.537   3.723  -6.927  0.00  0.00    -0.287 OA
ATOM      7  C   LIG d   1       8.462   2.373  -5.411  0.00  0.00     0.029 A 
ATOM      8  C   LIG d   1       8.329   2.015  -4.103  0.00  0.00     0.139 A 
ATOM      9  O   LIG d   1       9.050   2.581  -3.123  0.00  0.00    -0.455 OA
ATOM     10  C   LIG d   1       9.961   3.547  -3.364  0.00  0.00     0.140 A 
ATOM     11  C   LIG d   1      10.691   4.112  -2.325  0.00  0.00    -0.016 A 
ATOM     12  H   LIG d   1      12.564   6.302  -4.087  0.00  0.00     0.062 H 
ATOM     13  H   LIG d   1      11.282   5.330  -5.946  0.00  0.00     0.063 H 
ATOM     14  H   LIG d   1       7.863   1.893  -6.170  0.00  0.00     0.069 H 
ATOM     15  H   LIG d   1      10.534   3.779  -1.310  0.00  0.00     0.066 H 
ENDROOT
BRANCH   8  16
ATOM     16  C   LIG d   1       7.355   0.965  -3.752  0.00  0.00     0.018 A 
ATOM     17  C   LIG d   1       7.626  -0.373  -4.057  0.00  0.00    -0.048 A 
ATOM     18  C   LIG d   1       6.715  -1.351  -3.726  0.00  0.00    -0.019 A 
ATOM     19  H   LIG d   1       8.549  -0.639  -4.550  0.00  0.00     0.063 H 
ATOM     20  C   LIG d   1       5.527  -1.009  -3.090  0.00  0.00     0.120 A 
ATOM     21  H   LIG d   1       6.923  -2.384  -3.961  0.00  0.00     0.065 H 
ATOM     22  C   LIG d   1       5.253   0.319  -2.785  0.00  0.00    -0.019 A 
ATOM     23  C   LIG d   1       6.162   1.302  -3.107  0.00  0.00    -0.048 A 
ATOM     24  H   LIG d   1       4.329   0.579  -2.290  0.00  0.00     0.065 H 
ATOM     25  H   LIG d   1       5.950   2.333  -2.866  0.00  0.00     0.063 H 
BRANCH  20  26
ATOM     26  O   LIG d   1       4.631  -1.977  -2.765  0.00  0.00    -0.495 OA
BRANCH  26  27
ATOM     27  C   LIG d   1       3.257  -1.591  -2.692  0.00  0.00     0.079 C 
ATOM     28  H   LIG d   1       3.131  -0.608  -3.147  0.00  0.00     0.066 H 
ATOM     29  H   LIG d   1       2.646  -2.319  -3.224  0.00  0.00     0.066 H 
ATOM     30  H   LIG d   1       2.946  -1.549  -1.648  0.00  0.00     0.066 H 
ENDBRANCH  26  27
ENDBRANCH  20  26
ENDBRANCH   8  16
BRANCH   1  31
ATOM     31  C   LIG d   1      12.405   5.707  -1.462  0.00  0.00    -0.040 C 
ATOM     32  H   LIG d   1      13.439   5.365  -1.514  0.00  0.00     0.028 H 
ATOM     33  H   LIG d   1      12.377   6.794  -1.543  0.00  0.00     0.028 H 
ATOM     34  H   LIG d   1      11.970   5.402  -0.510  0.00  0.00     0.028 H 
ENDBRANCH   1  31
TORSDOF 4
ENDMDL
MODEL 9
REMARK VINA RESULT:      -5.2      8.242     11.642
REMARK  4 active torsions:
REMARK  status: ('A' for Active; 'I' for Inactive)
REMARK    1  A    between atoms: C_1  and  C_2 
REMARK    2  A    between atoms: C_9  and  C_13 
REMARK    3  A    between atoms: C_16  and  O_19 
REMARK    4  A    between atoms: O_19  and  C_20 
ROOT
ATOM      1  C   LIG d   1       9.688   5.288  -7.790  0.00  0.00    -0.047 A 
ATOM      2  C   LIG d   1       9.406   3.932  -7.868  0.00  0.00    -0.058 A 
ATOM      3  C   LIG d   1       9.393   3.158  -6.729  0.00  0.00    -0.047 A 
ATOM      4  C   LIG d   1       9.677   3.744  -5.496  0.00  0.00     0.064 A 
ATOM      5  C   LIG d   1       9.680   2.950  -4.251  0.00  0.00     0.193 A 
ATOM      6  O   LIG d   1       9.434   1.755  -4.260  0.00  0.00    -0.287 OA
ATOM      7  C   LIG d   1       9.978   3.629  -3.048  0.00  0.00     0.029 A 
ATOM      8  C   LIG d   1      10.246   4.964  -3.080  0.00  0.00     0.139 A 
ATOM      9  O   LIG d   1      10.240   5.674  -4.219  0.00  0.00    -0.455 OA
ATOM     10  C   LIG d   1       9.968   5.115  -5.416  0.00  0.00     0.140 A 
ATOM     11  C   LIG d   1       9.969   5.879  -6.577  0.00  0.00    -0.016 A 
ATOM     12  H   LIG d   1       9.191   3.482  -8.826  0.00  0.00     0.062 H 
ATOM     13  H   LIG d   1       9.169   2.103  -6.790  0.00  0.00     0.063 H 
ATOM     14  H   LIG d   1       9.992   3.093  -2.110  0.00  0.00     0.069 H 
ATOM     15  H   LIG d   1      10.192   6.935  -6.528  0.00  0.00     0.066 H 
ENDROOT
BRANCH   8  16
ATOM     16  C   LIG d   1      10.555   5.655  -1.815  0.00  0.00     0.018 A 
ATOM     17  C   LIG d   1       9.982   6.900  -1.538  0.00  0.00    -0.048 A 
ATOM     18  C   LIG d   1      10.273   7.542  -0.355  0.00  0.00    -0.019 A 
ATOM     19  H   LIG d   1       9.312   7.358  -2.250  0.00  0.00     0.063 H 
ATOM     20  C   LIG d   1      11.134   6.954   0.563  0.00  0.00     0.120 A 
ATOM     21  H   LIG d   1       9.830   8.504  -0.140  0.00  0.00     0.065 H 
ATOM     22  C   LIG d   1      11.707   5.716   0.293  0.00  0.00    -0.019 A 
ATOM     23  C   LIG d   1      11.417   5.066  -0.886  0.00  0.00    -0.048 A 
ATOM     24  H   LIG d   1      12.376   5.263   1.009  0.00  0.00     0.065 H 
ATOM     25  H   LIG d   1      11.859   4.102  -1.094  0.00  0.00     0.063 H 
BRANCH  20  26
ATOM     26  O   LIG d   1      11.418   7.590   1.729  0.00  0.00    -0.495 OA
BRANCH  26  27
ATOM     27  C   LIG d   1      11.629   9.002   1.662  0.00  0.00     0.079 C 
ATOM     28  H   LIG d   1      10.668   9.511   1.595  0.00  0.00     0.066 H 
ATOM     29  H   LIG d   1      12.154   9.333   2.558  0.00  0.00     0.066 H 
ATOM     30  H   LIG d   1      12.228   9.239   0.782  0.00  0.00     0.066 H 
ENDBRANCH  26  27
ENDBRANCH  20  26
ENDBRANCH   8  16
BRANCH   1  31
ATOM     31  C   LIG d   1       9.692   6.122  -9.045  0.00  0.00    -0.040 C 
ATOM     32  H   LIG d   1       9.601   7.175  -8.782  0.00  0.00     0.028 H 
ATOM     33  H   LIG d   1      10.626   5.961  -9.584  0.00  0.00     0.028 H 
ATOM     34  H   LIG d   1       8.853   5.831  -9.678  0.00  0.00     0.028 H 
ENDBRANCH   1  31
TORSDOF 4
ENDMDL
MODEL 10
REMARK VINA RESULT:      -5.2      9.492     10.773
REMARK  4 active torsions:
REMARK  status: ('A' for Active; 'I' for Inactive)
REMARK    1  A    between atoms: C_1  and  C_2 
REMARK    2  A    between atoms: C_9  and  C_13 
REMARK    3  A    between atoms: C_16  and  O_19 
REMARK    4  A    between atoms: O_19  and  C_20 
ROOT
ATOM      1  C   LIG d   1      11.191   8.170   0.287  0.00  0.00    -0.047 A 
ATOM      2  C   LIG d   1      11.012   6.853   0.684  0.00  0.00    -0.058 A 
ATOM      3  C   LIG d   1      10.655   5.892  -0.236  0.00  0.00    -0.047 A 
ATOM      4  C   LIG d   1      10.464   6.254  -1.569  0.00  0.00     0.064 A 
ATOM      5  C   LIG d   1      10.077   5.257  -2.587  0.00  0.00     0.193 A 
ATOM      6  O   LIG d   1       9.910   4.084  -2.295  0.00  0.00    -0.287 OA
ATOM      7  C   LIG d   1       9.907   5.714  -3.913  0.00  0.00     0.029 A 
ATOM      8  C   LIG d   1      10.103   7.032  -4.198  0.00  0.00     0.139 A 
ATOM      9  O   LIG d   1      10.456   7.928  -3.263  0.00  0.00    -0.455 OA
ATOM     10  C   LIG d   1      10.641   7.587  -1.971  0.00  0.00     0.140 A 
ATOM     11  C   LIG d   1      11.006   8.540  -1.028  0.00  0.00    -0.016 A 
ATOM     12  H   LIG d   1      11.156   6.579   1.719  0.00  0.00     0.062 H 
ATOM     13  H   LIG d   1      10.520   4.866   0.073  0.00  0.00     0.063 H 
ATOM     14  H   LIG d   1       9.624   5.025  -4.694  0.00  0.00     0.069 H 
ATOM     15  H   LIG d   1      11.145   9.569  -1.325  0.00  0.00     0.066 H 
ENDROOT
BRANCH   8  16
ATOM     16  C   LIG d   1       9.920   7.491  -5.587  0.00  0.00     0.018 A 
ATOM     17  C   LIG d   1       9.640   8.836  -5.850  0.00  0.00    -0.048 A 
ATOM     18  C   LIG d   1       9.471   9.261  -7.149  0.00  0.00    -0.019 A 
ATOM     19  H   LIG d   1       9.557   9.540  -5.036  0.00  0.00     0.063 H 
ATOM     20  C   LIG d   1       9.579   8.355  -8.198  0.00  0.00     0.120 A 
ATOM     21  H   LIG d   1       9.254  10.299  -7.352  0.00  0.00     0.065 H 
ATOM     22  C   LIG d   1       9.857   7.018  -7.942  0.00  0.00    -0.019 A 
ATOM     23  C   LIG d   1      10.033   6.586  -6.646  0.00  0.00    -0.048 A 
ATOM     24  H   LIG d   1       9.940   6.318  -8.760  0.00  0.00     0.065 H 
ATOM     25  H   LIG d   1      10.253   5.547  -6.448  0.00  0.00     0.063 H 
BRANCH  20  26
ATOM     26  O   LIG d   1       9.412   8.779  -9.477  0.00  0.00    -0.495 OA
BRANCH  26  27
ATOM     27  C   LIG d   1      10.189   8.126 -10.483  0.00  0.00     0.079 C 
ATOM     28  H   LIG d   1      10.861   7.408 -10.014  0.00  0.00     0.066 H 
ATOM     29  H   LIG d   1       9.525   7.605 -11.173  0.00  0.00     0.066 H 
ATOM     30  H   LIG d   1      10.773   8.867 -11.030  0.00  0.00     0.066 H 
ENDBRANCH  26  27
ENDBRANCH  20  26
ENDBRANCH   8  16
BRANCH   1  31
ATOM     31  C   LIG d   1      11.586   9.208   1.305  0.00  0.00    -0.040 C 
ATOM     32  H   LIG d   1      10.693   9.612   1.780  0.00  0.00     0.028 H 
ATOM     33  H   LIG d   1      12.225   8.751   2.062  0.00  0.00     0.028 H 
ATOM     34  H   LIG d   1      12.130  10.014   0.810  0.00  0.00     0.028 H 
ENDBRANCH   1  31
TORSDOF 4
ENDMDL
