MODEL 1
REMARK VINA RESULT:      -5.9      0.000      0.000
REMARK  11 active torsions:
REMARK  status: ('A' for Active; 'I' for Inactive)
REMARK    1  A    between atoms: C_1  and  C_2 
REMARK    2  A    between atoms: C_4  and  C_27 
REMARK    3  A    between atoms: C_5  and  C_9 
REMARK    4  A    between atoms: C_6  and  C_8 
REMARK    5  A    between atoms: C_10  and  O_19 
REMARK    6  A    between atoms: O_19  and  C_20 
REMARK    7  A    between atoms: C_20  and  C_22 
REMARK    8  A    between atoms: C_22  and  C_23 
REMARK    9  A    between atoms: C_23  and  C_24 
REMARK   10  A    between atoms: C_23  and  C_25 
REMARK   11  A    between atoms: C_23  and  C_26 
ROOT
ATOM      1  C   LIG d   1       5.950  -1.478  -7.256  0.00  0.00     0.109 A 
ATOM      2  C   LIG d   1       5.170  -0.377  -7.095  0.00  0.00     0.167 A 
ATOM      3  C   LIG d   1       4.558  -0.097  -8.442  0.00  0.00     0.172 A 
ATOM      4  C   LIG d   1       4.951   1.309  -8.930  0.00  0.00    -0.005 C 
ATOM      5  C   LIG d   1       3.689   1.819  -9.669  0.00  0.00    -0.049 C 
ATOM      6  C   LIG d   1       2.532   1.264  -8.799  0.00  0.00    -0.049 C 
ATOM      7  C   LIG d   1       3.026  -0.131  -8.358  0.00  0.00    -0.005 C 
ATOM      8  O   LIG d   1       5.040  -1.094  -9.338  0.00  0.00    -0.447 OA
ATOM      9  C   LIG d   1       5.867  -1.910  -8.654  0.00  0.00     0.344 A 
ATOM     10  O   LIG d   1       6.452  -2.865  -9.126  0.00  0.00    -0.245 OA
ATOM     11  H   LIG d   1       5.186   1.954  -8.084  0.00  0.00     0.031 H 
ATOM     12  H   LIG d   1       5.798   1.252  -9.614  0.00  0.00     0.031 H 
ATOM     13  H   LIG d   1       3.668   2.908  -9.691  0.00  0.00     0.027 H 
ATOM     14  H   LIG d   1       3.641   1.410 -10.679  0.00  0.00     0.027 H 
ATOM     15  H   LIG d   1       2.369   1.903  -7.931  0.00  0.00     0.027 H 
ATOM     16  H   LIG d   1       1.619   1.178  -9.387  0.00  0.00     0.027 H 
ATOM     17  H   LIG d   1       2.632  -0.896  -9.029  0.00  0.00     0.031 H 
ATOM     18  H   LIG d   1       2.712  -0.334  -7.334  0.00  0.00     0.031 H 
ENDROOT
BRANCH   1  19
ATOM     19  C   LIG d   1       6.758  -2.129  -6.196  0.00  0.00    -0.002 A 
ATOM     20  C   LIG d   1       7.988  -1.589  -5.824  0.00  0.00    -0.042 A 
ATOM     21  C   LIG d   1       8.735  -2.199  -4.836  0.00  0.00    -0.055 A 
ATOM     22  C   LIG d   1       8.265  -3.342  -4.215  0.00  0.00    -0.050 A 
ATOM     23  H   LIG d   1       9.689  -1.783  -4.548  0.00  0.00     0.062 H 
ATOM     24  C   LIG d   1       7.047  -3.883  -4.583  0.00  0.00    -0.055 A 
ATOM     25  C   LIG d   1       6.288  -3.280  -5.566  0.00  0.00    -0.042 A 
ATOM     26  H   LIG d   1       6.686  -4.778  -4.098  0.00  0.00     0.062 H 
BRANCH  20  27
ATOM     27  C   LIG d   1       8.502  -0.345  -6.500  0.00  0.00    -0.039 C 
ATOM     28  H   LIG d   1       8.903  -0.602  -7.480  0.00  0.00     0.028 H 
ATOM     29  H   LIG d   1       7.687   0.369  -6.617  0.00  0.00     0.028 H 
ATOM     30  H   LIG d   1       9.289   0.101  -5.891  0.00  0.00     0.028 H 
ENDBRANCH  20  27
BRANCH  22  31
ATOM     31  C   LIG d   1       9.085  -4.003  -3.138  0.00  0.00    -0.040 C 
ATOM     32  H   LIG d   1       9.256  -3.297  -2.326  0.00  0.00     0.028 H 
ATOM     33  H   LIG d   1       8.549  -4.872  -2.756  0.00  0.00     0.028 H 
ATOM     34  H   LIG d   1      10.042  -4.320  -3.552  0.00  0.00     0.028 H 
ENDBRANCH  22  31
BRANCH  25  35
ATOM     35  C   LIG d   1       4.958  -3.868  -5.961  0.00  0.00    -0.039 C 
ATOM     36  H   LIG d   1       4.688  -4.659  -5.260  0.00  0.00     0.028 H 
ATOM     37  H   LIG d   1       4.197  -3.089  -5.943  0.00  0.00     0.028 H 
ATOM     38  H   LIG d   1       5.029  -4.284  -6.967  0.00  0.00     0.028 H 
ENDBRANCH  25  35
ENDBRANCH   1  19
BRANCH   2  39
ATOM     39  O   LIG d   1       4.982   0.323  -5.958  0.00  0.00    -0.425 OA
BRANCH  39  40
ATOM     40  C   LIG d   1       3.862   0.092  -5.252  0.00  0.00     0.313 C 
ATOM     41  O   LIG d   1       2.904   0.816  -5.383  0.00  0.00    -0.250 OA
BRANCH  40  42
ATOM     42  C   LIG d   1       3.801  -1.073  -4.297  0.00  0.00     0.050 C 
ATOM     43  H   LIG d   1       2.764  -1.380  -4.164  0.00  0.00     0.038 H 
ATOM     44  H   LIG d   1       4.378  -1.905  -4.700  0.00  0.00     0.038 H 
BRANCH  42  45
ATOM     45  C   LIG d   1       4.385  -0.655  -2.946  0.00  0.00    -0.028 C 
BRANCH  45  46
ATOM     46  C   LIG d   1       5.860  -0.286  -3.120  0.00  0.00    -0.060 C 
ATOM     47  H   LIG d   1       6.095  -0.217  -4.182  0.00  0.00     0.024 H 
ATOM     48  H   LIG d   1       6.054   0.674  -2.640  0.00  0.00     0.024 H 
ATOM     49  H   LIG d   1       6.483  -1.053  -2.659  0.00  0.00     0.024 H 
ENDBRANCH  45  46
BRANCH  45  50
ATOM     50  C   LIG d   1       3.617   0.556  -2.410  0.00  0.00    -0.060 C 
ATOM     51  H   LIG d   1       2.663   0.640  -2.931  0.00  0.00     0.024 H 
ATOM     52  H   LIG d   1       3.439   0.429  -1.343  0.00  0.00     0.024 H 
ATOM     53  H   LIG d   1       4.203   1.460  -2.576  0.00  0.00     0.024 H 
ENDBRANCH  45  50
BRANCH  45  54
ATOM     54  C   LIG d   1       4.262  -1.815  -1.956  0.00  0.00    -0.060 C 
ATOM     55  H   LIG d   1       4.183  -2.754  -2.505  0.00  0.00     0.024 H 
ATOM     56  H   LIG d   1       5.144  -1.841  -1.316  0.00  0.00     0.024 H 
ATOM     57  H   LIG d   1       3.372  -1.677  -1.343  0.00  0.00     0.024 H 
ENDBRANCH  45  54
ENDBRANCH  42  45
ENDBRANCH  40  42
ENDBRANCH  39  40
ENDBRANCH   2  39
TORSDOF 11
ENDMDL
MODEL 2
REMARK VINA RESULT:      -5.8      0.031      1.850
REMARK  11 active torsions:
REMARK  status: ('A' for Active; 'I' for Inactive)
REMARK    1  A    between atoms: C_1  and  C_2 
REMARK    2  A    between atoms: C_4  and  C_27 
REMARK    3  A    between atoms: C_5  and  C_9 
REMARK    4  A    between atoms: C_6  and  C_8 
REMARK    5  A    between atoms: C_10  and  O_19 
REMARK    6  A    between atoms: O_19  and  C_20 
REMARK    7  A    between atoms: C_20  and  C_22 
REMARK    8  A    between atoms: C_22  and  C_23 
REMARK    9  A    between atoms: C_23  and  C_24 
REMARK   10  A    between atoms: C_23  and  C_25 
REMARK   11  A    between atoms: C_23  and  C_26 
ROOT
ATOM      1  C   LIG d   1       5.964  -1.477  -7.279  0.00  0.00     0.109 A 
ATOM      2  C   LIG d   1       5.183  -0.377  -7.122  0.00  0.00     0.167 A 
ATOM      3  C   LIG d   1       4.574  -0.097  -8.471  0.00  0.00     0.172 A 
ATOM      4  C   LIG d   1       4.969   1.307  -8.959  0.00  0.00    -0.005 C 
ATOM      5  C   LIG d   1       3.709   1.817  -9.702  0.00  0.00    -0.049 C 
ATOM      6  C   LIG d   1       2.550   1.263  -8.834  0.00  0.00    -0.049 C 
ATOM      7  C   LIG d   1       3.042  -0.132  -8.391  0.00  0.00    -0.005 C 
ATOM      8  O   LIG d   1       5.059  -1.096  -9.364  0.00  0.00    -0.447 OA
ATOM      9  C   LIG d   1       5.884  -1.911  -8.677  0.00  0.00     0.344 A 
ATOM     10  O   LIG d   1       6.470  -2.867  -9.146  0.00  0.00    -0.245 OA
ATOM     11  H   LIG d   1       5.202   1.954  -8.113  0.00  0.00     0.031 H 
ATOM     12  H   LIG d   1       5.818   1.250  -9.641  0.00  0.00     0.031 H 
ATOM     13  H   LIG d   1       3.688   2.906  -9.725  0.00  0.00     0.027 H 
ATOM     14  H   LIG d   1       3.664   1.407 -10.711  0.00  0.00     0.027 H 
ATOM     15  H   LIG d   1       2.385   1.902  -7.967  0.00  0.00     0.027 H 
ATOM     16  H   LIG d   1       1.639   1.176  -9.425  0.00  0.00     0.027 H 
ATOM     17  H   LIG d   1       2.651  -0.897  -9.062  0.00  0.00     0.031 H 
ATOM     18  H   LIG d   1       2.725  -0.333  -7.368  0.00  0.00     0.031 H 
ENDROOT
BRANCH   1  19
ATOM     19  C   LIG d   1       6.768  -2.127  -6.216  0.00  0.00    -0.002 A 
ATOM     20  C   LIG d   1       6.298  -3.281  -5.591  0.00  0.00    -0.042 A 
ATOM     21  C   LIG d   1       7.051  -3.883  -4.602  0.00  0.00    -0.055 A 
ATOM     22  C   LIG d   1       8.269  -3.343  -4.232  0.00  0.00    -0.050 A 
ATOM     23  H   LIG d   1       6.687  -4.776  -4.117  0.00  0.00     0.062 H 
ATOM     24  C   LIG d   1       8.738  -2.196  -4.846  0.00  0.00    -0.055 A 
ATOM     25  C   LIG d   1       7.996  -1.588  -5.840  0.00  0.00    -0.042 A 
ATOM     26  H   LIG d   1       9.688  -1.776  -4.550  0.00  0.00     0.062 H 
BRANCH  20  27
ATOM     27  C   LIG d   1       4.971  -3.871  -5.993  0.00  0.00    -0.039 C 
ATOM     28  H   LIG d   1       4.692  -3.500  -6.979  0.00  0.00     0.028 H 
ATOM     29  H   LIG d   1       5.049  -4.957  -6.022  0.00  0.00     0.028 H 
ATOM     30  H   LIG d   1       4.209  -3.582  -5.267  0.00  0.00     0.028 H 
ENDBRANCH  20  27
BRANCH  22  31
ATOM     31  C   LIG d   1       9.086  -4.004  -3.152  0.00  0.00    -0.040 C 
ATOM     32  H   LIG d   1       9.077  -3.381  -2.258  0.00  0.00     0.028 H 
ATOM     33  H   LIG d   1       8.659  -4.979  -2.920  0.00  0.00     0.028 H 
ATOM     34  H   LIG d   1      10.112  -4.129  -3.498  0.00  0.00     0.028 H 
ENDBRANCH  22  31
BRANCH  25  35
ATOM     35  C   LIG d   1       8.512  -0.342  -6.512  0.00  0.00    -0.039 C 
ATOM     36  H   LIG d   1       9.092   0.243  -5.796  0.00  0.00     0.028 H 
ATOM     37  H   LIG d   1       9.146  -0.619  -7.353  0.00  0.00     0.028 H 
ATOM     38  H   LIG d   1       7.671   0.252  -6.869  0.00  0.00     0.028 H 
ENDBRANCH  25  35
ENDBRANCH   1  19
BRANCH   2  39
ATOM     39  O   LIG d   1       4.992   0.325  -5.986  0.00  0.00    -0.425 OA
BRANCH  39  40
ATOM     40  C   LIG d   1       3.874   0.088  -5.278  0.00  0.00     0.313 C 
ATOM     41  O   LIG d   1       2.908   0.800  -5.417  0.00  0.00    -0.250 OA
BRANCH  40  42
ATOM     42  C   LIG d   1       3.826  -1.066  -4.310  0.00  0.00     0.050 C 
ATOM     43  H   LIG d   1       2.792  -1.385  -4.175  0.00  0.00     0.038 H 
ATOM     44  H   LIG d   1       4.413  -1.896  -4.704  0.00  0.00     0.038 H 
BRANCH  42  45
ATOM     45  C   LIG d   1       4.404  -0.627  -2.964  0.00  0.00    -0.028 C 
BRANCH  45  46
ATOM     46  C   LIG d   1       3.627   0.585  -2.446  0.00  0.00    -0.060 C 
ATOM     47  H   LIG d   1       2.948   0.939  -3.221  0.00  0.00     0.024 H 
ATOM     48  H   LIG d   1       3.054   0.300  -1.563  0.00  0.00     0.024 H 
ATOM     49  H   LIG d   1       4.326   1.379  -2.183  0.00  0.00     0.024 H 
ENDBRANCH  45  46
BRANCH  45  50
ATOM     50  C   LIG d   1       4.287  -1.775  -1.958  0.00  0.00    -0.060 C 
ATOM     51  H   LIG d   1       4.573  -1.421  -0.968  0.00  0.00     0.024 H 
ATOM     52  H   LIG d   1       3.258  -2.132  -1.933  0.00  0.00     0.024 H 
ATOM     53  H   LIG d   1       4.947  -2.589  -2.259  0.00  0.00     0.024 H 
ENDBRANCH  45  50
BRANCH  45  54
ATOM     54  C   LIG d   1       5.877  -0.251  -3.139  0.00  0.00    -0.060 C 
ATOM     55  H   LIG d   1       6.133   0.550  -2.446  0.00  0.00     0.024 H 
ATOM     56  H   LIG d   1       6.500  -1.122  -2.934  0.00  0.00     0.024 H 
ATOM     57  H   LIG d   1       6.047   0.085  -4.161  0.00  0.00     0.024 H 
ENDBRANCH  45  54
ENDBRANCH  42  45
ENDBRANCH  40  42
ENDBRANCH  39  40
ENDBRANCH   2  39
TORSDOF 11
ENDMDL
MODEL 3
REMARK VINA RESULT:      -5.5      1.754      4.934
REMARK  11 active torsions:
REMARK  status: ('A' for Active; 'I' for Inactive)
REMARK    1  A    between atoms: C_1  and  C_2 
REMARK    2  A    between atoms: C_4  and  C_27 
REMARK    3  A    between atoms: C_5  and  C_9 
REMARK    4  A    between atoms: C_6  and  C_8 
REMARK    5  A    between atoms: C_10  and  O_19 
REMARK    6  A    between atoms: O_19  and  C_20 
REMARK    7  A    between atoms: C_20  and  C_22 
REMARK    8  A    between atoms: C_22  and  C_23 
REMARK    9  A    between atoms: C_23  and  C_24 
REMARK   10  A    between atoms: C_23  and  C_25 
REMARK   11  A    between atoms: C_23  and  C_26 
ROOT
ATOM      1  C   LIG d   1       5.995  -1.878  -5.767  0.00  0.00     0.109 A 
ATOM      2  C   LIG d   1       5.359  -0.754  -5.345  0.00  0.00     0.167 A 
ATOM      3  C   LIG d   1       5.333  -0.826  -3.841  0.00  0.00     0.172 A 
ATOM      4  C   LIG d   1       3.884  -0.806  -3.326  0.00  0.00    -0.005 C 
ATOM      5  C   LIG d   1       3.960   0.015  -2.015  0.00  0.00    -0.049 C 
ATOM      6  C   LIG d   1       4.997   1.114  -2.357  0.00  0.00    -0.049 C 
ATOM      7  C   LIG d   1       6.044   0.389  -3.229  0.00  0.00    -0.005 C 
ATOM      8  O   LIG d   1       5.984  -2.037  -3.468  0.00  0.00    -0.447 OA
ATOM      9  C   LIG d   1       6.373  -2.670  -4.593  0.00  0.00     0.344 A 
ATOM     10  O   LIG d   1       6.955  -3.736  -4.628  0.00  0.00    -0.245 OA
ATOM     11  H   LIG d   1       3.229  -0.317  -4.047  0.00  0.00     0.031 H 
ATOM     12  H   LIG d   1       3.538  -1.820  -3.123  0.00  0.00     0.031 H 
ATOM     13  H   LIG d   1       2.993   0.456  -1.779  0.00  0.00     0.027 H 
ATOM     14  H   LIG d   1       4.314  -0.605  -1.191  0.00  0.00     0.027 H 
ATOM     15  H   LIG d   1       4.526   1.921  -2.918  0.00  0.00     0.027 H 
ATOM     16  H   LIG d   1       5.459   1.500  -1.448  0.00  0.00     0.027 H 
ATOM     17  H   LIG d   1       6.882   0.060  -2.612  0.00  0.00     0.031 H 
ATOM     18  H   LIG d   1       6.399   1.052  -4.019  0.00  0.00     0.031 H 
ENDROOT
BRANCH   1  19
ATOM     19  C   LIG d   1       6.257  -2.246  -7.180  0.00  0.00    -0.002 A 
ATOM     20  C   LIG d   1       7.325  -1.669  -7.866  0.00  0.00    -0.042 A 
ATOM     21  C   LIG d   1       7.564  -2.016  -9.180  0.00  0.00    -0.055 A 
ATOM     22  C   LIG d   1       6.748  -2.933  -9.817  0.00  0.00    -0.050 A 
ATOM     23  H   LIG d   1       8.391  -1.569  -9.713  0.00  0.00     0.062 H 
ATOM     24  C   LIG d   1       5.684  -3.504  -9.142  0.00  0.00    -0.055 A 
ATOM     25  C   LIG d   1       5.438  -3.169  -7.826  0.00  0.00    -0.042 A 
ATOM     26  H   LIG d   1       5.047  -4.216  -9.646  0.00  0.00     0.062 H 
BRANCH  20  27
ATOM     27  C   LIG d   1       8.215  -0.670  -7.174  0.00  0.00    -0.039 C 
ATOM     28  H   LIG d   1       8.637  -1.119  -6.276  0.00  0.00     0.028 H 
ATOM     29  H   LIG d   1       9.022  -0.376  -7.846  0.00  0.00     0.028 H 
ATOM     30  H   LIG d   1       7.632   0.210  -6.902  0.00  0.00     0.028 H 
ENDBRANCH  20  27
BRANCH  22  31
ATOM     31  C   LIG d   1       7.014  -3.307 -11.252  0.00  0.00    -0.040 C 
ATOM     32  H   LIG d   1       6.113  -3.737 -11.689  0.00  0.00     0.028 H 
ATOM     33  H   LIG d   1       7.298  -2.416 -11.812  0.00  0.00     0.028 H 
ATOM     34  H   LIG d   1       7.823  -4.035 -11.294  0.00  0.00     0.028 H 
ENDBRANCH  22  31
BRANCH  25  35
ATOM     35  C   LIG d   1       4.282  -3.798  -7.091  0.00  0.00    -0.039 C 
ATOM     36  H   LIG d   1       4.122  -3.272  -6.149  0.00  0.00     0.028 H 
ATOM     37  H   LIG d   1       3.383  -3.732  -7.702  0.00  0.00     0.028 H 
ATOM     38  H   LIG d   1       4.508  -4.845  -6.887  0.00  0.00     0.028 H 
ENDBRANCH  25  35
ENDBRANCH   1  19
BRANCH   2  39
ATOM     39  O   LIG d   1       4.852   0.228  -6.118  0.00  0.00    -0.425 OA
BRANCH  39  40
ATOM     40  C   LIG d   1       3.529   0.223  -6.359  0.00  0.00     0.313 C 
ATOM     41  O   LIG d   1       2.780   0.832  -5.632  0.00  0.00    -0.250 OA
BRANCH  40  42
ATOM     42  C   LIG d   1       2.982  -0.542  -7.536  0.00  0.00     0.050 C 
ATOM     43  H   LIG d   1       3.550  -1.463  -7.667  0.00  0.00     0.038 H 
ATOM     44  H   LIG d   1       1.934  -0.783  -7.358  0.00  0.00     0.038 H 
BRANCH  42  45
ATOM     45  C   LIG d   1       3.100   0.313  -8.799  0.00  0.00    -0.028 C 
BRANCH  45  46
ATOM     46  C   LIG d   1       2.869   1.784  -8.444  0.00  0.00    -0.060 C 
ATOM     47  H   LIG d   1       2.827   1.893  -7.360  0.00  0.00     0.024 H 
ATOM     48  H   LIG d   1       3.687   2.386  -8.839  0.00  0.00     0.024 H 
ATOM     49  H   LIG d   1       1.928   2.119  -8.881  0.00  0.00     0.024 H 
ENDBRANCH  45  46
BRANCH  45  50
ATOM     50  C   LIG d   1       4.499   0.148  -9.398  0.00  0.00    -0.060 C 
ATOM     51  H   LIG d   1       5.040  -0.623  -8.850  0.00  0.00     0.024 H 
ATOM     52  H   LIG d   1       4.414  -0.143 -10.445  0.00  0.00     0.024 H 
ATOM     53  H   LIG d   1       5.039   1.093  -9.327  0.00  0.00     0.024 H 
ENDBRANCH  45  50
BRANCH  45  54
ATOM     54  C   LIG d   1       2.053  -0.136  -9.820  0.00  0.00    -0.060 C 
ATOM     55  H   LIG d   1       1.677  -1.121  -9.545  0.00  0.00     0.024 H 
ATOM     56  H   LIG d   1       1.229   0.578  -9.833  0.00  0.00     0.024 H 
ATOM     57  H   LIG d   1       2.507  -0.184 -10.810  0.00  0.00     0.024 H 
ENDBRANCH  45  54
ENDBRANCH  42  45
ENDBRANCH  40  42
ENDBRANCH  39  40
ENDBRANCH   2  39
TORSDOF 11
ENDMDL
MODEL 4
REMARK VINA RESULT:      -5.5      1.757      5.200
REMARK  11 active torsions:
REMARK  status: ('A' for Active; 'I' for Inactive)
REMARK    1  A    between atoms: C_1  and  C_2 
REMARK    2  A    between atoms: C_4  and  C_27 
REMARK    3  A    between atoms: C_5  and  C_9 
REMARK    4  A    between atoms: C_6  and  C_8 
REMARK    5  A    between atoms: C_10  and  O_19 
REMARK    6  A    between atoms: O_19  and  C_20 
REMARK    7  A    between atoms: C_20  and  C_22 
REMARK    8  A    between atoms: C_22  and  C_23 
REMARK    9  A    between atoms: C_23  and  C_24 
REMARK   10  A    between atoms: C_23  and  C_25 
REMARK   11  A    between atoms: C_23  and  C_26 
ROOT
ATOM      1  C   LIG d   1       5.984  -1.864  -5.766  0.00  0.00     0.109 A 
ATOM      2  C   LIG d   1       5.347  -0.742  -5.343  0.00  0.00     0.167 A 
ATOM      3  C   LIG d   1       5.308  -0.823  -3.840  0.00  0.00     0.172 A 
ATOM      4  C   LIG d   1       3.854  -0.805  -3.337  0.00  0.00    -0.005 C 
ATOM      5  C   LIG d   1       3.920   0.008  -2.020  0.00  0.00    -0.049 C 
ATOM      6  C   LIG d   1       4.962   1.108  -2.346  0.00  0.00    -0.049 C 
ATOM      7  C   LIG d   1       6.015   0.386  -3.214  0.00  0.00    -0.005 C 
ATOM      8  O   LIG d   1       5.954  -2.038  -3.469  0.00  0.00    -0.447 OA
ATOM      9  C   LIG d   1       6.352  -2.664  -4.594  0.00  0.00     0.344 A 
ATOM     10  O   LIG d   1       6.932  -3.731  -4.631  0.00  0.00    -0.245 OA
ATOM     11  H   LIG d   1       3.206  -0.310  -4.060  0.00  0.00     0.031 H 
ATOM     12  H   LIG d   1       3.505  -1.820  -3.143  0.00  0.00     0.031 H 
ATOM     13  H   LIG d   1       2.951   0.449  -1.789  0.00  0.00     0.027 H 
ATOM     14  H   LIG d   1       4.267  -0.618  -1.197  0.00  0.00     0.027 H 
ATOM     15  H   LIG d   1       4.496   1.919  -2.906  0.00  0.00     0.027 H 
ATOM     16  H   LIG d   1       5.416   1.487  -1.431  0.00  0.00     0.027 H 
ATOM     17  H   LIG d   1       6.847   0.052  -2.592  0.00  0.00     0.031 H 
ATOM     18  H   LIG d   1       6.378   1.054  -3.996  0.00  0.00     0.031 H 
ENDROOT
BRANCH   1  19
ATOM     19  C   LIG d   1       6.258  -2.223  -7.180  0.00  0.00    -0.002 A 
ATOM     20  C   LIG d   1       5.443  -3.144  -7.837  0.00  0.00    -0.042 A 
ATOM     21  C   LIG d   1       5.702  -3.475  -9.152  0.00  0.00    -0.055 A 
ATOM     22  C   LIG d   1       6.766  -2.894  -9.818  0.00  0.00    -0.050 A 
ATOM     23  H   LIG d   1       5.072  -4.188  -9.662  0.00  0.00     0.062 H 
ATOM     24  C   LIG d   1       7.579  -1.983  -9.169  0.00  0.00    -0.055 A 
ATOM     25  C   LIG d   1       7.328  -1.641  -7.855  0.00  0.00    -0.042 A 
ATOM     26  H   LIG d   1       8.412  -1.536  -9.692  0.00  0.00     0.062 H 
BRANCH  20  27
ATOM     27  C   LIG d   1       4.284  -3.778  -7.113  0.00  0.00    -0.039 C 
ATOM     28  H   LIG d   1       3.621  -3.000  -6.735  0.00  0.00     0.028 H 
ATOM     29  H   LIG d   1       3.734  -4.421  -7.800  0.00  0.00     0.028 H 
ATOM     30  H   LIG d   1       4.657  -4.374  -6.279  0.00  0.00     0.028 H 
ENDBRANCH  20  27
BRANCH  22  31
ATOM     31  C   LIG d   1       7.043  -3.259 -11.253  0.00  0.00    -0.040 C 
ATOM     32  H   LIG d   1       8.074  -3.005 -11.500  0.00  0.00     0.028 H 
ATOM     33  H   LIG d   1       6.890  -4.329 -11.391  0.00  0.00     0.028 H 
ATOM     34  H   LIG d   1       6.367  -2.708 -11.906  0.00  0.00     0.028 H 
ENDBRANCH  22  31
BRANCH  25  35
ATOM     35  C   LIG d   1       8.212  -0.643  -7.152  0.00  0.00    -0.039 C 
ATOM     36  H   LIG d   1       7.991  -0.652  -6.084  0.00  0.00     0.028 H 
ATOM     37  H   LIG d   1       9.257  -0.909  -7.310  0.00  0.00     0.028 H 
ATOM     38  H   LIG d   1       8.025   0.353  -7.553  0.00  0.00     0.028 H 
ENDBRANCH  25  35
ENDBRANCH   1  19
BRANCH   2  39
ATOM     39  O   LIG d   1       4.847   0.246  -6.114  0.00  0.00    -0.425 OA
BRANCH  39  40
ATOM     40  C   LIG d   1       3.526   0.247  -6.361  0.00  0.00     0.313 C 
ATOM     41  O   LIG d   1       2.776   0.860  -5.639  0.00  0.00    -0.250 OA
BRANCH  40  42
ATOM     42  C   LIG d   1       2.980  -0.516  -7.541  0.00  0.00     0.050 C 
ATOM     43  H   LIG d   1       3.545  -1.439  -7.670  0.00  0.00     0.038 H 
ATOM     44  H   LIG d   1       1.931  -0.754  -7.367  0.00  0.00     0.038 H 
BRANCH  42  45
ATOM     45  C   LIG d   1       3.106   0.339  -8.803  0.00  0.00    -0.028 C 
BRANCH  45  46
ATOM     46  C   LIG d   1       2.869   1.809  -8.450  0.00  0.00    -0.060 C 
ATOM     47  H   LIG d   1       2.819   1.919  -7.367  0.00  0.00     0.024 H 
ATOM     48  H   LIG d   1       3.689   2.413  -8.839  0.00  0.00     0.024 H 
ATOM     49  H   LIG d   1       1.931   2.142  -8.894  0.00  0.00     0.024 H 
ENDBRANCH  45  46
BRANCH  45  50
ATOM     50  C   LIG d   1       4.510   0.176  -9.392  0.00  0.00    -0.060 C 
ATOM     51  H   LIG d   1       4.531  -0.695 -10.046  0.00  0.00     0.024 H 
ATOM     52  H   LIG d   1       4.769   1.066  -9.964  0.00  0.00     0.024 H 
ATOM     53  H   LIG d   1       5.229   0.042  -8.583  0.00  0.00     0.024 H 
ENDBRANCH  45  50
BRANCH  45  54
ATOM     54  C   LIG d   1       2.067  -0.112  -9.832  0.00  0.00    -0.060 C 
ATOM     55  H   LIG d   1       1.691  -1.099  -9.559  0.00  0.00     0.024 H 
ATOM     56  H   LIG d   1       1.243   0.599  -9.851  0.00  0.00     0.024 H 
ATOM     57  H   LIG d   1       2.529  -0.161 -10.818  0.00  0.00     0.024 H 
ENDBRANCH  45  54
ENDBRANCH  42  45
ENDBRANCH  40  42
ENDBRANCH  39  40
ENDBRANCH   2  39
TORSDOF 11
ENDMDL
MODEL 5
REMARK VINA RESULT:      -5.4      2.029      5.149
REMARK  11 active torsions:
REMARK  status: ('A' for Active; 'I' for Inactive)
REMARK    1  A    between atoms: C_1  and  C_2 
REMARK    2  A    between atoms: C_4  and  C_27 
REMARK    3  A    between atoms: C_5  and  C_9 
REMARK    4  A    between atoms: C_6  and  C_8 
REMARK    5  A    between atoms: C_10  and  O_19 
REMARK    6  A    between atoms: O_19  and  C_20 
REMARK    7  A    between atoms: C_20  and  C_22 
REMARK    8  A    between atoms: C_22  and  C_23 
REMARK    9  A    between atoms: C_23  and  C_24 
REMARK   10  A    between atoms: C_23  and  C_25 
REMARK   11  A    between atoms: C_23  and  C_26 
ROOT
ATOM      1  C   LIG d   1       7.057  -0.889  -5.579  0.00  0.00     0.109 A 
ATOM      2  C   LIG d   1       5.849  -0.519  -5.080  0.00  0.00     0.167 A 
ATOM      3  C   LIG d   1       5.717  -1.206  -3.747  0.00  0.00     0.172 A 
ATOM      4  C   LIG d   1       4.481  -2.122  -3.733  0.00  0.00    -0.005 C 
ATOM      5  C   LIG d   1       3.934  -1.997  -2.289  0.00  0.00    -0.049 C 
ATOM      6  C   LIG d   1       4.171  -0.501  -1.960  0.00  0.00    -0.049 C 
ATOM      7  C   LIG d   1       5.527  -0.177  -2.624  0.00  0.00    -0.005 C 
ATOM      8  O   LIG d   1       6.907  -1.963  -3.546  0.00  0.00    -0.447 OA
ATOM      9  C   LIG d   1       7.702  -1.791  -4.620  0.00  0.00     0.344 A 
ATOM     10  O   LIG d   1       8.794  -2.303  -4.770  0.00  0.00    -0.245 OA
ATOM     11  H   LIG d   1       3.741  -1.775  -4.454  0.00  0.00     0.031 H 
ATOM     12  H   LIG d   1       4.767  -3.152  -3.946  0.00  0.00     0.031 H 
ATOM     13  H   LIG d   1       2.872  -2.236  -2.257  0.00  0.00     0.027 H 
ATOM     14  H   LIG d   1       4.496  -2.635  -1.607  0.00  0.00     0.027 H 
ATOM     15  H   LIG d   1       3.380   0.113  -2.389  0.00  0.00     0.027 H 
ATOM     16  H   LIG d   1       4.228  -0.352  -0.882  0.00  0.00     0.027 H 
ATOM     17  H   LIG d   1       6.332  -0.268  -1.894  0.00  0.00     0.031 H 
ATOM     18  H   LIG d   1       5.510   0.830  -3.039  0.00  0.00     0.031 H 
ENDROOT
BRANCH   1  19
ATOM     19  C   LIG d   1       7.626  -0.458  -6.880  0.00  0.00    -0.002 A 
ATOM     20  C   LIG d   1       8.169   0.818  -7.016  0.00  0.00    -0.042 A 
ATOM     21  C   LIG d   1       8.698   1.214  -8.228  0.00  0.00    -0.055 A 
ATOM     22  C   LIG d   1       8.689   0.347  -9.306  0.00  0.00    -0.050 A 
ATOM     23  H   LIG d   1       9.119   2.202  -8.336  0.00  0.00     0.062 H 
ATOM     24  C   LIG d   1       8.146  -0.919  -9.177  0.00  0.00    -0.055 A 
ATOM     25  C   LIG d   1       7.620  -1.328  -7.968  0.00  0.00    -0.042 A 
ATOM     26  H   LIG d   1       8.138  -1.590 -10.023  0.00  0.00     0.062 H 
BRANCH  20  27
ATOM     27  C   LIG d   1       8.180   1.764  -5.843  0.00  0.00    -0.039 C 
ATOM     28  H   LIG d   1       8.343   1.202  -4.924  0.00  0.00     0.028 H 
ATOM     29  H   LIG d   1       8.981   2.492  -5.971  0.00  0.00     0.028 H 
ATOM     30  H   LIG d   1       7.223   2.284  -5.787  0.00  0.00     0.028 H 
ENDBRANCH  20  27
BRANCH  22  31
ATOM     31  C   LIG d   1       9.266   0.785 -10.627  0.00  0.00    -0.040 C 
ATOM     32  H   LIG d   1       8.457   1.015 -11.319  0.00  0.00     0.028 H 
ATOM     33  H   LIG d   1       9.880   1.673 -10.478  0.00  0.00     0.028 H 
ATOM     34  H   LIG d   1       9.880  -0.016 -11.039  0.00  0.00     0.028 H 
ENDBRANCH  22  31
BRANCH  25  35
ATOM     35  C   LIG d   1       7.035  -2.710  -7.828  0.00  0.00    -0.039 C 
ATOM     36  H   LIG d   1       7.591  -3.404  -8.459  0.00  0.00     0.028 H 
ATOM     37  H   LIG d   1       7.102  -3.028  -6.789  0.00  0.00     0.028 H 
ATOM     38  H   LIG d   1       5.990  -2.695  -8.138  0.00  0.00     0.028 H 
ENDBRANCH  25  35
ENDBRANCH   1  19
BRANCH   2  39
ATOM     39  O   LIG d   1       4.949   0.299  -5.662  0.00  0.00    -0.425 OA
BRANCH  39  40
ATOM     40  C   LIG d   1       3.839  -0.253  -6.184  0.00  0.00     0.313 C 
ATOM     41  O   LIG d   1       2.756   0.008  -5.715  0.00  0.00    -0.250 OA
BRANCH  40  42
ATOM     42  C   LIG d   1       3.946  -1.195  -7.355  0.00  0.00     0.050 C 
ATOM     43  H   LIG d   1       4.916  -1.693  -7.333  0.00  0.00     0.038 H 
ATOM     44  H   LIG d   1       3.154  -1.941  -7.296  0.00  0.00     0.038 H 
BRANCH  42  45
ATOM     45  C   LIG d   1       3.808  -0.406  -8.659  0.00  0.00    -0.028 C 
BRANCH  45  46
ATOM     46  C   LIG d   1       4.617   0.889  -8.560  0.00  0.00    -0.060 C 
ATOM     47  H   LIG d   1       5.573   0.683  -8.078  0.00  0.00     0.024 H 
ATOM     48  H   LIG d   1       4.792   1.285  -9.560  0.00  0.00     0.024 H 
ATOM     49  H   LIG d   1       4.062   1.620  -7.972  0.00  0.00     0.024 H 
ENDBRANCH  45  46
BRANCH  45  50
ATOM     50  C   LIG d   1       4.333  -1.249  -9.824  0.00  0.00    -0.060 C 
ATOM     51  H   LIG d   1       4.861  -2.119  -9.433  0.00  0.00     0.024 H 
ATOM     52  H   LIG d   1       3.498  -1.577 -10.440  0.00  0.00     0.024 H 
ATOM     53  H   LIG d   1       5.016  -0.649 -10.426  0.00  0.00     0.024 H 
ENDBRANCH  45  50
BRANCH  45  54
ATOM     54  C   LIG d   1       2.334  -0.070  -8.897  0.00  0.00    -0.060 C 
ATOM     55  H   LIG d   1       1.748  -0.367  -8.028  0.00  0.00     0.024 H 
ATOM     56  H   LIG d   1       2.229   1.003  -9.059  0.00  0.00     0.024 H 
ATOM     57  H   LIG d   1       1.977  -0.606  -9.776  0.00  0.00     0.024 H 
ENDBRANCH  45  54
ENDBRANCH  42  45
ENDBRANCH  40  42
ENDBRANCH  39  40
ENDBRANCH   2  39
TORSDOF 11
ENDMDL
MODEL 6
REMARK VINA RESULT:      -5.2      2.043      5.034
REMARK  11 active torsions:
REMARK  status: ('A' for Active; 'I' for Inactive)
REMARK    1  A    between atoms: C_1  and  C_2 
REMARK    2  A    between atoms: C_4  and  C_27 
REMARK    3  A    between atoms: C_5  and  C_9 
REMARK    4  A    between atoms: C_6  and  C_8 
REMARK    5  A    between atoms: C_10  and  O_19 
REMARK    6  A    between atoms: O_19  and  C_20 
REMARK    7  A    between atoms: C_20  and  C_22 
REMARK    8  A    between atoms: C_22  and  C_23 
REMARK    9  A    between atoms: C_23  and  C_24 
REMARK   10  A    between atoms: C_23  and  C_25 
REMARK   11  A    between atoms: C_23  and  C_26 
ROOT
ATOM      1  C   LIG d   1       6.153   0.004  -8.223  0.00  0.00     0.109 A 
ATOM      2  C   LIG d   1       6.406   0.255  -6.912  0.00  0.00     0.167 A 
ATOM      3  C   LIG d   1       7.899   0.414  -6.795  0.00  0.00     0.172 A 
ATOM      4  C   LIG d   1       8.476  -0.629  -5.821  0.00  0.00    -0.005 C 
ATOM      5  C   LIG d   1       9.620   0.125  -5.098  0.00  0.00    -0.049 C 
ATOM      6  C   LIG d   1       9.041   1.552  -4.930  0.00  0.00    -0.049 C 
ATOM      7  C   LIG d   1       8.254   1.797  -6.236  0.00  0.00    -0.005 C 
ATOM      8  O   LIG d   1       8.442   0.238  -8.101  0.00  0.00    -0.447 OA
ATOM      9  C   LIG d   1       7.425  -0.010  -8.950  0.00  0.00     0.344 A 
ATOM     10  O   LIG d   1       7.546  -0.211 -10.143  0.00  0.00    -0.245 OA
ATOM     11  H   LIG d   1       7.716  -0.947  -5.108  0.00  0.00     0.031 H 
ATOM     12  H   LIG d   1       8.869  -1.486  -6.369  0.00  0.00     0.031 H 
ATOM     13  H   LIG d   1       9.825  -0.326  -4.127  0.00  0.00     0.027 H 
ATOM     14  H   LIG d   1      10.520   0.144  -5.713  0.00  0.00     0.027 H 
ATOM     15  H   LIG d   1       8.373   1.593  -4.069  0.00  0.00     0.027 H 
ATOM     16  H   LIG d   1       9.844   2.281  -4.825  0.00  0.00     0.027 H 
ATOM     17  H   LIG d   1       8.875   2.341  -6.949  0.00  0.00     0.031 H 
ATOM     18  H   LIG d   1       7.345   2.361  -6.026  0.00  0.00     0.031 H 
ENDROOT
BRANCH   1  19
ATOM     19  C   LIG d   1       4.813  -0.224  -8.818  0.00  0.00    -0.002 A 
ATOM     20  C   LIG d   1       4.055   0.856  -9.267  0.00  0.00    -0.042 A 
ATOM     21  C   LIG d   1       2.810   0.637  -9.821  0.00  0.00    -0.055 A 
ATOM     22  C   LIG d   1       2.314  -0.649  -9.930  0.00  0.00    -0.050 A 
ATOM     23  H   LIG d   1       2.221   1.473 -10.169  0.00  0.00     0.062 H 
ATOM     24  C   LIG d   1       3.060  -1.724  -9.481  0.00  0.00    -0.055 A 
ATOM     25  C   LIG d   1       4.309  -1.518  -8.931  0.00  0.00    -0.042 A 
ATOM     26  H   LIG d   1       2.666  -2.726  -9.565  0.00  0.00     0.062 H 
BRANCH  20  27
ATOM     27  C   LIG d   1       4.593   2.258  -9.149  0.00  0.00    -0.039 C 
ATOM     28  H   LIG d   1       5.321   2.301  -8.339  0.00  0.00     0.028 H 
ATOM     29  H   LIG d   1       5.074   2.543 -10.085  0.00  0.00     0.028 H 
ATOM     30  H   LIG d   1       3.774   2.946  -8.939  0.00  0.00     0.028 H 
ENDBRANCH  20  27
BRANCH  22  31
ATOM     31  C   LIG d   1       0.953  -0.881 -10.535  0.00  0.00    -0.040 C 
ATOM     32  H   LIG d   1       0.880  -1.912 -10.880  0.00  0.00     0.028 H 
ATOM     33  H   LIG d   1       0.186  -0.696  -9.783  0.00  0.00     0.028 H 
ATOM     34  H   LIG d   1       0.809  -0.204 -11.376  0.00  0.00     0.028 H 
ENDBRANCH  22  31
BRANCH  25  35
ATOM     35  C   LIG d   1       5.124  -2.691  -8.448  0.00  0.00    -0.039 C 
ATOM     36  H   LIG d   1       4.486  -3.363  -7.873  0.00  0.00     0.028 H 
ATOM     37  H   LIG d   1       5.536  -3.224  -9.304  0.00  0.00     0.028 H 
ATOM     38  H   LIG d   1       5.937  -2.333  -7.816  0.00  0.00     0.028 H 
ENDBRANCH  25  35
ENDBRANCH   1  19
BRANCH   2  39
ATOM     39  O   LIG d   1       5.502   0.344  -5.915  0.00  0.00    -0.425 OA
BRANCH  39  40
ATOM     40  C   LIG d   1       5.522  -0.600  -4.958  0.00  0.00     0.313 C 
ATOM     41  O   LIG d   1       5.320  -1.756  -5.245  0.00  0.00    -0.250 OA
BRANCH  40  42
ATOM     42  C   LIG d   1       5.799  -0.216  -3.527  0.00  0.00     0.050 C 
ATOM     43  H   LIG d   1       6.486  -0.937  -3.084  0.00  0.00     0.038 H 
ATOM     44  H   LIG d   1       6.246   0.778  -3.497  0.00  0.00     0.038 H 
BRANCH  42  45
ATOM     45  C   LIG d   1       4.488  -0.210  -2.739  0.00  0.00    -0.028 C 
BRANCH  45  46
ATOM     46  C   LIG d   1       4.295  -1.566  -2.058  0.00  0.00    -0.060 C 
ATOM     47  H   LIG d   1       5.068  -1.706  -1.302  0.00  0.00     0.024 H 
ATOM     48  H   LIG d   1       3.313  -1.600  -1.586  0.00  0.00     0.024 H 
ATOM     49  H   LIG d   1       4.367  -2.359  -2.802  0.00  0.00     0.024 H 
ENDBRANCH  45  46
BRANCH  45  50
ATOM     50  C   LIG d   1       4.536   0.892  -1.677  0.00  0.00    -0.060 C 
ATOM     51  H   LIG d   1       3.940   0.591  -0.815  0.00  0.00     0.024 H 
ATOM     52  H   LIG d   1       5.568   1.052  -1.366  0.00  0.00     0.024 H 
ATOM     53  H   LIG d   1       4.134   1.816  -2.093  0.00  0.00     0.024 H 
ENDBRANCH  45  50
BRANCH  45  54
ATOM     54  C   LIG d   1       3.320   0.053  -3.692  0.00  0.00    -0.060 C 
ATOM     55  H   LIG d   1       2.383   0.024  -3.136  0.00  0.00     0.024 H 
ATOM     56  H   LIG d   1       3.441   1.034  -4.151  0.00  0.00     0.024 H 
ATOM     57  H   LIG d   1       3.306  -0.712  -4.468  0.00  0.00     0.024 H 
ENDBRANCH  45  54
ENDBRANCH  42  45
ENDBRANCH  40  42
ENDBRANCH  39  40
ENDBRANCH   2  39
TORSDOF 11
ENDMDL
MODEL 7
REMARK VINA RESULT:      -5.2      2.052      5.350
REMARK  11 active torsions:
REMARK  status: ('A' for Active; 'I' for Inactive)
REMARK    1  A    between atoms: C_1  and  C_2 
REMARK    2  A    between atoms: C_4  and  C_27 
REMARK    3  A    between atoms: C_5  and  C_9 
REMARK    4  A    between atoms: C_6  and  C_8 
REMARK    5  A    between atoms: C_10  and  O_19 
REMARK    6  A    between atoms: O_19  and  C_20 
REMARK    7  A    between atoms: C_20  and  C_22 
REMARK    8  A    between atoms: C_22  and  C_23 
REMARK    9  A    between atoms: C_23  and  C_24 
REMARK   10  A    between atoms: C_23  and  C_25 
REMARK   11  A    between atoms: C_23  and  C_26 
ROOT
ATOM      1  C   LIG d   1       4.949  -0.706  -6.252  0.00  0.00     0.109 A 
ATOM      2  C   LIG d   1       5.521  -0.790  -5.023  0.00  0.00     0.167 A 
ATOM      3  C   LIG d   1       4.486  -0.302  -4.044  0.00  0.00     0.172 A 
ATOM      4  C   LIG d   1       5.016   0.913  -3.262  0.00  0.00    -0.005 C 
ATOM      5  C   LIG d   1       4.429   0.732  -1.840  0.00  0.00    -0.049 C 
ATOM      6  C   LIG d   1       4.504  -0.801  -1.629  0.00  0.00    -0.049 C 
ATOM      7  C   LIG d   1       4.160  -1.392  -3.014  0.00  0.00    -0.005 C 
ATOM      8  O   LIG d   1       3.329   0.049  -4.797  0.00  0.00    -0.447 OA
ATOM      9  C   LIG d   1       3.590  -0.178  -6.100  0.00  0.00     0.344 A 
ATOM     10  O   LIG d   1       2.812   0.021  -7.012  0.00  0.00    -0.245 OA
ATOM     11  H   LIG d   1       6.105   0.902  -3.231  0.00  0.00     0.031 H 
ATOM     12  H   LIG d   1       4.656   1.840  -3.709  0.00  0.00     0.031 H 
ATOM     13  H   LIG d   1       5.037   1.254  -1.102  0.00  0.00     0.027 H 
ATOM     14  H   LIG d   1       3.395   1.076  -1.802  0.00  0.00     0.027 H 
ATOM     15  H   LIG d   1       5.510  -1.096  -1.329  0.00  0.00     0.027 H 
ATOM     16  H   LIG d   1       3.775  -1.121  -0.885  0.00  0.00     0.027 H 
ATOM     17  H   LIG d   1       3.099  -1.643  -3.059  0.00  0.00     0.031 H 
ATOM     18  H   LIG d   1       4.763  -2.279  -3.203  0.00  0.00     0.031 H 
ENDROOT
BRANCH   1  19
ATOM     19  C   LIG d   1       5.593  -1.080  -7.535  0.00  0.00    -0.002 A 
ATOM     20  C   LIG d   1       5.242  -2.268  -8.173  0.00  0.00    -0.042 A 
ATOM     21  C   LIG d   1       5.844  -2.610  -9.367  0.00  0.00    -0.055 A 
ATOM     22  C   LIG d   1       6.794  -1.777  -9.930  0.00  0.00    -0.050 A 
ATOM     23  H   LIG d   1       5.573  -3.530  -9.863  0.00  0.00     0.062 H 
ATOM     24  C   LIG d   1       7.150  -0.599  -9.298  0.00  0.00    -0.055 A 
ATOM     25  C   LIG d   1       6.551  -0.244  -8.106  0.00  0.00    -0.042 A 
ATOM     26  H   LIG d   1       7.896   0.045  -9.739  0.00  0.00     0.062 H 
BRANCH  20  27
ATOM     27  C   LIG d   1       4.207  -3.177  -7.562  0.00  0.00    -0.039 C 
ATOM     28  H   LIG d   1       3.308  -3.169  -8.178  0.00  0.00     0.028 H 
ATOM     29  H   LIG d   1       4.601  -4.191  -7.507  0.00  0.00     0.028 H 
ATOM     30  H   LIG d   1       3.963  -2.827  -6.559  0.00  0.00     0.028 H 
ENDBRANCH  20  27
BRANCH  22  31
ATOM     31  C   LIG d   1       7.449  -2.157 -11.233  0.00  0.00    -0.040 C 
ATOM     32  H   LIG d   1       6.912  -1.690 -12.059  0.00  0.00     0.028 H 
ATOM     33  H   LIG d   1       8.484  -1.813 -11.233  0.00  0.00     0.028 H 
ATOM     34  H   LIG d   1       7.427  -3.240 -11.349  0.00  0.00     0.028 H 
ENDBRANCH  22  31
BRANCH  25  35
ATOM     35  C   LIG d   1       6.935   1.043  -7.422  0.00  0.00    -0.039 C 
ATOM     36  H   LIG d   1       7.228   0.834  -6.393  0.00  0.00     0.028 H 
ATOM     37  H   LIG d   1       7.769   1.501  -7.952  0.00  0.00     0.028 H 
ATOM     38  H   LIG d   1       6.083   1.724  -7.425  0.00  0.00     0.028 H 
ENDBRANCH  25  35
ENDBRANCH   1  19
BRANCH   2  39
ATOM     39  O   LIG d   1       6.766  -1.223  -4.737  0.00  0.00    -0.425 OA
BRANCH  39  40
ATOM     40  C   LIG d   1       6.897  -2.425  -4.149  0.00  0.00     0.313 C 
ATOM     41  O   LIG d   1       7.404  -2.511  -3.055  0.00  0.00    -0.250 OA
BRANCH  40  42
ATOM     42  C   LIG d   1       6.411  -3.666  -4.854  0.00  0.00     0.050 C 
ATOM     43  H   LIG d   1       6.026  -4.373  -4.120  0.00  0.00     0.038 H 
ATOM     44  H   LIG d   1       5.619  -3.400  -5.554  0.00  0.00     0.038 H 
BRANCH  42  45
ATOM     45  C   LIG d   1       7.573  -4.305  -5.618  0.00  0.00    -0.028 C 
BRANCH  45  46
ATOM     46  C   LIG d   1       8.368  -3.217  -6.342  0.00  0.00    -0.060 C 
ATOM     47  H   LIG d   1       8.261  -3.345  -7.419  0.00  0.00     0.024 H 
ATOM     48  H   LIG d   1       7.991  -2.237  -6.052  0.00  0.00     0.024 H 
ATOM     49  H   LIG d   1       9.421  -3.296  -6.069  0.00  0.00     0.024 H 
ENDBRANCH  45  46
BRANCH  45  50
ATOM     50  C   LIG d   1       8.488  -5.038  -4.634  0.00  0.00    -0.060 C 
ATOM     51  H   LIG d   1       8.848  -5.960  -5.091  0.00  0.00     0.024 H 
ATOM     52  H   LIG d   1       9.336  -4.402  -4.385  0.00  0.00     0.024 H 
ATOM     53  H   LIG d   1       7.932  -5.274  -3.727  0.00  0.00     0.024 H 
ENDBRANCH  45  50
BRANCH  45  54
ATOM     54  C   LIG d   1       7.023  -5.301  -6.641  0.00  0.00    -0.060 C 
ATOM     55  H   LIG d   1       6.208  -5.870  -6.193  0.00  0.00     0.024 H 
ATOM     56  H   LIG d   1       6.653  -4.761  -7.512  0.00  0.00     0.024 H 
ATOM     57  H   LIG d   1       7.816  -5.984  -6.947  0.00  0.00     0.024 H 
ENDBRANCH  45  54
ENDBRANCH  42  45
ENDBRANCH  40  42
ENDBRANCH  39  40
ENDBRANCH   2  39
TORSDOF 11
ENDMDL
MODEL 8
REMARK VINA RESULT:      -5.1      2.173      4.939
REMARK  11 active torsions:
REMARK  status: ('A' for Active; 'I' for Inactive)
REMARK    1  A    between atoms: C_1  and  C_2 
REMARK    2  A    between atoms: C_4  and  C_27 
REMARK    3  A    between atoms: C_5  and  C_9 
REMARK    4  A    between atoms: C_6  and  C_8 
REMARK    5  A    between atoms: C_10  and  O_19 
REMARK    6  A    between atoms: O_19  and  C_20 
REMARK    7  A    between atoms: C_20  and  C_22 
REMARK    8  A    between atoms: C_22  and  C_23 
REMARK    9  A    between atoms: C_23  and  C_24 
REMARK   10  A    between atoms: C_23  and  C_25 
REMARK   11  A    between atoms: C_23  and  C_26 
ROOT
ATOM      1  C   LIG d   1       5.344  -2.034  -5.263  0.00  0.00     0.109 A 
ATOM      2  C   LIG d   1       5.369  -0.749  -4.823  0.00  0.00     0.167 A 
ATOM      3  C   LIG d   1       4.533  -0.717  -3.571  0.00  0.00     0.172 A 
ATOM      4  C   LIG d   1       3.360   0.265  -3.732  0.00  0.00    -0.005 C 
ATOM      5  C   LIG d   1       3.202   0.897  -2.327  0.00  0.00    -0.049 C 
ATOM      6  C   LIG d   1       4.668   1.040  -1.846  0.00  0.00    -0.049 C 
ATOM      7  C   LIG d   1       5.365  -0.232  -2.377  0.00  0.00    -0.005 C 
ATOM      8  O   LIG d   1       4.055  -2.042  -3.353  0.00  0.00    -0.447 OA
ATOM      9  C   LIG d   1       4.520  -2.826  -4.346  0.00  0.00     0.344 A 
ATOM     10  O   LIG d   1       4.293  -4.015  -4.460  0.00  0.00    -0.245 OA
ATOM     11  H   LIG d   1       3.600   1.028  -4.471  0.00  0.00     0.031 H 
ATOM     12  H   LIG d   1       2.452  -0.269  -4.016  0.00  0.00     0.031 H 
ATOM     13  H   LIG d   1       2.721   1.873  -2.395  0.00  0.00     0.027 H 
ATOM     14  H   LIG d   1       2.642   0.235  -1.666  0.00  0.00     0.027 H 
ATOM     15  H   LIG d   1       5.124   1.932  -2.275  0.00  0.00     0.027 H 
ATOM     16  H   LIG d   1       4.712   1.073  -0.758  0.00  0.00     0.027 H 
ATOM     17  H   LIG d   1       5.387  -0.998  -1.601  0.00  0.00     0.031 H 
ATOM     18  H   LIG d   1       6.380   0.003  -2.698  0.00  0.00     0.031 H 
ENDROOT
BRANCH   1  19
ATOM     19  C   LIG d   1       6.030  -2.548  -6.474  0.00  0.00    -0.002 A 
ATOM     20  C   LIG d   1       7.199  -3.297  -6.350  0.00  0.00    -0.042 A 
ATOM     21  C   LIG d   1       7.832  -3.774  -7.480  0.00  0.00    -0.055 A 
ATOM     22  C   LIG d   1       7.310  -3.510  -8.733  0.00  0.00    -0.050 A 
ATOM     23  H   LIG d   1       8.739  -4.354  -7.385  0.00  0.00     0.062 H 
ATOM     24  C   LIG d   1       6.152  -2.764  -8.861  0.00  0.00    -0.055 A 
ATOM     25  C   LIG d   1       5.507  -2.286  -7.739  0.00  0.00    -0.042 A 
ATOM     26  H   LIG d   1       5.751  -2.557  -9.843  0.00  0.00     0.062 H 
BRANCH  20  27
ATOM     27  C   LIG d   1       7.770  -3.585  -4.986  0.00  0.00    -0.039 C 
ATOM     28  H   LIG d   1       7.261  -4.446  -4.553  0.00  0.00     0.028 H 
ATOM     29  H   LIG d   1       8.835  -3.801  -5.075  0.00  0.00     0.028 H 
ATOM     30  H   LIG d   1       7.629  -2.717  -4.341  0.00  0.00     0.028 H 
ENDBRANCH  20  27
BRANCH  22  31
ATOM     31  C   LIG d   1       8.006  -4.033  -9.963  0.00  0.00    -0.040 C 
ATOM     32  H   LIG d   1       7.499  -4.931 -10.313  0.00  0.00     0.028 H 
ATOM     33  H   LIG d   1       7.981  -3.273 -10.744  0.00  0.00     0.028 H 
ATOM     34  H   LIG d   1       9.042  -4.270  -9.721  0.00  0.00     0.028 H 
ENDBRANCH  22  31
BRANCH  25  35
ATOM     35  C   LIG d   1       4.242  -1.478  -7.881  0.00  0.00    -0.039 C 
ATOM     36  H   LIG d   1       4.336  -0.554  -7.310  0.00  0.00     0.028 H 
ATOM     37  H   LIG d   1       4.079  -1.242  -8.932  0.00  0.00     0.028 H 
ATOM     38  H   LIG d   1       3.399  -2.055  -7.502  0.00  0.00     0.028 H 
ENDBRANCH  25  35
ENDBRANCH   1  19
BRANCH   2  39
ATOM     39  O   LIG d   1       6.013   0.290  -5.393  0.00  0.00    -0.425 OA
BRANCH  39  40
ATOM     40  C   LIG d   1       7.170   0.696  -4.841  0.00  0.00     0.313 C 
ATOM     41  O   LIG d   1       7.226   1.758  -4.268  0.00  0.00    -0.250 OA
BRANCH  40  42
ATOM     42  C   LIG d   1       8.397  -0.175  -4.937  0.00  0.00     0.050 C 
ATOM     43  H   LIG d   1       9.041   0.010  -4.077  0.00  0.00     0.038 H 
ATOM     44  H   LIG d   1       8.099  -1.223  -4.950  0.00  0.00     0.038 H 
BRANCH  42  45
ATOM     45  C   LIG d   1       9.156   0.155  -6.223  0.00  0.00    -0.028 C 
BRANCH  45  46
ATOM     46  C   LIG d   1       8.163   0.328  -7.373  0.00  0.00    -0.060 C 
ATOM     47  H   LIG d   1       7.635   1.275  -7.258  0.00  0.00     0.024 H 
ATOM     48  H   LIG d   1       8.700   0.324  -8.322  0.00  0.00     0.024 H 
ATOM     49  H   LIG d   1       7.446  -0.493  -7.360  0.00  0.00     0.024 H 
ENDBRANCH  45  46
BRANCH  45  50
ATOM     50  C   LIG d   1       9.945   1.453  -6.031  0.00  0.00    -0.060 C 
ATOM     51  H   LIG d   1       9.458   2.065  -5.272  0.00  0.00     0.024 H 
ATOM     52  H   LIG d   1      10.960   1.218  -5.713  0.00  0.00     0.024 H 
ATOM     53  H   LIG d   1       9.978   2.000  -6.974  0.00  0.00     0.024 H 
ENDBRANCH  45  50
BRANCH  45  54
ATOM     54  C   LIG d   1      10.123  -0.985  -6.551  0.00  0.00    -0.060 C 
ATOM     55  H   LIG d   1      10.995  -0.584  -7.068  0.00  0.00     0.024 H 
ATOM     56  H   LIG d   1      10.438  -1.470  -5.628  0.00  0.00     0.024 H 
ATOM     57  H   LIG d   1       9.624  -1.711  -7.192  0.00  0.00     0.024 H 
ENDBRANCH  45  54
ENDBRANCH  42  45
ENDBRANCH  40  42
ENDBRANCH  39  40
ENDBRANCH   2  39
TORSDOF 11
ENDMDL
MODEL 9
REMARK VINA RESULT:      -4.9      1.466      2.510
REMARK  11 active torsions:
REMARK  status: ('A' for Active; 'I' for Inactive)
REMARK    1  A    between atoms: C_1  and  C_2 
REMARK    2  A    between atoms: C_4  and  C_27 
REMARK    3  A    between atoms: C_5  and  C_9 
REMARK    4  A    between atoms: C_6  and  C_8 
REMARK    5  A    between atoms: C_10  and  O_19 
REMARK    6  A    between atoms: O_19  and  C_20 
REMARK    7  A    between atoms: C_20  and  C_22 
REMARK    8  A    between atoms: C_22  and  C_23 
REMARK    9  A    between atoms: C_23  and  C_24 
REMARK   10  A    between atoms: C_23  and  C_25 
REMARK   11  A    between atoms: C_23  and  C_26 
ROOT
ATOM      1  C   LIG d   1       5.274  -1.986  -8.250  0.00  0.00     0.109 A 
ATOM      2  C   LIG d   1       4.452  -1.014  -7.776  0.00  0.00     0.167 A 
ATOM      3  C   LIG d   1       4.274  -0.029  -8.901  0.00  0.00     0.172 A 
ATOM      4  C   LIG d   1       4.758   1.368  -8.475  0.00  0.00    -0.005 C 
ATOM      5  C   LIG d   1       3.769   2.338  -9.169  0.00  0.00    -0.049 C 
ATOM      6  C   LIG d   1       2.418   1.587  -9.062  0.00  0.00    -0.049 C 
ATOM      7  C   LIG d   1       2.792   0.104  -9.275  0.00  0.00    -0.005 C 
ATOM      8  O   LIG d   1       5.036  -0.511 -10.005  0.00  0.00    -0.447 OA
ATOM      9  C   LIG d   1       5.635  -1.659  -9.633  0.00  0.00     0.344 A 
ATOM     10  O   LIG d   1       6.363  -2.327 -10.341  0.00  0.00    -0.245 OA
ATOM     11  H   LIG d   1       4.705   1.476  -7.392  0.00  0.00     0.031 H 
ATOM     12  H   LIG d   1       5.775   1.543  -8.827  0.00  0.00     0.031 H 
ATOM     13  H   LIG d   1       3.725   3.289  -8.639  0.00  0.00     0.027 H 
ATOM     14  H   LIG d   1       4.045   2.489 -10.213  0.00  0.00     0.027 H 
ATOM     15  H   LIG d   1       1.979   1.731  -8.075  0.00  0.00     0.027 H 
ATOM     16  H   LIG d   1       1.732   1.923  -9.838  0.00  0.00     0.027 H 
ATOM     17  H   LIG d   1       2.644  -0.172 -10.320  0.00  0.00     0.031 H 
ATOM     18  H   LIG d   1       2.185  -0.532  -8.631  0.00  0.00     0.031 H 
ENDROOT
BRANCH   1  19
ATOM     19  C   LIG d   1       5.736  -3.175  -7.493  0.00  0.00    -0.002 A 
ATOM     20  C   LIG d   1       4.940  -4.317  -7.433  0.00  0.00    -0.042 A 
ATOM     21  C   LIG d   1       5.375  -5.421  -6.728  0.00  0.00    -0.055 A 
ATOM     22  C   LIG d   1       6.597  -5.396  -6.081  0.00  0.00    -0.050 A 
ATOM     23  H   LIG d   1       4.759  -6.307  -6.680  0.00  0.00     0.062 H 
ATOM     24  C   LIG d   1       7.388  -4.262  -6.134  0.00  0.00    -0.055 A 
ATOM     25  C   LIG d   1       6.967  -3.154  -6.840  0.00  0.00    -0.042 A 
ATOM     26  H   LIG d   1       8.340  -4.246  -5.623  0.00  0.00     0.062 H 
BRANCH  20  27
ATOM     27  C   LIG d   1       3.608  -4.348  -8.137  0.00  0.00    -0.039 C 
ATOM     28  H   LIG d   1       3.720  -3.947  -9.144  0.00  0.00     0.028 H 
ATOM     29  H   LIG d   1       3.249  -5.376  -8.192  0.00  0.00     0.028 H 
ATOM     30  H   LIG d   1       2.890  -3.743  -7.583  0.00  0.00     0.028 H 
ENDBRANCH  20  27
BRANCH  22  31
ATOM     31  C   LIG d   1       7.066  -6.604  -5.312  0.00  0.00    -0.040 C 
ATOM     32  H   LIG d   1       7.943  -6.340  -4.722  0.00  0.00     0.028 H 
ATOM     33  H   LIG d   1       6.270  -6.942  -4.648  0.00  0.00     0.028 H 
ATOM     34  H   LIG d   1       7.322  -7.401  -6.009  0.00  0.00     0.028 H 
ENDBRANCH  22  31
BRANCH  25  35
ATOM     35  C   LIG d   1       7.834  -1.923  -6.901  0.00  0.00    -0.039 C 
ATOM     36  H   LIG d   1       8.545  -1.938  -6.074  0.00  0.00     0.028 H 
ATOM     37  H   LIG d   1       8.375  -1.906  -7.847  0.00  0.00     0.028 H 
ATOM     38  H   LIG d   1       7.208  -1.034  -6.825  0.00  0.00     0.028 H 
ENDBRANCH  25  35
ENDBRANCH   1  19
BRANCH   2  39
ATOM     39  O   LIG d   1       3.905  -0.945  -6.545  0.00  0.00    -0.425 OA
BRANCH  39  40
ATOM     40  C   LIG d   1       4.635  -0.393  -5.560  0.00  0.00     0.313 C 
ATOM     41  O   LIG d   1       5.697   0.125  -5.812  0.00  0.00    -0.250 OA
BRANCH  40  42
ATOM     42  C   LIG d   1       4.127  -0.420  -4.142  0.00  0.00     0.050 C 
ATOM     43  H   LIG d   1       4.344   0.534  -3.660  0.00  0.00     0.038 H 
ATOM     44  H   LIG d   1       3.050  -0.589  -4.143  0.00  0.00     0.038 H 
BRANCH  42  45
ATOM     45  C   LIG d   1       4.819  -1.547  -3.374  0.00  0.00    -0.028 C 
BRANCH  45  46
ATOM     46  C   LIG d   1       6.330  -1.301  -3.357  0.00  0.00    -0.060 C 
ATOM     47  H   LIG d   1       6.838  -2.135  -3.841  0.00  0.00     0.024 H 
ATOM     48  H   LIG d   1       6.553  -0.378  -3.892  0.00  0.00     0.024 H 
ATOM     49  H   LIG d   1       6.672  -1.215  -2.326  0.00  0.00     0.024 H 
ENDBRANCH  45  46
BRANCH  45  50
ATOM     50  C   LIG d   1       4.293  -1.585  -1.937  0.00  0.00    -0.060 C 
ATOM     51  H   LIG d   1       3.505  -0.842  -1.819  0.00  0.00     0.024 H 
ATOM     52  H   LIG d   1       3.893  -2.575  -1.723  0.00  0.00     0.024 H 
ATOM     53  H   LIG d   1       5.107  -1.365  -1.246  0.00  0.00     0.024 H 
ENDBRANCH  45  50
BRANCH  45  54
ATOM     54  C   LIG d   1       4.528  -2.885  -4.058  0.00  0.00    -0.060 C 
ATOM     55  H   LIG d   1       5.322  -3.594  -3.823  0.00  0.00     0.024 H 
ATOM     56  H   LIG d   1       3.575  -3.274  -3.702  0.00  0.00     0.024 H 
ATOM     57  H   LIG d   1       4.481  -2.738  -5.137  0.00  0.00     0.024 H 
ENDBRANCH  45  54
ENDBRANCH  42  45
ENDBRANCH  40  42
ENDBRANCH  39  40
ENDBRANCH   2  39
TORSDOF 11
ENDMDL
