MODEL 1
REMARK VINA RESULT:      -8.0      0.000      0.000
REMARK  3 active torsions:
REMARK  status: ('A' for Active; 'I' for Inactive)
REMARK    1  A    between atoms: C_4  and  C_7 
REMARK    2  A    between atoms: C_8  and  C_18 
REMARK    3  A    between atoms: N_10  and  C_12 
ROOT
ATOM      1  C   LIG d   1       4.575  -2.934  -5.089  0.00  0.00     0.105 A 
ATOM      2  C   LIG d   1       4.473  -2.691  -6.529  0.00  0.00     0.083 A 
ATOM      3  C   LIG d   1       4.474  -3.918  -7.134  0.00  0.00     0.044 A 
ATOM      4  N   LIG d   1       4.566  -4.857  -6.172  0.00  0.00    -0.238 N 
ATOM      5  N   LIG d   1       4.634  -4.237  -4.921  0.00  0.00    -0.166 NA
ATOM      6  H   LIG d   1       4.410  -4.101  -8.196  0.00  0.00     0.084 H 
ENDROOT
BRANCH   2   7
ATOM      7  C   LIG d   1       4.388  -1.379  -7.198  0.00  0.00     0.232 A 
ATOM      8  O   LIG d   1       3.250  -0.686  -7.398  0.00  0.00    -0.435 OA
ATOM      9  C   LIG d   1       3.564   0.465  -8.034  0.00  0.00     0.156 A 
ATOM     10  C   LIG d   1       4.955   0.445  -8.226  0.00  0.00     0.110 A 
ATOM     11  C   LIG d   1       2.822   1.544  -8.486  0.00  0.00    -0.017 A 
ATOM     12  N   LIG d   1       5.407  -0.718  -7.689  0.00  0.00    -0.209 NA
ATOM     13  C   LIG d   1       5.579   1.516  -8.873  0.00  0.00    -0.033 A 
ATOM     14  C   LIG d   1       4.825   2.579  -9.314  0.00  0.00    -0.059 A 
ATOM     15  H   LIG d   1       6.648   1.509  -9.024  0.00  0.00     0.064 H 
ATOM     16  C   LIG d   1       3.451   2.595  -9.122  0.00  0.00    -0.058 A 
ATOM     17  H   LIG d   1       5.305   3.407  -9.813  0.00  0.00     0.062 H 
ATOM     18  H   LIG d   1       2.871   3.434  -9.472  0.00  0.00     0.062 H 
ATOM     19  H   LIG d   1       1.752   1.563  -8.340  0.00  0.00     0.066 H 
ENDBRANCH   2   7
BRANCH   1  20
ATOM     20  C   LIG d   1       4.613  -1.905  -4.021  0.00  0.00     0.003 A 
ATOM     21  C   LIG d   1       3.464  -1.620  -3.284  0.00  0.00    -0.052 A 
ATOM     22  C   LIG d   1       3.505  -0.662  -2.292  0.00  0.00    -0.061 A 
ATOM     23  H   LIG d   1       2.545  -2.148  -3.488  0.00  0.00     0.062 H 
ATOM     24  C   LIG d   1       4.682   0.016  -2.029  0.00  0.00    -0.062 A 
ATOM     25  H   LIG d   1       2.616  -0.440  -1.720  0.00  0.00     0.062 H 
ATOM     26  C   LIG d   1       5.825  -0.263  -2.757  0.00  0.00    -0.061 A 
ATOM     27  H   LIG d   1       4.708   0.768  -1.255  0.00  0.00     0.062 H 
ATOM     28  C   LIG d   1       5.795  -1.220  -3.751  0.00  0.00    -0.052 A 
ATOM     29  H   LIG d   1       6.741   0.268  -2.547  0.00  0.00     0.062 H 
ATOM     30  H   LIG d   1       6.688  -1.436  -4.319  0.00  0.00     0.062 H 
ENDBRANCH   1  20
BRANCH   4  31
ATOM     31  C   LIG d   1       4.595  -6.239  -6.393  0.00  0.00     0.065 A 
ATOM     32  C   LIG d   1       4.977  -7.099  -5.371  0.00  0.00    -0.036 A 
ATOM     33  C   LIG d   1       5.000  -8.462  -5.590  0.00  0.00    -0.060 A 
ATOM     34  H   LIG d   1       5.250  -6.702  -4.404  0.00  0.00     0.064 H 
ATOM     35  C   LIG d   1       4.655  -8.971  -6.828  0.00  0.00    -0.062 A 
ATOM     36  H   LIG d   1       5.292  -9.132  -4.794  0.00  0.00     0.062 H 
ATOM     37  C   LIG d   1       4.280  -8.118  -7.849  0.00  0.00    -0.060 A 
ATOM     38  H   LIG d   1       4.678 -10.038  -6.998  0.00  0.00     0.062 H 
ATOM     39  C   LIG d   1       4.249  -6.754  -7.636  0.00  0.00    -0.036 A 
ATOM     40  H   LIG d   1       4.011  -8.519  -8.816  0.00  0.00     0.062 H 
ATOM     41  H   LIG d   1       3.957  -6.088  -8.434  0.00  0.00     0.064 H 
ENDBRANCH   4  31
TORSDOF 3
ENDMDL
MODEL 2
REMARK VINA RESULT:      -7.5      2.862      3.741
REMARK  3 active torsions:
REMARK  status: ('A' for Active; 'I' for Inactive)
REMARK    1  A    between atoms: C_4  and  C_7 
REMARK    2  A    between atoms: C_8  and  C_18 
REMARK    3  A    between atoms: N_10  and  C_12 
ROOT
ATOM      1  C   LIG d   1       6.014  -1.827  -4.058  0.00  0.00     0.105 A 
ATOM      2  C   LIG d   1       5.937  -2.291  -5.445  0.00  0.00     0.083 A 
ATOM      3  C   LIG d   1       6.878  -3.274  -5.580  0.00  0.00     0.044 A 
ATOM      4  N   LIG d   1       7.499  -3.425  -4.394  0.00  0.00    -0.238 N 
ATOM      5  N   LIG d   1       6.961  -2.524  -3.469  0.00  0.00    -0.166 NA
ATOM      6  H   LIG d   1       7.087  -3.832  -6.482  0.00  0.00     0.084 H 
ENDROOT
BRANCH   2   7
ATOM      7  C   LIG d   1       5.023  -1.796  -6.491  0.00  0.00     0.232 A 
ATOM      8  O   LIG d   1       4.708  -0.503  -6.693  0.00  0.00    -0.435 OA
ATOM      9  C   LIG d   1       3.851  -0.435  -7.736  0.00  0.00     0.156 A 
ATOM     10  C   LIG d   1       3.645  -1.756  -8.165  0.00  0.00     0.110 A 
ATOM     11  C   LIG d   1       3.206   0.608  -8.383  0.00  0.00    -0.017 A 
ATOM     12  N   LIG d   1       4.394  -2.550  -7.358  0.00  0.00    -0.209 NA
ATOM     13  C   LIG d   1       2.789  -2.007  -9.242  0.00  0.00    -0.033 A 
ATOM     14  C   LIG d   1       2.158  -0.958  -9.871  0.00  0.00    -0.059 A 
ATOM     15  H   LIG d   1       2.625  -3.021  -9.579  0.00  0.00     0.064 H 
ATOM     16  C   LIG d   1       2.365   0.345  -9.444  0.00  0.00    -0.058 A 
ATOM     17  H   LIG d   1       1.497  -1.151 -10.703  0.00  0.00     0.062 H 
ATOM     18  H   LIG d   1       1.864   1.159  -9.945  0.00  0.00     0.062 H 
ATOM     19  H   LIG d   1       3.363   1.625  -8.056  0.00  0.00     0.066 H 
ENDBRANCH   2   7
BRANCH   1  20
ATOM     20  C   LIG d   1       5.186  -0.765  -3.436  0.00  0.00     0.003 A 
ATOM     21  C   LIG d   1       3.837  -0.994  -3.172  0.00  0.00    -0.052 A 
ATOM     22  C   LIG d   1       3.072  -0.003  -2.593  0.00  0.00    -0.061 A 
ATOM     23  H   LIG d   1       3.391  -1.947  -3.419  0.00  0.00     0.062 H 
ATOM     24  C   LIG d   1       3.641   1.218  -2.276  0.00  0.00    -0.062 A 
ATOM     25  H   LIG d   1       2.026  -0.180  -2.388  0.00  0.00     0.062 H 
ATOM     26  C   LIG d   1       4.979   1.451  -2.536  0.00  0.00    -0.061 A 
ATOM     27  H   LIG d   1       3.037   1.992  -1.827  0.00  0.00     0.062 H 
ATOM     28  C   LIG d   1       5.754   0.466  -3.114  0.00  0.00    -0.052 A 
ATOM     29  H   LIG d   1       5.418   2.405  -2.286  0.00  0.00     0.062 H 
ATOM     30  H   LIG d   1       6.799   0.650  -3.317  0.00  0.00     0.062 H 
ENDBRANCH   1  20
BRANCH   4  31
ATOM     31  C   LIG d   1       8.526  -4.338  -4.130  0.00  0.00     0.065 A 
ATOM     32  C   LIG d   1       8.560  -5.559  -4.793  0.00  0.00    -0.036 A 
ATOM     33  C   LIG d   1       9.578  -6.455  -4.535  0.00  0.00    -0.060 A 
ATOM     34  H   LIG d   1       7.794  -5.804  -5.514  0.00  0.00     0.064 H 
ATOM     35  C   LIG d   1      10.556  -6.145  -3.608  0.00  0.00    -0.062 A 
ATOM     36  H   LIG d   1       9.607  -7.403  -5.053  0.00  0.00     0.062 H 
ATOM     37  C   LIG d   1      10.523  -4.934  -2.942  0.00  0.00    -0.060 A 
ATOM     38  H   LIG d   1      11.349  -6.851  -3.404  0.00  0.00     0.062 H 
ATOM     39  C   LIG d   1       9.511  -4.030  -3.200  0.00  0.00    -0.036 A 
ATOM     40  H   LIG d   1      11.289  -4.695  -2.219  0.00  0.00     0.062 H 
ATOM     41  H   LIG d   1       9.485  -3.084  -2.680  0.00  0.00     0.064 H 
ENDBRANCH   4  31
TORSDOF 3
ENDMDL
MODEL 3
REMARK VINA RESULT:      -7.5      2.106      2.617
REMARK  3 active torsions:
REMARK  status: ('A' for Active; 'I' for Inactive)
REMARK    1  A    between atoms: C_4  and  C_7 
REMARK    2  A    between atoms: C_8  and  C_18 
REMARK    3  A    between atoms: N_10  and  C_12 
ROOT
ATOM      1  C   LIG d   1       5.752  -1.865  -4.432  0.00  0.00     0.105 A 
ATOM      2  C   LIG d   1       5.821  -1.885  -5.895  0.00  0.00     0.083 A 
ATOM      3  C   LIG d   1       6.518  -3.010  -6.239  0.00  0.00     0.044 A 
ATOM      4  N   LIG d   1       6.861  -3.651  -5.105  0.00  0.00    -0.238 N 
ATOM      5  N   LIG d   1       6.389  -2.932  -4.002  0.00  0.00    -0.166 NA
ATOM      6  H   LIG d   1       6.750  -3.330  -7.244  0.00  0.00     0.084 H 
ENDROOT
BRANCH   2   7
ATOM      7  C   LIG d   1       5.251  -0.885  -6.818  0.00  0.00     0.232 A 
ATOM      8  O   LIG d   1       3.936  -0.693  -7.032  0.00  0.00    -0.435 OA
ATOM      9  C   LIG d   1       3.797   0.305  -7.934  0.00  0.00     0.156 A 
ATOM     10  C   LIG d   1       5.096   0.716  -8.273  0.00  0.00     0.110 A 
ATOM     11  C   LIG d   1       2.704   0.923  -8.521  0.00  0.00    -0.017 A 
ATOM     12  N   LIG d   1       5.951  -0.056  -7.552  0.00  0.00    -0.209 NA
ATOM     13  C   LIG d   1       5.275   1.744  -9.203  0.00  0.00    -0.033 A 
ATOM     14  C   LIG d   1       4.177   2.345  -9.775  0.00  0.00    -0.059 A 
ATOM     15  H   LIG d   1       6.271   2.067  -9.469  0.00  0.00     0.064 H 
ATOM     16  C   LIG d   1       2.896   1.937  -9.436  0.00  0.00    -0.058 A 
ATOM     17  H   LIG d   1       4.314   3.141 -10.493  0.00  0.00     0.062 H 
ATOM     18  H   LIG d   1       2.043   2.416  -9.892  0.00  0.00     0.062 H 
ATOM     19  H   LIG d   1       1.703   0.610  -8.262  0.00  0.00     0.066 H 
ENDBRANCH   2   7
BRANCH   1  20
ATOM     20  C   LIG d   1       5.094  -0.834  -3.593  0.00  0.00     0.003 A 
ATOM     21  C   LIG d   1       5.841   0.218  -3.064  0.00  0.00    -0.052 A 
ATOM     22  C   LIG d   1       5.224   1.174  -2.285  0.00  0.00    -0.061 A 
ATOM     23  H   LIG d   1       6.901   0.284  -3.264  0.00  0.00     0.062 H 
ATOM     24  C   LIG d   1       3.867   1.091  -2.027  0.00  0.00    -0.062 A 
ATOM     25  H   LIG d   1       5.802   1.990  -1.874  0.00  0.00     0.062 H 
ATOM     26  C   LIG d   1       3.122   0.050  -2.550  0.00  0.00    -0.061 A 
ATOM     27  H   LIG d   1       3.390   1.840  -1.413  0.00  0.00     0.062 H 
ATOM     28  C   LIG d   1       3.728  -0.913  -3.331  0.00  0.00    -0.052 A 
ATOM     29  H   LIG d   1       2.063  -0.010  -2.346  0.00  0.00     0.062 H 
ATOM     30  H   LIG d   1       3.145  -1.725  -3.738  0.00  0.00     0.062 H 
ENDBRANCH   1  20
BRANCH   4  31
ATOM     31  C   LIG d   1       7.584  -4.848  -5.040  0.00  0.00     0.065 A 
ATOM     32  C   LIG d   1       8.776  -4.905  -4.328  0.00  0.00    -0.036 A 
ATOM     33  C   LIG d   1       9.484  -6.088  -4.262  0.00  0.00    -0.060 A 
ATOM     34  H   LIG d   1       9.146  -4.025  -3.823  0.00  0.00     0.064 H 
ATOM     35  C   LIG d   1       9.015  -7.214  -4.914  0.00  0.00    -0.062 A 
ATOM     36  H   LIG d   1      10.408  -6.134  -3.706  0.00  0.00     0.062 H 
ATOM     37  C   LIG d   1       7.832  -7.160  -5.628  0.00  0.00    -0.060 A 
ATOM     38  H   LIG d   1       9.573  -8.138  -4.864  0.00  0.00     0.062 H 
ATOM     39  C   LIG d   1       7.115  -5.981  -5.694  0.00  0.00    -0.036 A 
ATOM     40  H   LIG d   1       7.467  -8.042  -6.135  0.00  0.00     0.062 H 
ATOM     41  H   LIG d   1       6.192  -5.940  -6.251  0.00  0.00     0.064 H 
ENDBRANCH   4  31
TORSDOF 3
ENDMDL
MODEL 4
REMARK VINA RESULT:      -7.2      3.827      5.797
REMARK  3 active torsions:
REMARK  status: ('A' for Active; 'I' for Inactive)
REMARK    1  A    between atoms: C_4  and  C_7 
REMARK    2  A    between atoms: C_8  and  C_18 
REMARK    3  A    between atoms: N_10  and  C_12 
ROOT
ATOM      1  C   LIG d   1       4.639  -0.466  -5.866  0.00  0.00     0.105 A 
ATOM      2  C   LIG d   1       5.836  -0.068  -6.611  0.00  0.00     0.083 A 
ATOM      3  C   LIG d   1       5.489  -0.060  -7.934  0.00  0.00     0.044 A 
ATOM      4  N   LIG d   1       4.194  -0.419  -8.027  0.00  0.00    -0.238 N 
ATOM      5  N   LIG d   1       3.686  -0.672  -6.749  0.00  0.00    -0.166 NA
ATOM      6  H   LIG d   1       6.139   0.191  -8.758  0.00  0.00     0.084 H 
ENDROOT
BRANCH   2   7
ATOM      7  C   LIG d   1       7.157   0.261  -6.044  0.00  0.00     0.232 A 
ATOM      8  O   LIG d   1       7.440   1.371  -5.335  0.00  0.00    -0.435 OA
ATOM      9  C   LIG d   1       8.744   1.324  -4.981  0.00  0.00     0.156 A 
ATOM     10  C   LIG d   1       9.257   0.132  -5.516  0.00  0.00     0.110 A 
ATOM     11  C   LIG d   1       9.573   2.169  -4.260  0.00  0.00    -0.017 A 
ATOM     12  N   LIG d   1       8.231  -0.481  -6.161  0.00  0.00    -0.209 NA
ATOM     13  C   LIG d   1      10.602  -0.193  -5.316  0.00  0.00    -0.033 A 
ATOM     14  C   LIG d   1      11.409   0.658  -4.597  0.00  0.00    -0.059 A 
ATOM     15  H   LIG d   1      11.005  -1.109  -5.724  0.00  0.00     0.064 H 
ATOM     16  C   LIG d   1      10.898   1.835  -4.070  0.00  0.00    -0.058 A 
ATOM     17  H   LIG d   1      12.449   0.409  -4.442  0.00  0.00     0.062 H 
ATOM     18  H   LIG d   1      11.541   2.495  -3.508  0.00  0.00     0.062 H 
ATOM     19  H   LIG d   1       9.181   3.086  -3.846  0.00  0.00     0.066 H 
ENDBRANCH   2   7
BRANCH   1  20
ATOM     20  C   LIG d   1       4.525  -0.617  -4.395  0.00  0.00     0.003 A 
ATOM     21  C   LIG d   1       4.562   0.507  -3.571  0.00  0.00    -0.052 A 
ATOM     22  C   LIG d   1       4.456   0.360  -2.204  0.00  0.00    -0.061 A 
ATOM     23  H   LIG d   1       4.674   1.491  -4.003  0.00  0.00     0.062 H 
ATOM     24  C   LIG d   1       4.313  -0.899  -1.649  0.00  0.00    -0.062 A 
ATOM     25  H   LIG d   1       4.484   1.230  -1.565  0.00  0.00     0.062 H 
ATOM     26  C   LIG d   1       4.275  -2.018  -2.462  0.00  0.00    -0.061 A 
ATOM     27  H   LIG d   1       4.234  -1.009  -0.578  0.00  0.00     0.062 H 
ATOM     28  C   LIG d   1       4.380  -1.883  -3.831  0.00  0.00    -0.052 A 
ATOM     29  H   LIG d   1       4.162  -2.999  -2.024  0.00  0.00     0.062 H 
ATOM     30  H   LIG d   1       4.351  -2.758  -4.464  0.00  0.00     0.062 H 
ENDBRANCH   1  20
BRANCH   4  31
ATOM     31  C   LIG d   1       3.470  -0.528  -9.221  0.00  0.00     0.065 A 
ATOM     32  C   LIG d   1       2.103  -0.772  -9.186  0.00  0.00    -0.036 A 
ATOM     33  C   LIG d   1       1.390  -0.873 -10.365  0.00  0.00    -0.060 A 
ATOM     34  H   LIG d   1       1.596  -0.877  -8.238  0.00  0.00     0.064 H 
ATOM     35  C   LIG d   1       2.038  -0.745 -11.579  0.00  0.00    -0.062 A 
ATOM     36  H   LIG d   1       0.327  -1.059 -10.338  0.00  0.00     0.062 H 
ATOM     37  C   LIG d   1       3.400  -0.507 -11.618  0.00  0.00    -0.060 A 
ATOM     38  H   LIG d   1       1.479  -0.829 -12.500  0.00  0.00     0.062 H 
ATOM     39  C   LIG d   1       4.118  -0.399 -10.443  0.00  0.00    -0.036 A 
ATOM     40  H   LIG d   1       3.903  -0.407 -12.569  0.00  0.00     0.062 H 
ATOM     41  H   LIG d   1       5.181  -0.214 -10.474  0.00  0.00     0.064 H 
ENDBRANCH   4  31
TORSDOF 3
ENDMDL
MODEL 5
REMARK VINA RESULT:      -7.1      2.891      6.692
REMARK  3 active torsions:
REMARK  status: ('A' for Active; 'I' for Inactive)
REMARK    1  A    between atoms: C_4  and  C_7 
REMARK    2  A    between atoms: C_8  and  C_18 
REMARK    3  A    between atoms: N_10  and  C_12 
ROOT
ATOM      1  C   LIG d   1       5.160  -0.827  -5.623  0.00  0.00     0.105 A 
ATOM      2  C   LIG d   1       6.076  -1.806  -6.213  0.00  0.00     0.083 A 
ATOM      3  C   LIG d   1       5.983  -1.660  -7.570  0.00  0.00     0.044 A 
ATOM      4  N   LIG d   1       5.094  -0.681  -7.825  0.00  0.00    -0.238 N 
ATOM      5  N   LIG d   1       4.592  -0.182  -6.619  0.00  0.00    -0.166 NA
ATOM      6  H   LIG d   1       6.529  -2.230  -8.308  0.00  0.00     0.084 H 
ENDROOT
BRANCH   2   7
ATOM      7  C   LIG d   1       6.931  -2.763  -5.486  0.00  0.00     0.232 A 
ATOM      8  O   LIG d   1       7.712  -2.456  -4.433  0.00  0.00    -0.435 OA
ATOM      9  C   LIG d   1       8.340  -3.584  -4.032  0.00  0.00     0.156 A 
ATOM     10  C   LIG d   1       7.914  -4.605  -4.897  0.00  0.00     0.110 A 
ATOM     11  C   LIG d   1       9.243  -3.871  -3.020  0.00  0.00    -0.017 A 
ATOM     12  N   LIG d   1       7.045  -4.036  -5.773  0.00  0.00    -0.209 NA
ATOM     13  C   LIG d   1       8.405  -5.903  -4.729  0.00  0.00    -0.033 A 
ATOM     14  C   LIG d   1       9.300  -6.168  -3.719  0.00  0.00    -0.059 A 
ATOM     15  H   LIG d   1       8.081  -6.694  -5.390  0.00  0.00     0.064 H 
ATOM     16  C   LIG d   1       9.718  -5.157  -2.866  0.00  0.00    -0.058 A 
ATOM     17  H   LIG d   1       9.680  -7.171  -3.588  0.00  0.00     0.062 H 
ATOM     18  H   LIG d   1      10.421  -5.378  -2.077  0.00  0.00     0.062 H 
ATOM     19  H   LIG d   1       9.572  -3.089  -2.352  0.00  0.00     0.066 H 
ENDBRANCH   2   7
BRANCH   1  20
ATOM     20  C   LIG d   1       4.914  -0.609  -4.177  0.00  0.00     0.003 A 
ATOM     21  C   LIG d   1       5.318   0.580  -3.570  0.00  0.00    -0.052 A 
ATOM     22  C   LIG d   1       5.087   0.777  -2.225  0.00  0.00    -0.061 A 
ATOM     23  H   LIG d   1       5.811   1.345  -4.153  0.00  0.00     0.062 H 
ATOM     24  C   LIG d   1       4.456  -0.201  -1.477  0.00  0.00    -0.062 A 
ATOM     25  H   LIG d   1       5.399   1.697  -1.754  0.00  0.00     0.062 H 
ATOM     26  C   LIG d   1       4.053  -1.382  -2.074  0.00  0.00    -0.061 A 
ATOM     27  H   LIG d   1       4.281  -0.044  -0.424  0.00  0.00     0.062 H 
ATOM     28  C   LIG d   1       4.279  -1.591  -3.419  0.00  0.00    -0.052 A 
ATOM     29  H   LIG d   1       3.561  -2.143  -1.487  0.00  0.00     0.062 H 
ATOM     30  H   LIG d   1       3.964  -2.513  -3.884  0.00  0.00     0.062 H 
ENDBRANCH   1  20
BRANCH   4  31
ATOM     31  C   LIG d   1       4.726  -0.235  -9.100  0.00  0.00     0.065 A 
ATOM     32  C   LIG d   1       4.819  -1.092 -10.190  0.00  0.00    -0.036 A 
ATOM     33  C   LIG d   1       4.450  -0.651 -11.446  0.00  0.00    -0.060 A 
ATOM     34  H   LIG d   1       5.174  -2.102 -10.055  0.00  0.00     0.064 H 
ATOM     35  C   LIG d   1       4.000   0.644 -11.621  0.00  0.00    -0.062 A 
ATOM     36  H   LIG d   1       4.518  -1.317 -12.293  0.00  0.00     0.062 H 
ATOM     37  C   LIG d   1       3.912   1.501 -10.540  0.00  0.00    -0.060 A 
ATOM     38  H   LIG d   1       3.717   0.988 -12.606  0.00  0.00     0.062 H 
ATOM     39  C   LIG d   1       4.273   1.066  -9.280  0.00  0.00    -0.036 A 
ATOM     40  H   LIG d   1       3.559   2.513 -10.680  0.00  0.00     0.062 H 
ATOM     41  H   LIG d   1       4.204   1.735  -8.436  0.00  0.00     0.064 H 
ENDBRANCH   4  31
TORSDOF 3
ENDMDL
MODEL 6
REMARK VINA RESULT:      -7.0      2.111      5.033
REMARK  3 active torsions:
REMARK  status: ('A' for Active; 'I' for Inactive)
REMARK    1  A    between atoms: C_4  and  C_7 
REMARK    2  A    between atoms: C_8  and  C_18 
REMARK    3  A    between atoms: N_10  and  C_12 
ROOT
ATOM      1  C   LIG d   1       4.223  -1.377  -8.457  0.00  0.00     0.105 A 
ATOM      2  C   LIG d   1       4.278  -2.018  -7.140  0.00  0.00     0.083 A 
ATOM      3  C   LIG d   1       4.356  -3.365  -7.364  0.00  0.00     0.044 A 
ATOM      4  N   LIG d   1       4.354  -3.568  -8.696  0.00  0.00    -0.238 N 
ATOM      5  N   LIG d   1       4.265  -2.337  -9.355  0.00  0.00    -0.166 NA
ATOM      6  H   LIG d   1       4.413  -4.131  -6.605  0.00  0.00     0.084 H 
ENDROOT
BRANCH   2   7
ATOM      7  C   LIG d   1       4.252  -1.342  -5.830  0.00  0.00     0.232 A 
ATOM      8  O   LIG d   1       3.660  -0.158  -5.582  0.00  0.00    -0.435 OA
ATOM      9  C   LIG d   1       3.839   0.138  -4.275  0.00  0.00     0.156 A 
ATOM     10  C   LIG d   1       4.581  -0.921  -3.727  0.00  0.00     0.110 A 
ATOM     11  C   LIG d   1       3.458   1.200  -3.471  0.00  0.00    -0.017 A 
ATOM     12  N   LIG d   1       4.805  -1.803  -4.735  0.00  0.00    -0.209 NA
ATOM     13  C   LIG d   1       4.929  -0.893  -2.374  0.00  0.00    -0.033 A 
ATOM     14  C   LIG d   1       4.542   0.170  -1.592  0.00  0.00    -0.059 A 
ATOM     15  H   LIG d   1       5.499  -1.704  -1.945  0.00  0.00     0.064 H 
ATOM     16  C   LIG d   1       3.809   1.214  -2.137  0.00  0.00    -0.058 A 
ATOM     17  H   LIG d   1       4.810   0.193  -0.546  0.00  0.00     0.062 H 
ATOM     18  H   LIG d   1       3.511   2.043  -1.513  0.00  0.00     0.062 H 
ATOM     19  H   LIG d   1       2.887   2.016  -3.889  0.00  0.00     0.066 H 
ENDBRANCH   2   7
BRANCH   1  20
ATOM     20  C   LIG d   1       4.131   0.078  -8.727  0.00  0.00     0.003 A 
ATOM     21  C   LIG d   1       5.290   0.830  -8.914  0.00  0.00    -0.052 A 
ATOM     22  C   LIG d   1       5.198   2.183  -9.165  0.00  0.00    -0.061 A 
ATOM     23  H   LIG d   1       6.258   0.353  -8.864  0.00  0.00     0.062 H 
ATOM     24  C   LIG d   1       3.958   2.795  -9.229  0.00  0.00    -0.062 A 
ATOM     25  H   LIG d   1       6.095   2.767  -9.311  0.00  0.00     0.062 H 
ATOM     26  C   LIG d   1       2.805   2.054  -9.044  0.00  0.00    -0.061 A 
ATOM     27  H   LIG d   1       3.892   3.855  -9.421  0.00  0.00     0.062 H 
ATOM     28  C   LIG d   1       2.885   0.699  -8.793  0.00  0.00    -0.052 A 
ATOM     29  H   LIG d   1       1.840   2.536  -9.096  0.00  0.00     0.062 H 
ATOM     30  H   LIG d   1       1.984   0.122  -8.648  0.00  0.00     0.062 H 
ENDBRANCH   1  20
BRANCH   4  31
ATOM     31  C   LIG d   1       4.423  -4.818  -9.323  0.00  0.00     0.065 A 
ATOM     32  C   LIG d   1       3.375  -5.721  -9.193  0.00  0.00    -0.036 A 
ATOM     33  C   LIG d   1       3.444  -6.950  -9.817  0.00  0.00    -0.060 A 
ATOM     34  H   LIG d   1       2.505  -5.458  -8.610  0.00  0.00     0.064 H 
ATOM     35  C   LIG d   1       4.560  -7.289 -10.560  0.00  0.00    -0.062 A 
ATOM     36  H   LIG d   1       2.627  -7.651  -9.720  0.00  0.00     0.062 H 
ATOM     37  C   LIG d   1       5.607  -6.396 -10.686  0.00  0.00    -0.060 A 
ATOM     38  H   LIG d   1       4.613  -8.254 -11.043  0.00  0.00     0.062 H 
ATOM     39  C   LIG d   1       5.543  -5.161 -10.070  0.00  0.00    -0.036 A 
ATOM     40  H   LIG d   1       6.477  -6.663 -11.268  0.00  0.00     0.062 H 
ATOM     41  H   LIG d   1       6.360  -4.464 -10.169  0.00  0.00     0.064 H 
ENDBRANCH   4  31
TORSDOF 3
ENDMDL
MODEL 7
REMARK VINA RESULT:      -6.9      3.906      8.132
REMARK  3 active torsions:
REMARK  status: ('A' for Active; 'I' for Inactive)
REMARK    1  A    between atoms: C_4  and  C_7 
REMARK    2  A    between atoms: C_8  and  C_18 
REMARK    3  A    between atoms: N_10  and  C_12 
ROOT
ATOM      1  C   LIG d   1       6.551   0.241  -3.922  0.00  0.00     0.105 A 
ATOM      2  C   LIG d   1       7.678  -0.542  -4.434  0.00  0.00     0.083 A 
ATOM      3  C   LIG d   1       8.684   0.347  -4.696  0.00  0.00     0.044 A 
ATOM      4  N   LIG d   1       8.244   1.581  -4.381  0.00  0.00    -0.238 N 
ATOM      5  N   LIG d   1       6.930   1.501  -3.912  0.00  0.00    -0.166 NA
ATOM      6  H   LIG d   1       9.661   0.102  -5.086  0.00  0.00     0.084 H 
ENDROOT
BRANCH   2   7
ATOM      7  C   LIG d   1       7.719  -2.003  -4.630  0.00  0.00     0.232 A 
ATOM      8  O   LIG d   1       6.890  -2.699  -5.430  0.00  0.00    -0.435 OA
ATOM      9  C   LIG d   1       7.232  -4.005  -5.358  0.00  0.00     0.156 A 
ATOM     10  C   LIG d   1       8.311  -4.083  -4.463  0.00  0.00     0.110 A 
ATOM     11  C   LIG d   1       6.744  -5.159  -5.951  0.00  0.00    -0.017 A 
ATOM     12  N   LIG d   1       8.566  -2.815  -4.047  0.00  0.00    -0.209 NA
ATOM     13  C   LIG d   1       8.884  -5.325  -4.178  0.00  0.00    -0.033 A 
ATOM     14  C   LIG d   1       8.387  -6.460  -4.778  0.00  0.00    -0.059 A 
ATOM     15  H   LIG d   1       9.716  -5.394  -3.492  0.00  0.00     0.064 H 
ATOM     16  C   LIG d   1       7.321  -6.378  -5.661  0.00  0.00    -0.058 A 
ATOM     17  H   LIG d   1       8.829  -7.421  -4.559  0.00  0.00     0.062 H 
ATOM     18  H   LIG d   1       6.939  -7.275  -6.125  0.00  0.00     0.062 H 
ATOM     19  H   LIG d   1       5.915  -5.103  -6.641  0.00  0.00     0.066 H 
ENDBRANCH   2   7
BRANCH   1  20
ATOM     20  C   LIG d   1       5.230  -0.285  -3.500  0.00  0.00     0.003 A 
ATOM     21  C   LIG d   1       4.059   0.273  -4.011  0.00  0.00    -0.052 A 
ATOM     22  C   LIG d   1       2.834  -0.221  -3.615  0.00  0.00    -0.061 A 
ATOM     23  H   LIG d   1       4.112   1.090  -4.715  0.00  0.00     0.062 H 
ATOM     24  C   LIG d   1       2.765  -1.267  -2.713  0.00  0.00    -0.062 A 
ATOM     25  H   LIG d   1       1.926   0.211  -4.010  0.00  0.00     0.062 H 
ATOM     26  C   LIG d   1       3.923  -1.825  -2.203  0.00  0.00    -0.061 A 
ATOM     27  H   LIG d   1       1.803  -1.648  -2.403  0.00  0.00     0.062 H 
ATOM     28  C   LIG d   1       5.155  -1.339  -2.592  0.00  0.00    -0.052 A 
ATOM     29  H   LIG d   1       3.864  -2.642  -1.499  0.00  0.00     0.062 H 
ATOM     30  H   LIG d   1       6.059  -1.775  -2.192  0.00  0.00     0.062 H 
ENDBRANCH   1  20
BRANCH   4  31
ATOM     31  C   LIG d   1       8.988   2.761  -4.509  0.00  0.00     0.065 A 
ATOM     32  C   LIG d   1       9.451   3.417  -3.375  0.00  0.00    -0.036 A 
ATOM     33  C   LIG d   1      10.188   4.578  -3.505  0.00  0.00    -0.060 A 
ATOM     34  H   LIG d   1       9.239   3.018  -2.395  0.00  0.00     0.064 H 
ATOM     35  C   LIG d   1      10.455   5.093  -4.759  0.00  0.00    -0.062 A 
ATOM     36  H   LIG d   1      10.552   5.087  -2.624  0.00  0.00     0.062 H 
ATOM     37  C   LIG d   1       9.991   4.446  -5.889  0.00  0.00    -0.060 A 
ATOM     38  H   LIG d   1      11.028   6.004  -4.857  0.00  0.00     0.062 H 
ATOM     39  C   LIG d   1       9.258   3.281  -5.768  0.00  0.00    -0.036 A 
ATOM     40  H   LIG d   1      10.201   4.850  -6.868  0.00  0.00     0.062 H 
ATOM     41  H   LIG d   1       8.896   2.776  -6.650  0.00  0.00     0.064 H 
ENDBRANCH   4  31
TORSDOF 3
ENDMDL
MODEL 8
REMARK VINA RESULT:      -6.8      3.587      6.352
REMARK  3 active torsions:
REMARK  status: ('A' for Active; 'I' for Inactive)
REMARK    1  A    between atoms: C_4  and  C_7 
REMARK    2  A    between atoms: C_8  and  C_18 
REMARK    3  A    between atoms: N_10  and  C_12 
ROOT
ATOM      1  C   LIG d   1       6.715  -0.144  -4.842  0.00  0.00     0.105 A 
ATOM      2  C   LIG d   1       6.589   0.111  -6.279  0.00  0.00     0.083 A 
ATOM      3  C   LIG d   1       7.769   0.675  -6.681  0.00  0.00     0.044 A 
ATOM      4  N   LIG d   1       8.573   0.771  -5.605  0.00  0.00    -0.238 N 
ATOM      5  N   LIG d   1       7.910   0.270  -4.481  0.00  0.00    -0.166 NA
ATOM      6  H   LIG d   1       8.012   0.987  -7.686  0.00  0.00     0.084 H 
ENDROOT
BRANCH   2   7
ATOM      7  C   LIG d   1       5.418  -0.182  -7.127  0.00  0.00     0.232 A 
ATOM      8  O   LIG d   1       4.550   0.737  -7.590  0.00  0.00    -0.435 OA
ATOM      9  C   LIG d   1       3.616   0.098  -8.331  0.00  0.00     0.156 A 
ATOM     10  C   LIG d   1       3.946  -1.266  -8.295  0.00  0.00     0.110 A 
ATOM     11  C   LIG d   1       2.503   0.519  -9.040  0.00  0.00    -0.017 A 
ATOM     12  N   LIG d   1       5.068  -1.376  -7.536  0.00  0.00    -0.209 NA
ATOM     13  C   LIG d   1       3.147  -2.188  -8.975  0.00  0.00    -0.033 A 
ATOM     14  C   LIG d   1       2.045  -1.752  -9.675  0.00  0.00    -0.059 A 
ATOM     15  H   LIG d   1       3.394  -3.240  -8.953  0.00  0.00     0.064 H 
ATOM     16  C   LIG d   1       1.723  -0.403  -9.708  0.00  0.00    -0.058 A 
ATOM     17  H   LIG d   1       1.427  -2.464 -10.201  0.00  0.00     0.062 H 
ATOM     18  H   LIG d   1       0.856  -0.073 -10.260  0.00  0.00     0.062 H 
ATOM     19  H   LIG d   1       2.246   1.568  -9.071  0.00  0.00     0.066 H 
ENDBRANCH   2   7
BRANCH   1  20
ATOM     20  C   LIG d   1       5.687  -0.747  -3.959  0.00  0.00     0.003 A 
ATOM     21  C   LIG d   1       5.376  -2.101  -4.073  0.00  0.00    -0.052 A 
ATOM     22  C   LIG d   1       4.419  -2.657  -3.249  0.00  0.00    -0.061 A 
ATOM     23  H   LIG d   1       5.883  -2.714  -4.803  0.00  0.00     0.062 H 
ATOM     24  C   LIG d   1       3.768  -1.873  -2.313  0.00  0.00    -0.062 A 
ATOM     25  H   LIG d   1       4.176  -3.706  -3.336  0.00  0.00     0.062 H 
ATOM     26  C   LIG d   1       4.073  -0.529  -2.196  0.00  0.00    -0.061 A 
ATOM     27  H   LIG d   1       3.017  -2.312  -1.673  0.00  0.00     0.062 H 
ATOM     28  C   LIG d   1       5.029   0.037  -3.015  0.00  0.00    -0.052 A 
ATOM     29  H   LIG d   1       3.563   0.078  -1.463  0.00  0.00     0.062 H 
ATOM     30  H   LIG d   1       5.266   1.087  -2.922  0.00  0.00     0.062 H 
ENDBRANCH   1  20
BRANCH   4  31
ATOM     31  C   LIG d   1       9.871   1.298  -5.611  0.00  0.00     0.065 A 
ATOM     32  C   LIG d   1      10.967   0.447  -5.541  0.00  0.00    -0.036 A 
ATOM     33  C   LIG d   1      12.246   0.968  -5.553  0.00  0.00    -0.060 A 
ATOM     34  H   LIG d   1      10.820  -0.621  -5.482  0.00  0.00     0.064 H 
ATOM     35  C   LIG d   1      12.436   2.336  -5.622  0.00  0.00    -0.062 A 
ATOM     36  H   LIG d   1      13.098   0.307  -5.502  0.00  0.00     0.062 H 
ATOM     37  C   LIG d   1      11.347   3.186  -5.686  0.00  0.00    -0.060 A 
ATOM     38  H   LIG d   1      13.438   2.742  -5.626  0.00  0.00     0.062 H 
ATOM     39  C   LIG d   1      10.066   2.671  -5.681  0.00  0.00    -0.036 A 
ATOM     40  H   LIG d   1      11.499   4.254  -5.741  0.00  0.00     0.062 H 
ATOM     41  H   LIG d   1       9.216   3.335  -5.732  0.00  0.00     0.064 H 
ENDBRANCH   4  31
TORSDOF 3
ENDMDL
MODEL 9
REMARK VINA RESULT:      -6.8      1.854      4.611
REMARK  3 active torsions:
REMARK  status: ('A' for Active; 'I' for Inactive)
REMARK    1  A    between atoms: C_4  and  C_7 
REMARK    2  A    between atoms: C_8  and  C_18 
REMARK    3  A    between atoms: N_10  and  C_12 
ROOT
ATOM      1  C   LIG d   1       4.598  -3.767  -7.223  0.00  0.00     0.105 A 
ATOM      2  C   LIG d   1       4.714  -3.779  -5.763  0.00  0.00     0.083 A 
ATOM      3  C   LIG d   1       4.752  -5.092  -5.384  0.00  0.00     0.044 A 
ATOM      4  N   LIG d   1       4.669  -5.850  -6.495  0.00  0.00    -0.238 N 
ATOM      5  N   LIG d   1       4.569  -5.021  -7.617  0.00  0.00    -0.166 NA
ATOM      6  H   LIG d   1       4.835  -5.458  -4.371  0.00  0.00     0.084 H 
ENDROOT
BRANCH   2   7
ATOM      7  C   LIG d   1       4.777  -2.603  -4.874  0.00  0.00     0.232 A 
ATOM      8  O   LIG d   1       5.659  -1.593  -4.991  0.00  0.00    -0.435 OA
ATOM      9  C   LIG d   1       5.409  -0.700  -4.007  0.00  0.00     0.156 A 
ATOM     10  C   LIG d   1       4.332  -1.214  -3.269  0.00  0.00     0.110 A 
ATOM     11  C   LIG d   1       5.981   0.509  -3.640  0.00  0.00    -0.017 A 
ATOM     12  N   LIG d   1       3.985  -2.390  -3.852  0.00  0.00    -0.209 NA
ATOM     13  C   LIG d   1       3.845  -0.502  -2.169  0.00  0.00    -0.033 A 
ATOM     14  C   LIG d   1       4.426   0.696  -1.820  0.00  0.00    -0.059 A 
ATOM     15  H   LIG d   1       3.015  -0.891  -1.596  0.00  0.00     0.064 H 
ATOM     16  C   LIG d   1       5.490   1.200  -2.552  0.00  0.00    -0.058 A 
ATOM     17  H   LIG d   1       4.051   1.247  -0.970  0.00  0.00     0.062 H 
ATOM     18  H   LIG d   1       5.937   2.141  -2.269  0.00  0.00     0.062 H 
ATOM     19  H   LIG d   1       6.810   0.908  -4.206  0.00  0.00     0.066 H 
ENDBRANCH   2   7
BRANCH   1  20
ATOM     20  C   LIG d   1       4.521  -2.568  -8.092  0.00  0.00     0.003 A 
ATOM     21  C   LIG d   1       5.685  -1.899  -8.467  0.00  0.00    -0.052 A 
ATOM     22  C   LIG d   1       5.607  -0.785  -9.275  0.00  0.00    -0.061 A 
ATOM     23  H   LIG d   1       6.647  -2.253  -8.125  0.00  0.00     0.062 H 
ATOM     24  C   LIG d   1       4.376  -0.329  -9.714  0.00  0.00    -0.062 A 
ATOM     25  H   LIG d   1       6.508  -0.265  -9.566  0.00  0.00     0.062 H 
ATOM     26  C   LIG d   1       3.218  -0.989  -9.346  0.00  0.00    -0.061 A 
ATOM     27  H   LIG d   1       4.320   0.546 -10.343  0.00  0.00     0.062 H 
ATOM     28  C   LIG d   1       3.284  -2.105  -8.537  0.00  0.00    -0.052 A 
ATOM     29  H   LIG d   1       2.260  -0.630  -9.691  0.00  0.00     0.062 H 
ATOM     30  H   LIG d   1       2.378  -2.619  -8.250  0.00  0.00     0.062 H 
ENDBRANCH   1  20
BRANCH   4  31
ATOM     31  C   LIG d   1       4.676  -7.250  -6.521  0.00  0.00     0.065 A 
ATOM     32  C   LIG d   1       4.933  -7.966  -5.358  0.00  0.00    -0.036 A 
ATOM     33  C   LIG d   1       4.934  -9.347  -5.386  0.00  0.00    -0.060 A 
ATOM     34  H   LIG d   1       5.125  -7.444  -4.433  0.00  0.00     0.064 H 
ATOM     35  C   LIG d   1       4.693 -10.016  -6.571  0.00  0.00    -0.062 A 
ATOM     36  H   LIG d   1       5.129  -9.904  -4.482  0.00  0.00     0.062 H 
ATOM     37  C   LIG d   1       4.443  -9.307  -7.731  0.00  0.00    -0.060 A 
ATOM     38  H   LIG d   1       4.699 -11.097  -6.591  0.00  0.00     0.062 H 
ATOM     39  C   LIG d   1       4.434  -7.926  -7.710  0.00  0.00    -0.036 A 
ATOM     40  H   LIG d   1       4.254  -9.833  -8.656  0.00  0.00     0.062 H 
ATOM     41  H   LIG d   1       4.239  -7.372  -8.616  0.00  0.00     0.064 H 
ENDBRANCH   4  31
TORSDOF 3
ENDMDL
