MODEL 1
REMARK VINA RESULT:      -6.0      0.000      0.000
REMARK  7 active torsions:
REMARK  status: ('A' for Active; 'I' for Inactive)
REMARK    1  A    between atoms: C_1  and  C_2 
REMARK    2  A    between atoms: C_2  and  O_4 
REMARK    3  A    between atoms: O_4  and  C_5 
REMARK    4  A    between atoms: C_11  and  C_32 
REMARK    5  A    between atoms: C_22  and  C_31 
REMARK    6  A    between atoms: C_25  and  C_28 
REMARK    7  A    between atoms: C_28  and  C_29 
ROOT
ATOM      1  C   LIG d   1       7.254   0.604  -3.740  0.00  0.00     0.109 C 
ATOM      2  H   LIG d   1       8.163   0.492  -3.161  0.00  0.00     0.074 H 
ATOM      3  C   LIG d   1       6.009   0.639  -2.816  0.00  0.00    -0.015 C 
ATOM      4  C   LIG d   1       5.312  -0.744  -2.963  0.00  0.00    -0.046 C 
ATOM      5  C   LIG d   1       6.410  -1.607  -3.591  0.00  0.00    -0.029 C 
ATOM      6  H   LIG d   1       7.170  -1.798  -2.795  0.00  0.00     0.031 H 
ATOM      7  C   LIG d   1       7.029  -0.641  -4.617  0.00  0.00     0.008 C 
ATOM      8  C   LIG d   1       8.274  -1.268  -5.201  0.00  0.00    -0.044 C 
ATOM      9  C   LIG d   1       7.863  -2.580  -5.902  0.00  0.00    -0.049 C 
ATOM     10  C   LIG d   1       7.198  -3.533  -4.930  0.00  0.00    -0.032 C 
ATOM     11  H   LIG d   1       7.972  -3.727  -4.148  0.00  0.00     0.031 H 
ATOM     12  C   LIG d   1       6.020  -2.937  -4.176  0.00  0.00    -0.034 C 
ATOM     13  H   LIG d   1       5.863  -3.618  -3.290  0.00  0.00     0.031 H 
ATOM     14  C   LIG d   1       4.694  -2.926  -4.904  0.00  0.00    -0.049 C 
ATOM     15  C   LIG d   1       4.641  -4.006  -5.993  0.00  0.00    -0.049 C 
ATOM     16  C   LIG d   1       5.411  -5.201  -5.450  0.00  0.00    -0.035 C 
ATOM     17  H   LIG d   1       5.137  -5.315  -4.387  0.00  0.00     0.031 H 
ATOM     18  C   LIG d   1       6.911  -4.905  -5.513  0.00  0.00    -0.026 C 
ATOM     19  C   LIG d   1       7.626  -6.010  -4.730  0.00  0.00    -0.047 C 
ATOM     20  C   LIG d   1       7.331  -7.369  -5.368  0.00  0.00    -0.049 C 
ATOM     21  C   LIG d   1       5.833  -7.643  -5.439  0.00  0.00    -0.036 C 
ATOM     22  H   LIG d   1       5.439  -7.747  -4.426  0.00  0.00     0.030 H 
ATOM     23  C   LIG d   1       5.089  -6.509  -6.150  0.00  0.00    -0.046 C 
ATOM     24  H   LIG d   1       5.333   1.432  -3.133  0.00  0.00     0.030 H 
ATOM     25  H   LIG d   1       6.315   0.797  -1.783  0.00  0.00     0.030 H 
ATOM     26  H   LIG d   1       4.432  -0.680  -3.596  0.00  0.00     0.027 H 
ATOM     27  H   LIG d   1       5.043  -1.133  -1.976  0.00  0.00     0.027 H 
ATOM     28  H   LIG d   1       8.726  -0.593  -5.930  0.00  0.00     0.027 H 
ATOM     29  H   LIG d   1       8.992  -1.485  -4.410  0.00  0.00     0.027 H 
ATOM     30  H   LIG d   1       7.215  -2.358  -6.741  0.00  0.00     0.027 H 
ATOM     31  H   LIG d   1       8.795  -3.025  -6.276  0.00  0.00     0.027 H 
ATOM     32  H   LIG d   1       3.901  -3.172  -4.172  0.00  0.00     0.027 H 
ATOM     33  H   LIG d   1       4.435  -1.970  -5.326  0.00  0.00     0.027 H 
ATOM     34  H   LIG d   1       3.603  -4.287  -6.174  0.00  0.00     0.027 H 
ATOM     35  H   LIG d   1       5.087  -3.629  -6.907  0.00  0.00     0.027 H 
ATOM     36  H   LIG d   1       8.701  -5.819  -4.736  0.00  0.00     0.027 H 
ATOM     37  H   LIG d   1       7.268  -6.003  -3.696  0.00  0.00     0.027 H 
ATOM     38  H   LIG d   1       7.772  -7.440  -6.360  0.00  0.00     0.027 H 
ATOM     39  H   LIG d   1       7.794  -8.150  -4.748  0.00  0.00     0.027 H 
ATOM     40  H   LIG d   1       4.008  -6.696  -6.070  0.00  0.00     0.027 H 
ATOM     41  H   LIG d   1       5.346  -6.483  -7.203  0.00  0.00     0.027 H 
ENDROOT
BRANCH   1  42
ATOM     42  O   LIG d   1       7.304   1.789  -4.573  0.00  0.00    -0.461 OA
BRANCH  42  43
ATOM     43  C   LIG d   1       8.409   2.548  -4.488  0.00  0.00     0.304 C 
ATOM     44  O   LIG d   1       8.818   2.900  -3.408  0.00  0.00    -0.251 OA
BRANCH  43  45
ATOM     45  C   LIG d   1       9.139   2.959  -5.742  0.00  0.00     0.033 C 
ATOM     46  H   LIG d   1       9.822   2.165  -6.042  0.00  0.00     0.034 H 
ATOM     47  H   LIG d   1       8.417   3.139  -6.539  0.00  0.00     0.034 H 
ATOM     48  H   LIG d   1       9.704   3.871  -5.551  0.00  0.00     0.034 H 
ENDBRANCH  43  45
ENDBRANCH  42  43
ENDBRANCH   1  42
BRANCH   7  49
ATOM     49  C   LIG d   1       6.077  -0.231  -5.738  0.00  0.00    -0.056 C 
ATOM     50  H   LIG d   1       5.089  -0.035  -5.322  0.00  0.00     0.024 H 
ATOM     51  H   LIG d   1       6.009  -1.037  -6.470  0.00  0.00     0.024 H 
ATOM     52  H   LIG d   1       6.453   0.670  -6.223  0.00  0.00     0.024 H 
ENDBRANCH   7  49
BRANCH  18  53
ATOM     53  C   LIG d   1       7.384  -4.959  -6.965  0.00  0.00    -0.059 C 
ATOM     54  H   LIG d   1       6.518  -4.980  -7.628  0.00  0.00     0.024 H 
ATOM     55  H   LIG d   1       7.988  -4.080  -7.184  0.00  0.00     0.024 H 
ATOM     56  H   LIG d   1       7.981  -5.859  -7.119  0.00  0.00     0.024 H 
ENDBRANCH  18  53
BRANCH  21  57
ATOM     57  C   LIG d   1       5.596  -8.951  -6.200  0.00  0.00    -0.010 C 
ATOM     58  H   LIG d   1       5.314  -8.727  -7.229  0.00  0.00     0.033 H 
ATOM     59  H   LIG d   1       6.509  -9.546  -6.195  0.00  0.00     0.033 H 
BRANCH  57  60
ATOM     60  C   LIG d   1       4.487  -9.726  -5.533  0.00  0.00     0.042 C 
ATOM     61  O   LIG d   1       4.038 -10.714  -6.062  0.00  0.00    -0.550 OA
ATOM     62  O   LIG d   1       4.000  -9.316  -4.351  0.00  0.00    -0.550 OA
ENDBRANCH  57  60
ENDBRANCH  21  57
TORSDOF 7
ENDMDL
MODEL 2
REMARK VINA RESULT:      -5.7      7.792     10.718
REMARK  7 active torsions:
REMARK  status: ('A' for Active; 'I' for Inactive)
REMARK    1  A    between atoms: C_1  and  C_2 
REMARK    2  A    between atoms: C_2  and  O_4 
REMARK    3  A    between atoms: O_4  and  C_5 
REMARK    4  A    between atoms: C_11  and  C_32 
REMARK    5  A    between atoms: C_22  and  C_31 
REMARK    6  A    between atoms: C_25  and  C_28 
REMARK    7  A    between atoms: C_28  and  C_29 
ROOT
ATOM      1  C   LIG d   1       5.671 -10.364  -4.276  0.00  0.00     0.109 C 
ATOM      2  H   LIG d   1       5.597  -9.361  -4.679  0.00  0.00     0.074 H 
ATOM      3  C   LIG d   1       4.621 -10.591  -3.157  0.00  0.00    -0.015 C 
ATOM      4  C   LIG d   1       5.397 -10.553  -1.809  0.00  0.00    -0.046 C 
ATOM      5  C   LIG d   1       6.718  -9.884  -2.203  0.00  0.00    -0.029 C 
ATOM      6  H   LIG d   1       6.495  -8.805  -2.388  0.00  0.00     0.031 H 
ATOM      7  C   LIG d   1       7.021 -10.547  -3.559  0.00  0.00     0.008 C 
ATOM      8  C   LIG d   1       8.203  -9.854  -4.196  0.00  0.00    -0.044 C 
ATOM      9  C   LIG d   1       9.415 -10.016  -3.255  0.00  0.00    -0.049 C 
ATOM     10  C   LIG d   1       9.129  -9.423  -1.890  0.00  0.00    -0.032 C 
ATOM     11  H   LIG d   1       8.921  -8.344  -2.087  0.00  0.00     0.031 H 
ATOM     12  C   LIG d   1       7.864  -9.951  -1.231  0.00  0.00    -0.034 C 
ATOM     13  H   LIG d   1       7.617  -9.200  -0.426  0.00  0.00     0.031 H 
ATOM     14  C   LIG d   1       7.986 -11.276  -0.510  0.00  0.00    -0.049 C 
ATOM     15  C   LIG d   1       9.434 -11.552  -0.082  0.00  0.00    -0.049 C 
ATOM     16  C   LIG d   1      10.031 -10.207   0.305  0.00  0.00    -0.035 C 
ATOM     17  H   LIG d   1       9.263  -9.656   0.875  0.00  0.00     0.031 H 
ATOM     18  C   LIG d   1      10.331  -9.405  -0.963  0.00  0.00    -0.026 C 
ATOM     19  C   LIG d   1      10.684  -7.979  -0.527  0.00  0.00    -0.047 C 
ATOM     20  C   LIG d   1      11.915  -8.007   0.381  0.00  0.00    -0.049 C 
ATOM     21  C   LIG d   1      11.697  -8.903   1.596  0.00  0.00    -0.036 C 
ATOM     22  H   LIG d   1      10.923  -8.466   2.229  0.00  0.00     0.030 H 
ATOM     23  C   LIG d   1      11.266 -10.313   1.182  0.00  0.00    -0.046 C 
ATOM     24  H   LIG d   1       4.145 -11.562  -3.285  0.00  0.00     0.030 H 
ATOM     25  H   LIG d   1       3.873  -9.800  -3.181  0.00  0.00     0.030 H 
ATOM     26  H   LIG d   1       5.549 -11.551  -1.411  0.00  0.00     0.027 H 
ATOM     27  H   LIG d   1       4.860  -9.933  -1.086  0.00  0.00     0.027 H 
ATOM     28  H   LIG d   1       8.430 -10.312  -5.161  0.00  0.00     0.027 H 
ATOM     29  H   LIG d   1       7.988  -8.795  -4.336  0.00  0.00     0.027 H 
ATOM     30  H   LIG d   1       9.682 -11.063  -3.181  0.00  0.00     0.027 H 
ATOM     31  H   LIG d   1      10.240  -9.467  -3.730  0.00  0.00     0.027 H 
ATOM     32  H   LIG d   1       7.385 -11.216   0.417  0.00  0.00     0.027 H 
ATOM     33  H   LIG d   1       7.604 -12.113  -1.068  0.00  0.00     0.027 H 
ATOM     34  H   LIG d   1       9.435 -12.219   0.781  0.00  0.00     0.027 H 
ATOM     35  H   LIG d   1       9.979 -12.007  -0.902  0.00  0.00     0.027 H 
ATOM     36  H   LIG d   1      10.884  -7.371  -1.411  0.00  0.00     0.027 H 
ATOM     37  H   LIG d   1       9.835  -7.553   0.015  0.00  0.00     0.027 H 
ATOM     38  H   LIG d   1      12.799  -8.327  -0.166  0.00  0.00     0.027 H 
ATOM     39  H   LIG d   1      12.104  -6.984   0.738  0.00  0.00     0.027 H 
ATOM     40  H   LIG d   1      11.008 -10.880   2.088  0.00  0.00     0.027 H 
ATOM     41  H   LIG d   1      12.077 -10.831   0.684  0.00  0.00     0.027 H 
ENDROOT
BRANCH   1  42
ATOM     42  O   LIG d   1       5.529 -11.362  -5.318  0.00  0.00    -0.461 OA
BRANCH  42  43
ATOM     43  C   LIG d   1       4.430 -11.288  -6.087  0.00  0.00     0.304 C 
ATOM     44  O   LIG d   1       4.163 -10.261  -6.662  0.00  0.00    -0.251 OA
BRANCH  43  45
ATOM     45  C   LIG d   1       3.531 -12.490  -6.231  0.00  0.00     0.033 C 
ATOM     46  H   LIG d   1       3.395 -12.961  -5.258  0.00  0.00     0.034 H 
ATOM     47  H   LIG d   1       2.563 -12.173  -6.620  0.00  0.00     0.034 H 
ATOM     48  H   LIG d   1       3.985 -13.202  -6.919  0.00  0.00     0.034 H 
ENDBRANCH  43  45
ENDBRANCH  42  43
ENDBRANCH   1  42
BRANCH   7  49
ATOM     49  C   LIG d   1       7.281 -12.048  -3.473  0.00  0.00    -0.056 C 
ATOM     50  H   LIG d   1       7.731 -12.393  -4.404  0.00  0.00     0.024 H 
ATOM     51  H   LIG d   1       6.338 -12.571  -3.310  0.00  0.00     0.024 H 
ATOM     52  H   LIG d   1       7.958 -12.253  -2.644  0.00  0.00     0.024 H 
ENDBRANCH   7  49
BRANCH  18  53
ATOM     53  C   LIG d   1      11.542 -10.005  -1.675  0.00  0.00    -0.059 C 
ATOM     54  H   LIG d   1      11.207 -10.592  -2.530  0.00  0.00     0.024 H 
ATOM     55  H   LIG d   1      12.197  -9.204  -2.018  0.00  0.00     0.024 H 
ATOM     56  H   LIG d   1      12.088 -10.650  -0.984  0.00  0.00     0.024 H 
ENDBRANCH  18  53
BRANCH  21  57
ATOM     57  C   LIG d   1      13.001  -8.993   2.395  0.00  0.00    -0.010 C 
ATOM     58  H   LIG d   1      13.435  -9.985   2.271  0.00  0.00     0.033 H 
ATOM     59  H   LIG d   1      13.702  -8.241   2.034  0.00  0.00     0.033 H 
BRANCH  57  60
ATOM     60  C   LIG d   1      12.712  -8.751   3.855  0.00  0.00     0.042 C 
ATOM     61  O   LIG d   1      11.814  -8.009   4.178  0.00  0.00    -0.550 OA
ATOM     62  O   LIG d   1      13.452  -9.358   4.796  0.00  0.00    -0.550 OA
ENDBRANCH  57  60
ENDBRANCH  21  57
TORSDOF 7
ENDMDL
MODEL 3
REMARK VINA RESULT:      -5.7      7.105     10.363
REMARK  7 active torsions:
REMARK  status: ('A' for Active; 'I' for Inactive)
REMARK    1  A    between atoms: C_1  and  C_2 
REMARK    2  A    between atoms: C_2  and  O_4 
REMARK    3  A    between atoms: O_4  and  C_5 
REMARK    4  A    between atoms: C_11  and  C_32 
REMARK    5  A    between atoms: C_22  and  C_31 
REMARK    6  A    between atoms: C_25  and  C_28 
REMARK    7  A    between atoms: C_28  and  C_29 
ROOT
ATOM      1  C   LIG d   1      10.774   7.937   0.318  0.00  0.00     0.109 C 
ATOM      2  H   LIG d   1      10.256   7.410   1.110  0.00  0.00     0.074 H 
ATOM      3  C   LIG d   1       9.877   9.048  -0.287  0.00  0.00    -0.015 C 
ATOM      4  C   LIG d   1       9.390   8.520  -1.667  0.00  0.00    -0.046 C 
ATOM      5  C   LIG d   1       9.663   7.016  -1.565  0.00  0.00    -0.029 C 
ATOM      6  H   LIG d   1       8.907   6.595  -0.859  0.00  0.00     0.031 H 
ATOM      7  C   LIG d   1      11.034   6.987  -0.865  0.00  0.00     0.008 C 
ATOM      8  C   LIG d   1      11.375   5.561  -0.501  0.00  0.00    -0.044 C 
ATOM      9  C   LIG d   1      11.436   4.737  -1.805  0.00  0.00    -0.049 C 
ATOM     10  C   LIG d   1      10.117   4.791  -2.548  0.00  0.00    -0.032 C 
ATOM     11  H   LIG d   1       9.373   4.355  -1.838  0.00  0.00     0.031 H 
ATOM     12  C   LIG d   1       9.613   6.199  -2.826  0.00  0.00    -0.034 C 
ATOM     13  H   LIG d   1       8.516   6.078  -3.059  0.00  0.00     0.031 H 
ATOM     14  C   LIG d   1      10.198   6.894  -4.036  0.00  0.00    -0.049 C 
ATOM     15  C   LIG d   1      10.730   5.885  -5.062  0.00  0.00    -0.049 C 
ATOM     16  C   LIG d   1       9.784   4.694  -5.023  0.00  0.00    -0.035 C 
ATOM     17  H   LIG d   1       8.756   5.091  -4.951  0.00  0.00     0.031 H 
ATOM     18  C   LIG d   1      10.054   3.877  -3.758  0.00  0.00    -0.026 C 
ATOM     19  C   LIG d   1       8.924   2.850  -3.629  0.00  0.00    -0.047 C 
ATOM     20  C   LIG d   1       8.916   1.935  -4.854  0.00  0.00    -0.049 C 
ATOM     21  C   LIG d   1       8.777   2.728  -6.148  0.00  0.00    -0.036 C 
ATOM     22  H   LIG d   1       7.792   3.199  -6.176  0.00  0.00     0.030 H 
ATOM     23  C   LIG d   1       9.852   3.814  -6.258  0.00  0.00    -0.046 C 
ATOM     24  H   LIG d   1      10.456   9.961  -0.421  0.00  0.00     0.030 H 
ATOM     25  H   LIG d   1       9.025   9.236   0.364  0.00  0.00     0.030 H 
ATOM     26  H   LIG d   1       9.938   8.979  -2.483  0.00  0.00     0.027 H 
ATOM     27  H   LIG d   1       8.317   8.703  -1.778  0.00  0.00     0.027 H 
ATOM     28  H   LIG d   1      12.345   5.523  -0.002  0.00  0.00     0.027 H 
ATOM     29  H   LIG d   1      10.609   5.147   0.156  0.00  0.00     0.027 H 
ATOM     30  H   LIG d   1      12.251   5.094  -2.423  0.00  0.00     0.027 H 
ATOM     31  H   LIG d   1      11.644   3.703  -1.498  0.00  0.00     0.027 H 
ATOM     32  H   LIG d   1       9.385   7.457  -4.533  0.00  0.00     0.027 H 
ATOM     33  H   LIG d   1      10.965   7.612  -3.799  0.00  0.00     0.027 H 
ATOM     34  H   LIG d   1      10.715   6.336  -6.055  0.00  0.00     0.027 H 
ATOM     35  H   LIG d   1      11.742   5.595  -4.803  0.00  0.00     0.027 H 
ATOM     36  H   LIG d   1       9.074   2.262  -2.722  0.00  0.00     0.027 H 
ATOM     37  H   LIG d   1       7.969   3.379  -3.557  0.00  0.00     0.027 H 
ATOM     38  H   LIG d   1       9.811   1.318  -4.889  0.00  0.00     0.027 H 
ATOM     39  H   LIG d   1       8.055   1.256  -4.773  0.00  0.00     0.027 H 
ATOM     40  H   LIG d   1       9.636   4.431  -7.143  0.00  0.00     0.027 H 
ATOM     41  H   LIG d   1      10.832   3.371  -6.391  0.00  0.00     0.027 H 
ENDROOT
BRANCH   1  42
ATOM     42  O   LIG d   1      12.028   8.492   0.787  0.00  0.00    -0.461 OA
BRANCH  42  43
ATOM     43  C   LIG d   1      12.018   9.092   1.989  0.00  0.00     0.304 C 
ATOM     44  O   LIG d   1      11.811   8.442   2.986  0.00  0.00    -0.251 OA
BRANCH  43  45
ATOM     45  C   LIG d   1      12.265  10.575   2.093  0.00  0.00     0.033 C 
ATOM     46  H   LIG d   1      12.524  10.970   1.110  0.00  0.00     0.034 H 
ATOM     47  H   LIG d   1      11.364  11.068   2.457  0.00  0.00     0.034 H 
ATOM     48  H   LIG d   1      13.086  10.759   2.785  0.00  0.00     0.034 H 
ENDBRANCH  43  45
ENDBRANCH  42  43
ENDBRANCH   1  42
BRANCH   7  49
ATOM     49  C   LIG d   1      12.165   7.599  -1.688  0.00  0.00    -0.056 C 
ATOM     50  H   LIG d   1      12.412   8.583  -1.290  0.00  0.00     0.024 H 
ATOM     51  H   LIG d   1      11.846   7.697  -2.727  0.00  0.00     0.024 H 
ATOM     52  H   LIG d   1      13.042   6.954  -1.637  0.00  0.00     0.024 H 
ENDBRANCH   7  49
BRANCH  18  53
ATOM     53  C   LIG d   1      11.375   3.124  -3.906  0.00  0.00    -0.059 C 
ATOM     54  H   LIG d   1      12.204   3.830  -3.848  0.00  0.00     0.024 H 
ATOM     55  H   LIG d   1      11.466   2.389  -3.107  0.00  0.00     0.024 H 
ATOM     56  H   LIG d   1      11.398   2.616  -4.871  0.00  0.00     0.024 H 
ENDBRANCH  18  53
BRANCH  21  57
ATOM     57  C   LIG d   1       8.905   1.776  -7.341  0.00  0.00    -0.010 C 
ATOM     58  H   LIG d   1       9.728   2.099  -7.977  0.00  0.00     0.033 H 
ATOM     59  H   LIG d   1       9.098   0.766  -6.980  0.00  0.00     0.033 H 
BRANCH  57  60
ATOM     60  C   LIG d   1       7.622   1.788  -8.133  0.00  0.00     0.042 C 
ATOM     61  O   LIG d   1       6.588   1.444  -7.614  0.00  0.00    -0.550 OA
ATOM     62  O   LIG d   1       7.631   2.183  -9.417  0.00  0.00    -0.550 OA
ENDBRANCH  57  60
ENDBRANCH  21  57
TORSDOF 7
ENDMDL
MODEL 4
REMARK VINA RESULT:      -5.6      7.619     13.307
REMARK  7 active torsions:
REMARK  status: ('A' for Active; 'I' for Inactive)
REMARK    1  A    between atoms: C_1  and  C_2 
REMARK    2  A    between atoms: C_2  and  O_4 
REMARK    3  A    between atoms: O_4  and  C_5 
REMARK    4  A    between atoms: C_11  and  C_32 
REMARK    5  A    between atoms: C_22  and  C_31 
REMARK    6  A    between atoms: C_25  and  C_28 
REMARK    7  A    between atoms: C_28  and  C_29 
ROOT
ATOM      1  C   LIG d   1       9.318   3.050  -5.114  0.00  0.00     0.109 C 
ATOM      2  H   LIG d   1       8.240   3.154  -5.122  0.00  0.00     0.074 H 
ATOM      3  C   LIG d   1       9.761   1.953  -4.110  0.00  0.00    -0.015 C 
ATOM      4  C   LIG d   1      10.346   2.695  -2.874  0.00  0.00    -0.046 C 
ATOM      5  C   LIG d   1       9.807   4.118  -3.053  0.00  0.00    -0.029 C 
ATOM      6  H   LIG d   1       8.714   4.084  -2.825  0.00  0.00     0.031 H 
ATOM      7  C   LIG d   1       9.970   4.334  -4.569  0.00  0.00     0.008 C 
ATOM      8  C   LIG d   1       9.298   5.629  -4.961  0.00  0.00    -0.044 C 
ATOM      9  C   LIG d   1       9.989   6.776  -4.194  0.00  0.00    -0.049 C 
ATOM     10  C   LIG d   1       9.896   6.565  -2.696  0.00  0.00    -0.032 C 
ATOM     11  H   LIG d   1       8.801   6.547  -2.480  0.00  0.00     0.031 H 
ATOM     12  C   LIG d   1      10.411   5.215  -2.221  0.00  0.00    -0.034 C 
ATOM     13  H   LIG d   1       9.976   5.081  -1.189  0.00  0.00     0.031 H 
ATOM     14  C   LIG d   1      11.908   5.096  -2.036  0.00  0.00    -0.049 C 
ATOM     15  C   LIG d   1      12.556   6.467  -1.798  0.00  0.00    -0.049 C 
ATOM     16  C   LIG d   1      11.563   7.274  -0.975  0.00  0.00    -0.035 C 
ATOM     17  H   LIG d   1      11.140   6.598  -0.212  0.00  0.00     0.031 H 
ATOM     18  C   LIG d   1      10.416   7.732  -1.877  0.00  0.00    -0.026 C 
ATOM     19  C   LIG d   1       9.326   8.311  -0.969  0.00  0.00    -0.047 C 
ATOM     20  C   LIG d   1       9.885   9.501  -0.186  0.00  0.00    -0.049 C 
ATOM     21  C   LIG d   1      11.113   9.109   0.630  0.00  0.00    -0.036 C 
ATOM     22  H   LIG d   1      10.816   8.407   1.411  0.00  0.00     0.030 H 
ATOM     23  C   LIG d   1      12.184   8.455  -0.249  0.00  0.00    -0.046 C 
ATOM     24  H   LIG d   1      10.525   1.323  -4.562  0.00  0.00     0.030 H 
ATOM     25  H   LIG d   1       8.904   1.350  -3.814  0.00  0.00     0.030 H 
ATOM     26  H   LIG d   1      11.431   2.668  -2.872  0.00  0.00     0.027 H 
ATOM     27  H   LIG d   1       9.952   2.255  -1.954  0.00  0.00     0.027 H 
ATOM     28  H   LIG d   1       9.403   5.796  -6.034  0.00  0.00     0.027 H 
ATOM     29  H   LIG d   1       8.240   5.599  -4.697  0.00  0.00     0.027 H 
ATOM     30  H   LIG d   1      11.020   6.861  -4.516  0.00  0.00     0.027 H 
ATOM     31  H   LIG d   1       9.449   7.691  -4.471  0.00  0.00     0.027 H 
ATOM     32  H   LIG d   1      12.092   4.494  -1.125  0.00  0.00     0.027 H 
ATOM     33  H   LIG d   1      12.410   4.591  -2.843  0.00  0.00     0.027 H 
ATOM     34  H   LIG d   1      13.482   6.337  -1.237  0.00  0.00     0.027 H 
ATOM     35  H   LIG d   1      12.764   6.945  -2.749  0.00  0.00     0.027 H 
ATOM     36  H   LIG d   1       8.479   8.630  -1.580  0.00  0.00     0.027 H 
ATOM     37  H   LIG d   1       8.993   7.536  -0.274  0.00  0.00     0.027 H 
ATOM     38  H   LIG d   1      10.125  10.329  -0.848  0.00  0.00     0.027 H 
ATOM     39  H   LIG d   1       9.110   9.852   0.511  0.00  0.00     0.027 H 
ATOM     40  H   LIG d   1      12.991   8.086   0.400  0.00  0.00     0.027 H 
ATOM     41  H   LIG d   1      12.611   9.177  -0.935  0.00  0.00     0.027 H 
ENDROOT
BRANCH   1  42
ATOM     42  O   LIG d   1       9.829   2.764  -6.440  0.00  0.00    -0.461 OA
BRANCH  42  43
ATOM     43  C   LIG d   1       8.947   2.792  -7.452  0.00  0.00     0.304 C 
ATOM     44  O   LIG d   1       8.023   2.016  -7.470  0.00  0.00    -0.251 OA
BRANCH  43  45
ATOM     45  C   LIG d   1       9.112   3.796  -8.565  0.00  0.00     0.033 C 
ATOM     46  H   LIG d   1       8.237   3.764  -9.215  0.00  0.00     0.034 H 
ATOM     47  H   LIG d   1       9.214   4.794  -8.141  0.00  0.00     0.034 H 
ATOM     48  H   LIG d   1      10.003   3.554  -9.144  0.00  0.00     0.034 H 
ENDBRANCH  43  45
ENDBRANCH  42  43
ENDBRANCH   1  42
BRANCH   7  49
ATOM     49  C   LIG d   1      11.420   4.334  -5.044  0.00  0.00    -0.056 C 
ATOM     50  H   LIG d   1      12.081   4.500  -4.193  0.00  0.00     0.024 H 
ATOM     51  H   LIG d   1      11.563   5.131  -5.775  0.00  0.00     0.024 H 
ATOM     52  H   LIG d   1      11.653   3.374  -5.504  0.00  0.00     0.024 H 
ENDBRANCH   7  49
BRANCH  18  53
ATOM     53  C   LIG d   1      10.906   8.840  -2.808  0.00  0.00    -0.059 C 
ATOM     54  H   LIG d   1      10.320   9.743  -2.639  0.00  0.00     0.024 H 
ATOM     55  H   LIG d   1      11.957   9.046  -2.607  0.00  0.00     0.024 H 
ATOM     56  H   LIG d   1      10.790   8.521  -3.845  0.00  0.00     0.024 H 
ENDBRANCH  18  53
BRANCH  21  57
ATOM     57  C   LIG d   1      11.702  10.361   1.287  0.00  0.00    -0.010 C 
ATOM     58  H   LIG d   1      12.588  10.678   0.735  0.00  0.00     0.033 H 
ATOM     59  H   LIG d   1      10.962  11.160   1.276  0.00  0.00     0.033 H 
BRANCH  57  60
ATOM     60  C   LIG d   1      12.083  10.048   2.711  0.00  0.00     0.042 C 
ATOM     61  O   LIG d   1      12.122   8.901   3.089  0.00  0.00    -0.550 OA
ATOM     62  O   LIG d   1      12.378  11.045   3.562  0.00  0.00    -0.550 OA
ENDBRANCH  57  60
ENDBRANCH  21  57
TORSDOF 7
ENDMDL
MODEL 5
REMARK VINA RESULT:      -5.5      4.919      6.452
REMARK  7 active torsions:
REMARK  status: ('A' for Active; 'I' for Inactive)
REMARK    1  A    between atoms: C_1  and  C_2 
REMARK    2  A    between atoms: C_2  and  O_4 
REMARK    3  A    between atoms: O_4  and  C_5 
REMARK    4  A    between atoms: C_11  and  C_32 
REMARK    5  A    between atoms: C_22  and  C_31 
REMARK    6  A    between atoms: C_25  and  C_28 
REMARK    7  A    between atoms: C_28  and  C_29 
ROOT
ATOM      1  C   LIG d   1      12.370  -4.980  -3.071  0.00  0.00     0.109 C 
ATOM      2  H   LIG d   1      12.553  -4.921  -2.005  0.00  0.00     0.074 H 
ATOM      3  C   LIG d   1      11.491  -3.795  -3.549  0.00  0.00    -0.015 C 
ATOM      4  C   LIG d   1      10.069  -4.374  -3.801  0.00  0.00    -0.046 C 
ATOM      5  C   LIG d   1      10.113  -5.708  -3.049  0.00  0.00    -0.029 C 
ATOM      6  H   LIG d   1      10.091  -5.467  -1.957  0.00  0.00     0.031 H 
ATOM      7  C   LIG d   1      11.522  -6.224  -3.393  0.00  0.00     0.008 C 
ATOM      8  C   LIG d   1      11.816  -7.453  -2.566  0.00  0.00    -0.044 C 
ATOM      9  C   LIG d   1      10.767  -8.528  -2.918  0.00  0.00    -0.049 C 
ATOM     10  C   LIG d   1       9.362  -8.030  -2.643  0.00  0.00    -0.032 C 
ATOM     11  H   LIG d   1       9.349  -7.807  -1.549  0.00  0.00     0.031 H 
ATOM     12  C   LIG d   1       9.023  -6.709  -3.315  0.00  0.00    -0.034 C 
ATOM     13  H   LIG d   1       8.120  -6.321  -2.762  0.00  0.00     0.031 H 
ATOM     14  C   LIG d   1       8.596  -6.784  -4.765  0.00  0.00    -0.049 C 
ATOM     15  C   LIG d   1       8.033  -8.169  -5.114  0.00  0.00    -0.049 C 
ATOM     16  C   LIG d   1       7.282  -8.649  -3.881  0.00  0.00    -0.035 C 
ATOM     17  H   LIG d   1       6.724  -7.788  -3.477  0.00  0.00     0.031 H 
ATOM     18  C   LIG d   1       8.289  -9.089  -2.817  0.00  0.00    -0.026 C 
ATOM     19  C   LIG d   1       7.509  -9.318  -1.518  0.00  0.00    -0.047 C 
ATOM     20  C   LIG d   1       6.460 -10.411  -1.732  0.00  0.00    -0.049 C 
ATOM     21  C   LIG d   1       5.512 -10.065  -2.875  0.00  0.00    -0.036 C 
ATOM     22  H   LIG d   1       4.918  -9.192  -2.596  0.00  0.00     0.030 H 
ATOM     23  C   LIG d   1       6.279  -9.754  -4.165  0.00  0.00    -0.046 C 
ATOM     24  H   LIG d   1      11.893  -3.382  -4.473  0.00  0.00     0.030 H 
ATOM     25  H   LIG d   1      11.451  -3.025  -2.780  0.00  0.00     0.030 H 
ATOM     26  H   LIG d   1       9.879  -4.510  -4.861  0.00  0.00     0.027 H 
ATOM     27  H   LIG d   1       9.315  -3.716  -3.360  0.00  0.00     0.027 H 
ATOM     28  H   LIG d   1      12.814  -7.830  -2.798  0.00  0.00     0.027 H 
ATOM     29  H   LIG d   1      11.753  -7.215  -1.503  0.00  0.00     0.027 H 
ATOM     30  H   LIG d   1      10.883  -8.825  -3.953  0.00  0.00     0.027 H 
ATOM     31  H   LIG d   1      10.987  -9.386  -2.270  0.00  0.00     0.027 H 
ATOM     32  H   LIG d   1       7.775  -6.058  -4.916  0.00  0.00     0.027 H 
ATOM     33  H   LIG d   1       9.371  -6.519  -5.463  0.00  0.00     0.027 H 
ATOM     34  H   LIG d   1       7.343  -8.078  -5.954  0.00  0.00     0.027 H 
ATOM     35  H   LIG d   1       8.843  -8.841  -5.371  0.00  0.00     0.027 H 
ATOM     36  H   LIG d   1       8.202  -9.614  -0.728  0.00  0.00     0.027 H 
ATOM     37  H   LIG d   1       7.016  -8.385  -1.230  0.00  0.00     0.027 H 
ATOM     38  H   LIG d   1       6.929 -11.375  -1.915  0.00  0.00     0.027 H 
ATOM     39  H   LIG d   1       5.866 -10.506  -0.811  0.00  0.00     0.027 H 
ATOM     40  H   LIG d   1       5.564  -9.397  -4.919  0.00  0.00     0.027 H 
ATOM     41  H   LIG d   1       6.755 -10.648  -4.552  0.00  0.00     0.027 H 
ENDROOT
BRANCH   1  42
ATOM     42  O   LIG d   1      13.613  -5.026  -3.817  0.00  0.00    -0.461 OA
BRANCH  42  43
ATOM     43  C   LIG d   1      14.751  -4.931  -3.111  0.00  0.00     0.304 C 
ATOM     44  O   LIG d   1      15.265  -5.925  -2.657  0.00  0.00    -0.251 OA
BRANCH  43  45
ATOM     45  C   LIG d   1      15.388  -3.583  -2.886  0.00  0.00     0.033 C 
ATOM     46  H   LIG d   1      14.791  -2.813  -3.375  0.00  0.00     0.034 H 
ATOM     47  H   LIG d   1      15.439  -3.380  -1.817  0.00  0.00     0.034 H 
ATOM     48  H   LIG d   1      16.394  -3.583  -3.305  0.00  0.00     0.034 H 
ENDBRANCH  43  45
ENDBRANCH  42  43
ENDBRANCH   1  42
BRANCH   7  49
ATOM     49  C   LIG d   1      11.726  -6.531  -4.874  0.00  0.00    -0.056 C 
ATOM     50  H   LIG d   1      11.066  -7.347  -5.170  0.00  0.00     0.024 H 
ATOM     51  H   LIG d   1      12.762  -6.822  -5.046  0.00  0.00     0.024 H 
ATOM     52  H   LIG d   1      11.495  -5.645  -5.465  0.00  0.00     0.024 H 
ENDBRANCH   7  49
BRANCH  18  53
ATOM     53  C   LIG d   1       8.931 -10.412  -3.233  0.00  0.00    -0.059 C 
ATOM     54  H   LIG d   1       9.106 -11.025  -2.349  0.00  0.00     0.024 H 
ATOM     55  H   LIG d   1       8.265 -10.940  -3.916  0.00  0.00     0.024 H 
ATOM     56  H   LIG d   1       9.880 -10.214  -3.732  0.00  0.00     0.024 H 
ENDBRANCH  18  53
BRANCH  21  57
ATOM     57  C   LIG d   1       4.571 -11.247  -3.126  0.00  0.00    -0.010 C 
ATOM     58  H   LIG d   1       4.980 -11.875  -3.917  0.00  0.00     0.033 H 
ATOM     59  H   LIG d   1       4.470 -11.831  -2.212  0.00  0.00     0.033 H 
BRANCH  57  60
ATOM     60  C   LIG d   1       3.217 -10.730  -3.543  0.00  0.00     0.042 C 
ATOM     61  O   LIG d   1       2.791  -9.703  -3.073  0.00  0.00    -0.550 OA
ATOM     62  O   LIG d   1       2.485 -11.413  -4.438  0.00  0.00    -0.550 OA
ENDBRANCH  57  60
ENDBRANCH  21  57
TORSDOF 7
ENDMDL
MODEL 6
REMARK VINA RESULT:      -5.5      6.977     11.843
REMARK  7 active torsions:
REMARK  status: ('A' for Active; 'I' for Inactive)
REMARK    1  A    between atoms: C_1  and  C_2 
REMARK    2  A    between atoms: C_2  and  O_4 
REMARK    3  A    between atoms: O_4  and  C_5 
REMARK    4  A    between atoms: C_11  and  C_32 
REMARK    5  A    between atoms: C_22  and  C_31 
REMARK    6  A    between atoms: C_25  and  C_28 
REMARK    7  A    between atoms: C_28  and  C_29 
ROOT
ATOM      1  C   LIG d   1       8.790   2.531  -6.740  0.00  0.00     0.109 C 
ATOM      2  H   LIG d   1       7.859   3.020  -7.000  0.00  0.00     0.074 H 
ATOM      3  C   LIG d   1       8.531   1.283  -5.854  0.00  0.00    -0.015 C 
ATOM      4  C   LIG d   1       8.939   1.678  -4.406  0.00  0.00    -0.046 C 
ATOM      5  C   LIG d   1       8.978   3.208  -4.474  0.00  0.00    -0.029 C 
ATOM      6  H   LIG d   1       7.918   3.559  -4.536  0.00  0.00     0.031 H 
ATOM      7  C   LIG d   1       9.639   3.451  -5.844  0.00  0.00     0.008 C 
ATOM      8  C   LIG d   1       9.578   4.924  -6.169  0.00  0.00    -0.044 C 
ATOM      9  C   LIG d   1      10.352   5.688  -5.074  0.00  0.00    -0.049 C 
ATOM     10  C   LIG d   1       9.760   5.426  -3.704  0.00  0.00    -0.032 C 
ATOM     11  H   LIG d   1       8.708   5.792  -3.774  0.00  0.00     0.031 H 
ATOM     12  C   LIG d   1       9.638   3.952  -3.346  0.00  0.00    -0.034 C 
ATOM     13  H   LIG d   1       8.900   3.917  -2.494  0.00  0.00     0.031 H 
ATOM     14  C   LIG d   1      10.887   3.285  -2.815  0.00  0.00    -0.049 C 
ATOM     15  C   LIG d   1      11.852   4.307  -2.198  0.00  0.00    -0.049 C 
ATOM     16  C   LIG d   1      10.986   5.363  -1.527  0.00  0.00    -0.035 C 
ATOM     17  H   LIG d   1      10.159   4.838  -1.018  0.00  0.00     0.031 H 
ATOM     18  C   LIG d   1      10.371   6.266  -2.598  0.00  0.00    -0.026 C 
ATOM     19  C   LIG d   1       9.318   7.140  -1.908  0.00  0.00    -0.047 C 
ATOM     20  C   LIG d   1       9.983   7.989  -0.823  0.00  0.00    -0.049 C 
ATOM     21  C   LIG d   1      10.717   7.125   0.196  0.00  0.00    -0.036 C 
ATOM     22  H   LIG d   1       9.990   6.527   0.750  0.00  0.00     0.030 H 
ATOM     23  C   LIG d   1      11.720   6.186  -0.483  0.00  0.00    -0.046 C 
ATOM     24  H   LIG d   1       9.142   0.450  -6.199  0.00  0.00     0.030 H 
ATOM     25  H   LIG d   1       7.477   1.015  -5.887  0.00  0.00     0.030 H 
ATOM     26  H   LIG d   1       9.903   1.258  -4.137  0.00  0.00     0.027 H 
ATOM     27  H   LIG d   1       8.170   1.350  -3.700  0.00  0.00     0.027 H 
ATOM     28  H   LIG d   1      10.042   5.113  -7.139  0.00  0.00     0.027 H 
ATOM     29  H   LIG d   1       8.542   5.263  -6.188  0.00  0.00     0.027 H 
ATOM     30  H   LIG d   1      11.399   5.413  -5.109  0.00  0.00     0.027 H 
ATOM     31  H   LIG d   1      10.250   6.753  -5.321  0.00  0.00     0.027 H 
ATOM     32  H   LIG d   1      10.587   2.598  -2.001  0.00  0.00     0.027 H 
ATOM     33  H   LIG d   1      11.407   2.687  -3.544  0.00  0.00     0.027 H 
ATOM     34  H   LIG d   1      12.475   3.812  -1.453  0.00  0.00     0.027 H 
ATOM     35  H   LIG d   1      12.475   4.740  -2.974  0.00  0.00     0.027 H 
ATOM     36  H   LIG d   1       8.843   7.785  -2.650  0.00  0.00     0.027 H 
ATOM     37  H   LIG d   1       8.560   6.493  -1.458  0.00  0.00     0.027 H 
ATOM     38  H   LIG d   1      10.666   8.716  -1.257  0.00  0.00     0.027 H 
ATOM     39  H   LIG d   1       9.199   8.551  -0.295  0.00  0.00     0.027 H 
ATOM     40  H   LIG d   1      12.132   5.506   0.277  0.00  0.00     0.027 H 
ATOM     41  H   LIG d   1      12.542   6.748  -0.910  0.00  0.00     0.027 H 
ENDROOT
BRANCH   1  42
ATOM     42  O   LIG d   1       9.543   2.168  -7.924  0.00  0.00    -0.461 OA
BRANCH  42  43
ATOM     43  C   LIG d   1       9.088   2.630  -9.101  0.00  0.00     0.304 C 
ATOM     44  O   LIG d   1       7.929   2.945  -9.218  0.00  0.00    -0.251 OA
BRANCH  43  45
ATOM     45  C   LIG d   1      10.027   2.754 -10.274  0.00  0.00     0.033 C 
ATOM     46  H   LIG d   1       9.460   3.023 -11.165  0.00  0.00     0.034 H 
ATOM     47  H   LIG d   1      10.766   3.527 -10.066  0.00  0.00     0.034 H 
ATOM     48  H   LIG d   1      10.531   1.803 -10.438  0.00  0.00     0.034 H 
ENDBRANCH  43  45
ENDBRANCH  42  43
ENDBRANCH   1  42
BRANCH   7  49
ATOM     49  C   LIG d   1      11.080   2.956  -5.934  0.00  0.00    -0.056 C 
ATOM     50  H   LIG d   1      11.537   3.333  -6.849  0.00  0.00     0.024 H 
ATOM     51  H   LIG d   1      11.090   1.866  -5.946  0.00  0.00     0.024 H 
ATOM     52  H   LIG d   1      11.642   3.315  -5.072  0.00  0.00     0.024 H 
ENDBRANCH   7  49
BRANCH  18  53
ATOM     53  C   LIG d   1      11.450   7.180  -3.179  0.00  0.00    -0.059 C 
ATOM     54  H   LIG d   1      11.421   7.128  -4.268  0.00  0.00     0.024 H 
ATOM     55  H   LIG d   1      11.269   8.205  -2.859  0.00  0.00     0.024 H 
ATOM     56  H   LIG d   1      12.430   6.856  -2.826  0.00  0.00     0.024 H 
ENDBRANCH  18  53
BRANCH  21  57
ATOM     57  C   LIG d   1      11.466   8.030   1.179  0.00  0.00    -0.010 C 
ATOM     58  H   LIG d   1      12.506   8.124   0.865  0.00  0.00     0.033 H 
ATOM     59  H   LIG d   1      11.000   9.015   1.194  0.00  0.00     0.033 H 
BRANCH  57  60
ATOM     60  C   LIG d   1      11.410   7.427   2.559  0.00  0.00     0.042 C 
ATOM     61  O   LIG d   1      11.730   8.085   3.520  0.00  0.00    -0.550 OA
ATOM     62  O   LIG d   1      11.005   6.157   2.721  0.00  0.00    -0.550 OA
ENDBRANCH  57  60
ENDBRANCH  21  57
TORSDOF 7
ENDMDL
MODEL 7
REMARK VINA RESULT:      -5.4      8.284     10.275
REMARK  7 active torsions:
REMARK  status: ('A' for Active; 'I' for Inactive)
REMARK    1  A    between atoms: C_1  and  C_2 
REMARK    2  A    between atoms: C_2  and  O_4 
REMARK    3  A    between atoms: O_4  and  C_5 
REMARK    4  A    between atoms: C_11  and  C_32 
REMARK    5  A    between atoms: C_22  and  C_31 
REMARK    6  A    between atoms: C_25  and  C_28 
REMARK    7  A    between atoms: C_28  and  C_29 
ROOT
ATOM      1  C   LIG d   1      12.501  -9.379   2.314  0.00  0.00     0.109 C 
ATOM      2  H   LIG d   1      11.897  -9.181   3.190  0.00  0.00     0.074 H 
ATOM      3  C   LIG d   1      12.882  -8.059   1.592  0.00  0.00    -0.015 C 
ATOM      4  C   LIG d   1      11.992  -7.979   0.319  0.00  0.00    -0.046 C 
ATOM      5  C   LIG d   1      10.886  -8.995   0.620  0.00  0.00    -0.029 C 
ATOM      6  H   LIG d   1      10.232  -8.543   1.406  0.00  0.00     0.031 H 
ATOM      7  C   LIG d   1      11.676 -10.148   1.266  0.00  0.00     0.008 C 
ATOM      8  C   LIG d   1      10.707 -11.169   1.813  0.00  0.00    -0.044 C 
ATOM      9  C   LIG d   1       9.867 -11.708   0.636  0.00  0.00    -0.049 C 
ATOM     10  C   LIG d   1       9.118 -10.589  -0.058  0.00  0.00    -0.032 C 
ATOM     11  H   LIG d   1       8.460 -10.154   0.733  0.00  0.00     0.031 H 
ATOM     12  C   LIG d   1       9.998  -9.434  -0.512  0.00  0.00    -0.034 C 
ATOM     13  H   LIG d   1       9.289  -8.574  -0.685  0.00  0.00     0.031 H 
ATOM     14  C   LIG d   1      10.722  -9.619  -1.827  0.00  0.00    -0.049 C 
ATOM     15  C   LIG d   1      10.010 -10.644  -2.722  0.00  0.00    -0.049 C 
ATOM     16  C   LIG d   1       8.519 -10.461  -2.481  0.00  0.00    -0.035 C 
ATOM     17  H   LIG d   1       8.324  -9.376  -2.428  0.00  0.00     0.031 H 
ATOM     18  C   LIG d   1       8.149 -11.065  -1.125  0.00  0.00    -0.026 C 
ATOM     19  C   LIG d   1       6.712 -10.636  -0.812  0.00  0.00    -0.047 C 
ATOM     20  C   LIG d   1       5.769 -11.161  -1.896  0.00  0.00    -0.049 C 
ATOM     21  C   LIG d   1       6.184 -10.681  -3.283  0.00  0.00    -0.036 C 
ATOM     22  H   LIG d   1       6.059  -9.598  -3.340  0.00  0.00     0.030 H 
ATOM     23  C   LIG d   1       7.645 -11.032  -3.583  0.00  0.00    -0.046 C 
ATOM     24  H   LIG d   1      13.934  -8.080   1.311  0.00  0.00     0.030 H 
ATOM     25  H   LIG d   1      12.684  -7.209   2.242  0.00  0.00     0.030 H 
ATOM     26  H   LIG d   1      12.552  -8.240  -0.573  0.00  0.00     0.027 H 
ATOM     27  H   LIG d   1      11.568  -6.976   0.223  0.00  0.00     0.027 H 
ATOM     28  H   LIG d   1      11.252 -11.993   2.276  0.00  0.00     0.027 H 
ATOM     29  H   LIG d   1      10.049 -10.706   2.550  0.00  0.00     0.027 H 
ATOM     30  H   LIG d   1      10.508 -12.241  -0.056  0.00  0.00     0.027 H 
ATOM     31  H   LIG d   1       9.149 -12.413   1.077  0.00  0.00     0.027 H 
ATOM     32  H   LIG d   1      10.699  -8.654  -2.368  0.00  0.00     0.027 H 
ATOM     33  H   LIG d   1      11.759  -9.886  -1.722  0.00  0.00     0.027 H 
ATOM     34  H   LIG d   1      10.244 -10.437  -3.766  0.00  0.00     0.027 H 
ATOM     35  H   LIG d   1      10.333 -11.646  -2.462  0.00  0.00     0.027 H 
ATOM     36  H   LIG d   1       6.421 -11.033   0.162  0.00  0.00     0.027 H 
ATOM     37  H   LIG d   1       6.666  -9.543  -0.780  0.00  0.00     0.027 H 
ATOM     38  H   LIG d   1       5.715 -12.247  -1.877  0.00  0.00     0.027 H 
ATOM     39  H   LIG d   1       4.758 -10.780  -1.690  0.00  0.00     0.027 H 
ATOM     40  H   LIG d   1       7.927 -10.563  -4.537  0.00  0.00     0.027 H 
ATOM     41  H   LIG d   1       7.767 -12.103  -3.688  0.00  0.00     0.027 H 
ENDROOT
BRANCH   1  42
ATOM     42  O   LIG d   1      13.691 -10.135   2.654  0.00  0.00    -0.461 OA
BRANCH  42  43
ATOM     43  C   LIG d   1      14.094 -10.093   3.934  0.00  0.00     0.304 C 
ATOM     44  O   LIG d   1      13.293  -9.884   4.813  0.00  0.00    -0.251 OA
BRANCH  43  45
ATOM     45  C   LIG d   1      15.547 -10.308   4.273  0.00  0.00     0.033 C 
ATOM     46  H   LIG d   1      15.869  -9.552   4.990  0.00  0.00     0.034 H 
ATOM     47  H   LIG d   1      15.676 -11.299   4.707  0.00  0.00     0.034 H 
ATOM     48  H   LIG d   1      16.147 -10.227   3.367  0.00  0.00     0.034 H 
ENDBRANCH  43  45
ENDBRANCH  42  43
ENDBRANCH   1  42
BRANCH   7  49
ATOM     49  C   LIG d   1      12.669 -10.824   0.324  0.00  0.00    -0.056 C 
ATOM     50  H   LIG d   1      13.684 -10.534   0.597  0.00  0.00     0.024 H 
ATOM     51  H   LIG d   1      12.466 -10.515  -0.701  0.00  0.00     0.024 H 
ATOM     52  H   LIG d   1      12.567 -11.906   0.404  0.00  0.00     0.024 H 
ENDBRANCH   7  49
BRANCH  18  53
ATOM     53  C   LIG d   1       8.188 -12.590  -1.215  0.00  0.00    -0.059 C 
ATOM     54  H   LIG d   1       7.524 -13.015  -0.462  0.00  0.00     0.024 H 
ATOM     55  H   LIG d   1       7.862 -12.904  -2.206  0.00  0.00     0.024 H 
ATOM     56  H   LIG d   1       9.207 -12.938  -1.040  0.00  0.00     0.024 H 
ENDBRANCH  18  53
BRANCH  21  57
ATOM     57  C   LIG d   1       5.285 -11.340  -4.334  0.00  0.00    -0.010 C 
ATOM     58  H   LIG d   1       5.763 -11.275  -5.312  0.00  0.00     0.033 H 
ATOM     59  H   LIG d   1       5.129 -12.386  -4.074  0.00  0.00     0.033 H 
BRANCH  57  60
ATOM     60  C   LIG d   1       3.957 -10.629  -4.375  0.00  0.00     0.042 C 
ATOM     61  O   LIG d   1       3.918  -9.423  -4.447  0.00  0.00    -0.550 OA
ATOM     62  O   LIG d   1       2.816 -11.335  -4.331  0.00  0.00    -0.550 OA
ENDBRANCH  57  60
ENDBRANCH  21  57
TORSDOF 7
ENDMDL
MODEL 8
REMARK VINA RESULT:      -5.3      5.991      7.365
REMARK  7 active torsions:
REMARK  status: ('A' for Active; 'I' for Inactive)
REMARK    1  A    between atoms: C_1  and  C_2 
REMARK    2  A    between atoms: C_2  and  O_4 
REMARK    3  A    between atoms: O_4  and  C_5 
REMARK    4  A    between atoms: C_11  and  C_32 
REMARK    5  A    between atoms: C_22  and  C_31 
REMARK    6  A    between atoms: C_25  and  C_28 
REMARK    7  A    between atoms: C_28  and  C_29 
ROOT
ATOM      1  C   LIG d   1       3.942  -0.446  -4.832  0.00  0.00     0.109 C 
ATOM      2  H   LIG d   1       3.451  -1.284  -4.352  0.00  0.00     0.074 H 
ATOM      3  C   LIG d   1       3.025   0.805  -4.838  0.00  0.00    -0.015 C 
ATOM      4  C   LIG d   1       2.493   0.956  -6.293  0.00  0.00    -0.046 C 
ATOM      5  C   LIG d   1       2.772  -0.425  -6.895  0.00  0.00    -0.029 C 
ATOM      6  H   LIG d   1       2.039  -1.134  -6.438  0.00  0.00     0.031 H 
ATOM      7  C   LIG d   1       4.165  -0.748  -6.325  0.00  0.00     0.008 C 
ATOM      8  C   LIG d   1       4.519  -2.178  -6.661  0.00  0.00    -0.044 C 
ATOM      9  C   LIG d   1       4.540  -2.316  -8.198  0.00  0.00    -0.049 C 
ATOM     10  C   LIG d   1       3.196  -1.951  -8.797  0.00  0.00    -0.032 C 
ATOM     11  H   LIG d   1       2.477  -2.674  -8.343  0.00  0.00     0.031 H 
ATOM     12  C   LIG d   1       2.682  -0.578  -8.389  0.00  0.00    -0.034 C 
ATOM     13  H   LIG d   1       1.578  -0.598  -8.620  0.00  0.00     0.031 H 
ATOM     14  C   LIG d   1       3.227   0.601  -9.164  0.00  0.00    -0.049 C 
ATOM     15  C   LIG d   1       3.727   0.178 -10.553  0.00  0.00    -0.049 C 
ATOM     16  C   LIG d   1       2.784  -0.915 -11.033  0.00  0.00    -0.035 C 
ATOM     17  H   LIG d   1       1.758  -0.611 -10.760  0.00  0.00     0.031 H 
ATOM     18  C   LIG d   1       3.095  -2.214 -10.288  0.00  0.00    -0.026 C 
ATOM     19  C   LIG d   1       1.971  -3.205 -10.609  0.00  0.00    -0.047 C 
ATOM     20  C   LIG d   1       1.926  -3.462 -12.116  0.00  0.00    -0.049 C 
ATOM     21  C   LIG d   1       1.743  -2.168 -12.902  0.00  0.00    -0.036 C 
ATOM     22  H   LIG d   1       0.757  -1.752 -12.684  0.00  0.00     0.030 H 
ATOM     23  C   LIG d   1       2.813  -1.134 -12.536  0.00  0.00    -0.046 C 
ATOM     24  H   LIG d   1       3.598   1.688  -4.558  0.00  0.00     0.030 H 
ATOM     25  H   LIG d   1       2.194   0.662  -4.149  0.00  0.00     0.030 H 
ATOM     26  H   LIG d   1       3.015   1.745  -6.825  0.00  0.00     0.027 H 
ATOM     27  H   LIG d   1       1.417   1.152  -6.278  0.00  0.00     0.027 H 
ATOM     28  H   LIG d   1       5.505  -2.423  -6.262  0.00  0.00     0.027 H 
ATOM     29  H   LIG d   1       3.776  -2.857  -6.243  0.00  0.00     0.027 H 
ATOM     30  H   LIG d   1       5.333  -1.704  -8.608  0.00  0.00     0.027 H 
ATOM     31  H   LIG d   1       4.758  -3.373  -8.401  0.00  0.00     0.027 H 
ATOM     32  H   LIG d   1       2.398   1.314  -9.327  0.00  0.00     0.027 H 
ATOM     33  H   LIG d   1       4.000   1.143  -8.648  0.00  0.00     0.027 H 
ATOM     34  H   LIG d   1       3.679   1.031 -11.230  0.00  0.00     0.027 H 
ATOM     35  H   LIG d   1       4.747  -0.182 -10.482  0.00  0.00     0.027 H 
ATOM     36  H   LIG d   1       2.151  -4.140 -10.075  0.00  0.00     0.027 H 
ATOM     37  H   LIG d   1       1.019  -2.782 -10.278  0.00  0.00     0.027 H 
ATOM     38  H   LIG d   1       2.820  -3.981 -12.454  0.00  0.00     0.027 H 
ATOM     39  H   LIG d   1       1.068  -4.116 -12.330  0.00  0.00     0.027 H 
ATOM     40  H   LIG d   1       2.568  -0.186 -13.036  0.00  0.00     0.027 H 
ATOM     41  H   LIG d   1       3.788  -1.453 -12.883  0.00  0.00     0.027 H 
ENDROOT
BRANCH   1  42
ATOM     42  O   LIG d   1       5.210  -0.145  -4.197  0.00  0.00    -0.461 OA
BRANCH  42  43
ATOM     43  C   LIG d   1       5.172   0.237  -2.910  0.00  0.00     0.304 C 
ATOM     44  O   LIG d   1       5.708   1.263  -2.568  0.00  0.00    -0.251 OA
BRANCH  43  45
ATOM     45  C   LIG d   1       4.458  -0.616  -1.893  0.00  0.00     0.033 C 
ATOM     46  H   LIG d   1       5.160  -0.919  -1.115  0.00  0.00     0.034 H 
ATOM     47  H   LIG d   1       3.645  -0.045  -1.446  0.00  0.00     0.034 H 
ATOM     48  H   LIG d   1       4.054  -1.503  -2.381  0.00  0.00     0.034 H 
ENDBRANCH  43  45
ENDBRANCH  42  43
ENDBRANCH   1  42
BRANCH   7  49
ATOM     49  C   LIG d   1       5.267   0.189  -6.810  0.00  0.00    -0.056 C 
ATOM     50  H   LIG d   1       5.237   0.254  -7.898  0.00  0.00     0.024 H 
ATOM     51  H   LIG d   1       6.238  -0.197  -6.497  0.00  0.00     0.024 H 
ATOM     52  H   LIG d   1       5.116   1.180  -6.383  0.00  0.00     0.024 H 
ENDBRANCH   7  49
BRANCH  18  53
ATOM     53  C   LIG d   1       4.412  -2.796 -10.800  0.00  0.00    -0.059 C 
ATOM     54  H   LIG d   1       5.245  -2.330 -10.273  0.00  0.00     0.024 H 
ATOM     55  H   LIG d   1       4.427  -3.871 -10.625  0.00  0.00     0.024 H 
ATOM     56  H   LIG d   1       4.504  -2.600 -11.870  0.00  0.00     0.024 H 
ENDBRANCH  18  53
BRANCH  21  57
ATOM     57  C   LIG d   1       1.834  -2.471 -14.401  0.00  0.00    -0.010 C 
ATOM     58  H   LIG d   1       2.544  -1.788 -14.867  0.00  0.00     0.033 H 
ATOM     59  H   LIG d   1       2.168  -3.498 -14.545  0.00  0.00     0.033 H 
BRANCH  57  60
ATOM     60  C   LIG d   1       0.476  -2.292 -15.032  0.00  0.00     0.042 C 
ATOM     61  O   LIG d   1       0.387  -1.994 -16.199  0.00  0.00    -0.550 OA
ATOM     62  O   LIG d   1      -0.634  -2.464 -14.296  0.00  0.00    -0.550 OA
ENDBRANCH  57  60
ENDBRANCH  21  57
TORSDOF 7
ENDMDL
MODEL 9
REMARK VINA RESULT:      -5.3     10.347     14.018
REMARK  7 active torsions:
REMARK  status: ('A' for Active; 'I' for Inactive)
REMARK    1  A    between atoms: C_1  and  C_2 
REMARK    2  A    between atoms: C_2  and  O_4 
REMARK    3  A    between atoms: O_4  and  C_5 
REMARK    4  A    between atoms: C_11  and  C_32 
REMARK    5  A    between atoms: C_22  and  C_31 
REMARK    6  A    between atoms: C_25  and  C_28 
REMARK    7  A    between atoms: C_28  and  C_29 
ROOT
ATOM      1  C   LIG d   1      10.568   6.754  -7.896  0.00  0.00     0.109 C 
ATOM      2  H   LIG d   1      10.971   5.749  -7.921  0.00  0.00     0.074 H 
ATOM      3  C   LIG d   1      11.650   7.797  -8.278  0.00  0.00    -0.015 C 
ATOM      4  C   LIG d   1      12.078   8.495  -6.955  0.00  0.00    -0.046 C 
ATOM      5  C   LIG d   1      11.556   7.531  -5.885  0.00  0.00    -0.029 C 
ATOM      6  H   LIG d   1      12.215   6.629  -5.910  0.00  0.00     0.031 H 
ATOM      7  C   LIG d   1      10.182   7.133  -6.454  0.00  0.00     0.008 C 
ATOM      8  C   LIG d   1       9.602   6.019  -5.615  0.00  0.00    -0.044 C 
ATOM      9  C   LIG d   1       9.436   6.545  -4.173  0.00  0.00    -0.049 C 
ATOM     10  C   LIG d   1      10.764   6.999  -3.602  0.00  0.00    -0.032 C 
ATOM     11  H   LIG d   1      11.408   6.087  -3.620  0.00  0.00     0.031 H 
ATOM     12  C   LIG d   1      11.502   8.015  -4.462  0.00  0.00    -0.034 C 
ATOM     13  H   LIG d   1      12.568   7.989  -4.097  0.00  0.00     0.031 H 
ATOM     14  C   LIG d   1      11.069   9.457  -4.316  0.00  0.00    -0.049 C 
ATOM     15  C   LIG d   1      10.402   9.709  -2.956  0.00  0.00    -0.049 C 
ATOM     16  C   LIG d   1      11.137   8.837  -1.950  0.00  0.00    -0.035 C 
ATOM     17  H   LIG d   1      12.214   8.898  -2.184  0.00  0.00     0.031 H 
ATOM     18  C   LIG d   1      10.705   7.381  -2.134  0.00  0.00    -0.026 C 
ATOM     19  C   LIG d   1      11.646   6.516  -1.289  0.00  0.00    -0.047 C 
ATOM     20  C   LIG d   1      11.531   6.915   0.183  0.00  0.00    -0.049 C 
ATOM     21  C   LIG d   1      11.832   8.396   0.389  0.00  0.00    -0.036 C 
ATOM     22  H   LIG d   1      12.882   8.585   0.154  0.00  0.00     0.030 H 
ATOM     23  C   LIG d   1      10.955   9.276  -0.508  0.00  0.00    -0.046 C 
ATOM     24  H   LIG d   1      11.234   8.529  -8.968  0.00  0.00     0.030 H 
ATOM     25  H   LIG d   1      12.506   7.297  -8.731  0.00  0.00     0.030 H 
ATOM     26  H   LIG d   1      11.633   9.481  -6.867  0.00  0.00     0.027 H 
ATOM     27  H   LIG d   1      13.168   8.563  -6.905  0.00  0.00     0.027 H 
ATOM     28  H   LIG d   1       8.627   5.724  -6.007  0.00  0.00     0.027 H 
ATOM     29  H   LIG d   1      10.272   5.159  -5.615  0.00  0.00     0.027 H 
ATOM     30  H   LIG d   1       8.707   7.346  -4.159  0.00  0.00     0.027 H 
ATOM     31  H   LIG d   1       9.053   5.699  -3.587  0.00  0.00     0.027 H 
ATOM     32  H   LIG d   1      11.976  10.090  -4.349  0.00  0.00     0.027 H 
ATOM     33  H   LIG d   1      10.426   9.802  -5.107  0.00  0.00     0.027 H 
ATOM     34  H   LIG d   1      10.516  10.760  -2.687  0.00  0.00     0.027 H 
ATOM     35  H   LIG d   1       9.350   9.453  -3.010  0.00  0.00     0.027 H 
ATOM     36  H   LIG d   1      11.378   5.465  -1.414  0.00  0.00     0.027 H 
ATOM     37  H   LIG d   1      12.673   6.666  -1.634  0.00  0.00     0.027 H 
ATOM     38  H   LIG d   1      10.548   6.675   0.580  0.00  0.00     0.027 H 
ATOM     39  H   LIG d   1      12.266   6.333   0.758  0.00  0.00     0.027 H 
ATOM     40  H   LIG d   1      11.291  10.318  -0.411  0.00  0.00     0.027 H 
ATOM     41  H   LIG d   1       9.918   9.228  -0.194  0.00  0.00     0.027 H 
ENDROOT
BRANCH   1  42
ATOM     42  O   LIG d   1       9.412   6.879  -8.762  0.00  0.00    -0.461 OA
BRANCH  42  43
ATOM     43  C   LIG d   1       8.956   5.753  -9.336  0.00  0.00     0.304 C 
ATOM     44  O   LIG d   1       8.034   5.803 -10.114  0.00  0.00    -0.251 OA
BRANCH  43  45
ATOM     45  C   LIG d   1       9.598   4.429  -9.010  0.00  0.00     0.033 C 
ATOM     46  H   LIG d   1      10.471   4.594  -8.378  0.00  0.00     0.034 H 
ATOM     47  H   LIG d   1       8.881   3.799  -8.483  0.00  0.00     0.034 H 
ATOM     48  H   LIG d   1       9.905   3.937  -9.932  0.00  0.00     0.034 H 
ENDBRANCH  43  45
ENDBRANCH  42  43
ENDBRANCH   1  42
BRANCH   7  49
ATOM     49  C   LIG d   1       9.190   8.288  -6.546  0.00  0.00    -0.056 C 
ATOM     50  H   LIG d   1       9.544   9.121  -5.939  0.00  0.00     0.024 H 
ATOM     51  H   LIG d   1       8.216   7.961  -6.180  0.00  0.00     0.024 H 
ATOM     52  H   LIG d   1       9.099   8.608  -7.584  0.00  0.00     0.024 H 
ENDBRANCH   7  49
BRANCH  18  53
ATOM     53  C   LIG d   1       9.281   7.198  -1.610  0.00  0.00    -0.059 C 
ATOM     54  H   LIG d   1       9.035   8.018  -0.935  0.00  0.00     0.024 H 
ATOM     55  H   LIG d   1       8.583   7.194  -2.447  0.00  0.00     0.024 H 
ATOM     56  H   LIG d   1       9.210   6.252  -1.073  0.00  0.00     0.024 H 
ENDBRANCH  18  53
BRANCH  21  57
ATOM     57  C   LIG d   1      11.577   8.764   1.853  0.00  0.00    -0.010 C 
ATOM     58  H   LIG d   1      10.533   9.051   1.979  0.00  0.00     0.033 H 
ATOM     59  H   LIG d   1      11.798   7.906   2.488  0.00  0.00     0.033 H 
BRANCH  57  60
ATOM     60  C   LIG d   1      12.466   9.918   2.243  0.00  0.00     0.042 C 
ATOM     61  O   LIG d   1      11.983  10.998   2.484  0.00  0.00    -0.550 OA
ATOM     62  O   LIG d   1      13.795   9.744   2.322  0.00  0.00    -0.550 OA
ENDBRANCH  57  60
ENDBRANCH  21  57
TORSDOF 7
ENDMDL
MODEL 10
REMARK VINA RESULT:      -5.3      5.311      7.487
REMARK  7 active torsions:
REMARK  status: ('A' for Active; 'I' for Inactive)
REMARK    1  A    between atoms: C_1  and  C_2 
REMARK    2  A    between atoms: C_2  and  O_4 
REMARK    3  A    between atoms: O_4  and  C_5 
REMARK    4  A    between atoms: C_11  and  C_32 
REMARK    5  A    between atoms: C_22  and  C_31 
REMARK    6  A    between atoms: C_25  and  C_28 
REMARK    7  A    between atoms: C_28  and  C_29 
ROOT
ATOM      1  C   LIG d   1       5.771  -0.394  -4.183  0.00  0.00     0.109 C 
ATOM      2  H   LIG d   1       5.701   0.679  -4.060  0.00  0.00     0.074 H 
ATOM      3  C   LIG d   1       7.246  -0.838  -4.364  0.00  0.00    -0.015 C 
ATOM      4  C   LIG d   1       7.424  -1.177  -5.872  0.00  0.00    -0.046 C 
ATOM      5  C   LIG d   1       6.208  -0.501  -6.512  0.00  0.00    -0.029 C 
ATOM      6  H   LIG d   1       6.394   0.600  -6.484  0.00  0.00     0.031 H 
ATOM      7  C   LIG d   1       5.093  -0.820  -5.499  0.00  0.00     0.008 C 
ATOM      8  C   LIG d   1       3.847  -0.053  -5.874  0.00  0.00    -0.044 C 
ATOM      9  C   LIG d   1       3.415  -0.507  -7.285  0.00  0.00    -0.049 C 
ATOM     10  C   LIG d   1       4.513  -0.258  -8.299  0.00  0.00    -0.032 C 
ATOM     11  H   LIG d   1       4.680   0.846  -8.271  0.00  0.00     0.031 H 
ATOM     12  C   LIG d   1       5.857  -0.867  -7.928  0.00  0.00    -0.034 C 
ATOM     13  H   LIG d   1       6.611  -0.328  -8.571  0.00  0.00     0.031 H 
ATOM     14  C   LIG d   1       6.040  -2.333  -8.250  0.00  0.00    -0.049 C 
ATOM     15  C   LIG d   1       5.104  -2.782  -9.380  0.00  0.00    -0.049 C 
ATOM     16  C   LIG d   1       5.001  -1.609 -10.343  0.00  0.00    -0.035 C 
ATOM     17  H   LIG d   1       6.011  -1.178 -10.449  0.00  0.00     0.031 H 
ATOM     18  C   LIG d   1       4.100  -0.533  -9.733  0.00  0.00    -0.026 C 
ATOM     19  C   LIG d   1       4.230   0.719 -10.606  0.00  0.00    -0.047 C 
ATOM     20  C   LIG d   1       3.777   0.402 -12.033  0.00  0.00    -0.049 C 
ATOM     21  C   LIG d   1       4.570  -0.755 -12.631  0.00  0.00    -0.036 C 
ATOM     22  H   LIG d   1       5.611  -0.450 -12.755  0.00  0.00     0.030 H 
ATOM     23  C   LIG d   1       4.518  -1.994 -11.731  0.00  0.00    -0.046 C 
ATOM     24  H   LIG d   1       7.446  -1.720  -3.758  0.00  0.00     0.030 H 
ATOM     25  H   LIG d   1       7.916  -0.028  -4.080  0.00  0.00     0.030 H 
ATOM     26  H   LIG d   1       7.428  -2.250  -6.039  0.00  0.00     0.027 H 
ATOM     27  H   LIG d   1       8.348  -0.729  -6.248  0.00  0.00     0.027 H 
ATOM     28  H   LIG d   1       3.047  -0.267  -5.164  0.00  0.00     0.027 H 
ATOM     29  H   LIG d   1       4.052   1.018  -5.882  0.00  0.00     0.027 H 
ATOM     30  H   LIG d   1       3.131  -1.552  -7.261  0.00  0.00     0.027 H 
ATOM     31  H   LIG d   1       2.535   0.100  -7.539  0.00  0.00     0.027 H 
ATOM     32  H   LIG d   1       7.074  -2.475  -8.617  0.00  0.00     0.027 H 
ATOM     33  H   LIG d   1       5.925  -2.985  -7.401  0.00  0.00     0.027 H 
ATOM     34  H   LIG d   1       5.539  -3.642  -9.891  0.00  0.00     0.027 H 
ATOM     35  H   LIG d   1       4.135  -3.046  -8.972  0.00  0.00     0.027 H 
ATOM     36  H   LIG d   1       3.615   1.517 -10.186  0.00  0.00     0.027 H 
ATOM     37  H   LIG d   1       5.275   1.041 -10.613  0.00  0.00     0.027 H 
ATOM     38  H   LIG d   1       2.713   0.183 -12.067  0.00  0.00     0.027 H 
ATOM     39  H   LIG d   1       3.948   1.293 -12.656  0.00  0.00     0.027 H 
ATOM     40  H   LIG d   1       5.197  -2.754 -12.143  0.00  0.00     0.027 H 
ATOM     41  H   LIG d   1       3.519  -2.413 -11.714  0.00  0.00     0.027 H 
ENDROOT
BRANCH   1  42
ATOM     42  O   LIG d   1       5.161  -1.093  -3.069  0.00  0.00    -0.461 OA
BRANCH  42  43
ATOM     43  C   LIG d   1       4.185  -0.450  -2.407  0.00  0.00     0.304 C 
ATOM     44  O   LIG d   1       3.060  -0.889  -2.415  0.00  0.00    -0.251 OA
BRANCH  43  45
ATOM     45  C   LIG d   1       4.495   0.818  -1.654  0.00  0.00     0.033 C 
ATOM     46  H   LIG d   1       4.648   0.587  -0.600  0.00  0.00     0.034 H 
ATOM     47  H   LIG d   1       5.398   1.270  -2.062  0.00  0.00     0.034 H 
ATOM     48  H   LIG d   1       3.662   1.514  -1.756  0.00  0.00     0.034 H 
ENDBRANCH  43  45
ENDBRANCH  42  43
ENDBRANCH   1  42
BRANCH   7  49
ATOM     49  C   LIG d   1       4.773  -2.307  -5.375  0.00  0.00    -0.056 C 
ATOM     50  H   LIG d   1       4.040  -2.585  -6.133  0.00  0.00     0.024 H 
ATOM     51  H   LIG d   1       4.365  -2.510  -4.385  0.00  0.00     0.024 H 
ATOM     52  H   LIG d   1       5.683  -2.888  -5.520  0.00  0.00     0.024 H 
ENDBRANCH   7  49
BRANCH  18  53
ATOM     53  C   LIG d   1       2.646  -0.999  -9.772  0.00  0.00    -0.059 C 
ATOM     54  H   LIG d   1       2.478  -1.732  -8.982  0.00  0.00     0.024 H 
ATOM     55  H   LIG d   1       1.986  -0.145  -9.623  0.00  0.00     0.024 H 
ATOM     56  H   LIG d   1       2.436  -1.456 -10.740  0.00  0.00     0.024 H 
ENDBRANCH  18  53
BRANCH  21  57
ATOM     57  C   LIG d   1       3.989  -1.109 -14.003  0.00  0.00    -0.010 C 
ATOM     58  H   LIG d   1       4.054  -2.186 -14.158  0.00  0.00     0.033 H 
ATOM     59  H   LIG d   1       2.946  -0.797 -14.047  0.00  0.00     0.033 H 
BRANCH  57  60
ATOM     60  C   LIG d   1       4.771  -0.397 -15.078  0.00  0.00     0.042 C 
ATOM     61  O   LIG d   1       5.967  -0.552 -15.157  0.00  0.00    -0.550 OA
ATOM     62  O   LIG d   1       4.139   0.408 -15.946  0.00  0.00    -0.550 OA
ENDBRANCH  57  60
ENDBRANCH  21  57
TORSDOF 7
ENDMDL
