MODEL 1
REMARK VINA RESULT:      -5.7      0.000      0.000
REMARK  5 active torsions:
REMARK  status: ('A' for Active; 'I' for Inactive)
REMARK    1  A    between atoms: C_5  and  C_7 
REMARK    2  A    between atoms: C_7  and  N_8 
REMARK    3  A    between atoms: C_7  and  N_9 
REMARK    4  A    between atoms: C_12  and  N_13 
REMARK    5  A    between atoms: N_13  and  N_14 
REMARK       I    between atoms: N_14  and  C_15 
REMARK       I    between atoms: C_15  and  N_16 
ROOT
ATOM      1  C   LIG d   1       4.298   0.861  -2.300  0.00  0.00    -0.060 A 
ATOM      2  C   LIG d   1       5.545   1.389  -2.560  0.00  0.00    -0.052 A 
ATOM      3  C   LIG d   1       6.417   0.745  -3.451  0.00  0.00     0.003 A 
ATOM      4  C   LIG d   1       6.013  -0.432  -4.072  0.00  0.00    -0.023 A 
ATOM      5  C   LIG d   1       4.750  -0.960  -3.804  0.00  0.00     0.065 A 
ATOM      6  C   LIG d   1       3.895  -0.308  -2.915  0.00  0.00    -0.047 A 
ATOM      7  C   LIG d   1       7.113  -0.932  -4.978  0.00  0.00    -0.021 A 
ATOM      8  C   LIG d   1       8.266   0.074  -4.855  0.00  0.00    -0.003 A 
ATOM      9  C   LIG d   1       7.780   1.117  -3.878  0.00  0.00     0.084 A 
ATOM     10  H   LIG d   1       3.636   1.360  -1.610  0.00  0.00     0.062 H 
ATOM     11  H   LIG d   1       5.852   2.303  -2.075  0.00  0.00     0.062 H 
ATOM     12  H   LIG d   1       2.917  -0.718  -2.709  0.00  0.00     0.063 H 
ATOM     13  H   LIG d   1       7.442  -1.921  -4.656  0.00  0.00     0.032 H 
ATOM     14  H   LIG d   1       6.760  -0.973  -6.009  0.00  0.00     0.032 H 
ATOM     15  H   LIG d   1       9.158  -0.419  -4.469  0.00  0.00     0.033 H 
ATOM     16  H   LIG d   1       8.474   0.530  -5.823  0.00  0.00     0.033 H 
ENDROOT
BRANCH   9  17
ATOM     17  N   LIG d   1       8.445   2.159  -3.484  0.00  0.00    -0.116 NA
BRANCH  17  18
ATOM     18  N   LIG d   1       9.838   2.090  -3.347  0.00  0.00    -0.157 N 
ATOM     19  C   LIG d   1      10.530   3.158  -2.838  0.00  0.00     0.364 C 
ATOM     20  N   LIG d   1      11.853   3.093  -2.708  0.00  0.00    -0.290 N 
ATOM     21  N   LIG d   1       9.878   4.262  -2.474  0.00  0.00    -0.290 N 
ATOM     22  H   LIG d   1      12.328   2.289  -2.974  0.00  0.00     0.255 HD
ATOM     23  H   LIG d   1      12.344   3.849  -2.348  0.00  0.00     0.255 HD
ATOM     24  H   LIG d   1       8.914   4.309  -2.569  0.00  0.00     0.255 HD
ATOM     25  H   LIG d   1      10.368   5.018  -2.114  0.00  0.00     0.255 HD
ATOM     26  H   LIG d   1      10.312   1.287  -3.612  0.00  0.00     0.292 HD
ENDBRANCH  17  18
ENDBRANCH   9  17
BRANCH   5  27
ATOM     27  C   LIG d   1       4.317  -2.213  -4.464  0.00  0.00     0.267 C 
BRANCH  27  28
ATOM     28  N   LIG d   1       4.005  -2.210  -5.758  0.00  0.00    -0.288 N 
ATOM     29  H   LIG d   1       4.089  -3.023  -6.280  0.00  0.00     0.301 HD
ATOM     30  H   LIG d   1       3.696  -1.394  -6.180  0.00  0.00     0.301 HD
ENDBRANCH  27  28
BRANCH  27  31
ATOM     31  N   LIG d   1       4.242  -3.342  -3.763  0.00  0.00    -0.250 N 
ATOM     32  H   LIG d   1       4.209  -3.310  -2.795  0.00  0.00     0.288 HD
ATOM     33  H   LIG d   1       4.219  -4.197  -4.222  0.00  0.00     0.288 HD
ENDBRANCH  27  31
ENDBRANCH   5  27
TORSDOF 5
ENDMDL
MODEL 2
REMARK VINA RESULT:      -5.6      3.822      4.594
REMARK  5 active torsions:
REMARK  status: ('A' for Active; 'I' for Inactive)
REMARK    1  A    between atoms: C_5  and  C_7 
REMARK    2  A    between atoms: C_7  and  N_8 
REMARK    3  A    between atoms: C_7  and  N_9 
REMARK    4  A    between atoms: C_12  and  N_13 
REMARK    5  A    between atoms: N_13  and  N_14 
REMARK       I    between atoms: N_14  and  C_15 
REMARK       I    between atoms: C_15  and  N_16 
ROOT
ATOM      1  C   LIG d   1       3.465  -1.589  -2.347  0.00  0.00    -0.060 A 
ATOM      2  C   LIG d   1       4.776  -1.968  -2.542  0.00  0.00    -0.052 A 
ATOM      3  C   LIG d   1       5.466  -1.570  -3.697  0.00  0.00     0.003 A 
ATOM      4  C   LIG d   1       4.816  -0.790  -4.647  0.00  0.00    -0.023 A 
ATOM      5  C   LIG d   1       3.489  -0.410  -4.443  0.00  0.00     0.065 A 
ATOM      6  C   LIG d   1       2.817  -0.814  -3.289  0.00  0.00    -0.047 A 
ATOM      7  C   LIG d   1       5.755  -0.492  -5.791  0.00  0.00    -0.021 A 
ATOM      8  C   LIG d   1       7.084  -1.181  -5.449  0.00  0.00    -0.003 A 
ATOM      9  C   LIG d   1       6.853  -1.851  -4.116  0.00  0.00     0.084 A 
ATOM     10  H   LIG d   1       2.941  -1.903  -1.457  0.00  0.00     0.062 H 
ATOM     11  H   LIG d   1       5.276  -2.574  -1.800  0.00  0.00     0.062 H 
ATOM     12  H   LIG d   1       1.789  -0.520  -3.131  0.00  0.00     0.063 H 
ATOM     13  H   LIG d   1       5.352  -0.895  -6.721  0.00  0.00     0.032 H 
ATOM     14  H   LIG d   1       5.905   0.584  -5.883  0.00  0.00     0.032 H 
ATOM     15  H   LIG d   1       7.330  -1.924  -6.208  0.00  0.00     0.033 H 
ATOM     16  H   LIG d   1       7.882  -0.443  -5.369  0.00  0.00     0.033 H 
ENDROOT
BRANCH   9  17
ATOM     17  N   LIG d   1       7.723  -2.550  -3.455  0.00  0.00    -0.116 NA
BRANCH  17  18
ATOM     18  N   LIG d   1       8.267  -3.710  -4.023  0.00  0.00    -0.157 N 
ATOM     19  C   LIG d   1       9.305  -4.355  -3.403  0.00  0.00     0.364 C 
ATOM     20  N   LIG d   1       9.823  -5.456  -3.944  0.00  0.00    -0.290 N 
ATOM     21  N   LIG d   1       9.797  -3.880  -2.260  0.00  0.00    -0.290 N 
ATOM     22  H   LIG d   1       9.465  -5.803  -4.777  0.00  0.00     0.255 HD
ATOM     23  H   LIG d   1      10.558  -5.913  -3.505  0.00  0.00     0.255 HD
ATOM     24  H   LIG d   1       9.419  -3.077  -1.866  0.00  0.00     0.255 HD
ATOM     25  H   LIG d   1      10.531  -4.335  -1.820  0.00  0.00     0.255 HD
ATOM     26  H   LIG d   1       7.909  -4.056  -4.856  0.00  0.00     0.292 HD
ENDBRANCH  17  18
ENDBRANCH   9  17
BRANCH   5  27
ATOM     27  C   LIG d   1       2.794   0.421  -5.452  0.00  0.00     0.267 C 
BRANCH  27  28
ATOM     28  N   LIG d   1       2.525   1.698  -5.190  0.00  0.00    -0.288 N 
ATOM     29  H   LIG d   1       3.249   2.333  -5.076  0.00  0.00     0.301 HD
ATOM     30  H   LIG d   1       1.605   1.994  -5.113  0.00  0.00     0.301 HD
ENDBRANCH  27  28
BRANCH  27  31
ATOM     31  N   LIG d   1       2.440  -0.109  -6.621  0.00  0.00    -0.250 N 
ATOM     32  H   LIG d   1       3.030  -0.734  -7.068  0.00  0.00     0.288 HD
ATOM     33  H   LIG d   1       1.590   0.131  -7.024  0.00  0.00     0.288 HD
ENDBRANCH  27  31
ENDBRANCH   5  27
TORSDOF 5
ENDMDL
MODEL 3
REMARK VINA RESULT:      -5.2      4.870      7.323
REMARK  5 active torsions:
REMARK  status: ('A' for Active; 'I' for Inactive)
REMARK    1  A    between atoms: C_5  and  C_7 
REMARK    2  A    between atoms: C_7  and  N_8 
REMARK    3  A    between atoms: C_7  and  N_9 
REMARK    4  A    between atoms: C_12  and  N_13 
REMARK    5  A    between atoms: N_13  and  N_14 
REMARK       I    between atoms: N_14  and  C_15 
REMARK       I    between atoms: C_15  and  N_16 
ROOT
ATOM      1  C   LIG d   1       3.490  -3.464  -8.903  0.00  0.00    -0.060 A 
ATOM      2  C   LIG d   1       3.813  -2.513  -7.958  0.00  0.00    -0.052 A 
ATOM      3  C   LIG d   1       3.448  -1.171  -8.148  0.00  0.00     0.003 A 
ATOM      4  C   LIG d   1       2.756  -0.807  -9.298  0.00  0.00    -0.023 A 
ATOM      5  C   LIG d   1       2.433  -1.774 -10.249  0.00  0.00     0.065 A 
ATOM      6  C   LIG d   1       2.803  -3.104 -10.046  0.00  0.00    -0.047 A 
ATOM      7  C   LIG d   1       2.478   0.677  -9.275  0.00  0.00    -0.021 A 
ATOM      8  C   LIG d   1       3.079   1.210  -7.967  0.00  0.00    -0.003 A 
ATOM      9  C   LIG d   1       3.682   0.005  -7.287  0.00  0.00     0.084 A 
ATOM     10  H   LIG d   1       3.779  -4.492  -8.751  0.00  0.00     0.062 H 
ATOM     11  H   LIG d   1       4.350  -2.802  -7.067  0.00  0.00     0.062 H 
ATOM     12  H   LIG d   1       2.552  -3.853 -10.783  0.00  0.00     0.063 H 
ATOM     13  H   LIG d   1       2.953   1.160 -10.130  0.00  0.00     0.032 H 
ATOM     14  H   LIG d   1       1.403   0.857  -9.294  0.00  0.00     0.032 H 
ATOM     15  H   LIG d   1       3.851   1.949  -8.180  0.00  0.00     0.033 H 
ATOM     16  H   LIG d   1       2.299   1.645  -7.343  0.00  0.00     0.033 H 
ENDROOT
BRANCH   9  17
ATOM     17  N   LIG d   1       4.298   0.004  -6.146  0.00  0.00    -0.116 NA
BRANCH  17  18
ATOM     18  N   LIG d   1       3.587   0.259  -4.966  0.00  0.00    -0.157 N 
ATOM     19  C   LIG d   1       3.314  -0.763  -4.095  0.00  0.00     0.364 C 
ATOM     20  N   LIG d   1       2.637  -0.520  -2.974  0.00  0.00    -0.290 N 
ATOM     21  N   LIG d   1       3.726  -2.000  -4.369  0.00  0.00    -0.290 N 
ATOM     22  H   LIG d   1       2.337   0.381  -2.773  0.00  0.00     0.255 HD
ATOM     23  H   LIG d   1       2.444  -1.243  -2.356  0.00  0.00     0.255 HD
ATOM     24  H   LIG d   1       4.219  -2.176  -5.186  0.00  0.00     0.255 HD
ATOM     25  H   LIG d   1       3.534  -2.723  -3.753  0.00  0.00     0.255 HD
ATOM     26  H   LIG d   1       3.286   1.160  -4.766  0.00  0.00     0.292 HD
ENDBRANCH  17  18
ENDBRANCH   9  17
BRANCH   5  27
ATOM     27  C   LIG d   1       1.697  -1.390 -11.475  0.00  0.00     0.267 C 
BRANCH  27  28
ATOM     28  N   LIG d   1       0.386  -1.165 -11.420  0.00  0.00    -0.288 N 
ATOM     29  H   LIG d   1      -0.012  -0.474 -11.973  0.00  0.00     0.301 HD
ATOM     30  H   LIG d   1      -0.172  -1.690 -10.826  0.00  0.00     0.301 HD
ENDBRANCH  27  28
BRANCH  27  31
ATOM     31  N   LIG d   1       2.346  -1.268 -12.630  0.00  0.00    -0.250 N 
ATOM     32  H   LIG d   1       3.209  -1.693 -12.749  0.00  0.00     0.288 HD
ATOM     33  H   LIG d   1       1.955  -0.753 -13.354  0.00  0.00     0.288 HD
ENDBRANCH  27  31
ENDBRANCH   5  27
TORSDOF 5
ENDMDL
MODEL 4
REMARK VINA RESULT:      -5.2      4.891      6.781
REMARK  5 active torsions:
REMARK  status: ('A' for Active; 'I' for Inactive)
REMARK    1  A    between atoms: C_5  and  C_7 
REMARK    2  A    between atoms: C_7  and  N_8 
REMARK    3  A    between atoms: C_7  and  N_9 
REMARK    4  A    between atoms: C_12  and  N_13 
REMARK    5  A    between atoms: N_13  and  N_14 
REMARK       I    between atoms: N_14  and  C_15 
REMARK       I    between atoms: C_15  and  N_16 
ROOT
ATOM      1  C   LIG d   1       3.267   2.293  -9.826  0.00  0.00    -0.060 A 
ATOM      2  C   LIG d   1       3.019   1.910  -8.525  0.00  0.00    -0.052 A 
ATOM      3  C   LIG d   1       3.540   0.706  -8.028  0.00  0.00     0.003 A 
ATOM      4  C   LIG d   1       4.311  -0.100  -8.859  0.00  0.00    -0.023 A 
ATOM      5  C   LIG d   1       4.557   0.294 -10.174  0.00  0.00     0.065 A 
ATOM      6  C   LIG d   1       4.032   1.495 -10.653  0.00  0.00    -0.047 A 
ATOM      7  C   LIG d   1       4.754  -1.331  -8.105  0.00  0.00    -0.021 A 
ATOM      8  C   LIG d   1       4.169  -1.206  -6.691  0.00  0.00    -0.003 A 
ATOM      9  C   LIG d   1       3.409   0.098  -6.689  0.00  0.00     0.084 A 
ATOM     10  H   LIG d   1       2.859   3.219 -10.201  0.00  0.00     0.062 H 
ATOM     11  H   LIG d   1       2.420   2.541  -7.884  0.00  0.00     0.062 H 
ATOM     12  H   LIG d   1       4.223   1.799 -11.672  0.00  0.00     0.063 H 
ATOM     13  H   LIG d   1       4.369  -2.227  -8.592  0.00  0.00     0.032 H 
ATOM     14  H   LIG d   1       5.843  -1.369  -8.058  0.00  0.00     0.032 H 
ATOM     15  H   LIG d   1       3.494  -2.037  -6.487  0.00  0.00     0.033 H 
ATOM     16  H   LIG d   1       4.970  -1.178  -5.952  0.00  0.00     0.033 H 
ENDROOT
BRANCH   9  17
ATOM     17  N   LIG d   1       2.755   0.597  -5.686  0.00  0.00    -0.116 NA
BRANCH  17  18
ATOM     18  N   LIG d   1       3.430   0.916  -4.500  0.00  0.00    -0.157 N 
ATOM     19  C   LIG d   1       3.225   0.165  -3.372  0.00  0.00     0.364 C 
ATOM     20  N   LIG d   1       3.866   0.468  -2.244  0.00  0.00    -0.290 N 
ATOM     21  N   LIG d   1       2.385  -0.869  -3.403  0.00  0.00    -0.290 N 
ATOM     22  H   LIG d   1       4.478   1.221  -2.221  0.00  0.00     0.255 HD
ATOM     23  H   LIG d   1       3.721  -0.063  -1.446  0.00  0.00     0.255 HD
ATOM     24  H   LIG d   1       1.918  -1.090  -4.225  0.00  0.00     0.255 HD
ATOM     25  H   LIG d   1       2.239  -1.400  -2.605  0.00  0.00     0.255 HD
ATOM     26  H   LIG d   1       4.041   1.668  -4.477  0.00  0.00     0.292 HD
ENDBRANCH  17  18
ENDBRANCH   9  17
BRANCH   5  27
ATOM     27  C   LIG d   1       5.377  -0.562 -11.061  0.00  0.00     0.267 C 
BRANCH  27  28
ATOM     28  N   LIG d   1       4.790  -1.470 -11.837  0.00  0.00    -0.288 N 
ATOM     29  H   LIG d   1       4.446  -2.290 -11.449  0.00  0.00     0.301 HD
ATOM     30  H   LIG d   1       4.708  -1.314 -12.790  0.00  0.00     0.301 HD
ENDBRANCH  27  28
BRANCH  27  31
ATOM     31  N   LIG d   1       6.701  -0.421 -11.084  0.00  0.00    -0.250 N 
ATOM     32  H   LIG d   1       7.215  -0.536 -10.270  0.00  0.00     0.288 HD
ATOM     33  H   LIG d   1       7.150  -0.203 -11.916  0.00  0.00     0.288 HD
ENDBRANCH  27  31
ENDBRANCH   5  27
TORSDOF 5
ENDMDL
MODEL 5
REMARK VINA RESULT:      -5.2      5.141      8.057
REMARK  5 active torsions:
REMARK  status: ('A' for Active; 'I' for Inactive)
REMARK    1  A    between atoms: C_5  and  C_7 
REMARK    2  A    between atoms: C_7  and  N_8 
REMARK    3  A    between atoms: C_7  and  N_9 
REMARK    4  A    between atoms: C_12  and  N_13 
REMARK    5  A    between atoms: N_13  and  N_14 
REMARK       I    between atoms: N_14  and  C_15 
REMARK       I    between atoms: C_15  and  N_16 
ROOT
ATOM      1  C   LIG d   1       9.574   6.452  -5.211  0.00  0.00    -0.060 A 
ATOM      2  C   LIG d   1       9.755   7.462  -4.290  0.00  0.00    -0.052 A 
ATOM      3  C   LIG d   1      10.003   7.157  -2.943  0.00  0.00     0.003 A 
ATOM      4  C   LIG d   1      10.066   5.827  -2.543  0.00  0.00    -0.023 A 
ATOM      5  C   LIG d   1       9.882   4.811  -3.481  0.00  0.00     0.065 A 
ATOM      6  C   LIG d   1       9.635   5.130  -4.817  0.00  0.00    -0.047 A 
ATOM      7  C   LIG d   1      10.342   5.754  -1.060  0.00  0.00    -0.021 A 
ATOM      8  C   LIG d   1      10.446   7.204  -0.568  0.00  0.00    -0.003 A 
ATOM      9  C   LIG d   1      10.225   8.057  -1.794  0.00  0.00     0.084 A 
ATOM     10  H   LIG d   1       9.379   6.695  -6.245  0.00  0.00     0.062 H 
ATOM     11  H   LIG d   1       9.705   8.493  -4.608  0.00  0.00     0.062 H 
ATOM     12  H   LIG d   1       9.493   4.342  -5.543  0.00  0.00     0.063 H 
ATOM     13  H   LIG d   1       9.522   5.244  -0.552  0.00  0.00     0.032 H 
ATOM     14  H   LIG d   1      11.280   5.228  -0.879  0.00  0.00     0.032 H 
ATOM     15  H   LIG d   1       9.677   7.407   0.177  0.00  0.00     0.033 H 
ATOM     16  H   LIG d   1      11.436   7.391  -0.151  0.00  0.00     0.033 H 
ENDROOT
BRANCH   9  17
ATOM     17  N   LIG d   1      10.230   9.353  -1.831  0.00  0.00    -0.116 NA
BRANCH  17  18
ATOM     18  N   LIG d   1       9.022  10.055  -1.936  0.00  0.00    -0.157 N 
ATOM     19  C   LIG d   1       8.890  11.059  -2.860  0.00  0.00     0.364 C 
ATOM     20  N   LIG d   1       7.742  11.726  -2.959  0.00  0.00    -0.290 N 
ATOM     21  N   LIG d   1       9.911  11.366  -3.659  0.00  0.00    -0.290 N 
ATOM     22  H   LIG d   1       6.998  11.502  -2.377  0.00  0.00     0.255 HD
ATOM     23  H   LIG d   1       7.648  12.437  -3.613  0.00  0.00     0.255 HD
ATOM     24  H   LIG d   1      10.747  10.880  -3.587  0.00  0.00     0.255 HD
ATOM     25  H   LIG d   1       9.818  12.076  -4.313  0.00  0.00     0.255 HD
ATOM     26  H   LIG d   1       8.279   9.832  -1.354  0.00  0.00     0.292 HD
ENDBRANCH  17  18
ENDBRANCH   9  17
BRANCH   5  27
ATOM     27  C   LIG d   1       9.948   3.394  -3.059  0.00  0.00     0.267 C 
BRANCH  27  28
ATOM     28  N   LIG d   1       9.010   2.537  -3.455  0.00  0.00    -0.288 N 
ATOM     29  H   LIG d   1       9.032   1.616  -3.150  0.00  0.00     0.301 HD
ATOM     30  H   LIG d   1       8.304   2.832  -4.052  0.00  0.00     0.301 HD
ENDBRANCH  27  28
BRANCH  27  31
ATOM     31  N   LIG d   1      10.946   2.977  -2.283  0.00  0.00    -0.250 N 
ATOM     32  H   LIG d   1      11.811   2.775  -2.673  0.00  0.00     0.288 HD
ATOM     33  H   LIG d   1      10.808   2.875  -1.328  0.00  0.00     0.288 HD
ENDBRANCH  27  31
ENDBRANCH   5  27
TORSDOF 5
ENDMDL
MODEL 6
REMARK VINA RESULT:      -5.2      9.062     10.080
REMARK  5 active torsions:
REMARK  status: ('A' for Active; 'I' for Inactive)
REMARK    1  A    between atoms: C_5  and  C_7 
REMARK    2  A    between atoms: C_7  and  N_8 
REMARK    3  A    between atoms: C_7  and  N_9 
REMARK    4  A    between atoms: C_12  and  N_13 
REMARK    5  A    between atoms: N_13  and  N_14 
REMARK       I    between atoms: N_14  and  C_15 
REMARK       I    between atoms: C_15  and  N_16 
ROOT
ATOM      1  C   LIG d   1       6.192  -8.303  -5.385  0.00  0.00    -0.060 A 
ATOM      2  C   LIG d   1       7.210  -8.368  -4.458  0.00  0.00    -0.052 A 
ATOM      3  C   LIG d   1       7.079  -9.170  -3.314  0.00  0.00     0.003 A 
ATOM      4  C   LIG d   1       5.912  -9.901  -3.122  0.00  0.00    -0.023 A 
ATOM      5  C   LIG d   1       4.886  -9.830  -4.065  0.00  0.00     0.065 A 
ATOM      6  C   LIG d   1       5.032  -9.028  -5.196  0.00  0.00    -0.047 A 
ATOM      7  C   LIG d   1       6.006 -10.680  -1.832  0.00  0.00    -0.021 A 
ATOM      8  C   LIG d   1       7.379 -10.352  -1.228  0.00  0.00    -0.003 A 
ATOM      9  C   LIG d   1       8.022  -9.393  -2.201  0.00  0.00     0.084 A 
ATOM     10  H   LIG d   1       6.300  -7.680  -6.260  0.00  0.00     0.062 H 
ATOM     11  H   LIG d   1       8.114  -7.798  -4.613  0.00  0.00     0.062 H 
ATOM     12  H   LIG d   1       4.236  -8.974  -5.926  0.00  0.00     0.063 H 
ATOM     13  H   LIG d   1       5.213 -10.371  -1.150  0.00  0.00     0.032 H 
ATOM     14  H   LIG d   1       5.931 -11.749  -2.033  0.00  0.00     0.032 H 
ATOM     15  H   LIG d   1       7.260  -9.879  -0.254  0.00  0.00     0.033 H 
ATOM     16  H   LIG d   1       7.978 -11.258  -1.139  0.00  0.00     0.033 H 
ENDROOT
BRANCH   9  17
ATOM     17  N   LIG d   1       9.198  -8.859  -2.078  0.00  0.00    -0.116 NA
BRANCH  17  18
ATOM     18  N   LIG d   1       9.751  -8.668  -0.805  0.00  0.00    -0.157 N 
ATOM     19  C   LIG d   1      10.689  -7.690  -0.605  0.00  0.00     0.364 C 
ATOM     20  N   LIG d   1      11.216  -7.509   0.604  0.00  0.00    -0.290 N 
ATOM     21  N   LIG d   1      11.076  -6.920  -1.622  0.00  0.00    -0.290 N 
ATOM     22  H   LIG d   1      10.935  -8.070   1.345  0.00  0.00     0.255 HD
ATOM     23  H   LIG d   1      11.880  -6.816   0.746  0.00  0.00     0.255 HD
ATOM     24  H   LIG d   1      10.692  -7.052  -2.503  0.00  0.00     0.255 HD
ATOM     25  H   LIG d   1      11.740  -6.227  -1.481  0.00  0.00     0.255 HD
ATOM     26  H   LIG d   1       9.470  -9.229  -0.065  0.00  0.00     0.292 HD
ENDBRANCH  17  18
ENDBRANCH   9  17
BRANCH   5  27
ATOM     27  C   LIG d   1       3.642 -10.607  -3.863  0.00  0.00     0.267 C 
BRANCH  27  28
ATOM     28  N   LIG d   1       2.782 -10.251  -2.912  0.00  0.00    -0.288 N 
ATOM     29  H   LIG d   1       2.891  -9.406  -2.449  0.00  0.00     0.301 HD
ATOM     30  H   LIG d   1       2.044 -10.837  -2.681  0.00  0.00     0.301 HD
ENDBRANCH  27  28
BRANCH  27  31
ATOM     31  N   LIG d   1       3.384 -11.661  -4.634  0.00  0.00    -0.250 N 
ATOM     32  H   LIG d   1       2.508 -12.077  -4.611  0.00  0.00     0.288 HD
ATOM     33  H   LIG d   1       4.073 -12.014  -5.220  0.00  0.00     0.288 HD
ENDBRANCH  27  31
ENDBRANCH   5  27
TORSDOF 5
ENDMDL
MODEL 7
REMARK VINA RESULT:      -5.1      4.281      5.788
REMARK  5 active torsions:
REMARK  status: ('A' for Active; 'I' for Inactive)
REMARK    1  A    between atoms: C_5  and  C_7 
REMARK    2  A    between atoms: C_7  and  N_8 
REMARK    3  A    between atoms: C_7  and  N_9 
REMARK    4  A    between atoms: C_12  and  N_13 
REMARK    5  A    between atoms: N_13  and  N_14 
REMARK       I    between atoms: N_14  and  C_15 
REMARK       I    between atoms: C_15  and  N_16 
ROOT
ATOM      1  C   LIG d   1       2.451   1.127  -9.022  0.00  0.00    -0.060 A 
ATOM      2  C   LIG d   1       3.250   0.981  -7.908  0.00  0.00    -0.052 A 
ATOM      3  C   LIG d   1       3.714  -0.288  -7.529  0.00  0.00     0.003 A 
ATOM      4  C   LIG d   1       3.361  -1.400  -8.287  0.00  0.00    -0.023 A 
ATOM      5  C   LIG d   1       2.552  -1.244  -9.413  0.00  0.00     0.065 A 
ATOM      6  C   LIG d   1       2.099   0.025  -9.776  0.00  0.00    -0.047 A 
ATOM      7  C   LIG d   1       3.975  -2.642  -7.686  0.00  0.00    -0.021 A 
ATOM      8  C   LIG d   1       4.762  -2.180  -6.451  0.00  0.00    -0.003 A 
ATOM      9  C   LIG d   1       4.568  -0.684  -6.392  0.00  0.00     0.084 A 
ATOM     10  H   LIG d   1       2.096   2.106  -9.303  0.00  0.00     0.062 H 
ATOM     11  H   LIG d   1       3.521   1.848  -7.324  0.00  0.00     0.062 H 
ATOM     12  H   LIG d   1       1.473   0.145 -10.648  0.00  0.00     0.063 H 
ATOM     13  H   LIG d   1       3.192  -3.341  -7.391  0.00  0.00     0.032 H 
ATOM     14  H   LIG d   1       4.647  -3.112  -8.404  0.00  0.00     0.032 H 
ATOM     15  H   LIG d   1       4.363  -2.649  -5.552  0.00  0.00     0.033 H 
ATOM     16  H   LIG d   1       5.819  -2.420  -6.566  0.00  0.00     0.033 H 
ENDROOT
BRANCH   9  17
ATOM     17  N   LIG d   1       5.065   0.113  -5.498  0.00  0.00    -0.116 NA
BRANCH  17  18
ATOM     18  N   LIG d   1       4.464   0.211  -4.236  0.00  0.00    -0.157 N 
ATOM     19  C   LIG d   1       5.125   0.834  -3.209  0.00  0.00     0.364 C 
ATOM     20  N   LIG d   1       4.554   0.926  -2.009  0.00  0.00    -0.290 N 
ATOM     21  N   LIG d   1       6.338   1.346  -3.410  0.00  0.00    -0.290 N 
ATOM     22  H   LIG d   1       3.670   0.553  -1.862  0.00  0.00     0.255 HD
ATOM     23  H   LIG d   1       5.022   1.367  -1.282  0.00  0.00     0.255 HD
ATOM     24  H   LIG d   1       6.754   1.278  -4.285  0.00  0.00     0.255 HD
ATOM     25  H   LIG d   1       6.806   1.786  -2.684  0.00  0.00     0.255 HD
ATOM     26  H   LIG d   1       3.581  -0.162  -4.088  0.00  0.00     0.292 HD
ENDBRANCH  17  18
ENDBRANCH   9  17
BRANCH   5  27
ATOM     27  C   LIG d   1       2.175  -2.424 -10.222  0.00  0.00     0.267 C 
BRANCH  27  28
ATOM     28  N   LIG d   1       0.967  -2.967 -10.084  0.00  0.00    -0.288 N 
ATOM     29  H   LIG d   1       0.271  -2.488  -9.607  0.00  0.00     0.301 HD
ATOM     30  H   LIG d   1       0.782  -3.841 -10.461  0.00  0.00     0.301 HD
ENDBRANCH  27  28
BRANCH  27  31
ATOM     31  N   LIG d   1       3.043  -2.943 -11.087  0.00  0.00    -0.250 N 
ATOM     32  H   LIG d   1       3.084  -2.603 -11.995  0.00  0.00     0.288 HD
ATOM     33  H   LIG d   1       3.635  -3.660 -10.810  0.00  0.00     0.288 HD
ENDBRANCH  27  31
ENDBRANCH   5  27
TORSDOF 5
ENDMDL
MODEL 8
REMARK VINA RESULT:      -5.1      5.321      8.679
REMARK  5 active torsions:
REMARK  status: ('A' for Active; 'I' for Inactive)
REMARK    1  A    between atoms: C_5  and  C_7 
REMARK    2  A    between atoms: C_7  and  N_8 
REMARK    3  A    between atoms: C_7  and  N_9 
REMARK    4  A    between atoms: C_12  and  N_13 
REMARK    5  A    between atoms: N_13  and  N_14 
REMARK       I    between atoms: N_14  and  C_15 
REMARK       I    between atoms: C_15  and  N_16 
ROOT
ATOM      1  C   LIG d   1      11.111   6.989   0.779  0.00  0.00    -0.060 A 
ATOM      2  C   LIG d   1      11.078   5.864  -0.017  0.00  0.00    -0.052 A 
ATOM      3  C   LIG d   1      10.548   5.929  -1.315  0.00  0.00     0.003 A 
ATOM      4  C   LIG d   1      10.054   7.139  -1.792  0.00  0.00    -0.023 A 
ATOM      5  C   LIG d   1      10.092   8.272  -0.980  0.00  0.00     0.065 A 
ATOM      6  C   LIG d   1      10.622   8.191   0.308  0.00  0.00    -0.047 A 
ATOM      7  C   LIG d   1       9.541   6.958  -3.201  0.00  0.00    -0.021 A 
ATOM      8  C   LIG d   1       9.770   5.483  -3.559  0.00  0.00    -0.003 A 
ATOM      9  C   LIG d   1      10.408   4.872  -2.335  0.00  0.00     0.084 A 
ATOM     10  H   LIG d   1      11.518   6.929   1.778  0.00  0.00     0.062 H 
ATOM     11  H   LIG d   1      11.463   4.928   0.359  0.00  0.00     0.062 H 
ATOM     12  H   LIG d   1      10.651   9.070   0.936  0.00  0.00     0.063 H 
ATOM     13  H   LIG d   1       8.477   7.194  -3.244  0.00  0.00     0.032 H 
ATOM     14  H   LIG d   1      10.095   7.600  -3.886  0.00  0.00     0.032 H 
ATOM     15  H   LIG d   1       8.819   4.995  -3.773  0.00  0.00     0.033 H 
ATOM     16  H   LIG d   1      10.439   5.402  -4.415  0.00  0.00     0.033 H 
ENDROOT
BRANCH   9  17
ATOM     17  N   LIG d   1      10.771   3.633  -2.204  0.00  0.00    -0.116 NA
BRANCH  17  18
ATOM     18  N   LIG d   1      10.289   2.664  -3.095  0.00  0.00    -0.157 N 
ATOM     19  C   LIG d   1      11.150   1.754  -3.649  0.00  0.00     0.364 C 
ATOM     20  N   LIG d   1      10.693   0.833  -4.495  0.00  0.00    -0.290 N 
ATOM     21  N   LIG d   1      12.446   1.789  -3.340  0.00  0.00    -0.290 N 
ATOM     22  H   LIG d   1       9.749   0.807  -4.721  0.00  0.00     0.255 HD
ATOM     23  H   LIG d   1      11.302   0.188  -4.888  0.00  0.00     0.255 HD
ATOM     24  H   LIG d   1      12.780   2.459  -2.723  0.00  0.00     0.255 HD
ATOM     25  H   LIG d   1      13.056   1.145  -3.732  0.00  0.00     0.255 HD
ATOM     26  H   LIG d   1       9.346   2.639  -3.320  0.00  0.00     0.292 HD
ENDBRANCH  17  18
ENDBRANCH   9  17
BRANCH   5  27
ATOM     27  C   LIG d   1       9.568   9.561  -1.485  0.00  0.00     0.267 C 
BRANCH  27  28
ATOM     28  N   LIG d   1       8.326   9.937  -1.188  0.00  0.00    -0.288 N 
ATOM     29  H   LIG d   1       7.598   9.298  -1.245  0.00  0.00     0.301 HD
ATOM     30  H   LIG d   1       8.148  10.850  -0.915  0.00  0.00     0.301 HD
ENDBRANCH  27  28
BRANCH  27  31
ATOM     31  N   LIG d   1      10.339  10.345  -2.235  0.00  0.00    -0.250 N 
ATOM     32  H   LIG d   1      10.523  11.255  -1.956  0.00  0.00     0.288 HD
ATOM     33  H   LIG d   1      10.718  10.005  -3.061  0.00  0.00     0.288 HD
ENDBRANCH  27  31
ENDBRANCH   5  27
TORSDOF 5
ENDMDL
MODEL 9
REMARK VINA RESULT:      -5.1      6.473      8.473
REMARK  5 active torsions:
REMARK  status: ('A' for Active; 'I' for Inactive)
REMARK    1  A    between atoms: C_5  and  C_7 
REMARK    2  A    between atoms: C_7  and  N_8 
REMARK    3  A    between atoms: C_7  and  N_9 
REMARK    4  A    between atoms: C_12  and  N_13 
REMARK    5  A    between atoms: N_13  and  N_14 
REMARK       I    between atoms: N_14  and  C_15 
REMARK       I    between atoms: C_15  and  N_16 
ROOT
ATOM      1  C   LIG d   1       9.705   4.812  -8.060  0.00  0.00    -0.060 A 
ATOM      2  C   LIG d   1       9.778   4.760  -6.684  0.00  0.00    -0.052 A 
ATOM      3  C   LIG d   1       9.766   5.942  -5.927  0.00  0.00     0.003 A 
ATOM      4  C   LIG d   1       9.681   7.169  -6.576  0.00  0.00    -0.023 A 
ATOM      5  C   LIG d   1       9.608   7.213  -7.969  0.00  0.00     0.065 A 
ATOM      6  C   LIG d   1       9.621   6.029  -8.707  0.00  0.00    -0.047 A 
ATOM      7  C   LIG d   1       9.686   8.284  -5.559  0.00  0.00    -0.021 A 
ATOM      8  C   LIG d   1       9.785   7.613  -4.182  0.00  0.00    -0.003 A 
ATOM      9  C   LIG d   1       9.834   6.131  -4.465  0.00  0.00     0.084 A 
ATOM     10  H   LIG d   1       9.719   3.898  -8.633  0.00  0.00     0.062 H 
ATOM     11  H   LIG d   1       9.843   3.804  -6.185  0.00  0.00     0.062 H 
ATOM     12  H   LIG d   1       9.564   6.064  -9.785  0.00  0.00     0.063 H 
ATOM     13  H   LIG d   1      10.546   8.935  -5.721  0.00  0.00     0.032 H 
ATOM     14  H   LIG d   1       8.762   8.860  -5.630  0.00  0.00     0.032 H 
ATOM     15  H   LIG d   1      10.694   7.930  -3.672  0.00  0.00     0.033 H 
ATOM     16  H   LIG d   1       8.909   7.855  -3.580  0.00  0.00     0.033 H 
ENDROOT
BRANCH   9  17
ATOM     17  N   LIG d   1       9.919   5.189  -3.577  0.00  0.00    -0.116 NA
BRANCH  17  18
ATOM     18  N   LIG d   1      10.427   5.472  -2.302  0.00  0.00    -0.157 N 
ATOM     19  C   LIG d   1      11.008   4.478  -1.560  0.00  0.00     0.364 C 
ATOM     20  N   LIG d   1      11.491   4.747  -0.348  0.00  0.00    -0.290 N 
ATOM     21  N   LIG d   1      11.091   3.242  -2.050  0.00  0.00    -0.290 N 
ATOM     22  H   LIG d   1      11.431   5.647   0.010  0.00  0.00     0.255 HD
ATOM     23  H   LIG d   1      11.903   4.043   0.178  0.00  0.00     0.255 HD
ATOM     24  H   LIG d   1      10.739   3.046  -2.933  0.00  0.00     0.255 HD
ATOM     25  H   LIG d   1      11.502   2.537  -1.525  0.00  0.00     0.255 HD
ATOM     26  H   LIG d   1      10.367   6.372  -1.945  0.00  0.00     0.292 HD
ENDBRANCH  17  18
ENDBRANCH   9  17
BRANCH   5  27
ATOM     27  C   LIG d   1       9.517   8.517  -8.663  0.00  0.00     0.267 C 
BRANCH  27  28
ATOM     28  N   LIG d   1      10.598   9.045  -9.233  0.00  0.00    -0.288 N 
ATOM     29  H   LIG d   1      11.367   8.486  -9.427  0.00  0.00     0.301 HD
ATOM     30  H   LIG d   1      10.619   9.989  -9.452  0.00  0.00     0.301 HD
ENDBRANCH  27  28
BRANCH  27  31
ATOM     31  N   LIG d   1       8.353   9.161  -8.719  0.00  0.00    -0.250 N 
ATOM     32  H   LIG d   1       8.326  10.090  -8.996  0.00  0.00     0.288 HD
ATOM     33  H   LIG d   1       7.533   8.701  -8.483  0.00  0.00     0.288 HD
ENDBRANCH  27  31
ENDBRANCH   5  27
TORSDOF 5
ENDMDL
