MODEL 1
REMARK VINA RESULT:      -4.7      0.000      0.000
REMARK  5 active torsions:
REMARK  status: ('A' for Active; 'I' for Inactive)
REMARK    1  A    between atoms: C_1  and  C_2 
REMARK    2  A    between atoms: C_4  and  C_10 
REMARK    3  A    between atoms: C_5  and  C_8 
REMARK    4  A    between atoms: C_8  and  O_9 
REMARK    5  A    between atoms: N_11  and  O_12 
ROOT
ATOM      1  C   LIG d   1       7.022   0.504  -3.867  0.00  0.00     0.172 A 
ATOM      2  C   LIG d   1       5.882   0.321  -3.101  0.00  0.00    -0.030 A 
ATOM      3  C   LIG d   1       5.188  -0.897  -3.198  0.00  0.00     0.005 A 
ATOM      4  C   LIG d   1       5.688  -1.873  -4.069  0.00  0.00     0.049 A 
ATOM      5  C   LIG d   1       6.832  -1.603  -4.791  0.00  0.00     0.176 A 
ATOM      6  N   LIG d   1       7.451  -0.443  -4.677  0.00  0.00    -0.215 N 
ATOM      7  O   LIG d   1       5.441   1.302  -2.272  0.00  0.00    -0.869 OA
ATOM      8  H   LIG d   1       7.225  -2.350  -5.465  0.00  0.00     0.138 H 
ATOM      9  H   LIG d   1       8.251  -0.285  -5.203  0.00  0.00     0.453 HD
ENDROOT
BRANCH   3  10
ATOM     10  C   LIG d   1       3.968  -1.141  -2.405  0.00  0.00     0.074 C 
ATOM     11  N   LIG d   1       2.805  -0.902  -2.917  0.00  0.00    -0.095 NA
ATOM     12  H   LIG d   1       4.047  -1.519  -1.396  0.00  0.00     0.087 H 
BRANCH  11  13
ATOM     13  O   LIG d   1       2.693  -0.540  -4.282  0.00  0.00    -0.409 OA
ATOM     14  H   LIG d   1       1.783  -0.427  -4.585  0.00  0.00     0.328 HD
ENDBRANCH  11  13
ENDBRANCH   3  10
BRANCH   4  15
ATOM     15  C   LIG d   1       4.988  -3.198  -4.215  0.00  0.00     0.075 C 
ATOM     16  H   LIG d   1       5.694  -3.945  -4.580  0.00  0.00     0.061 H 
ATOM     17  H   LIG d   1       4.597  -3.512  -3.247  0.00  0.00     0.061 H 
BRANCH  15  18
ATOM     18  O   LIG d   1       3.911  -3.069  -5.144  0.00  0.00    -0.390 OA
ATOM     19  H   LIG d   1       3.699  -3.885  -5.617  0.00  0.00     0.210 HD
ENDBRANCH  15  18
ENDBRANCH   4  15
BRANCH   1  20
ATOM     20  C   LIG d   1       7.779   1.804  -3.777  0.00  0.00     0.020 C 
ATOM     21  H   LIG d   1       7.982   2.177  -4.780  0.00  0.00     0.034 H 
ATOM     22  H   LIG d   1       7.181   2.535  -3.232  0.00  0.00     0.034 H 
ATOM     23  H   LIG d   1       8.721   1.642  -3.251  0.00  0.00     0.034 H 
ENDBRANCH   1  20
TORSDOF 5
ENDMDL
MODEL 2
REMARK VINA RESULT:      -4.5      1.853      2.675
REMARK  5 active torsions:
REMARK  status: ('A' for Active; 'I' for Inactive)
REMARK    1  A    between atoms: C_1  and  C_2 
REMARK    2  A    between atoms: C_4  and  C_10 
REMARK    3  A    between atoms: C_5  and  C_8 
REMARK    4  A    between atoms: C_8  and  O_9 
REMARK    5  A    between atoms: N_11  and  O_12 
ROOT
ATOM      1  C   LIG d   1       6.625   0.809  -3.522  0.00  0.00     0.172 A 
ATOM      2  C   LIG d   1       6.433  -0.557  -3.661  0.00  0.00    -0.030 A 
ATOM      3  C   LIG d   1       5.153  -1.089  -3.432  0.00  0.00     0.005 A 
ATOM      4  C   LIG d   1       4.127  -0.206  -3.072  0.00  0.00     0.049 A 
ATOM      5  C   LIG d   1       4.411   1.139  -2.959  0.00  0.00     0.176 A 
ATOM      6  N   LIG d   1       5.629   1.599  -3.177  0.00  0.00    -0.215 N 
ATOM      7  O   LIG d   1       7.464  -1.368  -4.012  0.00  0.00    -0.869 OA
ATOM      8  H   LIG d   1       3.625   1.827  -2.683  0.00  0.00     0.138 H 
ATOM      9  H   LIG d   1       5.794   2.551  -3.084  0.00  0.00     0.453 HD
ENDROOT
BRANCH   3  10
ATOM     10  C   LIG d   1       4.896  -2.535  -3.565  0.00  0.00     0.074 C 
ATOM     11  N   LIG d   1       4.357  -3.000  -4.645  0.00  0.00    -0.095 NA
ATOM     12  H   LIG d   1       5.157  -3.206  -2.760  0.00  0.00     0.087 H 
BRANCH  11  13
ATOM     13  O   LIG d   1       4.142  -2.145  -5.753  0.00  0.00    -0.409 OA
ATOM     14  H   LIG d   1       3.209  -1.975  -5.943  0.00  0.00     0.328 HD
ENDBRANCH  11  13
ENDBRANCH   3  10
BRANCH   4  15
ATOM     15  C   LIG d   1       2.734  -0.717  -2.814  0.00  0.00     0.075 C 
ATOM     16  H   LIG d   1       2.788  -1.714  -2.375  0.00  0.00     0.061 H 
ATOM     17  H   LIG d   1       2.221  -0.045  -2.126  0.00  0.00     0.061 H 
BRANCH  15  18
ATOM     18  O   LIG d   1       2.013  -0.780  -4.046  0.00  0.00    -0.390 OA
ATOM     19  H   LIG d   1       1.151  -0.342  -4.020  0.00  0.00     0.210 HD
ENDBRANCH  15  18
ENDBRANCH   4  15
BRANCH   1  20
ATOM     20  C   LIG d   1       7.991   1.397  -3.764  0.00  0.00     0.020 C 
ATOM     21  H   LIG d   1       8.752   0.715  -3.387  0.00  0.00     0.034 H 
ATOM     22  H   LIG d   1       8.137   1.549  -4.834  0.00  0.00     0.034 H 
ATOM     23  H   LIG d   1       8.072   2.354  -3.248  0.00  0.00     0.034 H 
ENDBRANCH   1  20
TORSDOF 5
ENDMDL
MODEL 3
REMARK VINA RESULT:      -4.5      2.374      4.302
REMARK  5 active torsions:
REMARK  status: ('A' for Active; 'I' for Inactive)
REMARK    1  A    between atoms: C_1  and  C_2 
REMARK    2  A    between atoms: C_4  and  C_10 
REMARK    3  A    between atoms: C_5  and  C_8 
REMARK    4  A    between atoms: C_8  and  O_9 
REMARK    5  A    between atoms: N_11  and  O_12 
ROOT
ATOM      1  C   LIG d   1       3.361  -0.151  -5.966  0.00  0.00     0.172 A 
ATOM      2  C   LIG d   1       4.687  -0.373  -5.631  0.00  0.00    -0.030 A 
ATOM      3  C   LIG d   1       5.049  -0.404  -4.274  0.00  0.00     0.005 A 
ATOM      4  C   LIG d   1       4.043  -0.206  -3.320  0.00  0.00     0.049 A 
ATOM      5  C   LIG d   1       2.749   0.008  -3.745  0.00  0.00     0.176 A 
ATOM      6  N   LIG d   1       2.451   0.035  -5.031  0.00  0.00    -0.215 N 
ATOM      7  O   LIG d   1       5.622  -0.558  -6.599  0.00  0.00    -0.869 OA
ATOM      8  H   LIG d   1       1.967   0.160  -3.015  0.00  0.00     0.138 H 
ATOM      9  H   LIG d   1       1.530   0.192  -5.295  0.00  0.00     0.453 HD
ENDROOT
BRANCH   3  10
ATOM     10  C   LIG d   1       6.447  -0.636  -3.865  0.00  0.00     0.074 C 
ATOM     11  N   LIG d   1       7.244   0.367  -3.685  0.00  0.00    -0.095 NA
ATOM     12  H   LIG d   1       6.806  -1.644  -3.719  0.00  0.00     0.087 H 
BRANCH  11  13
ATOM     13  O   LIG d   1       6.741   1.689  -3.741  0.00  0.00    -0.409 OA
ATOM     14  H   LIG d   1       7.008   2.178  -4.532  0.00  0.00     0.328 HD
ENDBRANCH  11  13
ENDBRANCH   3  10
BRANCH   4  15
ATOM     15  C   LIG d   1       4.370  -0.228  -1.849  0.00  0.00     0.075 C 
ATOM     16  H   LIG d   1       3.467  -0.448  -1.279  0.00  0.00     0.061 H 
ATOM     17  H   LIG d   1       5.119  -0.996  -1.654  0.00  0.00     0.061 H 
BRANCH  15  18
ATOM     18  O   LIG d   1       4.881   1.047  -1.455  0.00  0.00    -0.390 OA
ATOM     19  H   LIG d   1       5.568   1.003  -0.776  0.00  0.00     0.210 HD
ENDBRANCH  15  18
ENDBRANCH   4  15
BRANCH   1  20
ATOM     20  C   LIG d   1       2.954  -0.115  -7.416  0.00  0.00     0.020 C 
ATOM     21  H   LIG d   1       3.267  -1.037  -7.904  0.00  0.00     0.034 H 
ATOM     22  H   LIG d   1       1.870  -0.016  -7.487  0.00  0.00     0.034 H 
ATOM     23  H   LIG d   1       3.429   0.736  -7.906  0.00  0.00     0.034 H 
ENDBRANCH   1  20
TORSDOF 5
ENDMDL
MODEL 4
REMARK VINA RESULT:      -4.5      8.027     10.198
REMARK  5 active torsions:
REMARK  status: ('A' for Active; 'I' for Inactive)
REMARK    1  A    between atoms: C_1  and  C_2 
REMARK    2  A    between atoms: C_4  and  C_10 
REMARK    3  A    between atoms: C_5  and  C_8 
REMARK    4  A    between atoms: C_8  and  O_9 
REMARK    5  A    between atoms: N_11  and  O_12 
ROOT
ATOM      1  C   LIG d   1      10.586   5.134  -1.636  0.00  0.00     0.172 A 
ATOM      2  C   LIG d   1      10.181   6.446  -1.830  0.00  0.00    -0.030 A 
ATOM      3  C   LIG d   1      10.416   7.386  -0.813  0.00  0.00     0.005 A 
ATOM      4  C   LIG d   1      11.053   6.948   0.355  0.00  0.00     0.049 A 
ATOM      5  C   LIG d   1      11.421   5.623   0.461  0.00  0.00     0.176 A 
ATOM      6  N   LIG d   1      11.176   4.769  -0.516  0.00  0.00    -0.215 N 
ATOM      7  O   LIG d   1       9.568   6.816  -2.984  0.00  0.00    -0.869 OA
ATOM      8  H   LIG d   1      11.912   5.277   1.358  0.00  0.00     0.138 H 
ATOM      9  H   LIG d   1      11.445   3.843  -0.407  0.00  0.00     0.453 HD
ENDROOT
BRANCH   3  10
ATOM     10  C   LIG d   1      10.005   8.794  -0.971  0.00  0.00     0.074 C 
ATOM     11  N   LIG d   1       8.749   9.098  -1.036  0.00  0.00    -0.095 NA
ATOM     12  H   LIG d   1      10.752   9.571  -1.033  0.00  0.00     0.087 H 
BRANCH  11  13
ATOM     13  O   LIG d   1       7.768   8.101  -0.817  0.00  0.00    -0.409 OA
ATOM     14  H   LIG d   1       8.050   7.397  -0.217  0.00  0.00     0.328 HD
ENDBRANCH  11  13
ENDBRANCH   3  10
BRANCH   4  15
ATOM     15  C   LIG d   1      11.332   7.910   1.480  0.00  0.00     0.075 C 
ATOM     16  H   LIG d   1      12.295   8.393   1.315  0.00  0.00     0.061 H 
ATOM     17  H   LIG d   1      10.548   8.667   1.514  0.00  0.00     0.061 H 
BRANCH  15  18
ATOM     18  O   LIG d   1      11.363   7.199   2.719  0.00  0.00    -0.390 OA
ATOM     19  H   LIG d   1      11.572   6.260   2.629  0.00  0.00     0.210 HD
ENDBRANCH  15  18
ENDBRANCH   4  15
BRANCH   1  20
ATOM     20  C   LIG d   1      10.342   4.112  -2.715  0.00  0.00     0.020 C 
ATOM     21  H   LIG d   1      10.262   4.613  -3.679  0.00  0.00     0.034 H 
ATOM     22  H   LIG d   1      11.172   3.405  -2.741  0.00  0.00     0.034 H 
ATOM     23  H   LIG d   1       9.416   3.575  -2.506  0.00  0.00     0.034 H 
ENDBRANCH   1  20
TORSDOF 5
ENDMDL
MODEL 5
REMARK VINA RESULT:      -4.5      2.449      3.014
REMARK  5 active torsions:
REMARK  status: ('A' for Active; 'I' for Inactive)
REMARK    1  A    between atoms: C_1  and  C_2 
REMARK    2  A    between atoms: C_4  and  C_10 
REMARK    3  A    between atoms: C_5  and  C_8 
REMARK    4  A    between atoms: C_8  and  O_9 
REMARK    5  A    between atoms: N_11  and  O_12 
ROOT
ATOM      1  C   LIG d   1       4.573  -0.194  -2.782  0.00  0.00     0.172 A 
ATOM      2  C   LIG d   1       4.034   0.216  -3.991  0.00  0.00    -0.030 A 
ATOM      3  C   LIG d   1       4.079  -0.662  -5.087  0.00  0.00     0.005 A 
ATOM      4  C   LIG d   1       4.670  -1.918  -4.900  0.00  0.00     0.049 A 
ATOM      5  C   LIG d   1       5.180  -2.241  -3.660  0.00  0.00     0.176 A 
ATOM      6  N   LIG d   1       5.124  -1.385  -2.657  0.00  0.00    -0.215 N 
ATOM      7  O   LIG d   1       3.473   1.447  -4.116  0.00  0.00    -0.869 OA
ATOM      8  H   LIG d   1       5.636  -3.208  -3.508  0.00  0.00     0.138 H 
ATOM      9  H   LIG d   1       5.496  -1.643  -1.799  0.00  0.00     0.453 HD
ENDROOT
BRANCH   3  10
ATOM     10  C   LIG d   1       3.520  -0.273  -6.396  0.00  0.00     0.074 C 
ATOM     11  N   LIG d   1       4.248   0.382  -7.241  0.00  0.00    -0.095 NA
ATOM     12  H   LIG d   1       2.503  -0.534  -6.647  0.00  0.00     0.087 H 
BRANCH  11  13
ATOM     13  O   LIG d   1       5.620   0.603  -6.971  0.00  0.00    -0.409 OA
ATOM     14  H   LIG d   1       6.154   0.773  -7.759  0.00  0.00     0.328 HD
ENDBRANCH  11  13
ENDBRANCH   3  10
BRANCH   4  15
ATOM     15  C   LIG d   1       4.747  -2.903  -6.038  0.00  0.00     0.075 C 
ATOM     16  H   LIG d   1       4.431  -2.417  -6.962  0.00  0.00     0.061 H 
ATOM     17  H   LIG d   1       5.772  -3.255  -6.145  0.00  0.00     0.061 H 
BRANCH  15  18
ATOM     18  O   LIG d   1       3.888  -4.012  -5.767  0.00  0.00    -0.390 OA
ATOM     19  H   LIG d   1       3.996  -4.388  -4.884  0.00  0.00     0.210 HD
ENDBRANCH  15  18
ENDBRANCH   4  15
BRANCH   1  20
ATOM     20  C   LIG d   1       4.535   0.735  -1.596  0.00  0.00     0.020 C 
ATOM     21  H   LIG d   1       5.509   1.206  -1.472  0.00  0.00     0.034 H 
ATOM     22  H   LIG d   1       3.778   1.503  -1.761  0.00  0.00     0.034 H 
ATOM     23  H   LIG d   1       4.287   0.169  -0.698  0.00  0.00     0.034 H 
ENDBRANCH   1  20
TORSDOF 5
ENDMDL
MODEL 6
REMARK VINA RESULT:      -4.4      2.568      3.442
REMARK  5 active torsions:
REMARK  status: ('A' for Active; 'I' for Inactive)
REMARK    1  A    between atoms: C_1  and  C_2 
REMARK    2  A    between atoms: C_4  and  C_10 
REMARK    3  A    between atoms: C_5  and  C_8 
REMARK    4  A    between atoms: C_8  and  O_9 
REMARK    5  A    between atoms: N_11  and  O_12 
ROOT
ATOM      1  C   LIG d   1       3.743  -0.425  -6.248  0.00  0.00     0.172 A 
ATOM      2  C   LIG d   1       3.655   0.140  -4.986  0.00  0.00    -0.030 A 
ATOM      3  C   LIG d   1       4.522  -0.312  -3.978  0.00  0.00     0.005 A 
ATOM      4  C   LIG d   1       5.440  -1.319  -4.301  0.00  0.00     0.049 A 
ATOM      5  C   LIG d   1       5.457  -1.822  -5.585  0.00  0.00     0.176 A 
ATOM      6  N   LIG d   1       4.621  -1.375  -6.503  0.00  0.00    -0.215 N 
ATOM      7  O   LIG d   1       2.744   1.114  -4.727  0.00  0.00    -0.869 OA
ATOM      8  H   LIG d   1       6.163  -2.598  -5.843  0.00  0.00     0.138 H 
ATOM      9  H   LIG d   1       4.657  -1.754  -7.395  0.00  0.00     0.453 HD
ENDROOT
BRANCH   3  10
ATOM     10  C   LIG d   1       4.468   0.257  -2.617  0.00  0.00     0.074 C 
ATOM     11  N   LIG d   1       5.312   1.171  -2.264  0.00  0.00    -0.095 NA
ATOM     12  H   LIG d   1       3.724  -0.092  -1.916  0.00  0.00     0.087 H 
BRANCH  11  13
ATOM     13  O   LIG d   1       6.196   1.726  -3.221  0.00  0.00    -0.409 OA
ATOM     14  H   LIG d   1       6.792   1.081  -3.626  0.00  0.00     0.328 HD
ENDBRANCH  11  13
ENDBRANCH   3  10
BRANCH   4  15
ATOM     15  C   LIG d   1       6.396  -1.843  -3.262  0.00  0.00     0.075 C 
ATOM     16  H   LIG d   1       5.901  -1.867  -2.291  0.00  0.00     0.061 H 
ATOM     17  H   LIG d   1       6.711  -2.851  -3.533  0.00  0.00     0.061 H 
BRANCH  15  18
ATOM     18  O   LIG d   1       7.540  -0.990  -3.192  0.00  0.00    -0.390 OA
ATOM     19  H   LIG d   1       8.010  -0.891  -4.031  0.00  0.00     0.210 HD
ENDBRANCH  15  18
ENDBRANCH   4  15
BRANCH   1  20
ATOM     20  C   LIG d   1       2.820   0.047  -7.342  0.00  0.00     0.020 C 
ATOM     21  H   LIG d   1       2.380  -0.815  -7.843  0.00  0.00     0.034 H 
ATOM     22  H   LIG d   1       2.027   0.658  -6.910  0.00  0.00     0.034 H 
ATOM     23  H   LIG d   1       3.383   0.639  -8.063  0.00  0.00     0.034 H 
ENDBRANCH   1  20
TORSDOF 5
ENDMDL
MODEL 7
REMARK VINA RESULT:      -4.2      2.753      4.103
REMARK  5 active torsions:
REMARK  status: ('A' for Active; 'I' for Inactive)
REMARK    1  A    between atoms: C_1  and  C_2 
REMARK    2  A    between atoms: C_4  and  C_10 
REMARK    3  A    between atoms: C_5  and  C_8 
REMARK    4  A    between atoms: C_8  and  O_9 
REMARK    5  A    between atoms: N_11  and  O_12 
ROOT
ATOM      1  C   LIG d   1       3.181  -0.015  -6.371  0.00  0.00     0.172 A 
ATOM      2  C   LIG d   1       4.318  -0.779  -6.159  0.00  0.00    -0.030 A 
ATOM      3  C   LIG d   1       4.604  -1.223  -4.857  0.00  0.00     0.005 A 
ATOM      4  C   LIG d   1       3.719  -0.869  -3.831  0.00  0.00     0.049 A 
ATOM      5  C   LIG d   1       2.611  -0.105  -4.136  0.00  0.00     0.176 A 
ATOM      6  N   LIG d   1       2.381   0.298  -5.372  0.00  0.00    -0.215 N 
ATOM      7  O   LIG d   1       5.142  -1.093  -7.191  0.00  0.00    -0.869 OA
ATOM      8  H   LIG d   1       1.924   0.172  -3.350  0.00  0.00     0.138 H 
ATOM      9  H   LIG d   1       1.595   0.837  -5.550  0.00  0.00     0.453 HD
ENDROOT
BRANCH   3  10
ATOM     10  C   LIG d   1       5.801  -2.039  -4.578  0.00  0.00     0.074 C 
ATOM     11  N   LIG d   1       5.704  -3.327  -4.506  0.00  0.00    -0.095 NA
ATOM     12  H   LIG d   1       6.758  -1.560  -4.431  0.00  0.00     0.087 H 
BRANCH  11  13
ATOM     13  O   LIG d   1       4.483  -3.964  -4.834  0.00  0.00    -0.409 OA
ATOM     14  H   LIG d   1       4.081  -3.645  -5.653  0.00  0.00     0.328 HD
ENDBRANCH  11  13
ENDBRANCH   3  10
BRANCH   4  15
ATOM     15  C   LIG d   1       3.972  -1.316  -2.415  0.00  0.00     0.075 C 
ATOM     16  H   LIG d   1       5.035  -1.224  -2.189  0.00  0.00     0.061 H 
ATOM     17  H   LIG d   1       3.401  -0.691  -1.728  0.00  0.00     0.061 H 
BRANCH  15  18
ATOM     18  O   LIG d   1       3.570  -2.679  -2.266  0.00  0.00    -0.390 OA
ATOM     19  H   LIG d   1       3.579  -3.184  -3.090  0.00  0.00     0.210 HD
ENDBRANCH  15  18
ENDBRANCH   4  15
BRANCH   1  20
ATOM     20  C   LIG d   1       2.859   0.470  -7.761  0.00  0.00     0.020 C 
ATOM     21  H   LIG d   1       1.861   0.135  -8.040  0.00  0.00     0.034 H 
ATOM     22  H   LIG d   1       2.895   1.560  -7.782  0.00  0.00     0.034 H 
ATOM     23  H   LIG d   1       3.588   0.069  -8.465  0.00  0.00     0.034 H 
ENDBRANCH   1  20
TORSDOF 5
ENDMDL
MODEL 8
REMARK VINA RESULT:      -4.1     10.065     12.134
REMARK  5 active torsions:
REMARK  status: ('A' for Active; 'I' for Inactive)
REMARK    1  A    between atoms: C_1  and  C_2 
REMARK    2  A    between atoms: C_4  and  C_10 
REMARK    3  A    between atoms: C_5  and  C_8 
REMARK    4  A    between atoms: C_8  and  O_9 
REMARK    5  A    between atoms: N_11  and  O_12 
ROOT
ATOM      1  C   LIG d   1      11.433   9.795   1.373  0.00  0.00     0.172 A 
ATOM      2  C   LIG d   1      11.083   8.747   0.537  0.00  0.00    -0.030 A 
ATOM      3  C   LIG d   1      10.397   9.029  -0.655  0.00  0.00     0.005 A 
ATOM      4  C   LIG d   1      10.099  10.367  -0.943  0.00  0.00     0.049 A 
ATOM      5  C   LIG d   1      10.488  11.346  -0.052  0.00  0.00     0.176 A 
ATOM      6  N   LIG d   1      11.126  11.038   1.061  0.00  0.00    -0.215 N 
ATOM      7  O   LIG d   1      11.397   7.466   0.866  0.00  0.00    -0.869 OA
ATOM      8  H   LIG d   1      10.263  12.380  -0.267  0.00  0.00     0.138 H 
ATOM      9  H   LIG d   1      11.382  11.752   1.668  0.00  0.00     0.453 HD
ENDROOT
BRANCH   3  10
ATOM     10  C   LIG d   1      10.001   7.949  -1.578  0.00  0.00     0.074 C 
ATOM     11  N   LIG d   1       8.796   7.479  -1.545  0.00  0.00    -0.095 NA
ATOM     12  H   LIG d   1      10.718   7.549  -2.280  0.00  0.00     0.087 H 
BRANCH  11  13
ATOM     13  O   LIG d   1       7.819   8.093  -0.725  0.00  0.00    -0.409 OA
ATOM     14  H   LIG d   1       7.611   9.003  -0.976  0.00  0.00     0.328 HD
ENDBRANCH  11  13
ENDBRANCH   3  10
BRANCH   4  15
ATOM     15  C   LIG d   1       9.366  10.732  -2.207  0.00  0.00     0.075 C 
ATOM     16  H   LIG d   1       9.634  11.747  -2.503  0.00  0.00     0.061 H 
ATOM     17  H   LIG d   1       9.641  10.038  -3.001  0.00  0.00     0.061 H 
BRANCH  15  18
ATOM     18  O   LIG d   1       7.957  10.660  -1.979  0.00  0.00    -0.390 OA
ATOM     19  H   LIG d   1       7.449  10.359  -2.744  0.00  0.00     0.210 HD
ENDBRANCH  15  18
ENDBRANCH   4  15
BRANCH   1  20
ATOM     20  C   LIG d   1      12.169   9.511   2.657  0.00  0.00     0.020 C 
ATOM     21  H   LIG d   1      11.451   9.383   3.466  0.00  0.00     0.034 H 
ATOM     22  H   LIG d   1      12.756   8.599   2.545  0.00  0.00     0.034 H 
ATOM     23  H   LIG d   1      12.834  10.344   2.888  0.00  0.00     0.034 H 
ENDBRANCH   1  20
TORSDOF 5
ENDMDL
MODEL 9
REMARK VINA RESULT:      -4.0      2.124      2.362
REMARK  5 active torsions:
REMARK  status: ('A' for Active; 'I' for Inactive)
REMARK    1  A    between atoms: C_1  and  C_2 
REMARK    2  A    between atoms: C_4  and  C_10 
REMARK    3  A    between atoms: C_5  and  C_8 
REMARK    4  A    between atoms: C_8  and  O_9 
REMARK    5  A    between atoms: N_11  and  O_12 
ROOT
ATOM      1  C   LIG d   1       7.690  -0.369  -4.701  0.00  0.00     0.172 A 
ATOM      2  C   LIG d   1       6.501  -0.100  -5.362  0.00  0.00    -0.030 A 
ATOM      3  C   LIG d   1       5.324  -0.730  -4.924  0.00  0.00     0.005 A 
ATOM      4  C   LIG d   1       5.412  -1.604  -3.833  0.00  0.00     0.049 A 
ATOM      5  C   LIG d   1       6.638  -1.810  -3.237  0.00  0.00     0.176 A 
ATOM      6  N   LIG d   1       7.722  -1.204  -3.682  0.00  0.00    -0.215 N 
ATOM      7  O   LIG d   1       6.474   0.757  -6.415  0.00  0.00    -0.869 OA
ATOM      8  H   LIG d   1       6.714  -2.482  -2.394  0.00  0.00     0.138 H 
ATOM      9  H   LIG d   1       8.570  -1.374  -3.242  0.00  0.00     0.453 HD
ENDROOT
BRANCH   3  10
ATOM     10  C   LIG d   1       4.034  -0.479  -5.593  0.00  0.00     0.074 C 
ATOM     11  N   LIG d   1       3.215   0.399  -5.111  0.00  0.00    -0.095 NA
ATOM     12  H   LIG d   1       3.772  -1.029  -6.485  0.00  0.00     0.087 H 
BRANCH  11  13
ATOM     13  O   LIG d   1       3.613   1.217  -4.026  0.00  0.00    -0.409 OA
ATOM     14  H   LIG d   1       3.367   0.868  -3.159  0.00  0.00     0.328 HD
ENDBRANCH  11  13
ENDBRANCH   3  10
BRANCH   4  15
ATOM     15  C   LIG d   1       4.184  -2.309  -3.318  0.00  0.00     0.075 C 
ATOM     16  H   LIG d   1       3.568  -2.629  -4.160  0.00  0.00     0.061 H 
ATOM     17  H   LIG d   1       4.481  -3.179  -2.734  0.00  0.00     0.061 H 
BRANCH  15  18
ATOM     18  O   LIG d   1       3.433  -1.416  -2.493  0.00  0.00    -0.390 OA
ATOM     19  H   LIG d   1       2.640  -1.060  -2.917  0.00  0.00     0.210 HD
ENDBRANCH  15  18
ENDBRANCH   4  15
BRANCH   1  20
ATOM     20  C   LIG d   1       8.962   0.297  -5.157  0.00  0.00     0.020 C 
ATOM     21  H   LIG d   1       8.734   1.018  -5.942  0.00  0.00     0.034 H 
ATOM     22  H   LIG d   1       9.424   0.813  -4.315  0.00  0.00     0.034 H 
ATOM     23  H   LIG d   1       9.650  -0.455  -5.542  0.00  0.00     0.034 H 
ENDBRANCH   1  20
TORSDOF 5
ENDMDL
MODEL 10
REMARK VINA RESULT:      -4.0     11.080     12.905
REMARK  5 active torsions:
REMARK  status: ('A' for Active; 'I' for Inactive)
REMARK    1  A    between atoms: C_1  and  C_2 
REMARK    2  A    between atoms: C_4  and  C_10 
REMARK    3  A    between atoms: C_5  and  C_8 
REMARK    4  A    between atoms: C_8  and  O_9 
REMARK    5  A    between atoms: N_11  and  O_12 
ROOT
ATOM      1  C   LIG d   1       9.703  10.608  -4.273  0.00  0.00     0.172 A 
ATOM      2  C   LIG d   1      10.262  11.398  -5.266  0.00  0.00    -0.030 A 
ATOM      3  C   LIG d   1      10.309  10.904  -6.579  0.00  0.00     0.005 A 
ATOM      4  C   LIG d   1       9.787   9.627  -6.822  0.00  0.00     0.049 A 
ATOM      5  C   LIG d   1       9.250   8.912  -5.772  0.00  0.00     0.176 A 
ATOM      6  N   LIG d   1       9.229   9.410  -4.550  0.00  0.00    -0.215 N 
ATOM      7  O   LIG d   1      10.755  12.630  -4.973  0.00  0.00    -0.869 OA
ATOM      8  H   LIG d   1       8.843   7.928  -5.951  0.00  0.00     0.138 H 
ATOM      9  H   LIG d   1       8.847   8.879  -3.833  0.00  0.00     0.453 HD
ENDROOT
BRANCH   3  10
ATOM     10  C   LIG d   1      10.894  11.704  -7.672  0.00  0.00     0.074 C 
ATOM     11  N   LIG d   1      10.149  12.517  -8.349  0.00  0.00    -0.095 NA
ATOM     12  H   LIG d   1      11.944  11.611  -7.908  0.00  0.00     0.087 H 
BRANCH  11  13
ATOM     13  O   LIG d   1       8.808  12.743  -7.953  0.00  0.00    -0.409 OA
ATOM     14  H   LIG d   1       8.478  13.625  -8.171  0.00  0.00     0.328 HD
ENDBRANCH  11  13
ENDBRANCH   3  10
BRANCH   4  15
ATOM     15  C   LIG d   1       9.809   9.044  -8.211  0.00  0.00     0.075 C 
ATOM     16  H   LIG d   1      10.493   9.619  -8.836  0.00  0.00     0.061 H 
ATOM     17  H   LIG d   1      10.145   8.008  -8.165  0.00  0.00     0.061 H 
BRANCH  15  18
ATOM     18  O   LIG d   1       8.496   9.094  -8.771  0.00  0.00    -0.390 OA
ATOM     19  H   LIG d   1       7.839   9.509  -8.197  0.00  0.00     0.210 HD
ENDBRANCH  15  18
ENDBRANCH   4  15
BRANCH   1  20
ATOM     20  C   LIG d   1       9.644  11.122  -2.858  0.00  0.00     0.020 C 
ATOM     21  H   LIG d   1       9.200  10.363  -2.214  0.00  0.00     0.034 H 
ATOM     22  H   LIG d   1      10.653  11.348  -2.510  0.00  0.00     0.034 H 
ATOM     23  H   LIG d   1       9.037  12.027  -2.824  0.00  0.00     0.034 H 
ENDBRANCH   1  20
TORSDOF 5
ENDMDL
