MODEL 1
REMARK VINA RESULT:      -5.8      0.000      0.000
REMARK  18 active torsions:
REMARK  status: ('A' for Active; 'I' for Inactive)
REMARK    1  A    between atoms: C_1  and  C_2 
REMARK    2  A    between atoms: C_5  and  O_37 
REMARK    3  A    between atoms: C_7  and  C_34 
REMARK    4  A    between atoms: C_7  and  C_35 
REMARK    5  A    between atoms: C_14  and  N_16 
REMARK       I    between atoms: N_16  and  C_17 
REMARK    6  A    between atoms: C_17  and  C_19 
REMARK    7  A    between atoms: C_19  and  C_20 
REMARK    8  A    between atoms: C_20  and  C_21 
REMARK    9  A    between atoms: C_20  and  C_22 
REMARK   10  A    between atoms: C_20  and  C_23 
REMARK   11  A    between atoms: C_24  and  C_26 
REMARK   12  A    between atoms: C_26  and  C_27 
REMARK       I    between atoms: C_27  and  N_29 
REMARK   13  A    between atoms: N_29  and  C_30 
REMARK   14  A    between atoms: C_30  and  C_31 
REMARK   15  A    between atoms: C_31  and  N_79 
REMARK   16  A    between atoms: C_32  and  N_79 
REMARK   17  A    between atoms: C_33  and  N_79 
REMARK   18  A    between atoms: C_35  and  O_36 
ROOT
ATOM      1  C   LIG d   1      10.959   4.489  -5.077  0.00  0.00    -0.019 C 
ATOM      2  C   LIG d   1      11.729   5.759  -4.701  0.00  0.00    -0.044 C 
ATOM      3  C   LIG d   1      12.666   6.178  -5.815  0.00  0.00    -0.026 C 
ATOM      4  C   LIG d   1      11.844   6.458  -7.077  0.00  0.00     0.063 C 
ATOM      5  H   LIG d   1      11.112   7.237  -6.873  0.00  0.00     0.060 H 
ATOM      6  C   LIG d   1      11.125   5.174  -7.489  0.00  0.00     0.021 C 
ATOM      7  C   LIG d   1      10.179   4.712  -6.376  0.00  0.00    -0.021 C 
ATOM      8  H   LIG d   1       9.398   5.456  -6.218  0.00  0.00     0.032 H 
ATOM      9  C   LIG d   1       9.553   3.375  -6.819  0.00  0.00    -0.016 C 
ATOM     10  C   LIG d   1       8.909   2.727  -5.644  0.00  0.00     0.015 A 
ATOM     11  C   LIG d   1       9.069   3.041  -4.333  0.00  0.00     0.058 A 
ATOM     12  N   LIG d   1       8.377   2.301  -3.468  0.00  0.00    -0.229 NA
ATOM     13  C   LIG d   1       7.584   1.325  -3.857  0.00  0.00     0.165 A 
ATOM     14  S   LIG d   1       7.763   1.376  -5.586  0.00  0.00    -0.057 SA
ATOM     15  C   LIG d   1       9.993   4.179  -3.927  0.00  0.00     0.016 C 
ATOM     16  H   LIG d   1       9.399   5.065  -3.701  0.00  0.00     0.037 H 
ATOM     17  H   LIG d   1      11.024   6.570  -4.522  0.00  0.00     0.027 H 
ATOM     18  H   LIG d   1      12.303   5.577  -3.791  0.00  0.00     0.027 H 
ATOM     19  H   LIG d   1      13.374   5.372  -6.009  0.00  0.00     0.029 H 
ATOM     20  H   LIG d   1      13.206   7.079  -5.523  0.00  0.00     0.029 H 
ATOM     21  H   LIG d   1      10.330   2.722  -7.215  0.00  0.00     0.032 H 
ATOM     22  H   LIG d   1       8.804   3.562  -7.588  0.00  0.00     0.032 H 
ENDROOT
BRANCH  15  23
ATOM     23  C   LIG d   1      10.791   3.771  -2.687  0.00  0.00     0.033 C 
ATOM     24  H   LIG d   1      10.415   2.820  -2.309  0.00  0.00     0.036 H 
ATOM     25  H   LIG d   1      11.843   3.667  -2.951  0.00  0.00     0.036 H 
BRANCH  23  26
ATOM     26  C   LIG d   1      10.642   4.828  -1.623  0.00  0.00     0.214 C 
ATOM     27  O   LIG d   1       9.823   5.713  -1.758  0.00  0.00    -0.276 OA
ATOM     28  N   LIG d   1      11.418   4.790  -0.522  0.00  0.00    -0.310 N 
ATOM     29  H   LIG d   1      12.073   4.082  -0.414  0.00  0.00     0.149 HD
BRANCH  28  30
ATOM     30  C   LIG d   1      11.273   5.818   0.512  0.00  0.00     0.052 C 
ATOM     31  H   LIG d   1      10.226   6.115   0.584  0.00  0.00     0.051 H 
ATOM     32  H   LIG d   1      11.604   5.418   1.471  0.00  0.00     0.051 H 
BRANCH  30  33
ATOM     33  C   LIG d   1      12.124   7.034   0.145  0.00  0.00    -0.017 C 
ATOM     34  H   LIG d   1      12.686   7.362   1.020  0.00  0.00     0.083 H 
ATOM     35  H   LIG d   1      12.817   6.766  -0.652  0.00  0.00     0.083 H 
BRANCH  33  36
ATOM     36  N   LIG d   1      11.233   8.113  -0.332  0.00  0.00     0.232 N 
ATOM     37  H   LIG d   1      10.297   7.723  -0.496  0.00  0.00     0.203 HD
BRANCH  36  38
ATOM     38  C   LIG d   1      11.139   9.179   0.688  0.00  0.00    -0.043 C 
ATOM     39  H   LIG d   1      11.403   8.790   1.671  0.00  0.00     0.078 H 
ATOM     40  H   LIG d   1      11.821   9.986   0.420  0.00  0.00     0.078 H 
ATOM     41  H   LIG d   1      10.118   9.558   0.709  0.00  0.00     0.078 H 
ENDBRANCH  36  38
BRANCH  36  42
ATOM     42  C   LIG d   1      11.749   8.671  -1.600  0.00  0.00    -0.043 C 
ATOM     43  H   LIG d   1      12.542   8.024  -1.974  0.00  0.00     0.078 H 
ATOM     44  H   LIG d   1      10.937   8.710  -2.326  0.00  0.00     0.078 H 
ATOM     45  H   LIG d   1      12.144   9.675  -1.443  0.00  0.00     0.078 H 
ENDBRANCH  36  42
ENDBRANCH  33  36
ENDBRANCH  30  33
ENDBRANCH  28  30
ENDBRANCH  23  26
ENDBRANCH  15  23
BRANCH   1  46
ATOM     46  C   LIG d   1      11.932   3.323  -5.257  0.00  0.00    -0.059 C 
ATOM     47  H   LIG d   1      11.819   2.624  -4.429  0.00  0.00     0.024 H 
ATOM     48  H   LIG d   1      11.717   2.812  -6.197  0.00  0.00     0.024 H 
ATOM     49  H   LIG d   1      12.953   3.702  -5.276  0.00  0.00     0.024 H 
ENDBRANCH   1  46
BRANCH   6  50
ATOM     50  C   LIG d   1      10.320   5.432  -8.763  0.00  0.00    -0.055 C 
ATOM     51  H   LIG d   1       9.806   6.390  -8.681  0.00  0.00     0.024 H 
ATOM     52  H   LIG d   1      10.994   5.453  -9.620  0.00  0.00     0.024 H 
ATOM     53  H   LIG d   1       9.587   4.637  -8.898  0.00  0.00     0.024 H 
ENDBRANCH   6  50
BRANCH   6  54
ATOM     54  C   LIG d   1      12.163   4.081  -7.757  0.00  0.00     0.052 C 
ATOM     55  H   LIG d   1      13.042   4.255  -7.136  0.00  0.00     0.056 H 
ATOM     56  H   LIG d   1      11.734   3.108  -7.517  0.00  0.00     0.056 H 
BRANCH  54  57
ATOM     57  O   LIG d   1      12.539   4.110  -9.135  0.00  0.00    -0.394 OA
ATOM     58  H   LIG d   1      11.824   3.878  -9.743  0.00  0.00     0.209 HD
ENDBRANCH  54  57
ENDBRANCH   6  54
BRANCH  13  59
ATOM     59  N   LIG d   1       6.804   0.473  -3.085  0.00  0.00    -0.265 N 
ATOM     60  C   LIG d   1       5.513   0.775  -2.841  0.00  0.00     0.219 C 
ATOM     61  O   LIG d   1       5.032   1.790  -3.298  0.00  0.00    -0.275 OA
ATOM     62  H   LIG d   1       7.189  -0.339  -2.720  0.00  0.00     0.157 HD
BRANCH  60  63
ATOM     63  C   LIG d   1       4.668  -0.150  -2.003  0.00  0.00     0.029 C 
ATOM     64  H   LIG d   1       5.315  -0.769  -1.381  0.00  0.00     0.036 H 
ATOM     65  H   LIG d   1       4.007   0.439  -1.367  0.00  0.00     0.036 H 
BRANCH  63  66
ATOM     66  C   LIG d   1       3.832  -1.046  -2.918  0.00  0.00    -0.029 C 
BRANCH  66  67
ATOM     67  C   LIG d   1       2.426  -0.460  -3.062  0.00  0.00    -0.060 C 
ATOM     68  H   LIG d   1       1.693  -1.180  -2.697  0.00  0.00     0.024 H 
ATOM     69  H   LIG d   1       2.354   0.458  -2.480  0.00  0.00     0.024 H 
ATOM     70  H   LIG d   1       2.229  -0.241  -4.111  0.00  0.00     0.024 H 
ENDBRANCH  66  67
BRANCH  66  71
ATOM     71  C   LIG d   1       4.493  -1.128  -4.295  0.00  0.00    -0.060 C 
ATOM     72  H   LIG d   1       3.761  -1.459  -5.031  0.00  0.00     0.024 H 
ATOM     73  H   LIG d   1       4.871  -0.145  -4.576  0.00  0.00     0.024 H 
ATOM     74  H   LIG d   1       5.319  -1.838  -4.260  0.00  0.00     0.024 H 
ENDBRANCH  66  71
BRANCH  66  75
ATOM     75  C   LIG d   1       3.740  -2.448  -2.312  0.00  0.00    -0.060 C 
ATOM     76  H   LIG d   1       4.741  -2.803  -2.065  0.00  0.00     0.024 H 
ATOM     77  H   LIG d   1       3.133  -2.413  -1.407  0.00  0.00     0.024 H 
ATOM     78  H   LIG d   1       3.281  -3.126  -3.031  0.00  0.00     0.024 H 
ENDBRANCH  66  75
ENDBRANCH  63  66
ENDBRANCH  60  63
ENDBRANCH  13  59
BRANCH   4  79
ATOM     79  O   LIG d   1      12.714   6.879  -8.130  0.00  0.00    -0.391 OA
ATOM     80  H   LIG d   1      13.316   6.190  -8.442  0.00  0.00     0.210 HD
ENDBRANCH   4  79
TORSDOF 18
ENDMDL
MODEL 2
REMARK VINA RESULT:      -5.7      3.504      6.484
REMARK  18 active torsions:
REMARK  status: ('A' for Active; 'I' for Inactive)
REMARK    1  A    between atoms: C_1  and  C_2 
REMARK    2  A    between atoms: C_5  and  O_37 
REMARK    3  A    between atoms: C_7  and  C_34 
REMARK    4  A    between atoms: C_7  and  C_35 
REMARK    5  A    between atoms: C_14  and  N_16 
REMARK       I    between atoms: N_16  and  C_17 
REMARK    6  A    between atoms: C_17  and  C_19 
REMARK    7  A    between atoms: C_19  and  C_20 
REMARK    8  A    between atoms: C_20  and  C_21 
REMARK    9  A    between atoms: C_20  and  C_22 
REMARK   10  A    between atoms: C_20  and  C_23 
REMARK   11  A    between atoms: C_24  and  C_26 
REMARK   12  A    between atoms: C_26  and  C_27 
REMARK       I    between atoms: C_27  and  N_29 
REMARK   13  A    between atoms: N_29  and  C_30 
REMARK   14  A    between atoms: C_30  and  C_31 
REMARK   15  A    between atoms: C_31  and  N_79 
REMARK   16  A    between atoms: C_32  and  N_79 
REMARK   17  A    between atoms: C_33  and  N_79 
REMARK   18  A    between atoms: C_35  and  O_36 
ROOT
ATOM      1  C   LIG d   1       9.529   2.316  -4.788  0.00  0.00    -0.019 C 
ATOM      2  C   LIG d   1       9.577   2.426  -3.260  0.00  0.00    -0.044 C 
ATOM      3  C   LIG d   1      10.898   3.003  -2.797  0.00  0.00    -0.026 C 
ATOM      4  C   LIG d   1      11.068   4.402  -3.396  0.00  0.00     0.063 C 
ATOM      5  H   LIG d   1      10.238   5.037  -3.087  0.00  0.00     0.060 H 
ATOM      6  C   LIG d   1      11.084   4.285  -4.919  0.00  0.00     0.021 C 
ATOM      7  C   LIG d   1       9.765   3.689  -5.422  0.00  0.00    -0.021 C 
ATOM      8  H   LIG d   1       8.938   4.357  -5.182  0.00  0.00     0.032 H 
ATOM      9  C   LIG d   1       9.880   3.521  -6.950  0.00  0.00    -0.016 C 
ATOM     10  C   LIG d   1       8.780   2.639  -7.426  0.00  0.00     0.015 A 
ATOM     11  C   LIG d   1       7.972   1.843  -6.679  0.00  0.00     0.058 A 
ATOM     12  N   LIG d   1       7.059   1.144  -7.351  0.00  0.00    -0.229 NA
ATOM     13  C   LIG d   1       6.941   1.219  -8.660  0.00  0.00     0.165 A 
ATOM     14  S   LIG d   1       8.192   2.355  -9.074  0.00  0.00    -0.057 SA
ATOM     15  C   LIG d   1       8.140   1.789  -5.168  0.00  0.00     0.016 C 
ATOM     16  H   LIG d   1       7.375   2.405  -4.696  0.00  0.00     0.037 H 
ATOM     17  H   LIG d   1       8.777   3.084  -2.920  0.00  0.00     0.027 H 
ATOM     18  H   LIG d   1       9.438   1.437  -2.822  0.00  0.00     0.027 H 
ATOM     19  H   LIG d   1      11.709   2.359  -3.136  0.00  0.00     0.029 H 
ATOM     20  H   LIG d   1      10.911   3.067  -1.708  0.00  0.00     0.029 H 
ATOM     21  H   LIG d   1      10.841   3.070  -7.196  0.00  0.00     0.032 H 
ATOM     22  H   LIG d   1       9.799   4.496  -7.430  0.00  0.00     0.032 H 
ENDROOT
BRANCH  15  23
ATOM     23  C   LIG d   1       7.995   0.343  -4.690  0.00  0.00     0.033 C 
ATOM     24  H   LIG d   1       7.788  -0.303  -5.543  0.00  0.00     0.036 H 
ATOM     25  H   LIG d   1       8.920   0.025  -4.210  0.00  0.00     0.036 H 
BRANCH  23  26
ATOM     26  C   LIG d   1       6.859   0.251  -3.704  0.00  0.00     0.214 C 
ATOM     27  O   LIG d   1       6.585  -0.815  -3.192  0.00  0.00    -0.276 OA
ATOM     28  N   LIG d   1       6.148   1.352  -3.390  0.00  0.00    -0.310 N 
ATOM     29  H   LIG d   1       6.368   2.204  -3.798  0.00  0.00     0.149 HD
BRANCH  28  30
ATOM     30  C   LIG d   1       5.045   1.262  -2.430  0.00  0.00     0.052 C 
ATOM     31  H   LIG d   1       5.086   0.300  -1.917  0.00  0.00     0.051 H 
ATOM     32  H   LIG d   1       5.131   2.067  -1.700  0.00  0.00     0.051 H 
BRANCH  30  33
ATOM     33  C   LIG d   1       3.713   1.386  -3.172  0.00  0.00    -0.017 C 
ATOM     34  H   LIG d   1       2.910   1.544  -2.452  0.00  0.00     0.083 H 
ATOM     35  H   LIG d   1       3.756   2.230  -3.859  0.00  0.00     0.083 H 
BRANCH  33  36
ATOM     36  N   LIG d   1       3.479   0.146  -3.943  0.00  0.00     0.232 N 
ATOM     37  H   LIG d   1       4.374  -0.180  -4.327  0.00  0.00     0.203 HD
BRANCH  36  38
ATOM     38  C   LIG d   1       2.925  -0.901  -3.059  0.00  0.00    -0.043 C 
ATOM     39  H   LIG d   1       3.610  -1.109  -2.237  0.00  0.00     0.078 H 
ATOM     40  H   LIG d   1       1.970  -0.559  -2.660  0.00  0.00     0.078 H 
ATOM     41  H   LIG d   1       2.771  -1.809  -3.642  0.00  0.00     0.078 H 
ENDBRANCH  36  38
BRANCH  36  42
ATOM     42  C   LIG d   1       2.546   0.413  -5.058  0.00  0.00    -0.043 C 
ATOM     43  H   LIG d   1       2.849   1.331  -5.560  0.00  0.00     0.078 H 
ATOM     44  H   LIG d   1       2.588  -0.419  -5.761  0.00  0.00     0.078 H 
ATOM     45  H   LIG d   1       1.527   0.523  -4.685  0.00  0.00     0.078 H 
ENDBRANCH  36  42
ENDBRANCH  33  36
ENDBRANCH  30  33
ENDBRANCH  28  30
ENDBRANCH  23  26
ENDBRANCH  15  23
BRANCH   1  46
ATOM     46  C   LIG d   1      10.599   1.336  -5.273  0.00  0.00    -0.059 C 
ATOM     47  H   LIG d   1      11.287   1.116  -4.456  0.00  0.00     0.024 H 
ATOM     48  H   LIG d   1      10.123   0.414  -5.606  0.00  0.00     0.024 H 
ATOM     49  H   LIG d   1      11.150   1.781  -6.101  0.00  0.00     0.024 H 
ENDBRANCH   1  46
BRANCH   6  50
ATOM     50  C   LIG d   1      11.278   5.673  -5.531  0.00  0.00    -0.055 C 
ATOM     51  H   LIG d   1      10.438   6.312  -5.257  0.00  0.00     0.024 H 
ATOM     52  H   LIG d   1      12.204   6.109  -5.156  0.00  0.00     0.024 H 
ATOM     53  H   LIG d   1      11.330   5.588  -6.616  0.00  0.00     0.024 H 
ENDBRANCH   6  50
BRANCH   6  54
ATOM     54  C   LIG d   1      12.242   3.379  -5.341  0.00  0.00     0.052 C 
ATOM     55  H   LIG d   1      12.411   2.623  -4.574  0.00  0.00     0.056 H 
ATOM     56  H   LIG d   1      11.996   2.891  -6.284  0.00  0.00     0.056 H 
BRANCH  54  57
ATOM     57  O   LIG d   1      13.426   4.164  -5.505  0.00  0.00    -0.394 OA
ATOM     58  H   LIG d   1      13.343   5.071  -5.182  0.00  0.00     0.209 HD
ENDBRANCH  54  57
ENDBRANCH   6  54
BRANCH  13  59
ATOM     59  N   LIG d   1       6.049   0.561  -9.496  0.00  0.00    -0.265 N 
ATOM     60  C   LIG d   1       4.970   1.210  -9.977  0.00  0.00     0.219 C 
ATOM     61  O   LIG d   1       4.779   2.371  -9.680  0.00  0.00    -0.275 OA
ATOM     62  H   LIG d   1       6.201  -0.368  -9.733  0.00  0.00     0.157 HD
BRANCH  60  63
ATOM     63  C   LIG d   1       4.001   0.495 -10.883  0.00  0.00     0.029 C 
ATOM     64  H   LIG d   1       3.482   1.223 -11.507  0.00  0.00     0.036 H 
ATOM     65  H   LIG d   1       4.545  -0.205 -11.516  0.00  0.00     0.036 H 
BRANCH  63  66
ATOM     66  C   LIG d   1       2.980  -0.269 -10.036  0.00  0.00    -0.029 C 
BRANCH  66  67
ATOM     67  C   LIG d   1       3.635  -1.524  -9.456  0.00  0.00    -0.060 C 
ATOM     68  H   LIG d   1       3.998  -2.153 -10.269  0.00  0.00     0.024 H 
ATOM     69  H   LIG d   1       4.470  -1.236  -8.818  0.00  0.00     0.024 H 
ATOM     70  H   LIG d   1       2.902  -2.077  -8.868  0.00  0.00     0.024 H 
ENDBRANCH  66  67
BRANCH  66  71
ATOM     71  C   LIG d   1       2.493   0.626  -8.895  0.00  0.00    -0.060 C 
ATOM     72  H   LIG d   1       1.935   1.467  -9.305  0.00  0.00     0.024 H 
ATOM     73  H   LIG d   1       1.847   0.050  -8.232  0.00  0.00     0.024 H 
ATOM     74  H   LIG d   1       3.350   0.998  -8.334  0.00  0.00     0.024 H 
ENDBRANCH  66  71
BRANCH  66  75
ATOM     75  C   LIG d   1       1.792  -0.671 -10.912  0.00  0.00    -0.060 C 
ATOM     76  H   LIG d   1       1.723  -1.758 -10.953  0.00  0.00     0.024 H 
ATOM     77  H   LIG d   1       0.874  -0.263 -10.488  0.00  0.00     0.024 H 
ATOM     78  H   LIG d   1       1.933  -0.277 -11.918  0.00  0.00     0.024 H 
ENDBRANCH  66  75
ENDBRANCH  63  66
ENDBRANCH  60  63
ENDBRANCH  13  59
BRANCH   4  79
ATOM     79  O   LIG d   1      12.300   4.970  -2.946  0.00  0.00    -0.391 OA
ATOM     80  H   LIG d   1      12.744   5.520  -3.606  0.00  0.00     0.210 HD
ENDBRANCH   4  79
TORSDOF 18
ENDMDL
MODEL 3
REMARK VINA RESULT:      -5.3      7.192      8.821
REMARK  18 active torsions:
REMARK  status: ('A' for Active; 'I' for Inactive)
REMARK    1  A    between atoms: C_1  and  C_2 
REMARK    2  A    between atoms: C_5  and  O_37 
REMARK    3  A    between atoms: C_7  and  C_34 
REMARK    4  A    between atoms: C_7  and  C_35 
REMARK    5  A    between atoms: C_14  and  N_16 
REMARK       I    between atoms: N_16  and  C_17 
REMARK    6  A    between atoms: C_17  and  C_19 
REMARK    7  A    between atoms: C_19  and  C_20 
REMARK    8  A    between atoms: C_20  and  C_21 
REMARK    9  A    between atoms: C_20  and  C_22 
REMARK   10  A    between atoms: C_20  and  C_23 
REMARK   11  A    between atoms: C_24  and  C_26 
REMARK   12  A    between atoms: C_26  and  C_27 
REMARK       I    between atoms: C_27  and  N_29 
REMARK   13  A    between atoms: N_29  and  C_30 
REMARK   14  A    between atoms: C_30  and  C_31 
REMARK   15  A    between atoms: C_31  and  N_79 
REMARK   16  A    between atoms: C_32  and  N_79 
REMARK   17  A    between atoms: C_33  and  N_79 
REMARK   18  A    between atoms: C_35  and  O_36 
ROOT
ATOM      1  C   LIG d   1       8.951  -3.439  -4.599  0.00  0.00    -0.019 C 
ATOM      2  C   LIG d   1       8.982  -3.830  -3.118  0.00  0.00    -0.044 C 
ATOM      3  C   LIG d   1      10.107  -4.803  -2.834  0.00  0.00    -0.026 C 
ATOM      4  C   LIG d   1      11.440  -4.142  -3.196  0.00  0.00     0.063 C 
ATOM      5  H   LIG d   1      11.564  -3.227  -2.619  0.00  0.00     0.060 H 
ATOM      6  C   LIG d   1      11.434  -3.810  -4.687  0.00  0.00     0.021 C 
ATOM      7  C   LIG d   1      10.296  -2.837  -5.013  0.00  0.00    -0.021 C 
ATOM      8  H   LIG d   1      10.455  -1.891  -4.496  0.00  0.00     0.032 H 
ATOM      9  C   LIG d   1      10.295  -2.611  -6.538  0.00  0.00    -0.016 C 
ATOM     10  C   LIG d   1       9.015  -1.962  -6.932  0.00  0.00     0.015 A 
ATOM     11  C   LIG d   1       7.883  -1.843  -6.192  0.00  0.00     0.058 A 
ATOM     12  N   LIG d   1       6.866  -1.217  -6.780  0.00  0.00    -0.229 NA
ATOM     13  C   LIG d   1       6.949  -0.739  -8.004  0.00  0.00     0.165 A 
ATOM     14  S   LIG d   1       8.574  -1.163  -8.451  0.00  0.00    -0.057 SA
ATOM     15  C   LIG d   1       7.831  -2.407  -4.780  0.00  0.00     0.016 C 
ATOM     16  H   LIG d   1       7.963  -1.597  -4.061  0.00  0.00     0.037 H 
ATOM     17  H   LIG d   1       9.139  -2.937  -2.512  0.00  0.00     0.027 H 
ATOM     18  H   LIG d   1       8.029  -4.284  -2.845  0.00  0.00     0.027 H 
ATOM     19  H   LIG d   1       9.966  -5.699  -3.439  0.00  0.00     0.029 H 
ATOM     20  H   LIG d   1      10.105  -5.070  -1.777  0.00  0.00     0.029 H 
ATOM     21  H   LIG d   1      10.391  -3.569  -7.048  0.00  0.00     0.032 H 
ATOM     22  H   LIG d   1      11.130  -1.966  -6.810  0.00  0.00     0.032 H 
ENDROOT
BRANCH  15  23
ATOM     23  C   LIG d   1       6.476  -3.078  -4.549  0.00  0.00     0.033 C 
ATOM     24  H   LIG d   1       5.942  -3.156  -5.495  0.00  0.00     0.036 H 
ATOM     25  H   LIG d   1       6.631  -4.075  -4.136  0.00  0.00     0.036 H 
BRANCH  23  26
ATOM     26  C   LIG d   1       5.666  -2.254  -3.582  0.00  0.00     0.214 C 
ATOM     27  O   LIG d   1       6.160  -1.283  -3.049  0.00  0.00    -0.276 OA
ATOM     28  N   LIG d   1       4.391  -2.596  -3.308  0.00  0.00    -0.310 N 
ATOM     29  H   LIG d   1       3.995  -3.373  -3.734  0.00  0.00     0.149 HD
BRANCH  28  30
ATOM     30  C   LIG d   1       3.603  -1.795  -2.367  0.00  0.00     0.052 C 
ATOM     31  H   LIG d   1       3.043  -2.457  -1.707  0.00  0.00     0.051 H 
ATOM     32  H   LIG d   1       4.271  -1.169  -1.775  0.00  0.00     0.051 H 
BRANCH  30  33
ATOM     33  C   LIG d   1       2.629  -0.908  -3.146  0.00  0.00    -0.017 C 
ATOM     34  H   LIG d   1       2.199  -1.478  -3.970  0.00  0.00     0.083 H 
ATOM     35  H   LIG d   1       1.834  -0.571  -2.482  0.00  0.00     0.083 H 
BRANCH  33  36
ATOM     36  N   LIG d   1       3.362   0.269  -3.659  0.00  0.00     0.232 N 
ATOM     37  H   LIG d   1       4.252  -0.044  -4.065  0.00  0.00     0.203 HD
BRANCH  36  38
ATOM     38  C   LIG d   1       2.566   0.943  -4.706  0.00  0.00    -0.043 C 
ATOM     39  H   LIG d   1       1.518   0.651  -4.637  0.00  0.00     0.078 H 
ATOM     40  H   LIG d   1       2.653   2.022  -4.578  0.00  0.00     0.078 H 
ATOM     41  H   LIG d   1       2.958   0.661  -5.683  0.00  0.00     0.078 H 
ENDBRANCH  36  38
BRANCH  36  42
ATOM     42  C   LIG d   1       3.644   1.210  -2.554  0.00  0.00    -0.043 C 
ATOM     43  H   LIG d   1       4.612   1.680  -2.729  0.00  0.00     0.078 H 
ATOM     44  H   LIG d   1       2.867   1.974  -2.533  0.00  0.00     0.078 H 
ATOM     45  H   LIG d   1       3.663   0.684  -1.599  0.00  0.00     0.078 H 
ENDBRANCH  36  42
ENDBRANCH  33  36
ENDBRANCH  30  33
ENDBRANCH  28  30
ENDBRANCH  23  26
ENDBRANCH  15  23
BRANCH   1  46
ATOM     46  C   LIG d   1       8.655  -4.671  -5.456  0.00  0.00    -0.059 C 
ATOM     47  H   LIG d   1       8.057  -5.378  -4.882  0.00  0.00     0.024 H 
ATOM     48  H   LIG d   1       8.104  -4.369  -6.348  0.00  0.00     0.024 H 
ATOM     49  H   LIG d   1       9.592  -5.143  -5.750  0.00  0.00     0.024 H 
ENDBRANCH   1  46
BRANCH   6  50
ATOM     50  C   LIG d   1      12.771  -3.172  -5.069  0.00  0.00    -0.055 C 
ATOM     51  H   LIG d   1      13.367  -3.012  -4.170  0.00  0.00     0.024 H 
ATOM     52  H   LIG d   1      13.308  -3.833  -5.749  0.00  0.00     0.024 H 
ATOM     53  H   LIG d   1      12.590  -2.215  -5.560  0.00  0.00     0.024 H 
ENDBRANCH   6  50
BRANCH   6  54
ATOM     54  C   LIG d   1      11.242  -5.100  -5.489  0.00  0.00     0.052 C 
ATOM     55  H   LIG d   1      10.619  -5.791  -4.921  0.00  0.00     0.056 H 
ATOM     56  H   LIG d   1      10.757  -4.869  -6.437  0.00  0.00     0.056 H 
BRANCH  54  57
ATOM     57  O   LIG d   1      12.515  -5.700  -5.738  0.00  0.00    -0.394 OA
ATOM     58  H   LIG d   1      12.881  -6.175  -4.979  0.00  0.00     0.209 HD
ENDBRANCH  54  57
ENDBRANCH   6  54
BRANCH  13  59
ATOM     59  N   LIG d   1       5.985  -0.068  -8.747  0.00  0.00    -0.265 N 
ATOM     60  C   LIG d   1       5.072  -0.764  -9.452  0.00  0.00     0.219 C 
ATOM     61  O   LIG d   1       5.090  -1.977  -9.437  0.00  0.00    -0.275 OA
ATOM     62  H   LIG d   1       5.971   0.902  -8.759  0.00  0.00     0.157 HD
BRANCH  60  63
ATOM     63  C   LIG d   1       4.028  -0.036 -10.259  0.00  0.00     0.029 C 
ATOM     64  H   LIG d   1       4.418   0.935 -10.567  0.00  0.00     0.036 H 
ATOM     65  H   LIG d   1       3.776  -0.623 -11.143  0.00  0.00     0.036 H 
BRANCH  63  66
ATOM     66  C   LIG d   1       2.774   0.166  -9.406  0.00  0.00    -0.029 C 
BRANCH  66  67
ATOM     67  C   LIG d   1       2.568   1.660  -9.146  0.00  0.00    -0.060 C 
ATOM     68  H   LIG d   1       1.716   2.015  -9.725  0.00  0.00     0.024 H 
ATOM     69  H   LIG d   1       2.380   1.821  -8.085  0.00  0.00     0.024 H 
ATOM     70  H   LIG d   1       3.463   2.206  -9.444  0.00  0.00     0.024 H 
ENDBRANCH  66  67
BRANCH  66  71
ATOM     71  C   LIG d   1       1.558  -0.395 -10.146  0.00  0.00    -0.060 C 
ATOM     72  H   LIG d   1       1.890  -1.091 -10.916  0.00  0.00     0.024 H 
ATOM     73  H   LIG d   1       0.911  -0.917  -9.440  0.00  0.00     0.024 H 
ATOM     74  H   LIG d   1       1.005   0.422 -10.609  0.00  0.00     0.024 H 
ENDBRANCH  66  71
BRANCH  66  75
ATOM     75  C   LIG d   1       2.942  -0.566  -8.073  0.00  0.00    -0.060 C 
ATOM     76  H   LIG d   1       3.827  -1.201  -8.116  0.00  0.00     0.024 H 
ATOM     77  H   LIG d   1       3.056   0.164  -7.271  0.00  0.00     0.024 H 
ATOM     78  H   LIG d   1       2.062  -1.180  -7.882  0.00  0.00     0.024 H 
ENDBRANCH  66  75
ENDBRANCH  63  66
ENDBRANCH  60  63
ENDBRANCH  13  59
BRANCH   4  79
ATOM     79  O   LIG d   1      12.513  -5.041  -2.910  0.00  0.00    -0.391 OA
ATOM     80  H   LIG d   1      12.803  -5.562  -3.671  0.00  0.00     0.210 HD
ENDBRANCH   4  79
TORSDOF 18
ENDMDL
MODEL 4
REMARK VINA RESULT:      -5.2      4.938      9.713
REMARK  18 active torsions:
REMARK  status: ('A' for Active; 'I' for Inactive)
REMARK    1  A    between atoms: C_1  and  C_2 
REMARK    2  A    between atoms: C_5  and  O_37 
REMARK    3  A    between atoms: C_7  and  C_34 
REMARK    4  A    between atoms: C_7  and  C_35 
REMARK    5  A    between atoms: C_14  and  N_16 
REMARK       I    between atoms: N_16  and  C_17 
REMARK    6  A    between atoms: C_17  and  C_19 
REMARK    7  A    between atoms: C_19  and  C_20 
REMARK    8  A    between atoms: C_20  and  C_21 
REMARK    9  A    between atoms: C_20  and  C_22 
REMARK   10  A    between atoms: C_20  and  C_23 
REMARK   11  A    between atoms: C_24  and  C_26 
REMARK   12  A    between atoms: C_26  and  C_27 
REMARK       I    between atoms: C_27  and  N_29 
REMARK   13  A    between atoms: N_29  and  C_30 
REMARK   14  A    between atoms: C_30  and  C_31 
REMARK   15  A    between atoms: C_31  and  N_79 
REMARK   16  A    between atoms: C_32  and  N_79 
REMARK   17  A    between atoms: C_33  and  N_79 
REMARK   18  A    between atoms: C_35  and  O_36 
ROOT
ATOM      1  C   LIG d   1       3.239  -0.493  -9.179  0.00  0.00    -0.019 C 
ATOM      2  C   LIG d   1       1.726  -0.718  -9.262  0.00  0.00    -0.044 C 
ATOM      3  C   LIG d   1       1.272  -0.845 -10.701  0.00  0.00    -0.026 C 
ATOM      4  C   LIG d   1       1.983  -2.040 -11.343  0.00  0.00     0.063 C 
ATOM      5  H   LIG d   1       1.755  -2.946 -10.783  0.00  0.00     0.060 H 
ATOM      6  C   LIG d   1       3.489  -1.787 -11.317  0.00  0.00     0.021 C 
ATOM      7  C   LIG d   1       3.980  -1.638  -9.874  0.00  0.00    -0.021 C 
ATOM      8  H   LIG d   1       3.824  -2.568  -9.329  0.00  0.00     0.032 H 
ATOM      9  C   LIG d   1       5.484  -1.303  -9.924  0.00  0.00    -0.016 C 
ATOM     10  C   LIG d   1       5.917  -0.813  -8.587  0.00  0.00     0.015 A 
ATOM     11  C   LIG d   1       5.131  -0.414  -7.554  0.00  0.00     0.058 A 
ATOM     12  N   LIG d   1       5.769  -0.014  -6.456  0.00  0.00    -0.229 NA
ATOM     13  C   LIG d   1       7.083  -0.006  -6.372  0.00  0.00     0.165 A 
ATOM     14  S   LIG d   1       7.553  -0.600  -7.937  0.00  0.00    -0.057 SA
ATOM     15  C   LIG d   1       3.617  -0.443  -7.693  0.00  0.00     0.016 C 
ATOM     16  H   LIG d   1       3.223  -1.325  -7.188  0.00  0.00     0.037 H 
ATOM     17  H   LIG d   1       1.468  -1.638  -8.738  0.00  0.00     0.027 H 
ATOM     18  H   LIG d   1       1.210   0.120  -8.790  0.00  0.00     0.027 H 
ATOM     19  H   LIG d   1       1.530   0.067 -11.239  0.00  0.00     0.029 H 
ATOM     20  H   LIG d   1       0.193  -0.999 -10.735  0.00  0.00     0.029 H 
ATOM     21  H   LIG d   1       5.660  -0.528 -10.670  0.00  0.00     0.032 H 
ATOM     22  H   LIG d   1       6.048  -2.198 -10.184  0.00  0.00     0.032 H 
ENDROOT
BRANCH  15  23
ATOM     23  C   LIG d   1       3.022   0.816  -7.058  0.00  0.00     0.033 C 
ATOM     24  H   LIG d   1       3.696   1.657  -7.218  0.00  0.00     0.036 H 
ATOM     25  H   LIG d   1       2.057   1.031  -7.515  0.00  0.00     0.036 H 
BRANCH  23  26
ATOM     26  C   LIG d   1       2.839   0.594  -5.578  0.00  0.00     0.214 C 
ATOM     27  O   LIG d   1       2.563   1.527  -4.854  0.00  0.00    -0.276 OA
ATOM     28  N   LIG d   1       2.982  -0.642  -5.059  0.00  0.00    -0.310 N 
ATOM     29  H   LIG d   1       3.202  -1.389  -5.638  0.00  0.00     0.149 HD
BRANCH  28  30
ATOM     30  C   LIG d   1       2.803  -0.857  -3.621  0.00  0.00     0.052 C 
ATOM     31  H   LIG d   1       3.029   0.065  -3.085  0.00  0.00     0.051 H 
ATOM     32  H   LIG d   1       1.772  -1.151  -3.423  0.00  0.00     0.051 H 
BRANCH  30  33
ATOM     33  C   LIG d   1       3.748  -1.964  -3.150  0.00  0.00    -0.017 C 
ATOM     34  H   LIG d   1       3.972  -1.825  -2.092  0.00  0.00     0.083 H 
ATOM     35  H   LIG d   1       3.275  -2.934  -3.297  0.00  0.00     0.083 H 
BRANCH  33  36
ATOM     36  N   LIG d   1       4.988  -1.906  -3.953  0.00  0.00     0.232 N 
ATOM     37  H   LIG d   1       4.887  -1.176  -4.669  0.00  0.00     0.203 HD
BRANCH  36  38
ATOM     38  C   LIG d   1       6.137  -1.573  -3.085  0.00  0.00    -0.043 C 
ATOM     39  H   LIG d   1       5.988  -1.973  -2.083  0.00  0.00     0.078 H 
ATOM     40  H   LIG d   1       7.043  -2.000  -3.517  0.00  0.00     0.078 H 
ATOM     41  H   LIG d   1       6.238  -0.489  -3.033  0.00  0.00     0.078 H 
ENDBRANCH  36  38
BRANCH  36  42
ATOM     42  C   LIG d   1       5.220  -3.204  -4.622  0.00  0.00    -0.043 C 
ATOM     43  H   LIG d   1       5.907  -3.795  -4.017  0.00  0.00     0.078 H 
ATOM     44  H   LIG d   1       4.270  -3.730  -4.713  0.00  0.00     0.078 H 
ATOM     45  H   LIG d   1       5.648  -3.052  -5.613  0.00  0.00     0.078 H 
ENDBRANCH  36  42
ENDBRANCH  33  36
ENDBRANCH  30  33
ENDBRANCH  28  30
ENDBRANCH  23  26
ENDBRANCH  15  23
BRANCH   1  46
ATOM     46  C   LIG d   1       3.605   0.835  -9.845  0.00  0.00    -0.059 C 
ATOM     47  H   LIG d   1       4.335   0.656 -10.635  0.00  0.00     0.024 H 
ATOM     48  H   LIG d   1       2.709   1.285 -10.274  0.00  0.00     0.024 H 
ATOM     49  H   LIG d   1       4.031   1.508  -9.103  0.00  0.00     0.024 H 
ENDBRANCH   1  46
BRANCH   6  50
ATOM     50  C   LIG d   1       4.210  -2.962 -11.978  0.00  0.00    -0.055 C 
ATOM     51  H   LIG d   1       3.631  -3.874 -11.831  0.00  0.00     0.024 H 
ATOM     52  H   LIG d   1       4.318  -2.768 -13.046  0.00  0.00     0.024 H 
ATOM     53  H   LIG d   1       5.197  -3.083 -11.530  0.00  0.00     0.024 H 
ENDBRANCH   6  50
BRANCH   6  54
ATOM     54  C   LIG d   1       3.796  -0.503 -12.092  0.00  0.00     0.052 C 
ATOM     55  H   LIG d   1       2.972   0.200 -11.971  0.00  0.00     0.056 H 
ATOM     56  H   LIG d   1       4.714  -0.059 -11.708  0.00  0.00     0.056 H 
BRANCH  54  57
ATOM     57  O   LIG d   1       3.960  -0.811 -13.478  0.00  0.00    -0.394 OA
ATOM     58  H   LIG d   1       4.728  -1.367 -13.669  0.00  0.00     0.209 HD
ENDBRANCH  54  57
ENDBRANCH   6  54
BRANCH  13  59
ATOM     59  N   LIG d   1       7.888   0.379  -5.306  0.00  0.00    -0.265 N 
ATOM     60  C   LIG d   1       8.319   1.653  -5.212  0.00  0.00     0.219 C 
ATOM     61  O   LIG d   1       8.003   2.463  -6.057  0.00  0.00    -0.275 OA
ATOM     62  H   LIG d   1       8.141  -0.270  -4.631  0.00  0.00     0.157 HD
BRANCH  60  63
ATOM     63  C   LIG d   1       9.192   2.069  -4.057  0.00  0.00     0.029 C 
ATOM     64  H   LIG d   1       8.828   3.012  -3.648  0.00  0.00     0.036 H 
ATOM     65  H   LIG d   1       9.162   1.302  -3.283  0.00  0.00     0.036 H 
BRANCH  63  66
ATOM     66  C   LIG d   1      10.631   2.247  -4.544  0.00  0.00    -0.029 C 
BRANCH  66  67
ATOM     67  C   LIG d   1      10.783   3.623  -5.198  0.00  0.00    -0.060 C 
ATOM     68  H   LIG d   1      10.872   4.384  -4.423  0.00  0.00     0.024 H 
ATOM     69  H   LIG d   1      11.676   3.632  -5.822  0.00  0.00     0.024 H 
ATOM     70  H   LIG d   1       9.908   3.830  -5.813  0.00  0.00     0.024 H 
ENDBRANCH  66  67
BRANCH  66  71
ATOM     71  C   LIG d   1      11.589   2.138  -3.357  0.00  0.00    -0.060 C 
ATOM     72  H   LIG d   1      11.373   1.229  -2.797  0.00  0.00     0.024 H 
ATOM     73  H   LIG d   1      12.617   2.106  -3.720  0.00  0.00     0.024 H 
ATOM     74  H   LIG d   1      11.462   3.004  -2.706  0.00  0.00     0.024 H 
ENDBRANCH  66  71
BRANCH  66  75
ATOM     75  C   LIG d   1      10.961   1.158  -5.567  0.00  0.00    -0.060 C 
ATOM     76  H   LIG d   1      10.116   0.474  -5.654  0.00  0.00     0.024 H 
ATOM     77  H   LIG d   1      11.158   1.617  -6.536  0.00  0.00     0.024 H 
ATOM     78  H   LIG d   1      11.843   0.608  -5.240  0.00  0.00     0.024 H 
ENDBRANCH  66  75
ENDBRANCH  63  66
ENDBRANCH  60  63
ENDBRANCH  13  59
BRANCH   4  79
ATOM     79  O   LIG d   1       1.544  -2.188 -12.695  0.00  0.00    -0.391 OA
ATOM     80  H   LIG d   1       2.255  -2.127 -13.348  0.00  0.00     0.210 HD
ENDBRANCH   4  79
TORSDOF 18
ENDMDL
MODEL 5
REMARK VINA RESULT:      -5.2      1.648      2.236
REMARK  18 active torsions:
REMARK  status: ('A' for Active; 'I' for Inactive)
REMARK    1  A    between atoms: C_1  and  C_2 
REMARK    2  A    between atoms: C_5  and  O_37 
REMARK    3  A    between atoms: C_7  and  C_34 
REMARK    4  A    between atoms: C_7  and  C_35 
REMARK    5  A    between atoms: C_14  and  N_16 
REMARK       I    between atoms: N_16  and  C_17 
REMARK    6  A    between atoms: C_17  and  C_19 
REMARK    7  A    between atoms: C_19  and  C_20 
REMARK    8  A    between atoms: C_20  and  C_21 
REMARK    9  A    between atoms: C_20  and  C_22 
REMARK   10  A    between atoms: C_20  and  C_23 
REMARK   11  A    between atoms: C_24  and  C_26 
REMARK   12  A    between atoms: C_26  and  C_27 
REMARK       I    between atoms: C_27  and  N_29 
REMARK   13  A    between atoms: N_29  and  C_30 
REMARK   14  A    between atoms: C_30  and  C_31 
REMARK   15  A    between atoms: C_31  and  N_79 
REMARK   16  A    between atoms: C_32  and  N_79 
REMARK   17  A    between atoms: C_33  and  N_79 
REMARK   18  A    between atoms: C_35  and  O_36 
ROOT
ATOM      1  C   LIG d   1      10.493   4.782  -7.010  0.00  0.00    -0.019 C 
ATOM      2  C   LIG d   1      11.107   6.124  -6.597  0.00  0.00    -0.044 C 
ATOM      3  C   LIG d   1      11.788   6.795  -7.771  0.00  0.00    -0.026 C 
ATOM      4  C   LIG d   1      10.752   7.046  -8.871  0.00  0.00     0.063 C 
ATOM      5  H   LIG d   1       9.947   7.668  -8.481  0.00  0.00     0.060 H 
ATOM      6  C   LIG d   1      10.185   5.703  -9.327  0.00  0.00     0.021 C 
ATOM      7  C   LIG d   1       9.501   4.987  -8.157  0.00  0.00    -0.021 C 
ATOM      8  H   LIG d   1       8.648   5.570  -7.812  0.00  0.00     0.032 H 
ATOM      9  C   LIG d   1       9.029   3.610  -8.663  0.00  0.00    -0.016 C 
ATOM     10  C   LIG d   1       8.678   2.758  -7.494  0.00  0.00     0.015 A 
ATOM     11  C   LIG d   1       8.984   2.972  -6.189  0.00  0.00     0.058 A 
ATOM     12  N   LIG d   1       8.554   2.050  -5.330  0.00  0.00    -0.229 NA
ATOM     13  C   LIG d   1       7.871   0.994  -5.718  0.00  0.00     0.165 A 
ATOM     14  S   LIG d   1       7.776   1.233  -7.438  0.00  0.00    -0.057 SA
ATOM     15  C   LIG d   1       9.772   4.208  -5.783  0.00  0.00     0.016 C 
ATOM     16  H   LIG d   1       9.090   4.957  -5.379  0.00  0.00     0.037 H 
ATOM     17  H   LIG d   1      10.320   6.784  -6.233  0.00  0.00     0.027 H 
ATOM     18  H   LIG d   1      11.833   5.959  -5.800  0.00  0.00     0.027 H 
ATOM     19  H   LIG d   1      12.574   6.142  -8.150  0.00  0.00     0.029 H 
ATOM     20  H   LIG d   1      12.221   7.744  -7.453  0.00  0.00     0.029 H 
ATOM     21  H   LIG d   1       9.828   3.137  -9.232  0.00  0.00     0.032 H 
ATOM     22  H   LIG d   1       8.152   3.736  -9.298  0.00  0.00     0.032 H 
ENDROOT
BRANCH  15  23
ATOM     23  C   LIG d   1      10.802   3.829  -4.717  0.00  0.00     0.033 C 
ATOM     24  H   LIG d   1      10.888   2.744  -4.663  0.00  0.00     0.036 H 
ATOM     25  H   LIG d   1      11.769   4.258  -4.979  0.00  0.00     0.036 H 
BRANCH  23  26
ATOM     26  C   LIG d   1      10.361   4.365  -3.380  0.00  0.00     0.214 C 
ATOM     27  O   LIG d   1       9.606   3.717  -2.685  0.00  0.00    -0.276 OA
ATOM     28  N   LIG d   1      10.805   5.564  -2.954  0.00  0.00    -0.310 N 
ATOM     29  H   LIG d   1      11.409   6.083  -3.509  0.00  0.00     0.149 HD
BRANCH  28  30
ATOM     30  C   LIG d   1      10.376   6.085  -1.653  0.00  0.00     0.052 C 
ATOM     31  H   LIG d   1       9.960   5.273  -1.056  0.00  0.00     0.051 H 
ATOM     32  H   LIG d   1      11.232   6.516  -1.134  0.00  0.00     0.051 H 
BRANCH  30  33
ATOM     33  C   LIG d   1       9.310   7.162  -1.861  0.00  0.00    -0.017 C 
ATOM     34  H   LIG d   1       8.984   7.153  -2.902  0.00  0.00     0.083 H 
ATOM     35  H   LIG d   1       8.458   6.962  -1.212  0.00  0.00     0.083 H 
BRANCH  33  36
ATOM     36  N   LIG d   1       9.886   8.477  -1.511  0.00  0.00     0.232 N 
ATOM     37  H   LIG d   1      10.693   8.333  -0.893  0.00  0.00     0.203 HD
BRANCH  36  38
ATOM     38  C   LIG d   1      10.336   9.174  -2.735  0.00  0.00    -0.043 C 
ATOM     39  H   LIG d   1      10.211   8.533  -3.607  0.00  0.00     0.078 H 
ATOM     40  H   LIG d   1       9.745  10.082  -2.862  0.00  0.00     0.078 H 
ATOM     41  H   LIG d   1      11.387   9.438  -2.625  0.00  0.00     0.078 H 
ENDBRANCH  36  38
BRANCH  36  42
ATOM     42  C   LIG d   1       8.880   9.297  -0.803  0.00  0.00    -0.043 C 
ATOM     43  H   LIG d   1       7.888   8.896  -1.009  0.00  0.00     0.078 H 
ATOM     44  H   LIG d   1       9.076   9.252   0.268  0.00  0.00     0.078 H 
ATOM     45  H   LIG d   1       8.928  10.334  -1.138  0.00  0.00     0.078 H 
ENDBRANCH  36  42
ENDBRANCH  33  36
ENDBRANCH  30  33
ENDBRANCH  28  30
ENDBRANCH  23  26
ENDBRANCH  15  23
BRANCH   1  46
ATOM     46  C   LIG d   1      11.597   3.819  -7.452  0.00  0.00    -0.059 C 
ATOM     47  H   LIG d   1      11.693   3.851  -8.537  0.00  0.00     0.024 H 
ATOM     48  H   LIG d   1      12.541   4.114  -6.994  0.00  0.00     0.024 H 
ATOM     49  H   LIG d   1      11.342   2.807  -7.140  0.00  0.00     0.024 H 
ENDBRANCH   1  46
BRANCH   6  50
ATOM     50  C   LIG d   1       9.167   5.936 -10.443  0.00  0.00    -0.055 C 
ATOM     51  H   LIG d   1       8.806   4.976 -10.813  0.00  0.00     0.024 H 
ATOM     52  H   LIG d   1       8.328   6.514 -10.055  0.00  0.00     0.024 H 
ATOM     53  H   LIG d   1       9.639   6.485 -11.258  0.00  0.00     0.024 H 
ENDBRANCH   6  50
BRANCH   6  54
ATOM     54  C   LIG d   1      11.326   4.830  -9.856  0.00  0.00     0.052 C 
ATOM     55  H   LIG d   1      12.238   5.047  -9.299  0.00  0.00     0.056 H 
ATOM     56  H   LIG d   1      11.066   3.779  -9.733  0.00  0.00     0.056 H 
BRANCH  54  57
ATOM     57  O   LIG d   1      11.536   5.110 -11.242  0.00  0.00    -0.394 OA
ATOM     58  H   LIG d   1      11.641   4.321 -11.790  0.00  0.00     0.209 HD
ENDBRANCH  54  57
ENDBRANCH   6  54
BRANCH  13  59
ATOM     59  N   LIG d   1       7.358  -0.045  -4.952  0.00  0.00    -0.265 N 
ATOM     60  C   LIG d   1       6.626   0.225  -3.853  0.00  0.00     0.219 C 
ATOM     61  O   LIG d   1       6.413   1.376  -3.534  0.00  0.00    -0.275 OA
ATOM     62  H   LIG d   1       7.528  -0.966  -5.207  0.00  0.00     0.157 HD
BRANCH  60  63
ATOM     63  C   LIG d   1       6.070  -0.902  -3.021  0.00  0.00     0.029 C 
ATOM     64  H   LIG d   1       6.261  -1.851  -3.522  0.00  0.00     0.036 H 
ATOM     65  H   LIG d   1       6.552  -0.904  -2.043  0.00  0.00     0.036 H 
BRANCH  63  66
ATOM     66  C   LIG d   1       4.562  -0.712  -2.846  0.00  0.00    -0.029 C 
BRANCH  66  67
ATOM     67  C   LIG d   1       3.937  -2.017  -2.349  0.00  0.00    -0.060 C 
ATOM     68  H   LIG d   1       2.993  -1.800  -1.850  0.00  0.00     0.024 H 
ATOM     69  H   LIG d   1       3.758  -2.680  -3.195  0.00  0.00     0.024 H 
ATOM     70  H   LIG d   1       4.617  -2.500  -1.647  0.00  0.00     0.024 H 
ENDBRANCH  66  67
BRANCH  66  71
ATOM     71  C   LIG d   1       4.303   0.399  -1.828  0.00  0.00    -0.060 C 
ATOM     72  H   LIG d   1       4.419   1.370  -2.310  0.00  0.00     0.024 H 
ATOM     73  H   LIG d   1       3.288   0.306  -1.439  0.00  0.00     0.024 H 
ATOM     74  H   LIG d   1       5.015   0.313  -1.007  0.00  0.00     0.024 H 
ENDBRANCH  66  71
BRANCH  66  75
ATOM     75  C   LIG d   1       3.939  -0.328  -4.190  0.00  0.00    -0.060 C 
ATOM     76  H   LIG d   1       3.418   0.624  -4.090  0.00  0.00     0.024 H 
ATOM     77  H   LIG d   1       4.725  -0.235  -4.941  0.00  0.00     0.024 H 
ATOM     78  H   LIG d   1       3.233  -1.099  -4.497  0.00  0.00     0.024 H 
ENDBRANCH  66  75
ENDBRANCH  63  66
ENDBRANCH  60  63
ENDBRANCH  13  59
BRANCH   4  79
ATOM     79  O   LIG d   1      11.376   7.703  -9.976  0.00  0.00    -0.391 OA
ATOM     80  H   LIG d   1      12.186   8.177  -9.744  0.00  0.00     0.210 HD
ENDBRANCH   4  79
TORSDOF 18
ENDMDL
MODEL 6
REMARK VINA RESULT:      -5.1      3.312      8.603
REMARK  18 active torsions:
REMARK  status: ('A' for Active; 'I' for Inactive)
REMARK    1  A    between atoms: C_1  and  C_2 
REMARK    2  A    between atoms: C_5  and  O_37 
REMARK    3  A    between atoms: C_7  and  C_34 
REMARK    4  A    between atoms: C_7  and  C_35 
REMARK    5  A    between atoms: C_14  and  N_16 
REMARK       I    between atoms: N_16  and  C_17 
REMARK    6  A    between atoms: C_17  and  C_19 
REMARK    7  A    between atoms: C_19  and  C_20 
REMARK    8  A    between atoms: C_20  and  C_21 
REMARK    9  A    between atoms: C_20  and  C_22 
REMARK   10  A    between atoms: C_20  and  C_23 
REMARK   11  A    between atoms: C_24  and  C_26 
REMARK   12  A    between atoms: C_26  and  C_27 
REMARK       I    between atoms: C_27  and  N_29 
REMARK   13  A    between atoms: N_29  and  C_30 
REMARK   14  A    between atoms: C_30  and  C_31 
REMARK   15  A    between atoms: C_31  and  N_79 
REMARK   16  A    between atoms: C_32  and  N_79 
REMARK   17  A    between atoms: C_33  and  N_79 
REMARK   18  A    between atoms: C_35  and  O_36 
ROOT
ATOM      1  C   LIG d   1      10.471   6.399  -3.419  0.00  0.00    -0.019 C 
ATOM      2  C   LIG d   1      10.323   5.190  -2.489  0.00  0.00    -0.044 C 
ATOM      3  C   LIG d   1      10.919   5.475  -1.126  0.00  0.00    -0.026 C 
ATOM      4  C   LIG d   1      10.188   6.668  -0.503  0.00  0.00     0.063 C 
ATOM      5  H   LIG d   1       9.125   6.445  -0.422  0.00  0.00     0.060 H 
ATOM      6  C   LIG d   1      10.389   7.889  -1.399  0.00  0.00     0.021 C 
ATOM      7  C   LIG d   1       9.810   7.629  -2.793  0.00  0.00    -0.021 C 
ATOM      8  H   LIG d   1       8.733   7.480  -2.728  0.00  0.00     0.032 H 
ATOM      9  C   LIG d   1      10.119   8.861  -3.666  0.00  0.00    -0.016 C 
ATOM     10  C   LIG d   1       9.889   8.515  -5.095  0.00  0.00     0.015 A 
ATOM     11  C   LIG d   1       9.735   7.279  -5.634  0.00  0.00     0.058 A 
ATOM     12  N   LIG d   1       9.543   7.238  -6.952  0.00  0.00    -0.229 NA
ATOM     13  C   LIG d   1       9.502   8.328  -7.690  0.00  0.00     0.165 A 
ATOM     14  S   LIG d   1       9.748   9.578  -6.506  0.00  0.00    -0.057 SA
ATOM     15  C   LIG d   1       9.785   6.046  -4.745  0.00  0.00     0.016 C 
ATOM     16  H   LIG d   1       8.770   5.699  -4.549  0.00  0.00     0.037 H 
ATOM     17  H   LIG d   1       9.265   4.961  -2.360  0.00  0.00     0.027 H 
ATOM     18  H   LIG d   1      10.824   4.329  -2.933  0.00  0.00     0.027 H 
ATOM     19  H   LIG d   1      11.977   5.713  -1.241  0.00  0.00     0.029 H 
ATOM     20  H   LIG d   1      10.807   4.601  -0.485  0.00  0.00     0.029 H 
ATOM     21  H   LIG d   1      11.159   9.156  -3.526  0.00  0.00     0.032 H 
ATOM     22  H   LIG d   1       9.464   9.684  -3.380  0.00  0.00     0.032 H 
ENDROOT
BRANCH  15  23
ATOM     23  C   LIG d   1      10.574   4.941  -5.450  0.00  0.00     0.033 C 
ATOM     24  H   LIG d   1      11.031   5.340  -6.355  0.00  0.00     0.036 H 
ATOM     25  H   LIG d   1      11.352   4.569  -4.783  0.00  0.00     0.036 H 
BRANCH  23  26
ATOM     26  C   LIG d   1       9.643   3.812  -5.813  0.00  0.00     0.214 C 
ATOM     27  O   LIG d   1       9.411   3.568  -6.978  0.00  0.00    -0.276 OA
ATOM     28  N   LIG d   1       9.069   3.074  -4.843  0.00  0.00    -0.310 N 
ATOM     29  H   LIG d   1       9.254   3.269  -3.911  0.00  0.00     0.149 HD
BRANCH  28  30
ATOM     30  C   LIG d   1       8.164   1.976  -5.196  0.00  0.00     0.052 C 
ATOM     31  H   LIG d   1       7.327   2.368  -5.774  0.00  0.00     0.051 H 
ATOM     32  H   LIG d   1       8.704   1.238  -5.790  0.00  0.00     0.051 H 
BRANCH  30  33
ATOM     33  C   LIG d   1       7.639   1.318  -3.919  0.00  0.00    -0.017 C 
ATOM     34  H   LIG d   1       8.210   0.412  -3.716  0.00  0.00     0.083 H 
ATOM     35  H   LIG d   1       7.744   2.009  -3.084  0.00  0.00     0.083 H 
BRANCH  33  36
ATOM     36  N   LIG d   1       6.207   0.997  -4.103  0.00  0.00     0.232 N 
ATOM     37  H   LIG d   1       5.798   1.669  -4.763  0.00  0.00     0.203 HD
BRANCH  36  38
ATOM     38  C   LIG d   1       6.062  -0.367  -4.654  0.00  0.00    -0.043 C 
ATOM     39  H   LIG d   1       7.031  -0.862  -4.707  0.00  0.00     0.078 H 
ATOM     40  H   LIG d   1       5.395  -0.940  -4.009  0.00  0.00     0.078 H 
ATOM     41  H   LIG d   1       5.632  -0.300  -5.653  0.00  0.00     0.078 H 
ENDBRANCH  36  38
BRANCH  36  42
ATOM     42  C   LIG d   1       5.496   1.099  -2.811  0.00  0.00    -0.043 C 
ATOM     43  H   LIG d   1       5.286   2.149  -2.605  0.00  0.00     0.078 H 
ATOM     44  H   LIG d   1       4.559   0.547  -2.878  0.00  0.00     0.078 H 
ATOM     45  H   LIG d   1       6.105   0.686  -2.006  0.00  0.00     0.078 H 
ENDBRANCH  36  42
ENDBRANCH  33  36
ENDBRANCH  30  33
ENDBRANCH  28  30
ENDBRANCH  23  26
ENDBRANCH  15  23
BRANCH   1  46
ATOM     46  C   LIG d   1      11.953   6.684  -3.670  0.00  0.00    -0.059 C 
ATOM     47  H   LIG d   1      12.083   7.738  -3.916  0.00  0.00     0.024 H 
ATOM     48  H   LIG d   1      12.525   6.448  -2.772  0.00  0.00     0.024 H 
ATOM     49  H   LIG d   1      12.306   6.071  -4.498  0.00  0.00     0.024 H 
ENDBRANCH   1  46
BRANCH   6  50
ATOM     50  C   LIG d   1       9.685   9.095  -0.775  0.00  0.00    -0.055 C 
ATOM     51  H   LIG d   1       9.290   9.734  -1.565  0.00  0.00     0.024 H 
ATOM     52  H   LIG d   1       8.866   8.751  -0.142  0.00  0.00     0.024 H 
ATOM     53  H   LIG d   1      10.396   9.660  -0.173  0.00  0.00     0.024 H 
ENDBRANCH   6  50
BRANCH   6  54
ATOM     54  C   LIG d   1      11.886   8.183  -1.519  0.00  0.00     0.052 C 
ATOM     55  H   LIG d   1      12.446   7.251  -1.448  0.00  0.00     0.056 H 
ATOM     56  H   LIG d   1      12.087   8.656  -2.481  0.00  0.00     0.056 H 
BRANCH  54  57
ATOM     57  O   LIG d   1      12.285   9.061  -0.464  0.00  0.00    -0.394 OA
ATOM     58  H   LIG d   1      12.432   9.973  -0.747  0.00  0.00     0.209 HD
ENDBRANCH  54  57
ENDBRANCH   6  54
BRANCH  13  59
ATOM     59  N   LIG d   1       9.312   8.448  -9.060  0.00  0.00    -0.265 N 
ATOM     60  C   LIG d   1      10.343   8.244  -9.905  0.00  0.00     0.219 C 
ATOM     61  O   LIG d   1      11.436   7.955  -9.468  0.00  0.00    -0.275 OA
ATOM     62  H   LIG d   1       8.437   8.679  -9.410  0.00  0.00     0.157 HD
BRANCH  60  63
ATOM     63  C   LIG d   1      10.136   8.376 -11.392  0.00  0.00     0.029 C 
ATOM     64  H   LIG d   1       9.249   8.981 -11.583  0.00  0.00     0.036 H 
ATOM     65  H   LIG d   1      11.007   8.856 -11.839  0.00  0.00     0.036 H 
BRANCH  63  66
ATOM     66  C   LIG d   1       9.947   6.987 -12.005  0.00  0.00    -0.029 C 
BRANCH  66  67
ATOM     67  C   LIG d   1       9.112   6.121 -11.060  0.00  0.00    -0.060 C 
ATOM     68  H   LIG d   1       9.663   5.212 -10.817  0.00  0.00     0.024 H 
ATOM     69  H   LIG d   1       8.905   6.676 -10.146  0.00  0.00     0.024 H 
ATOM     70  H   LIG d   1       8.172   5.857 -11.545  0.00  0.00     0.024 H 
ENDBRANCH  66  67
BRANCH  66  71
ATOM     71  C   LIG d   1       9.227   7.116 -13.348  0.00  0.00    -0.060 C 
ATOM     72  H   LIG d   1       8.368   6.446 -13.367  0.00  0.00     0.024 H 
ATOM     73  H   LIG d   1       8.888   8.144 -13.482  0.00  0.00     0.024 H 
ATOM     74  H   LIG d   1       9.912   6.852 -14.155  0.00  0.00     0.024 H 
ENDBRANCH  66  71
BRANCH  66  75
ATOM     75  C   LIG d   1      11.314   6.335 -12.220  0.00  0.00    -0.060 C 
ATOM     76  H   LIG d   1      11.266   5.661 -13.075  0.00  0.00     0.024 H 
ATOM     77  H   LIG d   1      12.060   7.109 -12.408  0.00  0.00     0.024 H 
ATOM     78  H   LIG d   1      11.593   5.772 -11.329  0.00  0.00     0.024 H 
ENDBRANCH  66  75
ENDBRANCH  63  66
ENDBRANCH  60  63
ENDBRANCH  13  59
BRANCH   4  79
ATOM     79  O   LIG d   1      10.724   6.933   0.795  0.00  0.00    -0.391 OA
ATOM     80  H   LIG d   1      10.237   7.605   1.292  0.00  0.00     0.210 HD
ENDBRANCH   4  79
TORSDOF 18
ENDMDL
MODEL 7
REMARK VINA RESULT:      -5.1      4.679      7.780
REMARK  18 active torsions:
REMARK  status: ('A' for Active; 'I' for Inactive)
REMARK    1  A    between atoms: C_1  and  C_2 
REMARK    2  A    between atoms: C_5  and  O_37 
REMARK    3  A    between atoms: C_7  and  C_34 
REMARK    4  A    between atoms: C_7  and  C_35 
REMARK    5  A    between atoms: C_14  and  N_16 
REMARK       I    between atoms: N_16  and  C_17 
REMARK    6  A    between atoms: C_17  and  C_19 
REMARK    7  A    between atoms: C_19  and  C_20 
REMARK    8  A    between atoms: C_20  and  C_21 
REMARK    9  A    between atoms: C_20  and  C_22 
REMARK   10  A    between atoms: C_20  and  C_23 
REMARK   11  A    between atoms: C_24  and  C_26 
REMARK   12  A    between atoms: C_26  and  C_27 
REMARK       I    between atoms: C_27  and  N_29 
REMARK   13  A    between atoms: N_29  and  C_30 
REMARK   14  A    between atoms: C_30  and  C_31 
REMARK   15  A    between atoms: C_31  and  N_79 
REMARK   16  A    between atoms: C_32  and  N_79 
REMARK   17  A    between atoms: C_33  and  N_79 
REMARK   18  A    between atoms: C_35  and  O_36 
ROOT
ATOM      1  C   LIG d   1      10.399   6.176  -4.448  0.00  0.00    -0.019 C 
ATOM      2  C   LIG d   1      10.350   6.994  -3.153  0.00  0.00    -0.044 C 
ATOM      3  C   LIG d   1      10.380   6.091  -1.937  0.00  0.00    -0.026 C 
ATOM      4  C   LIG d   1      11.677   5.276  -1.954  0.00  0.00     0.063 C 
ATOM      5  H   LIG d   1      12.533   5.949  -1.959  0.00  0.00     0.060 H 
ATOM      6  C   LIG d   1      11.697   4.413  -3.215  0.00  0.00     0.021 C 
ATOM      7  C   LIG d   1      11.651   5.296  -4.467  0.00  0.00    -0.021 C 
ATOM      8  H   LIG d   1      12.544   5.918  -4.516  0.00  0.00     0.032 H 
ATOM      9  C   LIG d   1      11.590   4.365  -5.693  0.00  0.00    -0.016 C 
ATOM     10  C   LIG d   1      11.199   5.161  -6.888  0.00  0.00     0.015 A 
ATOM     11  C   LIG d   1      10.676   6.413  -6.916  0.00  0.00     0.058 A 
ATOM     12  N   LIG d   1      10.406   6.907  -8.123  0.00  0.00    -0.229 NA
ATOM     13  C   LIG d   1      10.634   6.225  -9.226  0.00  0.00     0.165 A 
ATOM     14  S   LIG d   1      11.287   4.737  -8.607  0.00  0.00    -0.057 SA
ATOM     15  C   LIG d   1      10.432   7.168  -5.617  0.00  0.00     0.016 C 
ATOM     16  H   LIG d   1      11.235   7.889  -5.461  0.00  0.00     0.037 H 
ATOM     17  H   LIG d   1      11.215   7.656  -3.110  0.00  0.00     0.027 H 
ATOM     18  H   LIG d   1       9.439   7.593  -3.139  0.00  0.00     0.027 H 
ATOM     19  H   LIG d   1       9.524   5.417  -1.970  0.00  0.00     0.029 H 
ATOM     20  H   LIG d   1      10.338   6.694  -1.029  0.00  0.00     0.029 H 
ATOM     21  H   LIG d   1      10.852   3.582  -5.520  0.00  0.00     0.032 H 
ATOM     22  H   LIG d   1      12.569   3.916  -5.859  0.00  0.00     0.032 H 
ENDROOT
BRANCH  15  23
ATOM     23  C   LIG d   1       9.094   7.905  -5.699  0.00  0.00     0.033 C 
ATOM     24  H   LIG d   1       8.617   7.689  -6.655  0.00  0.00     0.036 H 
ATOM     25  H   LIG d   1       8.447   7.573  -4.887  0.00  0.00     0.036 H 
BRANCH  23  26
ATOM     26  C   LIG d   1       9.329   9.388  -5.579  0.00  0.00     0.214 C 
ATOM     27  O   LIG d   1       9.771  10.010  -6.522  0.00  0.00    -0.276 OA
ATOM     28  N   LIG d   1       9.049  10.024  -4.425  0.00  0.00    -0.310 N 
ATOM     29  H   LIG d   1       8.695   9.527  -3.671  0.00  0.00     0.149 HD
BRANCH  28  30
ATOM     30  C   LIG d   1       9.277  11.467  -4.309  0.00  0.00     0.052 C 
ATOM     31  H   LIG d   1      10.307  11.648  -4.001  0.00  0.00     0.051 H 
ATOM     32  H   LIG d   1       9.097  11.942  -5.273  0.00  0.00     0.051 H 
BRANCH  30  33
ATOM     33  C   LIG d   1       8.324  12.052  -3.265  0.00  0.00    -0.017 C 
ATOM     34  H   LIG d   1       7.483  12.529  -3.769  0.00  0.00     0.083 H 
ATOM     35  H   LIG d   1       7.955  11.254  -2.621  0.00  0.00     0.083 H 
BRANCH  33  36
ATOM     36  N   LIG d   1       9.060  13.035  -2.444  0.00  0.00     0.232 N 
ATOM     37  H   LIG d   1       8.888  12.836  -1.451  0.00  0.00     0.203 HD
BRANCH  36  38
ATOM     38  C   LIG d   1      10.511  12.931  -2.710  0.00  0.00    -0.043 C 
ATOM     39  H   LIG d   1      11.053  12.715  -1.789  0.00  0.00     0.078 H 
ATOM     40  H   LIG d   1      10.682  12.129  -3.429  0.00  0.00     0.078 H 
ATOM     41  H   LIG d   1      10.862  13.874  -3.127  0.00  0.00     0.078 H 
ENDBRANCH  36  38
BRANCH  36  42
ATOM     42  C   LIG d   1       8.588  14.403  -2.748  0.00  0.00    -0.043 C 
ATOM     43  H   LIG d   1       9.297  15.121  -2.335  0.00  0.00     0.078 H 
ATOM     44  H   LIG d   1       8.532  14.527  -3.829  0.00  0.00     0.078 H 
ATOM     45  H   LIG d   1       7.604  14.573  -2.310  0.00  0.00     0.078 H 
ENDBRANCH  36  42
ENDBRANCH  33  36
ENDBRANCH  30  33
ENDBRANCH  28  30
ENDBRANCH  23  26
ENDBRANCH  15  23
BRANCH   1  46
ATOM     46  C   LIG d   1       9.152   5.297  -4.556  0.00  0.00    -0.059 C 
ATOM     47  H   LIG d   1       8.916   4.879  -3.578  0.00  0.00     0.024 H 
ATOM     48  H   LIG d   1       8.313   5.899  -4.906  0.00  0.00     0.024 H 
ATOM     49  H   LIG d   1       9.338   4.488  -5.261  0.00  0.00     0.024 H 
ENDBRANCH   1  46
BRANCH   6  50
ATOM     50  C   LIG d   1      12.975   3.574  -3.233  0.00  0.00    -0.055 C 
ATOM     51  H   LIG d   1      13.843   4.234  -3.278  0.00  0.00     0.024 H 
ATOM     52  H   LIG d   1      13.026   2.969  -2.328  0.00  0.00     0.024 H 
ATOM     53  H   LIG d   1      12.970   2.921  -4.106  0.00  0.00     0.024 H 
ENDBRANCH   6  50
BRANCH   6  54
ATOM     54  C   LIG d   1      10.481   3.483  -3.207  0.00  0.00     0.052 C 
ATOM     55  H   LIG d   1       9.603   4.036  -2.872  0.00  0.00     0.056 H 
ATOM     56  H   LIG d   1      10.309   3.102  -4.213  0.00  0.00     0.056 H 
BRANCH  54  57
ATOM     57  O   LIG d   1      10.723   2.390  -2.318  0.00  0.00    -0.394 OA
ATOM     58  H   LIG d   1      11.556   2.457  -1.832  0.00  0.00     0.209 HD
ENDBRANCH  54  57
ENDBRANCH   6  54
BRANCH  13  59
ATOM     59  N   LIG d   1      10.409   6.598 -10.546  0.00  0.00    -0.265 N 
ATOM     60  C   LIG d   1       9.253   6.265 -11.153  0.00  0.00     0.219 C 
ATOM     61  O   LIG d   1       8.408   5.641 -10.548  0.00  0.00    -0.275 OA
ATOM     62  H   LIG d   1      11.086   7.097 -11.030  0.00  0.00     0.157 HD
BRANCH  60  63
ATOM     63  C   LIG d   1       9.010   6.669 -12.585  0.00  0.00     0.029 C 
ATOM     64  H   LIG d   1       7.939   6.649 -12.791  0.00  0.00     0.036 H 
ATOM     65  H   LIG d   1       9.394   7.676 -12.748  0.00  0.00     0.036 H 
BRANCH  63  66
ATOM     66  C   LIG d   1       9.727   5.691 -13.519  0.00  0.00    -0.029 C 
BRANCH  66  67
ATOM     67  C   LIG d   1      10.139   4.444 -12.734  0.00  0.00    -0.060 C 
ATOM     68  H   LIG d   1      10.400   4.727 -11.714  0.00  0.00     0.024 H 
ATOM     69  H   LIG d   1       9.311   3.737 -12.714  0.00  0.00     0.024 H 
ATOM     70  H   LIG d   1      11.001   3.981 -13.215  0.00  0.00     0.024 H 
ENDBRANCH  66  67
BRANCH  66  71
ATOM     71  C   LIG d   1       8.786   5.290 -14.656  0.00  0.00    -0.060 C 
ATOM     72  H   LIG d   1       8.478   4.253 -14.525  0.00  0.00     0.024 H 
ATOM     73  H   LIG d   1       7.906   5.934 -14.644  0.00  0.00     0.024 H 
ATOM     74  H   LIG d   1       9.302   5.398 -15.610  0.00  0.00     0.024 H 
ENDBRANCH  66  71
BRANCH  66  75
ATOM     75  C   LIG d   1      10.972   6.363 -14.100  0.00  0.00    -0.060 C 
ATOM     76  H   LIG d   1      11.013   6.185 -15.175  0.00  0.00     0.024 H 
ATOM     77  H   LIG d   1      10.928   7.436 -13.910  0.00  0.00     0.024 H 
ATOM     78  H   LIG d   1      11.863   5.948 -13.628  0.00  0.00     0.024 H 
ENDBRANCH  66  75
ENDBRANCH  63  66
ENDBRANCH  60  63
ENDBRANCH  13  59
BRANCH   4  79
ATOM     79  O   LIG d   1      11.731   4.437  -0.798  0.00  0.00    -0.391 OA
ATOM     80  H   LIG d   1      12.452   3.794  -0.813  0.00  0.00     0.210 HD
ENDBRANCH   4  79
TORSDOF 18
ENDMDL
MODEL 8
REMARK VINA RESULT:      -5.1      3.147      8.384
REMARK  18 active torsions:
REMARK  status: ('A' for Active; 'I' for Inactive)
REMARK    1  A    between atoms: C_1  and  C_2 
REMARK    2  A    between atoms: C_5  and  O_37 
REMARK    3  A    between atoms: C_7  and  C_34 
REMARK    4  A    between atoms: C_7  and  C_35 
REMARK    5  A    between atoms: C_14  and  N_16 
REMARK       I    between atoms: N_16  and  C_17 
REMARK    6  A    between atoms: C_17  and  C_19 
REMARK    7  A    between atoms: C_19  and  C_20 
REMARK    8  A    between atoms: C_20  and  C_21 
REMARK    9  A    between atoms: C_20  and  C_22 
REMARK   10  A    between atoms: C_20  and  C_23 
REMARK   11  A    between atoms: C_24  and  C_26 
REMARK   12  A    between atoms: C_26  and  C_27 
REMARK       I    between atoms: C_27  and  N_29 
REMARK   13  A    between atoms: N_29  and  C_30 
REMARK   14  A    between atoms: C_30  and  C_31 
REMARK   15  A    between atoms: C_31  and  N_79 
REMARK   16  A    between atoms: C_32  and  N_79 
REMARK   17  A    between atoms: C_33  and  N_79 
REMARK   18  A    between atoms: C_35  and  O_36 
ROOT
ATOM      1  C   LIG d   1      10.853   6.633  -2.137  0.00  0.00    -0.019 C 
ATOM      2  C   LIG d   1      10.766   5.550  -1.057  0.00  0.00    -0.044 C 
ATOM      3  C   LIG d   1      11.518   5.964   0.191  0.00  0.00    -0.026 C 
ATOM      4  C   LIG d   1      10.902   7.256   0.738  0.00  0.00     0.063 C 
ATOM      5  H   LIG d   1       9.847   7.094   0.957  0.00  0.00     0.060 H 
ATOM      6  C   LIG d   1      11.045   8.352  -0.316  0.00  0.00     0.021 C 
ATOM      7  C   LIG d   1      10.307   7.958  -1.600  0.00  0.00    -0.021 C 
ATOM      8  H   LIG d   1       9.239   7.869  -1.403  0.00  0.00     0.032 H 
ATOM      9  C   LIG d   1      10.561   9.064  -2.643  0.00  0.00    -0.016 C 
ATOM     10  C   LIG d   1      10.163   8.564  -3.987  0.00  0.00     0.015 A 
ATOM     11  C   LIG d   1       9.908   7.282  -4.353  0.00  0.00     0.058 A 
ATOM     12  N   LIG d   1       9.571   7.096  -5.628  0.00  0.00    -0.229 NA
ATOM     13  C   LIG d   1       9.486   8.093  -6.485  0.00  0.00     0.165 A 
ATOM     14  S   LIG d   1       9.904   9.460  -5.495  0.00  0.00    -0.057 SA
ATOM     15  C   LIG d   1      10.013   6.161  -3.331  0.00  0.00     0.016 C 
ATOM     16  H   LIG d   1       9.014   5.888  -2.988  0.00  0.00     0.037 H 
ATOM     17  H   LIG d   1       9.721   5.389  -0.790  0.00  0.00     0.027 H 
ATOM     18  H   LIG d   1      11.185   4.620  -1.443  0.00  0.00     0.027 H 
ATOM     19  H   LIG d   1      12.564   6.137  -0.063  0.00  0.00     0.029 H 
ATOM     20  H   LIG d   1      11.447   5.177   0.942  0.00  0.00     0.029 H 
ATOM     21  H   LIG d   1      11.619   9.323  -2.650  0.00  0.00     0.032 H 
ATOM     22  H   LIG d   1       9.970   9.944  -2.392  0.00  0.00     0.032 H 
ENDROOT
BRANCH  15  23
ATOM     23  C   LIG d   1      10.681   4.944  -3.975  0.00  0.00     0.033 C 
ATOM     24  H   LIG d   1      11.012   5.201  -4.981  0.00  0.00     0.036 H 
ATOM     25  H   LIG d   1      11.539   4.642  -3.376  0.00  0.00     0.036 H 
BRANCH  23  26
ATOM     26  C   LIG d   1       9.694   3.808  -4.046  0.00  0.00     0.214 C 
ATOM     27  O   LIG d   1       9.209   3.361  -3.027  0.00  0.00    -0.276 OA
ATOM     28  N   LIG d   1       9.349   3.288  -5.240  0.00  0.00    -0.310 N 
ATOM     29  H   LIG d   1       9.736   3.645  -6.055  0.00  0.00     0.149 HD
BRANCH  28  30
ATOM     30  C   LIG d   1       8.389   2.183  -5.309  0.00  0.00     0.052 C 
ATOM     31  H   LIG d   1       7.691   2.256  -4.474  0.00  0.00     0.051 H 
ATOM     32  H   LIG d   1       7.840   2.236  -6.249  0.00  0.00     0.051 H 
BRANCH  30  33
ATOM     33  C   LIG d   1       9.138   0.851  -5.230  0.00  0.00    -0.017 C 
ATOM     34  H   LIG d   1       9.184   0.402  -6.223  0.00  0.00     0.083 H 
ATOM     35  H   LIG d   1      10.149   1.023  -4.863  0.00  0.00     0.083 H 
BRANCH  33  36
ATOM     36  N   LIG d   1       8.427  -0.041  -4.291  0.00  0.00     0.232 N 
ATOM     37  H   LIG d   1       9.043  -0.243  -3.493  0.00  0.00     0.203 HD
BRANCH  36  38
ATOM     38  C   LIG d   1       7.201   0.619  -3.796  0.00  0.00    -0.043 C 
ATOM     39  H   LIG d   1       7.297   1.703  -3.862  0.00  0.00     0.078 H 
ATOM     40  H   LIG d   1       6.354   0.291  -4.400  0.00  0.00     0.078 H 
ATOM     41  H   LIG d   1       7.038   0.330  -2.758  0.00  0.00     0.078 H 
ENDBRANCH  36  38
BRANCH  36  42
ATOM     42  C   LIG d   1       8.082  -1.312  -4.963  0.00  0.00    -0.043 C 
ATOM     43  H   LIG d   1       8.767  -2.089  -4.623  0.00  0.00     0.078 H 
ATOM     44  H   LIG d   1       7.060  -1.586  -4.699  0.00  0.00     0.078 H 
ATOM     45  H   LIG d   1       8.162  -1.206  -6.045  0.00  0.00     0.078 H 
ENDBRANCH  36  42
ENDBRANCH  33  36
ENDBRANCH  30  33
ENDBRANCH  28  30
ENDBRANCH  23  26
ENDBRANCH  15  23
BRANCH   1  46
ATOM     46  C   LIG d   1      12.307   6.817  -2.575  0.00  0.00    -0.059 C 
ATOM     47  H   LIG d   1      12.853   7.358  -1.803  0.00  0.00     0.024 H 
ATOM     48  H   LIG d   1      12.766   5.840  -2.728  0.00  0.00     0.024 H 
ATOM     49  H   LIG d   1      12.338   7.382  -3.505  0.00  0.00     0.024 H 
ENDBRANCH   1  46
BRANCH   6  50
ATOM     50  C   LIG d   1      10.456   9.655   0.227  0.00  0.00    -0.055 C 
ATOM     51  H   LIG d   1      10.950  10.503  -0.248  0.00  0.00     0.024 H 
ATOM     52  H   LIG d   1       9.388   9.688   0.012  0.00  0.00     0.024 H 
ATOM     53  H   LIG d   1      10.610   9.703   1.306  0.00  0.00     0.024 H 
ENDBRANCH   6  50
BRANCH   6  54
ATOM     54  C   LIG d   1      12.529   8.559  -0.628  0.00  0.00     0.052 C 
ATOM     55  H   LIG d   1      13.057   7.610  -0.528  0.00  0.00     0.056 H 
ATOM     56  H   LIG d   1      12.637   8.930  -1.647  0.00  0.00     0.056 H 
BRANCH  54  57
ATOM     57  O   LIG d   1      13.080   9.509   0.286  0.00  0.00    -0.394 OA
ATOM     58  H   LIG d   1      12.659   9.507   1.156  0.00  0.00     0.209 HD
ENDBRANCH  54  57
ENDBRANCH   6  54
BRANCH  13  59
ATOM     59  N   LIG d   1       9.150   8.060  -7.832  0.00  0.00    -0.265 N 
ATOM     60  C   LIG d   1      10.112   7.904  -8.764  0.00  0.00     0.219 C 
ATOM     61  O   LIG d   1      11.271   7.790  -8.425  0.00  0.00    -0.275 OA
ATOM     62  H   LIG d   1       8.223   8.152  -8.103  0.00  0.00     0.157 HD
BRANCH  60  63
ATOM     63  C   LIG d   1       9.747   7.870 -10.225  0.00  0.00     0.029 C 
ATOM     64  H   LIG d   1       8.842   8.456 -10.387  0.00  0.00     0.036 H 
ATOM     65  H   LIG d   1      10.563   8.290 -10.813  0.00  0.00     0.036 H 
BRANCH  63  66
ATOM     66  C   LIG d   1       9.501   6.422 -10.656  0.00  0.00    -0.029 C 
BRANCH  66  67
ATOM     67  C   LIG d   1      10.795   5.619 -10.513  0.00  0.00    -0.060 C 
ATOM     68  H   LIG d   1      10.643   4.808  -9.802  0.00  0.00     0.024 H 
ATOM     69  H   LIG d   1      11.075   5.206 -11.482  0.00  0.00     0.024 H 
ATOM     70  H   LIG d   1      11.590   6.273 -10.155  0.00  0.00     0.024 H 
ENDBRANCH  66  67
BRANCH  66  71
ATOM     71  C   LIG d   1       8.418   5.805  -9.770  0.00  0.00    -0.060 C 
ATOM     72  H   LIG d   1       7.443   5.937 -10.241  0.00  0.00     0.024 H 
ATOM     73  H   LIG d   1       8.616   4.740  -9.641  0.00  0.00     0.024 H 
ATOM     74  H   LIG d   1       8.420   6.295  -8.797  0.00  0.00     0.024 H 
ENDBRANCH  66  71
BRANCH  66  75
ATOM     75  C   LIG d   1       9.043   6.396 -12.115  0.00  0.00    -0.060 C 
ATOM     76  H   LIG d   1       8.884   7.417 -12.465  0.00  0.00     0.024 H 
ATOM     77  H   LIG d   1       9.807   5.917 -12.727  0.00  0.00     0.024 H 
ATOM     78  H   LIG d   1       8.111   5.836 -12.194  0.00  0.00     0.024 H 
ENDBRANCH  66  75
ENDBRANCH  63  66
ENDBRANCH  60  63
ENDBRANCH  13  59
BRANCH   4  79
ATOM     79  O   LIG d   1      11.586   7.644   1.931  0.00  0.00    -0.391 OA
ATOM     80  H   LIG d   1      12.432   7.194   2.064  0.00  0.00     0.210 HD
ENDBRANCH   4  79
TORSDOF 18
ENDMDL
MODEL 9
REMARK VINA RESULT:      -5.0      2.166      2.515
REMARK  18 active torsions:
REMARK  status: ('A' for Active; 'I' for Inactive)
REMARK    1  A    between atoms: C_1  and  C_2 
REMARK    2  A    between atoms: C_5  and  O_37 
REMARK    3  A    between atoms: C_7  and  C_34 
REMARK    4  A    between atoms: C_7  and  C_35 
REMARK    5  A    between atoms: C_14  and  N_16 
REMARK       I    between atoms: N_16  and  C_17 
REMARK    6  A    between atoms: C_17  and  C_19 
REMARK    7  A    between atoms: C_19  and  C_20 
REMARK    8  A    between atoms: C_20  and  C_21 
REMARK    9  A    between atoms: C_20  and  C_22 
REMARK   10  A    between atoms: C_20  and  C_23 
REMARK   11  A    between atoms: C_24  and  C_26 
REMARK   12  A    between atoms: C_26  and  C_27 
REMARK       I    between atoms: C_27  and  N_29 
REMARK   13  A    between atoms: N_29  and  C_30 
REMARK   14  A    between atoms: C_30  and  C_31 
REMARK   15  A    between atoms: C_31  and  N_79 
REMARK   16  A    between atoms: C_32  and  N_79 
REMARK   17  A    between atoms: C_33  and  N_79 
REMARK   18  A    between atoms: C_35  and  O_36 
ROOT
ATOM      1  C   LIG d   1      12.151   2.836  -4.526  0.00  0.00    -0.019 C 
ATOM      2  C   LIG d   1      13.235   3.890  -4.277  0.00  0.00    -0.044 C 
ATOM      3  C   LIG d   1      14.551   3.476  -4.902  0.00  0.00    -0.026 C 
ATOM      4  C   LIG d   1      14.357   3.317  -6.413  0.00  0.00     0.063 C 
ATOM      5  H   LIG d   1      14.005   4.256  -6.838  0.00  0.00     0.060 H 
ATOM      6  C   LIG d   1      13.322   2.222  -6.662  0.00  0.00     0.021 C 
ATOM      7  C   LIG d   1      11.979   2.602  -6.029  0.00  0.00    -0.021 C 
ATOM      8  H   LIG d   1      11.585   3.500  -6.504  0.00  0.00     0.032 H 
ATOM      9  C   LIG d   1      11.010   1.423  -6.244  0.00  0.00    -0.016 C 
ATOM     10  C   LIG d   1       9.827   1.599  -5.360  0.00  0.00     0.015 A 
ATOM     11  C   LIG d   1       9.696   2.448  -4.308  0.00  0.00     0.058 A 
ATOM     12  N   LIG d   1       8.527   2.412  -3.671  0.00  0.00    -0.229 NA
ATOM     13  C   LIG d   1       7.553   1.605  -4.037  0.00  0.00     0.165 A 
ATOM     14  S   LIG d   1       8.256   0.779  -5.397  0.00  0.00    -0.057 SA
ATOM     15  C   LIG d   1      10.845   3.367  -3.921  0.00  0.00     0.016 C 
ATOM     16  H   LIG d   1      10.650   4.370  -4.300  0.00  0.00     0.037 H 
ATOM     17  H   LIG d   1      12.926   4.837  -4.722  0.00  0.00     0.027 H 
ATOM     18  H   LIG d   1      13.367   4.025  -3.203  0.00  0.00     0.027 H 
ATOM     19  H   LIG d   1      14.867   2.526  -4.471  0.00  0.00     0.029 H 
ATOM     20  H   LIG d   1      15.307   4.237  -4.707  0.00  0.00     0.029 H 
ATOM     21  H   LIG d   1      11.513   0.488  -5.998  0.00  0.00     0.032 H 
ATOM     22  H   LIG d   1      10.687   1.402  -7.285  0.00  0.00     0.032 H 
ENDROOT
BRANCH  15  23
ATOM     23  C   LIG d   1      10.970   3.412  -2.397  0.00  0.00     0.033 C 
ATOM     24  H   LIG d   1      10.295   2.681  -1.954  0.00  0.00     0.036 H 
ATOM     25  H   LIG d   1      11.996   3.180  -2.111  0.00  0.00     0.036 H 
BRANCH  23  26
ATOM     26  C   LIG d   1      10.611   4.790  -1.905  0.00  0.00     0.214 C 
ATOM     27  O   LIG d   1      11.102   5.215  -0.880  0.00  0.00    -0.276 OA
ATOM     28  N   LIG d   1       9.745   5.552  -2.602  0.00  0.00    -0.310 N 
ATOM     29  H   LIG d   1       9.353   5.212  -3.422  0.00  0.00     0.149 HD
BRANCH  28  30
ATOM     30  C   LIG d   1       9.397   6.892  -2.123  0.00  0.00     0.052 C 
ATOM     31  H   LIG d   1       8.378   7.133  -2.427  0.00  0.00     0.051 H 
ATOM     32  H   LIG d   1       9.469   6.919  -1.035  0.00  0.00     0.051 H 
BRANCH  30  33
ATOM     33  C   LIG d   1      10.363   7.915  -2.724  0.00  0.00    -0.017 C 
ATOM     34  H   LIG d   1      10.908   7.457  -3.550  0.00  0.00     0.083 H 
ATOM     35  H   LIG d   1       9.802   8.773  -3.090  0.00  0.00     0.083 H 
BRANCH  33  36
ATOM     36  N   LIG d   1      11.299   8.362  -1.671  0.00  0.00     0.232 N 
ATOM     37  H   LIG d   1      11.971   7.609  -1.481  0.00  0.00     0.203 HD
BRANCH  36  38
ATOM     38  C   LIG d   1      12.036   9.560  -2.126  0.00  0.00    -0.043 C 
ATOM     39  H   LIG d   1      11.796   9.785  -3.165  0.00  0.00     0.078 H 
ATOM     40  H   LIG d   1      11.760  10.406  -1.497  0.00  0.00     0.078 H 
ATOM     41  H   LIG d   1      13.106   9.373  -2.033  0.00  0.00     0.078 H 
ENDBRANCH  36  38
BRANCH  36  42
ATOM     42  C   LIG d   1      10.556   8.667  -0.430  0.00  0.00    -0.043 C 
ATOM     43  H   LIG d   1      11.097   8.246   0.418  0.00  0.00     0.078 H 
ATOM     44  H   LIG d   1      10.486   9.749  -0.316  0.00  0.00     0.078 H 
ATOM     45  H   LIG d   1       9.554   8.240  -0.469  0.00  0.00     0.078 H 
ENDBRANCH  36  42
ENDBRANCH  33  36
ENDBRANCH  30  33
ENDBRANCH  28  30
ENDBRANCH  23  26
ENDBRANCH  15  23
BRANCH   1  46
ATOM     46  C   LIG d   1      12.535   1.523  -3.843  0.00  0.00    -0.059 C 
ATOM     47  H   LIG d   1      11.704   0.821  -3.910  0.00  0.00     0.024 H 
ATOM     48  H   LIG d   1      13.410   1.098  -4.338  0.00  0.00     0.024 H 
ATOM     49  H   LIG d   1      12.767   1.712  -2.796  0.00  0.00     0.024 H 
ENDBRANCH   1  46
BRANCH   6  50
ATOM     50  C   LIG d   1      13.137   2.035  -8.169  0.00  0.00    -0.055 C 
ATOM     51  H   LIG d   1      12.078   2.112  -8.417  0.00  0.00     0.024 H 
ATOM     52  H   LIG d   1      13.693   2.806  -8.702  0.00  0.00     0.024 H 
ATOM     53  H   LIG d   1      13.507   1.052  -8.462  0.00  0.00     0.024 H 
ENDBRANCH   6  50
BRANCH   6  54
ATOM     54  C   LIG d   1      13.819   0.911  -6.046  0.00  0.00     0.052 C 
ATOM     55  H   LIG d   1      14.434   1.131  -5.173  0.00  0.00     0.056 H 
ATOM     56  H   LIG d   1      12.964   0.305  -5.746  0.00  0.00     0.056 H 
BRANCH  54  57
ATOM     57  O   LIG d   1      14.595   0.197  -7.010  0.00  0.00    -0.394 OA
ATOM     58  H   LIG d   1      15.371  -0.246  -6.639  0.00  0.00     0.209 HD
ENDBRANCH  54  57
ENDBRANCH   6  54
BRANCH  13  59
ATOM     59  N   LIG d   1       6.289   1.452  -3.481  0.00  0.00    -0.265 N 
ATOM     60  C   LIG d   1       5.944   0.283  -2.903  0.00  0.00     0.219 C 
ATOM     61  O   LIG d   1       6.736  -0.633  -2.868  0.00  0.00    -0.275 OA
ATOM     62  H   LIG d   1       5.655   2.185  -3.509  0.00  0.00     0.157 HD
BRANCH  60  63
ATOM     63  C   LIG d   1       4.572   0.118  -2.300  0.00  0.00     0.029 C 
ATOM     64  H   LIG d   1       4.668  -0.217  -1.266  0.00  0.00     0.036 H 
ATOM     65  H   LIG d   1       4.046   1.072  -2.326  0.00  0.00     0.036 H 
BRANCH  63  66
ATOM     66  C   LIG d   1       3.786  -0.922  -3.101  0.00  0.00    -0.029 C 
BRANCH  66  67
ATOM     67  C   LIG d   1       2.316  -0.502  -3.178  0.00  0.00    -0.060 C 
ATOM     68  H   LIG d   1       2.233   0.424  -3.746  0.00  0.00     0.024 H 
ATOM     69  H   LIG d   1       1.741  -1.285  -3.672  0.00  0.00     0.024 H 
ATOM     70  H   LIG d   1       1.930  -0.348  -2.171  0.00  0.00     0.024 H 
ENDBRANCH  66  67
BRANCH  66  71
ATOM     71  C   LIG d   1       4.363  -1.020  -4.514  0.00  0.00    -0.060 C 
ATOM     72  H   LIG d   1       5.287  -0.445  -4.571  0.00  0.00     0.024 H 
ATOM     73  H   LIG d   1       4.571  -2.064  -4.751  0.00  0.00     0.024 H 
ATOM     74  H   LIG d   1       3.643  -0.622  -5.229  0.00  0.00     0.024 H 
ENDBRANCH  66  71
BRANCH  66  75
ATOM     75  C   LIG d   1       3.892  -2.283  -2.411  0.00  0.00    -0.060 C 
ATOM     76  H   LIG d   1       4.492  -2.186  -1.506  0.00  0.00     0.024 H 
ATOM     77  H   LIG d   1       2.894  -2.636  -2.150  0.00  0.00     0.024 H 
ATOM     78  H   LIG d   1       4.364  -2.997  -3.086  0.00  0.00     0.024 H 
ENDBRANCH  66  75
ENDBRANCH  63  66
ENDBRANCH  60  63
ENDBRANCH  13  59
BRANCH   4  79
ATOM     79  O   LIG d   1      15.598   2.951  -7.019  0.00  0.00    -0.391 OA
ATOM     80  H   LIG d   1      16.205   3.692  -7.151  0.00  0.00     0.210 HD
ENDBRANCH   4  79
TORSDOF 18
ENDMDL
