MODEL 1
REMARK VINA RESULT:      -6.6      0.000      0.000
REMARK  5 active torsions:
REMARK  status: ('A' for Active; 'I' for Inactive)
REMARK    1  A    between atoms: C_1  and  C_2 
REMARK       I    between atoms: C_2  and  N_4 
REMARK    2  A    between atoms: C_12  and  O_13 
REMARK    3  A    between atoms: C_14  and  O_15 
REMARK    4  A    between atoms: N_16  and  C_17 
REMARK    5  A    between atoms: C_17  and  C_18 
ROOT
ATOM      1  C   LIG d   1       7.057  -0.124  -4.699  0.00  0.00     0.049 C 
ATOM      2  H   LIG d   1       6.083   0.307  -4.933  0.00  0.00     0.051 H 
ATOM      3  H   LIG d   1       7.389  -0.744  -5.532  0.00  0.00     0.051 H 
ENDROOT
BRANCH   1   4
ATOM      4  N   LIG d   1       8.026   0.951  -4.475  0.00  0.00    -0.274 NA
ATOM      5  C   LIG d   1       8.418   1.694  -5.472  0.00  0.00     0.179 A 
ATOM      6  C   LIG d   1       9.345   2.842  -5.679  0.00  0.00     0.277 A 
ATOM      7  C   LIG d   1       8.149   1.790  -6.920  0.00  0.00     0.197 A 
ATOM      8  N   LIG d   1      10.129   3.545  -4.910  0.00  0.00    -0.221 N 
ATOM      9  C   LIG d   1       9.003   2.857  -7.115  0.00  0.00     0.235 A 
ATOM     10  C   LIG d   1      10.924   4.649  -5.463  0.00  0.00     0.161 C 
ATOM     11  C   LIG d   1      10.232   3.248  -3.474  0.00  0.00     0.161 C 
ATOM     12  C   LIG d   1      10.606   5.925  -4.675  0.00  0.00     0.074 C 
ATOM     13  H   LIG d   1      10.668   4.795  -6.514  0.00  0.00     0.104 H 
ATOM     14  H   LIG d   1      11.985   4.417  -5.372  0.00  0.00     0.104 H 
ATOM     15  N   LIG d   1      10.709   5.628  -3.239  0.00  0.00    -0.290 N 
ATOM     16  H   LIG d   1       9.594   6.258  -4.908  0.00  0.00     0.053 H 
ATOM     17  H   LIG d   1      11.320   6.706  -4.938  0.00  0.00     0.053 H 
ATOM     18  C   LIG d   1      11.520   6.355  -2.445  0.00  0.00     0.213 C 
ATOM     19  C   LIG d   1       9.918   4.520  -2.687  0.00  0.00     0.074 C 
ATOM     20  O   LIG d   1      11.600   6.098  -1.263  0.00  0.00    -0.276 OA
ATOM     21  H   LIG d   1      10.176   4.373  -1.639  0.00  0.00     0.053 H 
ATOM     22  H   LIG d   1       8.856   4.749  -2.775  0.00  0.00     0.053 H 
ATOM     23  H   LIG d   1       9.517   2.467  -3.211  0.00  0.00     0.104 H 
ATOM     24  H   LIG d   1      11.243   2.916  -3.241  0.00  0.00     0.104 H 
BRANCH  18  25
ATOM     25  C   LIG d   1      12.326   7.489  -3.025  0.00  0.00     0.012 C 
ATOM     26  H   LIG d   1      13.004   7.101  -3.784  0.00  0.00     0.032 H 
ATOM     27  H   LIG d   1      11.654   8.219  -3.476  0.00  0.00     0.032 H 
ATOM     28  H   LIG d   1      12.902   7.966  -2.232  0.00  0.00     0.032 H 
ENDBRANCH  18  25
BRANCH   9  29
ATOM     29  O   LIG d   1       9.372   3.606  -8.180  0.00  0.00    -0.499 OA
ATOM     30  H   LIG d   1       8.911   3.380  -8.999  0.00  0.00     0.292 HD
ENDBRANCH   9  29
BRANCH   7  31
ATOM     31  O   LIG d   1       7.347   1.087  -7.756  0.00  0.00    -0.502 OA
ATOM     32  H   LIG d   1       7.474   1.297  -8.690  0.00  0.00     0.292 HD
ENDBRANCH   7  31
ENDBRANCH   1   4
BRANCH   1  33
ATOM     33  C   LIG d   1       6.945  -0.982  -3.437  0.00  0.00     0.022 C 
ATOM     34  H   LIG d   1       7.686  -0.653  -2.708  0.00  0.00     0.037 H 
ATOM     35  C   LIG d   1       5.542  -0.828  -2.840  0.00  0.00    -0.016 C 
ATOM     36  N   LIG d   1       4.534  -1.289  -3.799  0.00  0.00     0.238 N 
ATOM     37  H   LIG d   1       5.469  -1.418  -1.926  0.00  0.00     0.085 H 
ATOM     38  C   LIG d   1       5.320   0.652  -2.517  0.00  0.00    -0.009 C 
ATOM     39  C   LIG d   1       4.743  -2.710  -4.112  0.00  0.00    -0.032 C 
ATOM     40  C   LIG d   1       3.186  -1.142  -3.229  0.00  0.00    -0.032 C 
ATOM     41  H   LIG d   1       4.602  -0.744  -4.646  0.00  0.00     0.204 HD
ATOM     42  C   LIG d   1       6.108  -2.910  -4.767  0.00  0.00    -0.012 C 
ATOM     43  H   LIG d   1       3.962  -3.048  -4.793  0.00  0.00     0.081 H 
ATOM     44  H   LIG d   1       4.695  -3.293  -3.192  0.00  0.00     0.081 H 
ATOM     45  C   LIG d   1       7.197  -2.447  -3.793  0.00  0.00    -0.039 C 
ATOM     46  H   LIG d   1       6.164  -2.321  -5.683  0.00  0.00     0.032 H 
ATOM     47  H   LIG d   1       6.251  -3.965  -5.001  0.00  0.00     0.032 H 
ATOM     48  H   LIG d   1       8.175  -2.546  -4.265  0.00  0.00     0.027 H 
ATOM     49  H   LIG d   1       7.161  -3.056  -2.890  0.00  0.00     0.027 H 
ATOM     50  C   LIG d   1       2.891   0.328  -2.946  0.00  0.00    -0.012 C 
ATOM     51  H   LIG d   1       2.451  -1.526  -3.936  0.00  0.00     0.081 H 
ATOM     52  H   LIG d   1       3.123  -1.709  -2.300  0.00  0.00     0.081 H 
ATOM     53  C   LIG d   1       3.918   0.852  -1.937  0.00  0.00    -0.043 C 
ATOM     54  H   LIG d   1       1.888   0.425  -2.530  0.00  0.00     0.032 H 
ATOM     55  H   LIG d   1       2.963   0.901  -3.870  0.00  0.00     0.032 H 
ATOM     56  H   LIG d   1       3.827   0.298  -1.002  0.00  0.00     0.027 H 
ATOM     57  H   LIG d   1       3.745   1.912  -1.755  0.00  0.00     0.027 H 
ATOM     58  H   LIG d   1       6.063   0.980  -1.790  0.00  0.00     0.032 H 
ATOM     59  H   LIG d   1       5.422   1.241  -3.428  0.00  0.00     0.032 H 
ENDBRANCH   1  33
TORSDOF 5
ENDMDL
MODEL 2
REMARK VINA RESULT:      -6.4      1.611      2.112
REMARK  5 active torsions:
REMARK  status: ('A' for Active; 'I' for Inactive)
REMARK    1  A    between atoms: C_1  and  C_2 
REMARK       I    between atoms: C_2  and  N_4 
REMARK    2  A    between atoms: C_12  and  O_13 
REMARK    3  A    between atoms: C_14  and  O_15 
REMARK    4  A    between atoms: N_16  and  C_17 
REMARK    5  A    between atoms: C_17  and  C_18 
ROOT
ATOM      1  C   LIG d   1       7.492   1.827  -4.416  0.00  0.00     0.049 C 
ATOM      2  H   LIG d   1       6.566   2.372  -4.231  0.00  0.00     0.051 H 
ATOM      3  H   LIG d   1       7.641   1.721  -5.491  0.00  0.00     0.051 H 
ENDROOT
BRANCH   1   4
ATOM      4  N   LIG d   1       8.617   2.566  -3.838  0.00  0.00    -0.274 NA
ATOM      5  C   LIG d   1       9.488   3.143  -4.618  0.00  0.00     0.179 A 
ATOM      6  C   LIG d   1      10.725   3.957  -4.459  0.00  0.00     0.277 A 
ATOM      7  C   LIG d   1       9.706   3.293  -6.070  0.00  0.00     0.197 A 
ATOM      8  N   LIG d   1      11.411   4.405  -3.444  0.00  0.00    -0.221 N 
ATOM      9  C   LIG d   1      10.850   4.053  -5.927  0.00  0.00     0.235 A 
ATOM     10  C   LIG d   1      12.619   5.212  -3.656  0.00  0.00     0.161 C 
ATOM     11  C   LIG d   1      10.987   4.111  -2.068  0.00  0.00     0.161 C 
ATOM     12  C   LIG d   1      12.464   6.536  -2.899  0.00  0.00     0.074 C 
ATOM     13  H   LIG d   1      12.745   5.411  -4.721  0.00  0.00     0.104 H 
ATOM     14  H   LIG d   1      13.489   4.674  -3.278  0.00  0.00     0.104 H 
ATOM     15  N   LIG d   1      12.041   6.242  -1.523  0.00  0.00    -0.290 N 
ATOM     16  H   LIG d   1      11.711   7.152  -3.390  0.00  0.00     0.053 H 
ATOM     17  H   LIG d   1      13.418   7.063  -2.883  0.00  0.00     0.053 H 
ATOM     18  C   LIG d   1      12.749   6.705  -0.474  0.00  0.00     0.213 C 
ATOM     19  C   LIG d   1      10.835   5.431  -1.311  0.00  0.00     0.074 C 
ATOM     20  O   LIG d   1      12.393   6.453   0.657  0.00  0.00    -0.276 OA
ATOM     21  H   LIG d   1      10.712   5.229  -0.247  0.00  0.00     0.053 H 
ATOM     22  H   LIG d   1       9.962   5.966  -1.686  0.00  0.00     0.053 H 
ATOM     23  H   LIG d   1      10.032   3.584  -2.084  0.00  0.00     0.104 H 
ATOM     24  H   LIG d   1      11.740   3.495  -1.577  0.00  0.00     0.104 H 
BRANCH  18  25
ATOM     25  C   LIG d   1      13.985   7.537  -0.706  0.00  0.00     0.012 C 
ATOM     26  H   LIG d   1      14.612   7.512   0.184  0.00  0.00     0.032 H 
ATOM     27  H   LIG d   1      14.540   7.134  -1.554  0.00  0.00     0.032 H 
ATOM     28  H   LIG d   1      13.695   8.566  -0.918  0.00  0.00     0.032 H 
ENDBRANCH  18  25
BRANCH   9  29
ATOM     29  O   LIG d   1      11.722   4.641  -6.779  0.00  0.00    -0.499 OA
ATOM     30  H   LIG d   1      11.309   5.017  -7.568  0.00  0.00     0.292 HD
ENDBRANCH   9  29
BRANCH   7  31
ATOM     31  O   LIG d   1       9.025   2.851  -7.155  0.00  0.00    -0.502 OA
ATOM     32  H   LIG d   1       8.317   2.227  -6.947  0.00  0.00     0.292 HD
ENDBRANCH   7  31
ENDBRANCH   1   4
BRANCH   1  33
ATOM     33  C   LIG d   1       7.407   0.442  -3.773  0.00  0.00     0.022 C 
ATOM     34  H   LIG d   1       7.968   0.441  -2.839  0.00  0.00     0.037 H 
ATOM     35  C   LIG d   1       5.940   0.103  -3.486  0.00  0.00    -0.016 C 
ATOM     36  N   LIG d   1       5.176   0.076  -4.736  0.00  0.00     0.238 N 
ATOM     37  H   LIG d   1       5.880  -0.872  -3.003  0.00  0.00     0.085 H 
ATOM     38  C   LIG d   1       5.377   1.177  -2.550  0.00  0.00    -0.009 C 
ATOM     39  C   LIG d   1       5.713  -0.953  -5.638  0.00  0.00    -0.032 C 
ATOM     40  C   LIG d   1       3.767  -0.247  -4.463  0.00  0.00    -0.032 C 
ATOM     41  H   LIG d   1       5.233   0.979  -5.184  0.00  0.00     0.204 HD
ATOM     42  C   LIG d   1       7.160  -0.629  -6.005  0.00  0.00    -0.012 C 
ATOM     43  H   LIG d   1       5.109  -0.989  -6.544  0.00  0.00     0.081 H 
ATOM     44  H   LIG d   1       5.675  -1.923  -5.142  0.00  0.00     0.081 H 
ATOM     45  C   LIG d   1       8.001  -0.598  -4.724  0.00  0.00    -0.039 C 
ATOM     46  H   LIG d   1       7.204   0.345  -6.493  0.00  0.00     0.032 H 
ATOM     47  H   LIG d   1       7.547  -1.393  -6.678  0.00  0.00     0.032 H 
ATOM     48  H   LIG d   1       9.028  -0.327  -4.967  0.00  0.00     0.027 H 
ATOM     49  H   LIG d   1       7.982  -1.580  -4.251  0.00  0.00     0.027 H 
ATOM     50  C   LIG d   1       3.140   0.828  -3.582  0.00  0.00    -0.012 C 
ATOM     51  H   LIG d   1       3.221  -0.304  -5.405  0.00  0.00     0.081 H 
ATOM     52  H   LIG d   1       3.710  -1.210  -3.955  0.00  0.00     0.081 H 
ATOM     53  C   LIG d   1       3.904   0.886  -2.255  0.00  0.00    -0.043 C 
ATOM     54  H   LIG d   1       2.096   0.581  -3.393  0.00  0.00     0.032 H 
ATOM     55  H   LIG d   1       3.204   1.795  -4.082  0.00  0.00     0.032 H 
ATOM     56  H   LIG d   1       3.816  -0.072  -1.741  0.00  0.00     0.027 H 
ATOM     57  H   LIG d   1       3.493   1.679  -1.630  0.00  0.00     0.027 H 
ATOM     58  H   LIG d   1       5.940   1.176  -1.617  0.00  0.00     0.032 H 
ATOM     59  H   LIG d   1       5.465   2.153  -3.024  0.00  0.00     0.032 H 
ENDBRANCH   1  33
TORSDOF 5
ENDMDL
MODEL 3
REMARK VINA RESULT:      -6.2      6.029      9.437
REMARK  5 active torsions:
REMARK  status: ('A' for Active; 'I' for Inactive)
REMARK    1  A    between atoms: C_1  and  C_2 
REMARK       I    between atoms: C_2  and  N_4 
REMARK    2  A    between atoms: C_12  and  O_13 
REMARK    3  A    between atoms: C_14  and  O_15 
REMARK    4  A    between atoms: N_16  and  C_17 
REMARK    5  A    between atoms: C_17  and  C_18 
ROOT
ATOM      1  C   LIG d   1       5.346  -2.560  -6.140  0.00  0.00     0.049 C 
ATOM      2  H   LIG d   1       4.411  -2.723  -5.603  0.00  0.00     0.051 H 
ATOM      3  H   LIG d   1       6.056  -3.344  -5.879  0.00  0.00     0.051 H 
ENDROOT
BRANCH   1   4
ATOM      4  N   LIG d   1       5.091  -2.593  -7.583  0.00  0.00    -0.274 NA
ATOM      5  C   LIG d   1       4.298  -3.498  -8.084  0.00  0.00     0.179 A 
ATOM      6  C   LIG d   1       3.787  -3.875  -9.431  0.00  0.00     0.277 A 
ATOM      7  C   LIG d   1       3.487  -4.624  -7.580  0.00  0.00     0.197 A 
ATOM      8  N   LIG d   1       3.954  -3.421 -10.642  0.00  0.00    -0.221 N 
ATOM      9  C   LIG d   1       3.007  -4.973  -8.826  0.00  0.00     0.235 A 
ATOM     10  C   LIG d   1       3.266  -4.050 -11.778  0.00  0.00     0.161 C 
ATOM     11  C   LIG d   1       4.832  -2.270 -10.894  0.00  0.00     0.161 C 
ATOM     12  C   LIG d   1       2.465  -2.976 -12.522  0.00  0.00     0.074 C 
ATOM     13  H   LIG d   1       2.591  -4.825 -11.414  0.00  0.00     0.104 H 
ATOM     14  H   LIG d   1       4.002  -4.491 -12.452  0.00  0.00     0.104 H 
ATOM     15  N   LIG d   1       3.343  -1.825 -12.774  0.00  0.00    -0.290 N 
ATOM     16  H   LIG d   1       1.617  -2.662 -11.911  0.00  0.00     0.053 H 
ATOM     17  H   LIG d   1       2.106  -3.377 -13.470  0.00  0.00     0.053 H 
ATOM     18  C   LIG d   1       3.515  -1.356 -14.026  0.00  0.00     0.213 C 
ATOM     19  C   LIG d   1       4.034  -1.199 -11.639  0.00  0.00     0.074 C 
ATOM     20  O   LIG d   1       4.246  -0.408 -14.222  0.00  0.00    -0.276 OA
ATOM     21  H   LIG d   1       4.712  -0.428 -12.003  0.00  0.00     0.053 H 
ATOM     22  H   LIG d   1       3.302  -0.757 -10.963  0.00  0.00     0.053 H 
ATOM     23  H   LIG d   1       5.190  -1.869  -9.945  0.00  0.00     0.104 H 
ATOM     24  H   LIG d   1       5.678  -2.584 -11.505  0.00  0.00     0.104 H 
BRANCH  18  25
ATOM     25  C   LIG d   1       2.800  -2.008 -15.181  0.00  0.00     0.012 C 
ATOM     26  H   LIG d   1       3.414  -2.815 -15.580  0.00  0.00     0.032 H 
ATOM     27  H   LIG d   1       1.847  -2.410 -14.838  0.00  0.00     0.032 H 
ATOM     28  H   LIG d   1       2.622  -1.267 -15.962  0.00  0.00     0.032 H 
ENDBRANCH  18  25
BRANCH   9  29
ATOM     29  O   LIG d   1       2.168  -5.927  -9.297  0.00  0.00    -0.499 OA
ATOM     30  H   LIG d   1       1.510  -5.597  -9.924  0.00  0.00     0.292 HD
ENDBRANCH   9  29
BRANCH   7  31
ATOM     31  O   LIG d   1       3.282  -5.129  -6.340  0.00  0.00    -0.502 OA
ATOM     32  H   LIG d   1       3.811  -4.706  -5.651  0.00  0.00     0.292 HD
ENDBRANCH   7  31
ENDBRANCH   1   4
BRANCH   1  33
ATOM     33  C   LIG d   1       5.926  -1.197  -5.756  0.00  0.00     0.022 C 
ATOM     34  H   LIG d   1       5.964  -0.558  -6.638  0.00  0.00     0.037 H 
ATOM     35  C   LIG d   1       5.034  -0.546  -4.693  0.00  0.00    -0.016 C 
ATOM     36  N   LIG d   1       4.991  -1.383  -3.491  0.00  0.00     0.238 N 
ATOM     37  H   LIG d   1       5.431   0.437  -4.438  0.00  0.00     0.085 H 
ATOM     38  C   LIG d   1       3.626  -0.397  -5.278  0.00  0.00    -0.009 C 
ATOM     39  C   LIG d   1       6.341  -1.529  -2.926  0.00  0.00    -0.032 C 
ATOM     40  C   LIG d   1       4.135  -0.760  -2.470  0.00  0.00    -0.032 C 
ATOM     41  H   LIG d   1       4.625  -2.293  -3.727  0.00  0.00     0.204 HD
ATOM     42  C   LIG d   1       7.258  -2.230  -3.927  0.00  0.00    -0.012 C 
ATOM     43  H   LIG d   1       6.286  -2.118  -2.011  0.00  0.00     0.081 H 
ATOM     44  H   LIG d   1       6.744  -0.543  -2.695  0.00  0.00     0.081 H 
ATOM     45  C   LIG d   1       7.339  -1.384  -5.201  0.00  0.00    -0.039 C 
ATOM     46  H   LIG d   1       6.852  -3.214  -4.167  0.00  0.00     0.032 H 
ATOM     47  H   LIG d   1       8.253  -2.339  -3.496  0.00  0.00     0.032 H 
ATOM     48  H   LIG d   1       7.957  -1.893  -5.939  0.00  0.00     0.027 H 
ATOM     49  H   LIG d   1       7.771  -0.411  -4.967  0.00  0.00     0.027 H 
ATOM     50  C   LIG d   1       2.703  -0.645  -2.982  0.00  0.00    -0.012 C 
ATOM     51  H   LIG d   1       4.146  -1.372  -1.568  0.00  0.00     0.081 H 
ATOM     52  H   LIG d   1       4.517   0.233  -2.235  0.00  0.00     0.081 H 
ATOM     53  C   LIG d   1       2.697   0.232  -4.238  0.00  0.00    -0.043 C 
ATOM     54  H   LIG d   1       2.077  -0.189  -2.215  0.00  0.00     0.032 H 
ATOM     55  H   LIG d   1       2.320  -1.636  -3.227  0.00  0.00     0.032 H 
ATOM     56  H   LIG d   1       3.053   1.232  -3.987  0.00  0.00     0.027 H 
ATOM     57  H   LIG d   1       1.685   0.291  -4.639  0.00  0.00     0.027 H 
ATOM     58  H   LIG d   1       3.666   0.241  -6.161  0.00  0.00     0.032 H 
ATOM     59  H   LIG d   1       3.244  -1.377  -5.559  0.00  0.00     0.032 H 
ENDBRANCH   1  33
TORSDOF 5
ENDMDL
MODEL 4
REMARK VINA RESULT:      -6.1      4.978      9.850
REMARK  5 active torsions:
REMARK  status: ('A' for Active; 'I' for Inactive)
REMARK    1  A    between atoms: C_1  and  C_2 
REMARK       I    between atoms: C_2  and  N_4 
REMARK    2  A    between atoms: C_12  and  O_13 
REMARK    3  A    between atoms: C_14  and  O_15 
REMARK    4  A    between atoms: N_16  and  C_17 
REMARK    5  A    between atoms: C_17  and  C_18 
ROOT
ATOM      1  C   LIG d   1       7.595  -2.067  -4.236  0.00  0.00     0.049 C 
ATOM      2  H   LIG d   1       7.286  -1.963  -3.195  0.00  0.00     0.051 H 
ATOM      3  H   LIG d   1       8.646  -1.795  -4.331  0.00  0.00     0.051 H 
ENDROOT
BRANCH   1   4
ATOM      4  N   LIG d   1       7.409  -3.455  -4.665  0.00  0.00    -0.274 NA
ATOM      5  C   LIG d   1       8.252  -4.373  -4.284  0.00  0.00     0.179 A 
ATOM      6  C   LIG d   1       8.430  -5.840  -4.479  0.00  0.00     0.277 A 
ATOM      7  C   LIG d   1       9.473  -4.444  -3.458  0.00  0.00     0.197 A 
ATOM      8  N   LIG d   1       7.784  -6.770  -5.124  0.00  0.00    -0.221 N 
ATOM      9  C   LIG d   1       9.639  -5.804  -3.632  0.00  0.00     0.235 A 
ATOM     10  C   LIG d   1       8.251  -8.162  -5.095  0.00  0.00     0.161 C 
ATOM     11  C   LIG d   1       6.575  -6.444  -5.894  0.00  0.00     0.161 C 
ATOM     12  C   LIG d   1       7.103  -9.053  -4.606  0.00  0.00     0.074 C 
ATOM     13  H   LIG d   1       9.099  -8.250  -4.414  0.00  0.00     0.104 H 
ATOM     14  H   LIG d   1       8.551  -8.469  -6.097  0.00  0.00     0.104 H 
ATOM     15  N   LIG d   1       5.895  -8.728  -5.375  0.00  0.00    -0.290 N 
ATOM     16  H   LIG d   1       6.923  -8.870  -3.546  0.00  0.00     0.053 H 
ATOM     17  H   LIG d   1       7.362 -10.101  -4.758  0.00  0.00     0.053 H 
ATOM     18  C   LIG d   1       5.227  -9.690  -6.043  0.00  0.00     0.213 C 
ATOM     19  C   LIG d   1       5.431  -7.334  -5.409  0.00  0.00     0.074 C 
ATOM     20  O   LIG d   1       4.233  -9.408  -6.678  0.00  0.00    -0.276 OA
ATOM     21  H   LIG d   1       4.586  -7.246  -6.092  0.00  0.00     0.053 H 
ATOM     22  H   LIG d   1       5.129  -7.024  -4.409  0.00  0.00     0.053 H 
ATOM     23  H   LIG d   1       6.316  -5.395  -5.741  0.00  0.00     0.104 H 
ATOM     24  H   LIG d   1       6.756  -6.628  -6.953  0.00  0.00     0.104 H 
BRANCH  18  25
ATOM     25  C   LIG d   1       5.714 -11.115  -6.000  0.00  0.00     0.012 C 
ATOM     26  H   LIG d   1       6.607 -11.213  -6.616  0.00  0.00     0.032 H 
ATOM     27  H   LIG d   1       5.950 -11.387  -4.971  0.00  0.00     0.032 H 
ATOM     28  H   LIG d   1       4.935 -11.776  -6.380  0.00  0.00     0.032 H 
ENDBRANCH  18  25
BRANCH   9  29
ATOM     29  O   LIG d   1      10.536  -6.722  -3.203  0.00  0.00    -0.499 OA
ATOM     30  H   LIG d   1      10.152  -7.427  -2.664  0.00  0.00     0.292 HD
ENDBRANCH   9  29
BRANCH   7  31
ATOM     31  O   LIG d   1      10.176  -3.512  -2.771  0.00  0.00    -0.502 OA
ATOM     32  H   LIG d   1      11.036  -3.303  -3.158  0.00  0.00     0.292 HD
ENDBRANCH   7  31
ENDBRANCH   1   4
BRANCH   1  33
ATOM     33  C   LIG d   1       6.747  -1.144  -5.114  0.00  0.00     0.022 C 
ATOM     34  H   LIG d   1       6.280  -1.727  -5.908  0.00  0.00     0.037 H 
ATOM     35  C   LIG d   1       5.659  -0.485  -4.259  0.00  0.00    -0.016 C 
ATOM     36  N   LIG d   1       6.271   0.322  -3.201  0.00  0.00     0.238 N 
ATOM     37  H   LIG d   1       5.038   0.152  -4.889  0.00  0.00     0.085 H 
ATOM     38  C   LIG d   1       4.801  -1.594  -3.642  0.00  0.00    -0.009 C 
ATOM     39  C   LIG d   1       7.096   1.389  -3.788  0.00  0.00    -0.032 C 
ATOM     40  C   LIG d   1       5.229   0.955  -2.378  0.00  0.00    -0.032 C 
ATOM     41  H   LIG d   1       6.848  -0.267  -2.618  0.00  0.00     0.204 HD
ATOM     42  C   LIG d   1       8.236   0.783  -4.604  0.00  0.00    -0.012 C 
ATOM     43  H   LIG d   1       7.509   2.005  -2.990  0.00  0.00     0.081 H 
ATOM     44  H   LIG d   1       6.476   2.008  -4.436  0.00  0.00     0.081 H 
ATOM     45  C   LIG d   1       7.641  -0.067  -5.732  0.00  0.00    -0.039 C 
ATOM     46  H   LIG d   1       8.853   0.154  -3.961  0.00  0.00     0.032 H 
ATOM     47  H   LIG d   1       8.845   1.580  -5.030  0.00  0.00     0.032 H 
ATOM     48  H   LIG d   1       8.444  -0.539  -6.297  0.00  0.00     0.027 H 
ATOM     49  H   LIG d   1       7.048   0.566  -6.393  0.00  0.00     0.027 H 
ATOM     50  C   LIG d   1       4.382  -0.111  -1.689  0.00  0.00    -0.012 C 
ATOM     51  H   LIG d   1       5.698   1.584  -1.622  0.00  0.00     0.081 H 
ATOM     52  H   LIG d   1       4.591   1.569  -3.013  0.00  0.00     0.081 H 
ATOM     53  C   LIG d   1       3.713  -0.977  -2.761  0.00  0.00    -0.043 C 
ATOM     54  H   LIG d   1       3.618   0.369  -1.078  0.00  0.00     0.032 H 
ATOM     55  H   LIG d   1       5.017  -0.735  -1.061  0.00  0.00     0.032 H 
ATOM     56  H   LIG d   1       3.054  -0.359  -3.373  0.00  0.00     0.027 H 
ATOM     57  H   LIG d   1       3.136  -1.770  -2.285  0.00  0.00     0.027 H 
ATOM     58  H   LIG d   1       4.336  -2.178  -4.437  0.00  0.00     0.032 H 
ATOM     59  H   LIG d   1       5.430  -2.245  -3.037  0.00  0.00     0.032 H 
ENDBRANCH   1  33
TORSDOF 5
ENDMDL
MODEL 5
REMARK VINA RESULT:      -6.0      4.013      5.100
REMARK  5 active torsions:
REMARK  status: ('A' for Active; 'I' for Inactive)
REMARK    1  A    between atoms: C_1  and  C_2 
REMARK       I    between atoms: C_2  and  N_4 
REMARK    2  A    between atoms: C_12  and  O_13 
REMARK    3  A    between atoms: C_14  and  O_15 
REMARK    4  A    between atoms: N_16  and  C_17 
REMARK    5  A    between atoms: C_17  and  C_18 
ROOT
ATOM      1  C   LIG d   1       7.273   0.382  -5.211  0.00  0.00     0.049 C 
ATOM      2  H   LIG d   1       7.074   1.178  -4.492  0.00  0.00     0.051 H 
ATOM      3  H   LIG d   1       6.931   0.691  -6.199  0.00  0.00     0.051 H 
ENDROOT
BRANCH   1   4
ATOM      4  N   LIG d   1       8.712   0.112  -5.255  0.00  0.00    -0.274 NA
ATOM      5  C   LIG d   1       9.541   0.889  -4.615  0.00  0.00     0.179 A 
ATOM      6  C   LIG d   1      11.013   0.975  -4.402  0.00  0.00     0.277 A 
ATOM      7  C   LIG d   1       9.456   2.092  -3.763  0.00  0.00     0.197 A 
ATOM      8  N   LIG d   1      12.043   0.279  -4.792  0.00  0.00    -0.221 N 
ATOM      9  C   LIG d   1      10.819   2.172  -3.559  0.00  0.00     0.235 A 
ATOM     10  C   LIG d   1      13.401   0.654  -4.374  0.00  0.00     0.161 C 
ATOM     11  C   LIG d   1      11.868  -0.895  -5.658  0.00  0.00     0.161 C 
ATOM     12  C   LIG d   1      14.057  -0.555  -3.698  0.00  0.00     0.074 C 
ATOM     13  H   LIG d   1      13.351   1.485  -3.670  0.00  0.00     0.104 H 
ATOM     14  H   LIG d   1      13.984   0.947  -5.247  0.00  0.00     0.104 H 
ATOM     15  N   LIG d   1      13.882  -1.729  -4.564  0.00  0.00    -0.290 N 
ATOM     16  H   LIG d   1      13.583  -0.738  -2.733  0.00  0.00     0.053 H 
ATOM     17  H   LIG d   1      15.121  -0.362  -3.555  0.00  0.00     0.053 H 
ATOM     18  C   LIG d   1      14.948  -2.449  -4.968  0.00  0.00     0.213 C 
ATOM     19  C   LIG d   1      12.525  -2.102  -4.986  0.00  0.00     0.074 C 
ATOM     20  O   LIG d   1      14.791  -3.413  -5.686  0.00  0.00    -0.276 OA
ATOM     21  H   LIG d   1      12.576  -2.929  -5.693  0.00  0.00     0.053 H 
ATOM     22  H   LIG d   1      11.939  -2.397  -4.116  0.00  0.00     0.053 H 
ATOM     23  H   LIG d   1      10.804  -1.089  -5.801  0.00  0.00     0.104 H 
ATOM     24  H   LIG d   1      12.343  -0.713  -6.622  0.00  0.00     0.104 H 
BRANCH  18  25
ATOM     25  C   LIG d   1      16.335  -2.055  -4.527  0.00  0.00     0.012 C 
ATOM     26  H   LIG d   1      16.478  -0.988  -4.689  0.00  0.00     0.032 H 
ATOM     27  H   LIG d   1      16.457  -2.282  -3.468  0.00  0.00     0.032 H 
ATOM     28  H   LIG d   1      17.071  -2.614  -5.105  0.00  0.00     0.032 H 
ENDBRANCH  18  25
BRANCH   9  29
ATOM     29  O   LIG d   1      11.638   3.002  -2.871  0.00  0.00    -0.499 OA
ATOM     30  H   LIG d   1      11.198   3.493  -2.164  0.00  0.00     0.292 HD
ENDBRANCH   9  29
BRANCH   7  31
ATOM     31  O   LIG d   1       8.415   2.844  -3.332  0.00  0.00    -0.502 OA
ATOM     32  H   LIG d   1       7.652   2.328  -3.041  0.00  0.00     0.292 HD
ENDBRANCH   7  31
ENDBRANCH   1   4
BRANCH   1  33
ATOM     33  C   LIG d   1       6.530  -0.887  -4.787  0.00  0.00     0.022 C 
ATOM     34  H   LIG d   1       7.193  -1.516  -4.195  0.00  0.00     0.037 H 
ATOM     35  C   LIG d   1       5.308  -0.503  -3.945  0.00  0.00    -0.016 C 
ATOM     36  N   LIG d   1       4.392   0.324  -4.735  0.00  0.00     0.238 N 
ATOM     37  H   LIG d   1       4.792  -1.407  -3.619  0.00  0.00     0.085 H 
ATOM     38  C   LIG d   1       5.797   0.279  -2.722  0.00  0.00    -0.009 C 
ATOM     39  C   LIG d   1       3.918  -0.422  -5.910  0.00  0.00    -0.032 C 
ATOM     40  C   LIG d   1       3.219   0.695  -3.929  0.00  0.00    -0.032 C 
ATOM     41  H   LIG d   1       4.869   1.160  -5.038  0.00  0.00     0.204 HD
ATOM     42  C   LIG d   1       5.096  -0.778  -6.817  0.00  0.00    -0.012 C 
ATOM     43  H   LIG d   1       3.207   0.190  -6.464  0.00  0.00     0.081 H 
ATOM     44  H   LIG d   1       3.426  -1.338  -5.582  0.00  0.00     0.081 H 
ATOM     45  C   LIG d   1       6.079  -1.653  -6.032  0.00  0.00    -0.039 C 
ATOM     46  H   LIG d   1       5.597   0.135  -7.140  0.00  0.00     0.032 H 
ATOM     47  H   LIG d   1       4.735  -1.325  -7.687  0.00  0.00     0.032 H 
ATOM     48  H   LIG d   1       6.944  -1.879  -6.654  0.00  0.00     0.027 H 
ATOM     49  H   LIG d   1       5.587  -2.579  -5.733  0.00  0.00     0.027 H 
ATOM     50  C   LIG d   1       3.647   1.531  -2.728  0.00  0.00    -0.012 C 
ATOM     51  H   LIG d   1       2.528   1.274  -4.542  0.00  0.00     0.081 H 
ATOM     52  H   LIG d   1       2.719  -0.209  -3.581  0.00  0.00     0.081 H 
ATOM     53  C   LIG d   1       4.602   0.701  -1.864  0.00  0.00    -0.043 C 
ATOM     54  H   LIG d   1       2.770   1.805  -2.142  0.00  0.00     0.032 H 
ATOM     55  H   LIG d   1       4.156   2.432  -3.071  0.00  0.00     0.032 H 
ATOM     56  H   LIG d   1       4.085  -0.186  -1.497  0.00  0.00     0.027 H 
ATOM     57  H   LIG d   1       4.950   1.300  -1.023  0.00  0.00     0.027 H 
ATOM     58  H   LIG d   1       6.463  -0.350  -2.132  0.00  0.00     0.032 H 
ATOM     59  H   LIG d   1       6.337   1.166  -3.052  0.00  0.00     0.032 H 
ENDBRANCH   1  33
TORSDOF 5
ENDMDL
MODEL 6
REMARK VINA RESULT:      -5.8      6.004      8.239
REMARK  5 active torsions:
REMARK  status: ('A' for Active; 'I' for Inactive)
REMARK    1  A    between atoms: C_1  and  C_2 
REMARK       I    between atoms: C_2  and  N_4 
REMARK    2  A    between atoms: C_12  and  O_13 
REMARK    3  A    between atoms: C_14  and  O_15 
REMARK    4  A    between atoms: N_16  and  C_17 
REMARK    5  A    between atoms: C_17  and  C_18 
ROOT
ATOM      1  C   LIG d   1       9.343   6.937  -5.272  0.00  0.00     0.049 C 
ATOM      2  H   LIG d   1       9.118   5.871  -5.240  0.00  0.00     0.051 H 
ATOM      3  H   LIG d   1       8.490   7.476  -5.684  0.00  0.00     0.051 H 
ENDROOT
BRANCH   1   4
ATOM      4  N   LIG d   1       9.617   7.420  -3.916  0.00  0.00    -0.274 NA
ATOM      5  C   LIG d   1      10.094   6.604  -3.018  0.00  0.00     0.179 A 
ATOM      6  C   LIG d   1      10.498   6.674  -1.585  0.00  0.00     0.277 A 
ATOM      7  C   LIG d   1      10.486   5.183  -2.947  0.00  0.00     0.197 A 
ATOM      8  N   LIG d   1      10.521   7.611  -0.679  0.00  0.00    -0.221 N 
ATOM      9  C   LIG d   1      10.866   5.246  -1.621  0.00  0.00     0.235 A 
ATOM     10  C   LIG d   1      11.005   7.324   0.679  0.00  0.00     0.161 C 
ATOM     11  C   LIG d   1      10.066   8.971  -0.996  0.00  0.00     0.161 C 
ATOM     12  C   LIG d   1      12.131   8.309   1.016  0.00  0.00     0.074 C 
ATOM     13  H   LIG d   1      11.386   6.303   0.724  0.00  0.00     0.104 H 
ATOM     14  H   LIG d   1      10.188   7.444   1.391  0.00  0.00     0.104 H 
ATOM     15  N   LIG d   1      11.675   9.669   0.699  0.00  0.00    -0.290 N 
ATOM     16  H   LIG d   1      13.015   8.072   0.424  0.00  0.00     0.053 H 
ATOM     17  H   LIG d   1      12.370   8.242   2.077  0.00  0.00     0.053 H 
ATOM     18  C   LIG d   1      11.700  10.637   1.637  0.00  0.00     0.213 C 
ATOM     19  C   LIG d   1      11.187   9.954  -0.657  0.00  0.00     0.074 C 
ATOM     20  O   LIG d   1      11.317  11.755   1.365  0.00  0.00    -0.276 OA
ATOM     21  H   LIG d   1      10.803  10.974  -0.701  0.00  0.00     0.053 H 
ATOM     22  H   LIG d   1      12.001   9.837  -1.372  0.00  0.00     0.053 H 
ATOM     23  H   LIG d   1       9.827   9.038  -2.058  0.00  0.00     0.104 H 
ATOM     24  H   LIG d   1       9.183   9.208  -0.403  0.00  0.00     0.104 H 
BRANCH  18  25
ATOM     25  C   LIG d   1      12.203  10.330   3.024  0.00  0.00     0.012 C 
ATOM     26  H   LIG d   1      12.965   9.553   2.971  0.00  0.00     0.032 H 
ATOM     27  H   LIG d   1      12.633  11.231   3.462  0.00  0.00     0.032 H 
ATOM     28  H   LIG d   1      11.374   9.985   3.643  0.00  0.00     0.032 H 
ENDBRANCH  18  25
BRANCH   9  29
ATOM     29  O   LIG d   1      11.369   4.362  -0.727  0.00  0.00    -0.499 OA
ATOM     30  H   LIG d   1      11.139   3.441  -0.910  0.00  0.00     0.292 HD
ENDBRANCH   9  29
BRANCH   7  31
ATOM     31  O   LIG d   1      10.481   4.180  -3.857  0.00  0.00    -0.502 OA
ATOM     32  H   LIG d   1       9.630   4.052  -4.297  0.00  0.00     0.292 HD
ENDBRANCH   7  31
ENDBRANCH   1   4
BRANCH   1  33
ATOM     33  C   LIG d   1      10.571   7.173  -6.155  0.00  0.00     0.022 C 
ATOM     34  H   LIG d   1      11.450   6.742  -5.677  0.00  0.00     0.037 H 
ATOM     35  C   LIG d   1      10.353   6.505  -7.517  0.00  0.00    -0.016 C 
ATOM     36  N   LIG d   1       9.188   7.090  -8.185  0.00  0.00     0.238 N 
ATOM     37  H   LIG d   1      11.238   6.649  -8.138  0.00  0.00     0.085 H 
ATOM     38  C   LIG d   1      10.127   5.008  -7.284  0.00  0.00    -0.009 C 
ATOM     39  C   LIG d   1       9.401   8.527  -8.412  0.00  0.00    -0.032 C 
ATOM     40  C   LIG d   1       8.976   6.449  -9.492  0.00  0.00    -0.032 C 
ATOM     41  H   LIG d   1       8.369   6.958  -7.609  0.00  0.00     0.204 HD
ATOM     42  C   LIG d   1       9.563   9.252  -7.077  0.00  0.00    -0.012 C 
ATOM     43  H   LIG d   1       8.545   8.938  -8.945  0.00  0.00     0.081 H 
ATOM     44  H   LIG d   1      10.300   8.668  -9.011  0.00  0.00     0.081 H 
ATOM     45  C   LIG d   1      10.780   8.676  -6.345  0.00  0.00    -0.039 C 
ATOM     46  H   LIG d   1       8.669   9.105  -6.470  0.00  0.00     0.032 H 
ATOM     47  H   LIG d   1       9.714  10.317  -7.255  0.00  0.00     0.032 H 
ATOM     48  H   LIG d   1      10.882   9.157  -5.372  0.00  0.00     0.027 H 
ATOM     49  H   LIG d   1      11.678   8.849  -6.937  0.00  0.00     0.027 H 
ATOM     50  C   LIG d   1       8.684   4.963  -9.310  0.00  0.00    -0.012 C 
ATOM     51  H   LIG d   1       8.133   6.923  -9.994  0.00  0.00     0.081 H 
ATOM     52  H   LIG d   1       9.872   6.570 -10.102  0.00  0.00     0.081 H 
ATOM     53  C   LIG d   1       9.884   4.306  -8.621  0.00  0.00    -0.043 C 
ATOM     54  H   LIG d   1       8.523   4.501 -10.283  0.00  0.00     0.032 H 
ATOM     55  H   LIG d   1       7.795   4.838  -8.692  0.00  0.00     0.032 H 
ATOM     56  H   LIG d   1      10.768   4.406  -9.252  0.00  0.00     0.027 H 
ATOM     57  H   LIG d   1       9.673   3.250  -8.447  0.00  0.00     0.027 H 
ATOM     58  H   LIG d   1      11.006   4.578  -6.803  0.00  0.00     0.032 H 
ATOM     59  H   LIG d   1       9.259   4.869  -6.639  0.00  0.00     0.032 H 
ENDBRANCH   1  33
TORSDOF 5
ENDMDL
MODEL 7
REMARK VINA RESULT:      -5.8      4.048      5.616
REMARK  5 active torsions:
REMARK  status: ('A' for Active; 'I' for Inactive)
REMARK    1  A    between atoms: C_1  and  C_2 
REMARK       I    between atoms: C_2  and  N_4 
REMARK    2  A    between atoms: C_12  and  O_13 
REMARK    3  A    between atoms: C_14  and  O_15 
REMARK    4  A    between atoms: N_16  and  C_17 
REMARK    5  A    between atoms: C_17  and  C_18 
ROOT
ATOM      1  C   LIG d   1       6.617  -0.392  -5.528  0.00  0.00     0.049 C 
ATOM      2  H   LIG d   1       6.521   0.404  -4.789  0.00  0.00     0.051 H 
ATOM      3  H   LIG d   1       6.507   0.027  -6.529  0.00  0.00     0.051 H 
ENDROOT
BRANCH   1   4
ATOM      4  N   LIG d   1       7.934  -1.020  -5.403  0.00  0.00    -0.274 NA
ATOM      5  C   LIG d   1       9.014  -0.299  -5.521  0.00  0.00     0.179 A 
ATOM      6  C   LIG d   1      10.486  -0.521  -5.467  0.00  0.00     0.277 A 
ATOM      7  C   LIG d   1       9.346   1.118  -5.771  0.00  0.00     0.197 A 
ATOM      8  N   LIG d   1      11.256  -1.555  -5.274  0.00  0.00    -0.221 N 
ATOM      9  C   LIG d   1      10.710   0.917  -5.716  0.00  0.00     0.235 A 
ATOM     10  C   LIG d   1      12.718  -1.409  -5.277  0.00  0.00     0.161 C 
ATOM     11  C   LIG d   1      10.678  -2.887  -5.049  0.00  0.00     0.161 C 
ATOM     12  C   LIG d   1      13.269  -1.966  -3.960  0.00  0.00     0.074 C 
ATOM     13  H   LIG d   1      12.981  -0.354  -5.368  0.00  0.00     0.104 H 
ATOM     14  H   LIG d   1      13.139  -1.966  -6.115  0.00  0.00     0.104 H 
ATOM     15  N   LIG d   1      12.691  -3.298  -3.734  0.00  0.00    -0.290 N 
ATOM     16  H   LIG d   1      12.993  -1.304  -3.138  0.00  0.00     0.053 H 
ATOM     17  H   LIG d   1      14.354  -2.044  -4.021  0.00  0.00     0.053 H 
ATOM     18  C   LIG d   1      13.487  -4.367  -3.535  0.00  0.00     0.213 C 
ATOM     19  C   LIG d   1      11.229  -3.445  -3.736  0.00  0.00     0.074 C 
ATOM     20  O   LIG d   1      12.999  -5.461  -3.355  0.00  0.00    -0.276 OA
ATOM     21  H   LIG d   1      10.967  -4.499  -3.650  0.00  0.00     0.053 H 
ATOM     22  H   LIG d   1      10.804  -2.890  -2.899  0.00  0.00     0.053 H 
ATOM     23  H   LIG d   1       9.591  -2.808  -4.987  0.00  0.00     0.104 H 
ATOM     24  H   LIG d   1      10.953  -3.549  -5.869  0.00  0.00     0.104 H 
BRANCH  18  25
ATOM     25  C   LIG d   1      14.985  -4.201  -3.536  0.00  0.00     0.012 C 
ATOM     26  H   LIG d   1      15.272  -3.486  -4.306  0.00  0.00     0.032 H 
ATOM     27  H   LIG d   1      15.311  -3.836  -2.562  0.00  0.00     0.032 H 
ATOM     28  H   LIG d   1      15.456  -5.164  -3.739  0.00  0.00     0.032 H 
ENDBRANCH  18  25
BRANCH   9  29
ATOM     29  O   LIG d   1      11.801   1.710  -5.838  0.00  0.00    -0.499 OA
ATOM     30  H   LIG d   1      12.189   1.979  -4.995  0.00  0.00     0.292 HD
ENDBRANCH   9  29
BRANCH   7  31
ATOM     31  O   LIG d   1       8.585   2.220  -5.974  0.00  0.00    -0.502 OA
ATOM     32  H   LIG d   1       8.287   2.330  -6.887  0.00  0.00     0.292 HD
ENDBRANCH   7  31
ENDBRANCH   1   4
BRANCH   1  33
ATOM     33  C   LIG d   1       5.528  -1.441  -5.292  0.00  0.00     0.022 C 
ATOM     34  H   LIG d   1       5.988  -2.379  -4.986  0.00  0.00     0.037 H 
ATOM     35  C   LIG d   1       4.583  -0.953  -4.188  0.00  0.00    -0.016 C 
ATOM     36  N   LIG d   1       3.936   0.297  -4.594  0.00  0.00     0.238 N 
ATOM     37  H   LIG d   1       3.822  -1.711  -4.000  0.00  0.00     0.085 H 
ATOM     38  C   LIG d   1       5.409  -0.727  -2.918  0.00  0.00    -0.009 C 
ATOM     39  C   LIG d   1       3.141   0.085  -5.813  0.00  0.00    -0.032 C 
ATOM     40  C   LIG d   1       3.030   0.768  -3.536  0.00  0.00    -0.032 C 
ATOM     41  H   LIG d   1       4.640   0.999  -4.770  0.00  0.00     0.204 HD
ATOM     42  C   LIG d   1       4.048  -0.345  -6.965  0.00  0.00    -0.012 C 
ATOM     43  H   LIG d   1       2.634   1.012  -6.078  0.00  0.00     0.081 H 
ATOM     44  H   LIG d   1       2.398  -0.691  -5.628  0.00  0.00     0.081 H 
ATOM     45  C   LIG d   1       4.741  -1.658  -6.586  0.00  0.00    -0.039 C 
ATOM     46  H   LIG d   1       4.798   0.425  -7.146  0.00  0.00     0.032 H 
ATOM     47  H   LIG d   1       3.451  -0.494  -7.864  0.00  0.00     0.032 H 
ATOM     48  H   LIG d   1       5.422  -1.954  -7.383  0.00  0.00     0.027 H 
ATOM     49  H   LIG d   1       3.993  -2.436  -6.433  0.00  0.00     0.027 H 
ATOM     50  C   LIG d   1       3.816   1.068  -2.263  0.00  0.00    -0.012 C 
ATOM     51  H   LIG d   1       2.526   1.675  -3.869  0.00  0.00     0.081 H 
ATOM     52  H   LIG d   1       2.286  -0.002  -3.329  0.00  0.00     0.081 H 
ATOM     53  C   LIG d   1       4.504  -0.218  -1.795  0.00  0.00    -0.043 C 
ATOM     54  H   LIG d   1       3.136   1.421  -1.489  0.00  0.00     0.032 H 
ATOM     55  H   LIG d   1       4.568   1.830  -2.468  0.00  0.00     0.032 H 
ATOM     56  H   LIG d   1       3.752  -0.972  -1.562  0.00  0.00     0.027 H 
ATOM     57  H   LIG d   1       5.104  -0.011  -0.908  0.00  0.00     0.027 H 
ATOM     58  H   LIG d   1       5.872  -1.666  -2.614  0.00  0.00     0.032 H 
ATOM     59  H   LIG d   1       6.187   0.009  -3.118  0.00  0.00     0.032 H 
ENDBRANCH   1  33
TORSDOF 5
ENDMDL
MODEL 8
REMARK VINA RESULT:      -5.8      4.652      7.741
REMARK  5 active torsions:
REMARK  status: ('A' for Active; 'I' for Inactive)
REMARK    1  A    between atoms: C_1  and  C_2 
REMARK       I    between atoms: C_2  and  N_4 
REMARK    2  A    between atoms: C_12  and  O_13 
REMARK    3  A    between atoms: C_14  and  O_15 
REMARK    4  A    between atoms: N_16  and  C_17 
REMARK    5  A    between atoms: C_17  and  C_18 
ROOT
ATOM      1  C   LIG d   1      10.233   4.699  -2.713  0.00  0.00     0.049 C 
ATOM      2  H   LIG d   1      11.067   4.252  -2.170  0.00  0.00     0.051 H 
ATOM      3  H   LIG d   1       9.312   4.172  -2.462  0.00  0.00     0.051 H 
ENDROOT
BRANCH   1   4
ATOM      4  N   LIG d   1      10.107   6.109  -2.339  0.00  0.00    -0.274 NA
ATOM      5  C   LIG d   1      10.460   6.501  -1.147  0.00  0.00     0.179 A 
ATOM      6  C   LIG d   1      10.496   7.781  -0.385  0.00  0.00     0.277 A 
ATOM      7  C   LIG d   1      11.011   5.884   0.075  0.00  0.00     0.197 A 
ATOM      8  N   LIG d   1      10.175   9.018  -0.644  0.00  0.00    -0.221 N 
ATOM      9  C   LIG d   1      11.051   7.069   0.782  0.00  0.00     0.235 A 
ATOM     10  C   LIG d   1      10.353  10.065   0.371  0.00  0.00     0.161 C 
ATOM     11  C   LIG d   1       9.629   9.390  -1.957  0.00  0.00     0.161 C 
ATOM     12  C   LIG d   1      11.222  11.180  -0.222  0.00  0.00     0.074 C 
ATOM     13  H   LIG d   1      10.846   9.644   1.248  0.00  0.00     0.104 H 
ATOM     14  H   LIG d   1       9.381  10.469   0.654  0.00  0.00     0.104 H 
ATOM     15  N   LIG d   1      10.676  11.552  -1.535  0.00  0.00    -0.290 N 
ATOM     16  H   LIG d   1      12.246  10.824  -0.340  0.00  0.00     0.053 H 
ATOM     17  H   LIG d   1      11.207  12.047   0.438  0.00  0.00     0.053 H 
ATOM     18  C   LIG d   1      10.345  12.831  -1.803  0.00  0.00     0.213 C 
ATOM     19  C   LIG d   1      10.493  10.505  -2.548  0.00  0.00     0.074 C 
ATOM     20  O   LIG d   1       9.891  13.125  -2.888  0.00  0.00    -0.276 OA
ATOM     21  H   LIG d   1       9.997  10.924  -3.423  0.00  0.00     0.053 H 
ATOM     22  H   LIG d   1      11.463  10.099  -2.835  0.00  0.00     0.053 H 
ATOM     23  H   LIG d   1       9.645   8.523  -2.619  0.00  0.00     0.104 H 
ATOM     24  H   LIG d   1       8.606   9.746  -1.840  0.00  0.00     0.104 H 
BRANCH  18  25
ATOM     25  C   LIG d   1      10.538  13.896  -0.754  0.00  0.00     0.012 C 
ATOM     26  H   LIG d   1       9.696  14.587  -0.778  0.00  0.00     0.032 H 
ATOM     27  H   LIG d   1      10.598  13.430   0.230  0.00  0.00     0.032 H 
ATOM     28  H   LIG d   1      11.461  14.440  -0.955  0.00  0.00     0.032 H 
ENDBRANCH  18  25
BRANCH   9  29
ATOM     29  O   LIG d   1      11.439   7.429   2.029  0.00  0.00    -0.499 OA
ATOM     30  H   LIG d   1      12.386   7.610   2.110  0.00  0.00     0.292 HD
ENDBRANCH   9  29
BRANCH   7  31
ATOM     31  O   LIG d   1      11.360   4.613   0.389  0.00  0.00    -0.502 OA
ATOM     32  H   LIG d   1      12.291   4.507   0.623  0.00  0.00     0.292 HD
ENDBRANCH   7  31
ENDBRANCH   1   4
BRANCH   1  33
ATOM     33  C   LIG d   1      10.489   4.591  -4.218  0.00  0.00     0.022 C 
ATOM     34  H   LIG d   1      10.921   5.523  -4.580  0.00  0.00     0.037 H 
ATOM     35  C   LIG d   1      11.463   3.440  -4.488  0.00  0.00    -0.016 C 
ATOM     36  N   LIG d   1      10.886   2.173  -4.028  0.00  0.00     0.238 N 
ATOM     37  H   LIG d   1      11.667   3.379  -5.557  0.00  0.00     0.085 H 
ATOM     38  C   LIG d   1      12.764   3.728  -3.731  0.00  0.00    -0.009 C 
ATOM     39  C   LIG d   1       9.637   1.892  -4.752  0.00  0.00    -0.032 C 
ATOM     40  C   LIG d   1      11.820   1.067  -4.285  0.00  0.00    -0.032 C 
ATOM     41  H   LIG d   1      10.696   2.230  -3.039  0.00  0.00     0.204 HD
ATOM     42  C   LIG d   1       8.607   2.984  -4.468  0.00  0.00    -0.012 C 
ATOM     43  H   LIG d   1       9.243   0.929  -4.430  0.00  0.00     0.081 H 
ATOM     44  H   LIG d   1       9.841   1.858  -5.822  0.00  0.00     0.081 H 
ATOM     45  C   LIG d   1       9.167   4.329  -4.941  0.00  0.00    -0.039 C 
ATOM     46  H   LIG d   1       8.408   3.028  -3.396  0.00  0.00     0.032 H 
ATOM     47  H   LIG d   1       7.683   2.763  -5.003  0.00  0.00     0.032 H 
ATOM     48  H   LIG d   1       8.458   5.123  -4.706  0.00  0.00     0.027 H 
ATOM     49  H   LIG d   1       9.338   4.295  -6.017  0.00  0.00     0.027 H 
ATOM     50  C   LIG d   1      13.112   1.275  -3.502  0.00  0.00    -0.012 C 
ATOM     51  H   LIG d   1      11.360   0.128  -3.977  0.00  0.00     0.081 H 
ATOM     52  H   LIG d   1      12.045   1.024  -5.351  0.00  0.00     0.081 H 
ATOM     53  C   LIG d   1      13.758   2.587  -3.958  0.00  0.00    -0.043 C 
ATOM     54  H   LIG d   1      13.793   0.447  -3.695  0.00  0.00     0.032 H 
ATOM     55  H   LIG d   1      12.891   1.328  -2.437  0.00  0.00     0.032 H 
ATOM     56  H   LIG d   1      14.007   2.525  -5.018  0.00  0.00     0.027 H 
ATOM     57  H   LIG d   1      14.663   2.771  -3.378  0.00  0.00     0.027 H 
ATOM     58  H   LIG d   1      13.194   4.662  -4.092  0.00  0.00     0.032 H 
ATOM     59  H   LIG d   1      12.551   3.816  -2.666  0.00  0.00     0.032 H 
ENDBRANCH   1  33
TORSDOF 5
ENDMDL
MODEL 9
REMARK VINA RESULT:      -5.8      5.349      8.750
REMARK  5 active torsions:
REMARK  status: ('A' for Active; 'I' for Inactive)
REMARK    1  A    between atoms: C_1  and  C_2 
REMARK       I    between atoms: C_2  and  N_4 
REMARK    2  A    between atoms: C_12  and  O_13 
REMARK    3  A    between atoms: C_14  and  O_15 
REMARK    4  A    between atoms: N_16  and  C_17 
REMARK    5  A    between atoms: C_17  and  C_18 
ROOT
ATOM      1  C   LIG d   1       8.554  -6.366  -5.168  0.00  0.00     0.049 C 
ATOM      2  H   LIG d   1       7.874  -7.139  -5.525  0.00  0.00     0.051 H 
ATOM      3  H   LIG d   1       9.359  -6.228  -5.890  0.00  0.00     0.051 H 
ENDROOT
BRANCH   1   4
ATOM      4  N   LIG d   1       7.822  -5.107  -5.008  0.00  0.00    -0.274 NA
ATOM      5  C   LIG d   1       6.557  -5.046  -5.315  0.00  0.00     0.179 A 
ATOM      6  C   LIG d   1       5.480  -4.016  -5.307  0.00  0.00     0.277 A 
ATOM      7  C   LIG d   1       5.524  -5.965  -5.833  0.00  0.00     0.197 A 
ATOM      8  N   LIG d   1       5.411  -2.757  -4.976  0.00  0.00    -0.221 N 
ATOM      9  C   LIG d   1       4.523  -5.015  -5.821  0.00  0.00     0.235 A 
ATOM     10  C   LIG d   1       4.143  -2.023  -5.089  0.00  0.00     0.161 C 
ATOM     11  C   LIG d   1       6.599  -2.046  -4.483  0.00  0.00     0.161 C 
ATOM     12  C   LIG d   1       3.813  -1.402  -3.727  0.00  0.00     0.074 C 
ATOM     13  H   LIG d   1       3.347  -2.709  -5.382  0.00  0.00     0.104 H 
ATOM     14  H   LIG d   1       4.243  -1.235  -5.836  0.00  0.00     0.104 H 
ATOM     15  N   LIG d   1       5.001  -0.692  -3.234  0.00  0.00    -0.290 N 
ATOM     16  H   LIG d   1       3.539  -2.189  -3.023  0.00  0.00     0.053 H 
ATOM     17  H   LIG d   1       2.986  -0.700  -3.835  0.00  0.00     0.053 H 
ATOM     18  C   LIG d   1       4.929   0.610  -2.892  0.00  0.00     0.213 C 
ATOM     19  C   LIG d   1       6.270  -1.424  -3.126  0.00  0.00     0.074 C 
ATOM     20  O   LIG d   1       5.917   1.187  -2.491  0.00  0.00    -0.276 OA
ATOM     21  H   LIG d   1       7.065  -0.738  -2.837  0.00  0.00     0.053 H 
ATOM     22  H   LIG d   1       6.175  -2.213  -2.378  0.00  0.00     0.053 H 
ATOM     23  H   LIG d   1       7.426  -2.749  -4.374  0.00  0.00     0.104 H 
ATOM     24  H   LIG d   1       6.873  -1.260  -5.186  0.00  0.00     0.104 H 
BRANCH  18  25
ATOM     25  C   LIG d   1       3.621   1.349  -3.009  0.00  0.00     0.012 C 
ATOM     26  H   LIG d   1       2.841   0.660  -3.329  0.00  0.00     0.032 H 
ATOM     27  H   LIG d   1       3.356   1.773  -2.040  0.00  0.00     0.032 H 
ATOM     28  H   LIG d   1       3.721   2.151  -3.741  0.00  0.00     0.032 H 
ENDBRANCH  18  25
BRANCH   9  29
ATOM     29  O   LIG d   1       3.208  -5.004  -6.146  0.00  0.00    -0.499 OA
ATOM     30  H   LIG d   1       2.762  -4.167  -5.958  0.00  0.00     0.292 HD
ENDBRANCH   9  29
BRANCH   7  31
ATOM     31  O   LIG d   1       5.548  -7.272  -6.186  0.00  0.00    -0.502 OA
ATOM     32  H   LIG d   1       6.077  -7.457  -6.973  0.00  0.00     0.292 HD
ENDBRANCH   7  31
ENDBRANCH   1   4
BRANCH   1  33
ATOM     33  C   LIG d   1       9.144  -6.787  -3.820  0.00  0.00     0.022 C 
ATOM     34  H   LIG d   1       8.573  -6.327  -3.014  0.00  0.00     0.037 H 
ATOM     35  C   LIG d   1       9.072  -8.312  -3.688  0.00  0.00    -0.016 C 
ATOM     36  N   LIG d   1       9.855  -8.948  -4.751  0.00  0.00     0.238 N 
ATOM     37  H   LIG d   1       9.467  -8.612  -2.717  0.00  0.00     0.085 H 
ATOM     38  C   LIG d   1       7.602  -8.732  -3.798  0.00  0.00    -0.009 C 
ATOM     39  C   LIG d   1      11.266  -8.549  -4.650  0.00  0.00    -0.032 C 
ATOM     40  C   LIG d   1       9.786 -10.412  -4.627  0.00  0.00    -0.032 C 
ATOM     41  H   LIG d   1       9.490  -8.669  -5.650  0.00  0.00     0.204 HD
ATOM     42  C   LIG d   1      11.401  -7.038  -4.836  0.00  0.00    -0.012 C 
ATOM     43  H   LIG d   1      11.842  -9.061  -5.420  0.00  0.00     0.081 H 
ATOM     44  H   LIG d   1      11.650  -8.827  -3.669  0.00  0.00     0.081 H 
ATOM     45  C   LIG d   1      10.601  -6.330  -3.737  0.00  0.00    -0.039 C 
ATOM     46  H   LIG d   1      11.009  -6.754  -5.813  0.00  0.00     0.032 H 
ATOM     47  H   LIG d   1      12.450  -6.753  -4.765  0.00  0.00     0.032 H 
ATOM     48  H   LIG d   1      10.655  -5.252  -3.883  0.00  0.00     0.027 H 
ATOM     49  H   LIG d   1      11.011  -6.591  -2.761  0.00  0.00     0.027 H 
ATOM     50  C   LIG d   1       8.346 -10.888  -4.792  0.00  0.00    -0.012 C 
ATOM     51  H   LIG d   1      10.406 -10.869  -5.398  0.00  0.00     0.081 H 
ATOM     52  H   LIG d   1      10.155 -10.709  -3.646  0.00  0.00     0.081 H 
ATOM     53  C   LIG d   1       7.489 -10.254  -3.692  0.00  0.00    -0.043 C 
ATOM     54  H   LIG d   1       8.309 -11.973  -4.705  0.00  0.00     0.032 H 
ATOM     55  H   LIG d   1       7.969 -10.584  -5.769  0.00  0.00     0.032 H 
ATOM     56  H   LIG d   1       7.847 -10.580  -2.715  0.00  0.00     0.027 H 
ATOM     57  H   LIG d   1       6.448 -10.552  -3.821  0.00  0.00     0.027 H 
ATOM     58  H   LIG d   1       7.032  -8.269  -2.993  0.00  0.00     0.032 H 
ATOM     59  H   LIG d   1       7.203  -8.405  -4.757  0.00  0.00     0.032 H 
ENDBRANCH   1  33
TORSDOF 5
ENDMDL
MODEL 10
REMARK VINA RESULT:      -5.8      2.318      8.239
REMARK  5 active torsions:
REMARK  status: ('A' for Active; 'I' for Inactive)
REMARK    1  A    between atoms: C_1  and  C_2 
REMARK       I    between atoms: C_2  and  N_4 
REMARK    2  A    between atoms: C_12  and  O_13 
REMARK    3  A    between atoms: C_14  and  O_15 
REMARK    4  A    between atoms: N_16  and  C_17 
REMARK    5  A    between atoms: C_17  and  C_18 
ROOT
ATOM      1  C   LIG d   1      10.004   4.586  -2.907  0.00  0.00     0.049 C 
ATOM      2  H   LIG d   1       9.877   4.797  -1.845  0.00  0.00     0.051 H 
ATOM      3  H   LIG d   1      11.050   4.348  -3.107  0.00  0.00     0.051 H 
ENDROOT
BRANCH   1   4
ATOM      4  N   LIG d   1       9.165   3.446  -3.283  0.00  0.00    -0.274 NA
ATOM      5  C   LIG d   1       9.701   2.399  -3.845  0.00  0.00     0.179 A 
ATOM      6  C   LIG d   1       9.238   1.081  -4.364  0.00  0.00     0.277 A 
ATOM      7  C   LIG d   1      11.049   1.967  -4.262  0.00  0.00     0.197 A 
ATOM      8  N   LIG d   1       8.086   0.475  -4.446  0.00  0.00    -0.221 N 
ATOM      9  C   LIG d   1      10.625   0.743  -4.739  0.00  0.00     0.235 A 
ATOM     10  C   LIG d   1       7.989  -0.870  -5.028  0.00  0.00     0.161 C 
ATOM     11  C   LIG d   1       6.862   1.126  -3.958  0.00  0.00     0.161 C 
ATOM     12  C   LIG d   1       7.315  -1.797  -4.011  0.00  0.00     0.074 C 
ATOM     13  H   LIG d   1       8.988  -1.243  -5.258  0.00  0.00     0.104 H 
ATOM     14  H   LIG d   1       7.393  -0.832  -5.940  0.00  0.00     0.104 H 
ATOM     15  N   LIG d   1       6.091  -1.147  -3.523  0.00  0.00    -0.290 N 
ATOM     16  H   LIG d   1       7.991  -1.978  -3.175  0.00  0.00     0.053 H 
ATOM     17  H   LIG d   1       7.060  -2.743  -4.489  0.00  0.00     0.053 H 
ATOM     18  C   LIG d   1       4.900  -1.773  -3.608  0.00  0.00     0.213 C 
ATOM     19  C   LIG d   1       6.187   0.201  -2.945  0.00  0.00     0.074 C 
ATOM     20  O   LIG d   1       3.896  -1.224  -3.206  0.00  0.00    -0.276 OA
ATOM     21  H   LIG d   1       5.188   0.574  -2.720  0.00  0.00     0.053 H 
ATOM     22  H   LIG d   1       6.781   0.166  -2.032  0.00  0.00     0.053 H 
ATOM     23  H   LIG d   1       7.117   2.072  -3.478  0.00  0.00     0.104 H 
ATOM     24  H   LIG d   1       6.186   1.306  -4.793  0.00  0.00     0.104 H 
BRANCH  18  25
ATOM     25  C   LIG d   1       4.816  -3.155  -4.203  0.00  0.00     0.012 C 
ATOM     26  H   LIG d   1       3.986  -3.198  -4.907  0.00  0.00     0.032 H 
ATOM     27  H   LIG d   1       5.746  -3.384  -4.723  0.00  0.00     0.032 H 
ATOM     28  H   LIG d   1       4.656  -3.883  -3.407  0.00  0.00     0.032 H 
ENDBRANCH  18  25
BRANCH   9  29
ATOM     29  O   LIG d   1      11.230  -0.325  -5.312  0.00  0.00    -0.499 OA
ATOM     30  H   LIG d   1      10.631  -0.895  -5.813  0.00  0.00     0.292 HD
ENDBRANCH   9  29
BRANCH   7  31
ATOM     31  O   LIG d   1      12.267   2.557  -4.196  0.00  0.00    -0.502 OA
ATOM     32  H   LIG d   1      12.239   3.489  -3.944  0.00  0.00     0.292 HD
ENDBRANCH   7  31
ENDBRANCH   1   4
BRANCH   1  33
ATOM     33  C   LIG d   1       9.594   5.812  -3.725  0.00  0.00     0.022 C 
ATOM     34  H   LIG d   1       8.517   5.799  -3.883  0.00  0.00     0.037 H 
ATOM     35  C   LIG d   1       9.982   7.084  -2.963  0.00  0.00    -0.016 C 
ATOM     36  N   LIG d   1      11.433   7.129  -2.763  0.00  0.00     0.238 N 
ATOM     37  H   LIG d   1       9.666   7.959  -3.531  0.00  0.00     0.085 H 
ATOM     38  C   LIG d   1       9.267   7.065  -1.608  0.00  0.00    -0.009 C 
ATOM     39  C   LIG d   1      12.124   7.149  -4.060  0.00  0.00    -0.032 C 
ATOM     40  C   LIG d   1      11.807   8.349  -2.030  0.00  0.00    -0.032 C 
ATOM     41  H   LIG d   1      11.725   6.319  -2.237  0.00  0.00     0.204 HD
ATOM     42  C   LIG d   1      11.818   5.869  -4.838  0.00  0.00    -0.012 C 
ATOM     43  H   LIG d   1      13.198   7.224  -3.895  0.00  0.00     0.081 H 
ATOM     44  H   LIG d   1      11.787   8.011  -4.636  0.00  0.00     0.081 H 
ATOM     45  C   LIG d   1      10.307   5.784  -5.078  0.00  0.00    -0.039 C 
ATOM     46  H   LIG d   1      12.146   5.004  -4.261  0.00  0.00     0.032 H 
ATOM     47  H   LIG d   1      12.339   5.890  -5.795  0.00  0.00     0.032 H 
ATOM     48  H   LIG d   1      10.072   4.855  -5.596  0.00  0.00     0.027 H 
ATOM     49  H   LIG d   1       9.984   6.634  -5.680  0.00  0.00     0.027 H 
ATOM     50  C   LIG d   1      11.168   8.349  -0.645  0.00  0.00    -0.012 C 
ATOM     51  H   LIG d   1      12.891   8.389  -1.926  0.00  0.00     0.081 H 
ATOM     52  H   LIG d   1      11.466   9.223  -2.586  0.00  0.00     0.081 H 
ATOM     53  C   LIG d   1       9.644   8.311  -0.805  0.00  0.00    -0.043 C 
ATOM     54  H   LIG d   1      11.457   9.252  -0.110  0.00  0.00     0.032 H 
ATOM     55  H   LIG d   1      11.498   7.471  -0.089  0.00  0.00     0.032 H 
ATOM     56  H   LIG d   1       9.310   9.203  -1.336  0.00  0.00     0.027 H 
ATOM     57  H   LIG d   1       9.174   8.269   0.178  0.00  0.00     0.027 H 
ATOM     58  H   LIG d   1       8.188   7.050  -1.767  0.00  0.00     0.032 H 
ATOM     59  H   LIG d   1       9.562   6.175  -1.055  0.00  0.00     0.032 H 
ENDBRANCH   1  33
TORSDOF 5
ENDMDL
