MODEL 1
REMARK VINA RESULT:      -6.1      0.000      0.000
REMARK  0 active torsions:
REMARK  status: ('A' for Active; 'I' for Inactive)
ROOT
ATOM      1  C   LIG d   1       3.188   0.251  -2.381  0.00  0.00    -0.061 A 
ATOM      2  C   LIG d   1       4.082   1.304  -2.338  0.00  0.00    -0.061 A 
ATOM      3  C   LIG d   1       5.378   1.142  -2.803  0.00  0.00    -0.050 A 
ATOM      4  C   LIG d   1       5.775  -0.085  -3.321  0.00  0.00     0.032 A 
ATOM      5  C   LIG d   1       4.865  -1.158  -3.371  0.00  0.00     0.034 A 
ATOM      6  C   LIG d   1       3.568  -0.976  -2.899  0.00  0.00    -0.050 A 
ATOM      7  C   LIG d   1       5.287  -2.458  -3.920  0.00  0.00     0.204 A 
ATOM      8  C   LIG d   1       6.548  -2.658  -4.385  0.00  0.00     0.084 A 
ATOM      9  C   LIG d   1       7.511  -1.636  -4.368  0.00  0.00    -0.037 A 
ATOM     10  O   LIG d   1       8.633  -1.846  -4.792  0.00  0.00    -0.870 OA
ATOM     11  C   LIG d   1       7.151  -0.290  -3.825  0.00  0.00     0.181 A 
ATOM     12  O   LIG d   1       7.964   0.610  -3.799  0.00  0.00    -0.288 OA
ATOM     13 CL   LIG d   1       6.979  -4.216  -5.019  0.00  0.00    -0.080 Cl
ATOM     14  O   LIG d   1       4.399  -3.476  -3.959  0.00  0.00    -0.286 OA
ATOM     15  H   LIG d   1       2.182   0.389  -2.011  0.00  0.00     0.062 H 
ATOM     16  H   LIG d   1       3.772   2.257  -1.935  0.00  0.00     0.062 H 
ATOM     17  H   LIG d   1       6.075   1.966  -2.764  0.00  0.00     0.062 H 
ATOM     18  H   LIG d   1       2.860  -1.791  -2.933  0.00  0.00     0.062 H 
ENDROOT
TORSDOF 0
ENDMDL
MODEL 2
REMARK VINA RESULT:      -6.0      1.085      2.917
REMARK  0 active torsions:
REMARK  status: ('A' for Active; 'I' for Inactive)
ROOT
ATOM      1  C   LIG d   1       4.141   1.313  -2.313  0.00  0.00    -0.061 A 
ATOM      2  C   LIG d   1       3.185   0.315  -2.311  0.00  0.00    -0.061 A 
ATOM      3  C   LIG d   1       3.484  -0.944  -2.808  0.00  0.00    -0.050 A 
ATOM      4  C   LIG d   1       4.757  -1.203  -3.305  0.00  0.00     0.032 A 
ATOM      5  C   LIG d   1       5.734  -0.190  -3.302  0.00  0.00     0.034 A 
ATOM      6  C   LIG d   1       5.415   1.067  -2.799  0.00  0.00    -0.050 A 
ATOM      7  C   LIG d   1       7.082  -0.466  -3.829  0.00  0.00     0.204 A 
ATOM      8  C   LIG d   1       7.417  -1.686  -4.326  0.00  0.00     0.084 A 
ATOM      9  C   LIG d   1       6.495  -2.745  -4.361  0.00  0.00    -0.037 A 
ATOM     10  O   LIG d   1       6.823  -3.827  -4.813  0.00  0.00    -0.870 OA
ATOM     11  C   LIG d   1       5.108  -2.536  -3.842  0.00  0.00     0.181 A 
ATOM     12  O   LIG d   1       4.293  -3.434  -3.861  0.00  0.00    -0.288 OA
ATOM     13 CL   LIG d   1       9.023  -1.943  -4.931  0.00  0.00    -0.080 Cl
ATOM     14  O   LIG d   1       8.008   0.519  -3.819  0.00  0.00    -0.286 OA
ATOM     15  H   LIG d   1       3.894   2.290  -1.926  0.00  0.00     0.062 H 
ATOM     16  H   LIG d   1       2.197   0.518  -1.925  0.00  0.00     0.062 H 
ATOM     17  H   LIG d   1       2.733  -1.720  -2.809  0.00  0.00     0.062 H 
ATOM     18  H   LIG d   1       6.157   1.852  -2.791  0.00  0.00     0.062 H 
ENDROOT
TORSDOF 0
ENDMDL
MODEL 3
REMARK VINA RESULT:      -5.9      1.978      3.272
REMARK  0 active torsions:
REMARK  status: ('A' for Active; 'I' for Inactive)
ROOT
ATOM      1  C   LIG d   1       4.400   0.574  -1.898  0.00  0.00    -0.061 A 
ATOM      2  C   LIG d   1       4.254  -0.800  -1.850  0.00  0.00    -0.061 A 
ATOM      3  C   LIG d   1       5.114  -1.622  -2.561  0.00  0.00    -0.050 A 
ATOM      4  C   LIG d   1       6.133  -1.058  -3.322  0.00  0.00     0.032 A 
ATOM      5  C   LIG d   1       6.287   0.340  -3.368  0.00  0.00     0.034 A 
ATOM      6  C   LIG d   1       5.414   1.149  -2.646  0.00  0.00    -0.050 A 
ATOM      7  C   LIG d   1       7.366   0.937  -4.174  0.00  0.00     0.204 A 
ATOM      8  C   LIG d   1       8.231   0.166  -4.887  0.00  0.00     0.084 A 
ATOM      9  C   LIG d   1       8.139  -1.235  -4.890  0.00  0.00    -0.037 A 
ATOM     10  O   LIG d   1       8.927  -1.898  -5.538  0.00  0.00    -0.870 OA
ATOM     11  C   LIG d   1       7.067  -1.907  -4.092  0.00  0.00     0.181 A 
ATOM     12  O   LIG d   1       6.966  -3.117  -4.078  0.00  0.00    -0.288 OA
ATOM     13 CL   LIG d   1       9.480   0.934  -5.817  0.00  0.00    -0.080 Cl
ATOM     14  O   LIG d   1       7.499   2.281  -4.207  0.00  0.00    -0.286 OA
ATOM     15  H   LIG d   1       3.720   1.203  -1.342  0.00  0.00     0.062 H 
ATOM     16  H   LIG d   1       3.462  -1.236  -1.258  0.00  0.00     0.062 H 
ATOM     17  H   LIG d   1       4.995  -2.695  -2.524  0.00  0.00     0.062 H 
ATOM     18  H   LIG d   1       5.522   2.223  -2.674  0.00  0.00     0.062 H 
ENDROOT
TORSDOF 0
ENDMDL
MODEL 4
REMARK VINA RESULT:      -5.8      3.373      4.183
REMARK  0 active torsions:
REMARK  status: ('A' for Active; 'I' for Inactive)
ROOT
ATOM      1  C   LIG d   1       3.896  -0.428  -1.970  0.00  0.00    -0.061 A 
ATOM      2  C   LIG d   1       4.563  -1.631  -2.099  0.00  0.00    -0.061 A 
ATOM      3  C   LIG d   1       4.783  -2.180  -3.353  0.00  0.00    -0.050 A 
ATOM      4  C   LIG d   1       4.333  -1.511  -4.485  0.00  0.00     0.032 A 
ATOM      5  C   LIG d   1       3.657  -0.283  -4.357  0.00  0.00     0.034 A 
ATOM      6  C   LIG d   1       3.447   0.253  -3.090  0.00  0.00    -0.050 A 
ATOM      7  C   LIG d   1       3.181   0.425  -5.558  0.00  0.00     0.204 A 
ATOM      8  C   LIG d   1       3.375  -0.080  -6.806  0.00  0.00     0.084 A 
ATOM      9  C   LIG d   1       4.040  -1.299  -7.013  0.00  0.00    -0.037 A 
ATOM     10  O   LIG d   1       4.199  -1.726  -8.141  0.00  0.00    -0.870 OA
ATOM     11  C   LIG d   1       4.552  -2.071  -5.837  0.00  0.00     0.181 A 
ATOM     12  O   LIG d   1       5.129  -3.127  -5.988  0.00  0.00    -0.288 OA
ATOM     13 CL   LIG d   1       2.787   0.806  -8.178  0.00  0.00    -0.080 Cl
ATOM     14  O   LIG d   1       2.534   1.603  -5.417  0.00  0.00    -0.286 OA
ATOM     15  H   LIG d   1       3.727  -0.012  -0.987  0.00  0.00     0.062 H 
ATOM     16  H   LIG d   1       4.912  -2.149  -1.218  0.00  0.00     0.062 H 
ATOM     17  H   LIG d   1       5.302  -3.123  -3.449  0.00  0.00     0.062 H 
ATOM     18  H   LIG d   1       2.930   1.195  -2.979  0.00  0.00     0.062 H 
ENDROOT
TORSDOF 0
ENDMDL
MODEL 5
REMARK VINA RESULT:      -5.8      2.635      3.106
REMARK  0 active torsions:
REMARK  status: ('A' for Active; 'I' for Inactive)
ROOT
ATOM      1  C   LIG d   1       4.316  -0.505  -1.789  0.00  0.00    -0.061 A 
ATOM      2  C   LIG d   1       3.655   0.614  -2.259  0.00  0.00    -0.061 A 
ATOM      3  C   LIG d   1       3.409   0.764  -3.616  0.00  0.00    -0.050 A 
ATOM      4  C   LIG d   1       3.825  -0.222  -4.504  0.00  0.00     0.032 A 
ATOM      5  C   LIG d   1       4.493  -1.365  -4.026  0.00  0.00     0.034 A 
ATOM      6  C   LIG d   1       4.731  -1.498  -2.661  0.00  0.00    -0.050 A 
ATOM      7  C   LIG d   1       4.933  -2.409  -4.968  0.00  0.00     0.204 A 
ATOM      8  C   LIG d   1       4.712  -2.300  -6.305  0.00  0.00     0.084 A 
ATOM      9  C   LIG d   1       4.052  -1.188  -6.855  0.00  0.00    -0.037 A 
ATOM     10  O   LIG d   1       3.869  -1.119  -8.056  0.00  0.00    -0.870 OA
ATOM     11  C   LIG d   1       3.577  -0.091  -5.956  0.00  0.00     0.181 A 
ATOM     12  O   LIG d   1       3.004   0.879  -6.406  0.00  0.00    -0.288 OA
ATOM     13 CL   LIG d   1       5.258  -3.566  -7.359  0.00  0.00    -0.080 Cl
ATOM     14  O   LIG d   1       5.574  -3.499  -4.492  0.00  0.00    -0.286 OA
ATOM     15  H   LIG d   1       4.505  -0.608  -0.730  0.00  0.00     0.062 H 
ATOM     16  H   LIG d   1       3.332   1.378  -1.568  0.00  0.00     0.062 H 
ATOM     17  H   LIG d   1       2.896   1.641  -3.980  0.00  0.00     0.062 H 
ATOM     18  H   LIG d   1       5.242  -2.371  -2.283  0.00  0.00     0.062 H 
ENDROOT
TORSDOF 0
ENDMDL
MODEL 6
REMARK VINA RESULT:      -5.4      2.448      4.838
REMARK  0 active torsions:
REMARK  status: ('A' for Active; 'I' for Inactive)
ROOT
ATOM      1  C   LIG d   1       8.733  -1.296  -5.087  0.00  0.00    -0.061 A 
ATOM      2  C   LIG d   1       8.248  -2.580  -5.251  0.00  0.00    -0.061 A 
ATOM      3  C   LIG d   1       6.977  -2.912  -4.808  0.00  0.00    -0.050 A 
ATOM      4  C   LIG d   1       6.186  -1.944  -4.200  0.00  0.00     0.032 A 
ATOM      5  C   LIG d   1       6.675  -0.634  -4.037  0.00  0.00     0.034 A 
ATOM      6  C   LIG d   1       7.953  -0.319  -4.489  0.00  0.00    -0.050 A 
ATOM      7  C   LIG d   1       5.836   0.391  -3.393  0.00  0.00     0.204 A 
ATOM      8  C   LIG d   1       4.584   0.107  -2.943  0.00  0.00     0.084 A 
ATOM      9  C   LIG d   1       4.029  -1.177  -3.071  0.00  0.00    -0.037 A 
ATOM     10  O   LIG d   1       2.906  -1.401  -2.659  0.00  0.00    -0.870 OA
ATOM     11  C   LIG d   1       4.826  -2.266  -3.716  0.00  0.00     0.181 A 
ATOM     12  O   LIG d   1       4.370  -3.384  -3.839  0.00  0.00    -0.288 OA
ATOM     13 CL   LIG d   1       3.649   1.362  -2.194  0.00  0.00    -0.080 Cl
ATOM     14  O   LIG d   1       6.321   1.644  -3.244  0.00  0.00    -0.286 OA
ATOM     15  H   LIG d   1       9.726  -1.051  -5.434  0.00  0.00     0.062 H 
ATOM     16  H   LIG d   1       8.865  -3.331  -5.724  0.00  0.00     0.062 H 
ATOM     17  H   LIG d   1       6.604  -3.917  -4.934  0.00  0.00     0.062 H 
ATOM     18  H   LIG d   1       8.339   0.682  -4.370  0.00  0.00     0.062 H 
ENDROOT
TORSDOF 0
ENDMDL
MODEL 7
REMARK VINA RESULT:      -5.4      2.208      3.329
REMARK  0 active torsions:
REMARK  status: ('A' for Active; 'I' for Inactive)
ROOT
ATOM      1  C   LIG d   1       4.593  -3.153  -3.777  0.00  0.00    -0.061 A 
ATOM      2  C   LIG d   1       3.928  -2.316  -2.901  0.00  0.00    -0.061 A 
ATOM      3  C   LIG d   1       4.414  -1.044  -2.641  0.00  0.00    -0.050 A 
ATOM      4  C   LIG d   1       5.574  -0.608  -3.273  0.00  0.00     0.032 A 
ATOM      5  C   LIG d   1       6.250  -1.457  -4.169  0.00  0.00     0.034 A 
ATOM      6  C   LIG d   1       5.746  -2.731  -4.418  0.00  0.00    -0.050 A 
ATOM      7  C   LIG d   1       7.479  -0.995  -4.837  0.00  0.00     0.204 A 
ATOM      8  C   LIG d   1       7.990   0.245  -4.610  0.00  0.00     0.084 A 
ATOM      9  C   LIG d   1       7.371   1.147  -3.728  0.00  0.00    -0.037 A 
ATOM     10  O   LIG d   1       7.851   2.249  -3.545  0.00  0.00    -0.870 OA
ATOM     11  C   LIG d   1       6.118   0.743  -3.017  0.00  0.00     0.181 A 
ATOM     12  O   LIG d   1       5.564   1.503  -2.251  0.00  0.00    -0.288 OA
ATOM     13 CL   LIG d   1       9.442   0.725  -5.430  0.00  0.00    -0.080 Cl
ATOM     14  O   LIG d   1       8.115  -1.823  -5.695  0.00  0.00    -0.286 OA
ATOM     15  H   LIG d   1       4.205  -4.143  -3.968  0.00  0.00     0.062 H 
ATOM     16  H   LIG d   1       3.027  -2.656  -2.412  0.00  0.00     0.062 H 
ATOM     17  H   LIG d   1       3.894  -0.394  -1.954  0.00  0.00     0.062 H 
ATOM     18  H   LIG d   1       6.256  -3.390  -5.104  0.00  0.00     0.062 H 
ENDROOT
TORSDOF 0
ENDMDL
MODEL 8
REMARK VINA RESULT:      -5.1      3.647      4.563
REMARK  0 active torsions:
REMARK  status: ('A' for Active; 'I' for Inactive)
ROOT
ATOM      1  C   LIG d   1       2.815  -0.341  -8.176  0.00  0.00    -0.061 A 
ATOM      2  C   LIG d   1       3.556  -1.492  -8.363  0.00  0.00    -0.061 A 
ATOM      3  C   LIG d   1       4.301  -2.025  -7.322  0.00  0.00    -0.050 A 
ATOM      4  C   LIG d   1       4.293  -1.399  -6.081  0.00  0.00     0.032 A 
ATOM      5  C   LIG d   1       3.534  -0.230  -5.885  0.00  0.00     0.034 A 
ATOM      6  C   LIG d   1       2.793   0.290  -6.942  0.00  0.00    -0.050 A 
ATOM      7  C   LIG d   1       3.527   0.433  -4.569  0.00  0.00     0.204 A 
ATOM      8  C   LIG d   1       4.243  -0.057  -3.522  0.00  0.00     0.084 A 
ATOM      9  C   LIG d   1       5.024  -1.218  -3.642  0.00  0.00    -0.037 A 
ATOM     10  O   LIG d   1       5.654  -1.632  -2.686  0.00  0.00    -0.870 OA
ATOM     11  C   LIG d   1       5.076  -1.942  -4.950  0.00  0.00     0.181 A 
ATOM     12  O   LIG d   1       5.743  -2.948  -5.079  0.00  0.00    -0.288 OA
ATOM     13 CL   LIG d   1       4.191   0.774  -1.999  0.00  0.00    -0.080 Cl
ATOM     14  O   LIG d   1       2.793   1.555  -4.399  0.00  0.00    -0.286 OA
ATOM     15  H   LIG d   1       2.242   0.066  -8.996  0.00  0.00     0.062 H 
ATOM     16  H   LIG d   1       3.561  -1.977  -9.329  0.00  0.00     0.062 H 
ATOM     17  H   LIG d   1       4.882  -2.922  -7.474  0.00  0.00     0.062 H 
ATOM     18  H   LIG d   1       2.206   1.186  -6.804  0.00  0.00     0.062 H 
ENDROOT
TORSDOF 0
ENDMDL
MODEL 9
REMARK VINA RESULT:      -5.0      2.085      3.995
REMARK  0 active torsions:
REMARK  status: ('A' for Active; 'I' for Inactive)
ROOT
ATOM      1  C   LIG d   1       7.544  -3.865  -5.287  0.00  0.00    -0.061 A 
ATOM      2  C   LIG d   1       8.608  -2.989  -5.382  0.00  0.00    -0.061 A 
ATOM      3  C   LIG d   1       8.501  -1.699  -4.884  0.00  0.00    -0.050 A 
ATOM      4  C   LIG d   1       7.318  -1.292  -4.279  0.00  0.00     0.032 A 
ATOM      5  C   LIG d   1       6.235  -2.185  -4.175  0.00  0.00     0.034 A 
ATOM      6  C   LIG d   1       6.361  -3.475  -4.682  0.00  0.00    -0.050 A 
ATOM      7  C   LIG d   1       4.981  -1.751  -3.535  0.00  0.00     0.204 A 
ATOM      8  C   LIG d   1       4.835  -0.496  -3.033  0.00  0.00     0.084 A 
ATOM      9  C   LIG d   1       5.871   0.450  -3.100  0.00  0.00    -0.037 A 
ATOM     10  O   LIG d   1       5.710   1.566  -2.642  0.00  0.00    -0.870 OA
ATOM     11  C   LIG d   1       7.172   0.077  -3.737  0.00  0.00     0.181 A 
ATOM     12  O   LIG d   1       8.083   0.875  -3.807  0.00  0.00    -0.288 OA
ATOM     13 CL   LIG d   1       3.330  -0.051  -2.291  0.00  0.00    -0.080 Cl
ATOM     14  O   LIG d   1       3.951  -2.622  -3.444  0.00  0.00    -0.286 OA
ATOM     15  H   LIG d   1       7.639  -4.866  -5.684  0.00  0.00     0.062 H 
ATOM     16  H   LIG d   1       9.527  -3.307  -5.853  0.00  0.00     0.062 H 
ATOM     17  H   LIG d   1       9.334  -1.016  -4.963  0.00  0.00     0.062 H 
ATOM     18  H   LIG d   1       5.537  -4.169  -4.608  0.00  0.00     0.062 H 
ENDROOT
TORSDOF 0
ENDMDL
MODEL 10
REMARK VINA RESULT:      -4.8      9.825     11.666
REMARK  0 active torsions:
REMARK  status: ('A' for Active; 'I' for Inactive)
ROOT
ATOM      1  C   LIG d   1       9.796   6.699  -3.057  0.00  0.00    -0.061 A 
ATOM      2  C   LIG d   1      10.049   5.552  -2.330  0.00  0.00    -0.061 A 
ATOM      3  C   LIG d   1      10.511   5.636  -1.025  0.00  0.00    -0.050 A 
ATOM      4  C   LIG d   1      10.713   6.884  -0.446  0.00  0.00     0.032 A 
ATOM      5  C   LIG d   1      10.450   8.054  -1.183  0.00  0.00     0.034 A 
ATOM      6  C   LIG d   1       9.987   7.949  -2.491  0.00  0.00    -0.050 A 
ATOM      7  C   LIG d   1      10.665   9.375  -0.568  0.00  0.00     0.204 A 
ATOM      8  C   LIG d   1      11.117   9.502   0.708  0.00  0.00     0.084 A 
ATOM      9  C   LIG d   1      11.401   8.380   1.504  0.00  0.00    -0.037 A 
ATOM     10  O   LIG d   1      11.804   8.525   2.643  0.00  0.00    -0.870 OA
ATOM     11  C   LIG d   1      11.204   7.007   0.943  0.00  0.00     0.181 A 
ATOM     12  O   LIG d   1      11.442   6.022   1.610  0.00  0.00    -0.288 OA
ATOM     13 CL   LIG d   1      11.348  11.090   1.371  0.00  0.00    -0.080 Cl
ATOM     14  O   LIG d   1      10.408  10.488  -1.290  0.00  0.00    -0.286 OA
ATOM     15  H   LIG d   1       9.441   6.620  -4.074  0.00  0.00     0.062 H 
ATOM     16  H   LIG d   1       9.892   4.583  -2.782  0.00  0.00     0.062 H 
ATOM     17  H   LIG d   1      10.712   4.737  -0.462  0.00  0.00     0.062 H 
ATOM     18  H   LIG d   1       9.782   8.840  -3.066  0.00  0.00     0.062 H 
ENDROOT
TORSDOF 0
ENDMDL
