MODEL 1
REMARK VINA RESULT:      -7.4      0.000      0.000
REMARK  7 active torsions:
REMARK  status: ('A' for Active; 'I' for Inactive)
REMARK    1  A    between atoms: C_1  and  O_2 
REMARK    2  A    between atoms: O_2  and  C_3 
REMARK    3  A    between atoms: C_8  and  C_9 
REMARK    4  A    between atoms: C_15  and  O_24 
REMARK    5  A    between atoms: C_19  and  C_20 
REMARK    6  A    between atoms: O_24  and  C_25 
REMARK    7  A    between atoms: C_25  and  C_26 
ROOT
ATOM      1  C   LIG d   1       2.508  -2.978 -11.094  0.00  0.00     0.080 A 
ATOM      2  C   LIG d   1       3.463  -3.120  -9.980  0.00  0.00     0.201 A 
ATOM      3  O   LIG d   1       4.264  -4.037  -9.940  0.00  0.00    -0.286 OA
ATOM      4  C   LIG d   1       3.400  -2.100  -8.918  0.00  0.00     0.065 A 
ATOM      5  C   LIG d   1       4.260  -2.147  -7.820  0.00  0.00    -0.044 A 
ATOM      6  C   LIG d   1       4.179  -1.183  -6.855  0.00  0.00    -0.019 A 
ATOM      7  C   LIG d   1       3.235  -0.162  -6.958  0.00  0.00     0.124 A 
ATOM      8  C   LIG d   1       2.376  -0.104  -8.041  0.00  0.00     0.023 A 
ATOM      9  C   LIG d   1       2.448  -1.073  -9.034  0.00  0.00     0.143 A 
ATOM     10  O   LIG d   1       1.618  -1.031 -10.094  0.00  0.00    -0.450 OA
ATOM     11  C   LIG d   1       1.640  -1.933 -11.079  0.00  0.00     0.220 A 
ATOM     12  H   LIG d   1       4.990  -2.938  -7.735  0.00  0.00     0.063 H 
ATOM     13  H   LIG d   1       4.847  -1.213  -6.007  0.00  0.00     0.065 H 
ATOM     14  H   LIG d   1       1.650   0.692  -8.114  0.00  0.00     0.069 H 
ENDROOT
BRANCH   1  15
ATOM     15  C   LIG d   1       2.496  -3.955 -12.209  0.00  0.00     0.031 A 
ATOM     16  C   LIG d   1       1.755  -5.136 -12.100  0.00  0.00     0.128 A 
ATOM     17  C   LIG d   1       1.750  -6.042 -13.147  0.00  0.00    -0.019 A 
ATOM     18  C   LIG d   1       2.474  -5.781 -14.295  0.00  0.00    -0.058 A 
ATOM     19  H   LIG d   1       1.178  -6.956 -13.067  0.00  0.00     0.065 H 
ATOM     20  C   LIG d   1       3.209  -4.613 -14.405  0.00  0.00    -0.061 A 
ATOM     21  H   LIG d   1       2.467  -6.491 -15.108  0.00  0.00     0.062 H 
ATOM     22  C   LIG d   1       3.219  -3.699 -13.372  0.00  0.00    -0.050 A 
ATOM     23  H   LIG d   1       3.772  -4.416 -15.305  0.00  0.00     0.062 H 
ATOM     24  H   LIG d   1       3.790  -2.786 -13.463  0.00  0.00     0.062 H 
BRANCH  16  25
ATOM     25  O   LIG d   1       1.043  -5.392 -10.972  0.00  0.00    -0.494 OA
BRANCH  25  26
ATOM     26  C   LIG d   1       1.336  -6.609 -10.283  0.00  0.00     0.079 C 
ATOM     27  H   LIG d   1       2.117  -6.430  -9.544  0.00  0.00     0.066 H 
ATOM     28  H   LIG d   1       0.437  -6.968  -9.781  0.00  0.00     0.066 H 
ATOM     29  H   LIG d   1       1.676  -7.359 -10.998  0.00  0.00     0.066 H 
ENDBRANCH  25  26
ENDBRANCH  16  25
ENDBRANCH   1  15
BRANCH  11  30
ATOM     30  C   LIG d   1       0.664  -1.786 -12.218  0.00  0.00     0.451 C 
ATOM     31  F   LIG d   1       1.368  -1.663 -13.421  0.00  0.00    -0.163 F 
ATOM     32  F   LIG d   1      -0.161  -2.915 -12.273  0.00  0.00    -0.163 F 
ATOM     33  F   LIG d   1      -0.120  -0.644 -12.016  0.00  0.00    -0.163 F 
ENDBRANCH  11  30
BRANCH   7  34
ATOM     34  O   LIG d   1       3.163   0.786  -5.990  0.00  0.00    -0.487 OA
BRANCH  34  35
ATOM     35  C   LIG d   1       2.280   0.530  -4.895  0.00  0.00     0.117 C 
ATOM     36  H   LIG d   1       1.743   1.444  -4.641  0.00  0.00     0.075 H 
ATOM     37  H   LIG d   1       1.566  -0.244  -5.177  0.00  0.00     0.075 H 
BRANCH  35  38
ATOM     38  C   LIG d   1       3.078   0.067  -3.703  0.00  0.00     0.025 A 
ATOM     39  C   LIG d   1       3.711   0.993  -2.893  0.00  0.00     0.130 A 
ATOM     40  C   LIG d   1       4.444   0.567  -1.797  0.00  0.00    -0.026 A 
ATOM     41  F   LIG d   1       3.614   2.312  -3.168  0.00  0.00    -0.205 F 
ATOM     42  C   LIG d   1       4.542  -0.783  -1.517  0.00  0.00    -0.059 A 
ATOM     43  H   LIG d   1       4.938   1.288  -1.163  0.00  0.00     0.065 H 
ATOM     44  C   LIG d   1       3.909  -1.707  -2.328  0.00  0.00    -0.061 A 
ATOM     45  H   LIG d   1       5.114  -1.116  -0.663  0.00  0.00     0.062 H 
ATOM     46  C   LIG d   1       3.173  -1.282  -3.417  0.00  0.00    -0.053 A 
ATOM     47  H   LIG d   1       3.987  -2.761  -2.107  0.00  0.00     0.062 H 
ATOM     48  H   LIG d   1       2.676  -2.004  -4.047  0.00  0.00     0.062 H 
ENDBRANCH  35  38
ENDBRANCH  34  35
ENDBRANCH   7  34
TORSDOF 7
ENDMDL
MODEL 2
REMARK VINA RESULT:      -7.3      2.905      4.109
REMARK  7 active torsions:
REMARK  status: ('A' for Active; 'I' for Inactive)
REMARK    1  A    between atoms: C_1  and  O_2 
REMARK    2  A    between atoms: O_2  and  C_3 
REMARK    3  A    between atoms: C_8  and  C_9 
REMARK    4  A    between atoms: C_15  and  O_24 
REMARK    5  A    between atoms: C_19  and  C_20 
REMARK    6  A    between atoms: O_24  and  C_25 
REMARK    7  A    between atoms: C_25  and  C_26 
ROOT
ATOM      1  C   LIG d   1       3.705  -1.080  -9.510  0.00  0.00     0.080 A 
ATOM      2  C   LIG d   1       4.183  -2.271  -8.785  0.00  0.00     0.201 A 
ATOM      3  O   LIG d   1       3.890  -3.398  -9.146  0.00  0.00    -0.286 OA
ATOM      4  C   LIG d   1       5.030  -2.033  -7.603  0.00  0.00     0.065 A 
ATOM      5  C   LIG d   1       5.532  -3.093  -6.848  0.00  0.00    -0.044 A 
ATOM      6  C   LIG d   1       6.319  -2.838  -5.761  0.00  0.00    -0.019 A 
ATOM      7  C   LIG d   1       6.612  -1.525  -5.398  0.00  0.00     0.124 A 
ATOM      8  C   LIG d   1       6.121  -0.463  -6.137  0.00  0.00     0.023 A 
ATOM      9  C   LIG d   1       5.324  -0.705  -7.248  0.00  0.00     0.143 A 
ATOM     10  O   LIG d   1       4.837   0.318  -7.978  0.00  0.00    -0.450 OA
ATOM     11  C   LIG d   1       4.066   0.148  -9.056  0.00  0.00     0.220 A 
ATOM     12  H   LIG d   1       5.304  -4.112  -7.124  0.00  0.00     0.063 H 
ATOM     13  H   LIG d   1       6.713  -3.657  -5.178  0.00  0.00     0.065 H 
ATOM     14  H   LIG d   1       6.356   0.551  -5.850  0.00  0.00     0.069 H 
ENDROOT
BRANCH   1  15
ATOM     15  C   LIG d   1       2.847  -1.220 -10.712  0.00  0.00     0.031 A 
ATOM     16  C   LIG d   1       3.423  -1.476 -11.960  0.00  0.00     0.128 A 
ATOM     17  C   LIG d   1       2.615  -1.606 -13.076  0.00  0.00    -0.019 A 
ATOM     18  C   LIG d   1       1.243  -1.483 -12.957  0.00  0.00    -0.058 A 
ATOM     19  H   LIG d   1       3.056  -1.805 -14.042  0.00  0.00     0.065 H 
ATOM     20  C   LIG d   1       0.670  -1.229 -11.723  0.00  0.00    -0.061 A 
ATOM     21  H   LIG d   1       0.617  -1.584 -13.830  0.00  0.00     0.062 H 
ATOM     22  C   LIG d   1       1.463  -1.102 -10.601  0.00  0.00    -0.050 A 
ATOM     23  H   LIG d   1      -0.402  -1.133 -11.638  0.00  0.00     0.062 H 
ATOM     24  H   LIG d   1       1.013  -0.908  -9.639  0.00  0.00     0.062 H 
BRANCH  16  25
ATOM     25  O   LIG d   1       4.772  -1.598 -12.075  0.00  0.00    -0.494 OA
BRANCH  25  26
ATOM     26  C   LIG d   1       5.384  -0.976 -13.207  0.00  0.00     0.079 C 
ATOM     27  H   LIG d   1       6.414  -0.716 -12.966  0.00  0.00     0.066 H 
ATOM     28  H   LIG d   1       5.371  -1.665 -14.052  0.00  0.00     0.066 H 
ATOM     29  H   LIG d   1       4.832  -0.072 -13.467  0.00  0.00     0.066 H 
ENDBRANCH  25  26
ENDBRANCH  16  25
ENDBRANCH   1  15
BRANCH  11  30
ATOM     30  C   LIG d   1       3.579   1.366  -9.797  0.00  0.00     0.451 C 
ATOM     31  F   LIG d   1       4.251   2.499  -9.326  0.00  0.00    -0.163 F 
ATOM     32  F   LIG d   1       3.828   1.211 -11.165  0.00  0.00    -0.163 F 
ATOM     33  F   LIG d   1       2.203   1.520  -9.588  0.00  0.00    -0.163 F 
ENDBRANCH  11  30
BRANCH   7  34
ATOM     34  O   LIG d   1       7.391  -1.285  -4.313  0.00  0.00    -0.487 OA
BRANCH  34  35
ATOM     35  C   LIG d   1       6.846  -1.621  -3.035  0.00  0.00     0.117 C 
ATOM     36  H   LIG d   1       6.629  -2.689  -3.002  0.00  0.00     0.075 H 
ATOM     37  H   LIG d   1       7.567  -1.373  -2.256  0.00  0.00     0.075 H 
BRANCH  35  38
ATOM     38  C   LIG d   1       5.575  -0.843  -2.810  0.00  0.00     0.025 A 
ATOM     39  C   LIG d   1       4.354  -1.494  -2.819  0.00  0.00     0.130 A 
ATOM     40  C   LIG d   1       3.186  -0.778  -2.611  0.00  0.00    -0.026 A 
ATOM     41  F   LIG d   1       4.300  -2.828  -3.027  0.00  0.00    -0.205 F 
ATOM     42  C   LIG d   1       3.243   0.586  -2.398  0.00  0.00    -0.059 A 
ATOM     43  H   LIG d   1       2.233  -1.285  -2.617  0.00  0.00     0.065 H 
ATOM     44  C   LIG d   1       4.464   1.236  -2.391  0.00  0.00    -0.061 A 
ATOM     45  H   LIG d   1       2.333   1.145  -2.238  0.00  0.00     0.062 H 
ATOM     46  C   LIG d   1       5.630   0.521  -2.591  0.00  0.00    -0.053 A 
ATOM     47  H   LIG d   1       4.507   2.302  -2.224  0.00  0.00     0.062 H 
ATOM     48  H   LIG d   1       6.582   1.028  -2.581  0.00  0.00     0.062 H 
ENDBRANCH  35  38
ENDBRANCH  34  35
ENDBRANCH   7  34
TORSDOF 7
ENDMDL
MODEL 3
REMARK VINA RESULT:      -7.3      1.854      2.667
REMARK  7 active torsions:
REMARK  status: ('A' for Active; 'I' for Inactive)
REMARK    1  A    between atoms: C_1  and  O_2 
REMARK    2  A    between atoms: O_2  and  C_3 
REMARK    3  A    between atoms: C_8  and  C_9 
REMARK    4  A    between atoms: C_15  and  O_24 
REMARK    5  A    between atoms: C_19  and  C_20 
REMARK    6  A    between atoms: O_24  and  C_25 
REMARK    7  A    between atoms: C_25  and  C_26 
ROOT
ATOM      1  C   LIG d   1       2.890  -2.681 -11.117  0.00  0.00     0.080 A 
ATOM      2  C   LIG d   1       2.769  -1.213 -11.050  0.00  0.00     0.201 A 
ATOM      3  O   LIG d   1       2.606  -0.540 -12.053  0.00  0.00    -0.286 OA
ATOM      4  C   LIG d   1       2.855  -0.600  -9.713  0.00  0.00     0.065 A 
ATOM      5  C   LIG d   1       2.753   0.781  -9.543  0.00  0.00    -0.044 A 
ATOM      6  C   LIG d   1       2.832   1.316  -8.289  0.00  0.00    -0.019 A 
ATOM      7  C   LIG d   1       3.024   0.491  -7.182  0.00  0.00     0.124 A 
ATOM      8  C   LIG d   1       3.127  -0.880  -7.335  0.00  0.00     0.023 A 
ATOM      9  C   LIG d   1       3.044  -1.442  -8.603  0.00  0.00     0.143 A 
ATOM     10  O   LIG d   1       3.143  -2.776  -8.770  0.00  0.00    -0.450 OA
ATOM     11  C   LIG d   1       3.070  -3.373  -9.962  0.00  0.00     0.220 A 
ATOM     12  H   LIG d   1       2.607   1.424 -10.398  0.00  0.00     0.063 H 
ATOM     13  H   LIG d   1       2.748   2.385  -8.153  0.00  0.00     0.065 H 
ATOM     14  H   LIG d   1       3.273  -1.513  -6.472  0.00  0.00     0.069 H 
ENDROOT
BRANCH   1  15
ATOM     15  C   LIG d   1       2.815  -3.387 -12.419  0.00  0.00     0.031 A 
ATOM     16  C   LIG d   1       1.572  -3.717 -12.968  0.00  0.00     0.128 A 
ATOM     17  C   LIG d   1       1.512  -4.376 -14.184  0.00  0.00    -0.019 A 
ATOM     18  C   LIG d   1       2.676  -4.707 -14.853  0.00  0.00    -0.058 A 
ATOM     19  H   LIG d   1       0.554  -4.633 -14.613  0.00  0.00     0.065 H 
ATOM     20  C   LIG d   1       3.908  -4.381 -14.311  0.00  0.00    -0.061 A 
ATOM     21  H   LIG d   1       2.624  -5.221 -15.800  0.00  0.00     0.062 H 
ATOM     22  C   LIG d   1       3.982  -3.720 -13.102  0.00  0.00    -0.050 A 
ATOM     23  H   LIG d   1       4.813  -4.642 -14.838  0.00  0.00     0.062 H 
ATOM     24  H   LIG d   1       4.945  -3.464 -12.685  0.00  0.00     0.062 H 
BRANCH  16  25
ATOM     25  O   LIG d   1       0.428  -3.392 -12.311  0.00  0.00    -0.494 OA
BRANCH  25  26
ATOM     26  C   LIG d   1      -0.418  -2.418 -12.927  0.00  0.00     0.079 C 
ATOM     27  H   LIG d   1       0.065  -2.033 -13.825  0.00  0.00     0.066 H 
ATOM     28  H   LIG d   1      -1.368  -2.880 -13.194  0.00  0.00     0.066 H 
ATOM     29  H   LIG d   1      -0.596  -1.599 -12.230  0.00  0.00     0.066 H 
ENDBRANCH  25  26
ENDBRANCH  16  25
ENDBRANCH   1  15
BRANCH  11  30
ATOM     30  C   LIG d   1       3.193  -4.873 -10.030  0.00  0.00     0.451 C 
ATOM     31  F   LIG d   1       3.292  -5.392  -8.734  0.00  0.00    -0.163 F 
ATOM     32  F   LIG d   1       2.064  -5.406 -10.660  0.00  0.00    -0.163 F 
ATOM     33  F   LIG d   1       4.339  -5.215 -10.758  0.00  0.00    -0.163 F 
ENDBRANCH  11  30
BRANCH   7  34
ATOM     34  O   LIG d   1       3.105   1.037  -5.942  0.00  0.00    -0.487 OA
BRANCH  34  35
ATOM     35  C   LIG d   1       2.228   0.513  -4.943  0.00  0.00     0.117 C 
ATOM     36  H   LIG d   1       1.533   1.291  -4.626  0.00  0.00     0.075 H 
ATOM     37  H   LIG d   1       1.668  -0.327  -5.355  0.00  0.00     0.075 H 
BRANCH  35  38
ATOM     38  C   LIG d   1       3.035   0.047  -3.759  0.00  0.00     0.025 A 
ATOM     39  C   LIG d   1       3.630   0.972  -2.919  0.00  0.00     0.130 A 
ATOM     40  C   LIG d   1       4.371   0.542  -1.831  0.00  0.00    -0.026 A 
ATOM     41  F   LIG d   1       3.487   2.294  -3.159  0.00  0.00    -0.205 F 
ATOM     42  C   LIG d   1       4.516  -0.810  -1.587  0.00  0.00    -0.059 A 
ATOM     43  H   LIG d   1       4.835   1.262  -1.174  0.00  0.00     0.065 H 
ATOM     44  C   LIG d   1       3.922  -1.734  -2.427  0.00  0.00    -0.061 A 
ATOM     45  H   LIG d   1       5.095  -1.147  -0.739  0.00  0.00     0.062 H 
ATOM     46  C   LIG d   1       3.177  -1.306  -3.509  0.00  0.00    -0.053 A 
ATOM     47  H   LIG d   1       4.036  -2.790  -2.235  0.00  0.00     0.062 H 
ATOM     48  H   LIG d   1       2.710  -2.027  -4.162  0.00  0.00     0.062 H 
ENDBRANCH  35  38
ENDBRANCH  34  35
ENDBRANCH   7  34
TORSDOF 7
ENDMDL
MODEL 4
REMARK VINA RESULT:      -7.2      2.722      8.951
REMARK  7 active torsions:
REMARK  status: ('A' for Active; 'I' for Inactive)
REMARK    1  A    between atoms: C_1  and  O_2 
REMARK    2  A    between atoms: O_2  and  C_3 
REMARK    3  A    between atoms: C_8  and  C_9 
REMARK    4  A    between atoms: C_15  and  O_24 
REMARK    5  A    between atoms: C_19  and  C_20 
REMARK    6  A    between atoms: O_24  and  C_25 
REMARK    7  A    between atoms: C_25  and  C_26 
ROOT
ATOM      1  C   LIG d   1       4.078  -0.869  -5.649  0.00  0.00     0.080 A 
ATOM      2  C   LIG d   1       3.401  -0.072  -6.688  0.00  0.00     0.201 A 
ATOM      3  O   LIG d   1       2.999   1.057  -6.466  0.00  0.00    -0.286 OA
ATOM      4  C   LIG d   1       3.232  -0.708  -8.007  0.00  0.00     0.065 A 
ATOM      5  C   LIG d   1       2.603  -0.038  -9.057  0.00  0.00    -0.044 A 
ATOM      6  C   LIG d   1       2.468  -0.653 -10.269  0.00  0.00    -0.019 A 
ATOM      7  C   LIG d   1       2.945  -1.949 -10.456  0.00  0.00     0.124 A 
ATOM      8  C   LIG d   1       3.570  -2.626  -9.424  0.00  0.00     0.023 A 
ATOM      9  C   LIG d   1       3.721  -2.013  -8.187  0.00  0.00     0.143 A 
ATOM     10  O   LIG d   1       4.327  -2.659  -7.171  0.00  0.00    -0.450 OA
ATOM     11  C   LIG d   1       4.501  -2.121  -5.961  0.00  0.00     0.220 A 
ATOM     12  H   LIG d   1       2.230   0.966  -8.914  0.00  0.00     0.063 H 
ATOM     13  H   LIG d   1       1.986  -0.135 -11.085  0.00  0.00     0.065 H 
ATOM     14  H   LIG d   1       3.940  -3.629  -9.579  0.00  0.00     0.069 H 
ENDROOT
BRANCH   1  15
ATOM     15  C   LIG d   1       4.294  -0.313  -4.291  0.00  0.00     0.031 A 
ATOM     16  C   LIG d   1       5.449   0.421  -4.008  0.00  0.00     0.128 A 
ATOM     17  C   LIG d   1       5.642   0.937  -2.738  0.00  0.00    -0.019 A 
ATOM     18  C   LIG d   1       4.695   0.725  -1.752  0.00  0.00    -0.058 A 
ATOM     19  H   LIG d   1       6.534   1.506  -2.515  0.00  0.00     0.065 H 
ATOM     20  C   LIG d   1       3.550  -0.002  -2.029  0.00  0.00    -0.061 A 
ATOM     21  H   LIG d   1       4.850   1.129  -0.763  0.00  0.00     0.062 H 
ATOM     22  C   LIG d   1       3.343  -0.517  -3.293  0.00  0.00    -0.050 A 
ATOM     23  H   LIG d   1       2.815  -0.163  -1.256  0.00  0.00     0.062 H 
ATOM     24  H   LIG d   1       2.447  -1.080  -3.507  0.00  0.00     0.062 H 
BRANCH  16  25
ATOM     25  O   LIG d   1       6.379   0.629  -4.977  0.00  0.00    -0.494 OA
BRANCH  25  26
ATOM     26  C   LIG d   1       7.732   0.802  -4.550  0.00  0.00     0.079 C 
ATOM     27  H   LIG d   1       7.826   0.497  -3.508  0.00  0.00     0.066 H 
ATOM     28  H   LIG d   1       8.388   0.190  -5.170  0.00  0.00     0.066 H 
ATOM     29  H   LIG d   1       8.013   1.851  -4.649  0.00  0.00     0.066 H 
ENDBRANCH  25  26
ENDBRANCH  16  25
ENDBRANCH   1  15
BRANCH  11  30
ATOM     30  C   LIG d   1       5.195  -2.936  -4.900  0.00  0.00     0.451 C 
ATOM     31  F   LIG d   1       4.357  -3.060  -3.786  0.00  0.00    -0.163 F 
ATOM     32  F   LIG d   1       5.490  -4.206  -5.405  0.00  0.00    -0.163 F 
ATOM     33  F   LIG d   1       6.381  -2.297  -4.522  0.00  0.00    -0.163 F 
ENDBRANCH  11  30
BRANCH   7  34
ATOM     34  O   LIG d   1       2.799  -2.551 -11.664  0.00  0.00    -0.487 OA
BRANCH  34  35
ATOM     35  C   LIG d   1       2.630  -3.970 -11.666  0.00  0.00     0.117 C 
ATOM     36  H   LIG d   1       3.005  -4.379 -12.604  0.00  0.00     0.075 H 
ATOM     37  H   LIG d   1       3.184  -4.403 -10.834  0.00  0.00     0.075 H 
BRANCH  35  38
ATOM     38  C   LIG d   1       1.167  -4.302 -11.523  0.00  0.00     0.025 A 
ATOM     39  C   LIG d   1       0.744  -5.148 -10.512  0.00  0.00     0.130 A 
ATOM     40  C   LIG d   1      -0.601  -5.452 -10.382  0.00  0.00    -0.026 A 
ATOM     41  F   LIG d   1       1.643  -5.675  -9.652  0.00  0.00    -0.205 F 
ATOM     42  C   LIG d   1      -1.518  -4.912 -11.262  0.00  0.00    -0.059 A 
ATOM     43  H   LIG d   1      -0.932  -6.111  -9.593  0.00  0.00     0.065 H 
ATOM     44  C   LIG d   1      -1.095  -4.067 -12.272  0.00  0.00    -0.061 A 
ATOM     45  H   LIG d   1      -2.567  -5.149 -11.162  0.00  0.00     0.062 H 
ATOM     46  C   LIG d   1       0.246  -3.758 -12.400  0.00  0.00    -0.053 A 
ATOM     47  H   LIG d   1      -1.813  -3.645 -12.960  0.00  0.00     0.062 H 
ATOM     48  H   LIG d   1       0.575  -3.096 -13.186  0.00  0.00     0.062 H 
ENDBRANCH  35  38
ENDBRANCH  34  35
ENDBRANCH   7  34
TORSDOF 7
ENDMDL
MODEL 5
REMARK VINA RESULT:      -7.2      2.843      9.368
REMARK  7 active torsions:
REMARK  status: ('A' for Active; 'I' for Inactive)
REMARK    1  A    between atoms: C_1  and  O_2 
REMARK    2  A    between atoms: O_2  and  C_3 
REMARK    3  A    between atoms: C_8  and  C_9 
REMARK    4  A    between atoms: C_15  and  O_24 
REMARK    5  A    between atoms: C_19  and  C_20 
REMARK    6  A    between atoms: O_24  and  C_25 
REMARK    7  A    between atoms: C_25  and  C_26 
ROOT
ATOM      1  C   LIG d   1       4.095  -0.853  -5.652  0.00  0.00     0.080 A 
ATOM      2  C   LIG d   1       3.401  -0.051  -6.675  0.00  0.00     0.201 A 
ATOM      3  O   LIG d   1       2.987   1.070  -6.435  0.00  0.00    -0.286 OA
ATOM      4  C   LIG d   1       3.232  -0.670  -8.002  0.00  0.00     0.065 A 
ATOM      5  C   LIG d   1       2.588   0.007  -9.038  0.00  0.00    -0.044 A 
ATOM      6  C   LIG d   1       2.453  -0.593 -10.258  0.00  0.00    -0.019 A 
ATOM      7  C   LIG d   1       2.945  -1.881 -10.467  0.00  0.00     0.124 A 
ATOM      8  C   LIG d   1       3.586  -2.564  -9.448  0.00  0.00     0.023 A 
ATOM      9  C   LIG d   1       3.737  -1.966  -8.204  0.00  0.00     0.143 A 
ATOM     10  O   LIG d   1       4.358  -2.618  -7.201  0.00  0.00    -0.450 OA
ATOM     11  C   LIG d   1       4.533  -2.096  -5.984  0.00  0.00     0.220 A 
ATOM     12  H   LIG d   1       2.203   1.003  -8.879  0.00  0.00     0.063 H 
ATOM     13  H   LIG d   1       1.959  -0.070 -11.064  0.00  0.00     0.065 H 
ATOM     14  H   LIG d   1       3.967  -3.559  -9.620  0.00  0.00     0.069 H 
ENDROOT
BRANCH   1  15
ATOM     15  C   LIG d   1       4.312  -0.314  -4.287  0.00  0.00     0.031 A 
ATOM     16  C   LIG d   1       5.463   0.426  -4.000  0.00  0.00     0.128 A 
ATOM     17  C   LIG d   1       5.657   0.926  -2.723  0.00  0.00    -0.019 A 
ATOM     18  C   LIG d   1       4.717   0.694  -1.737  0.00  0.00    -0.058 A 
ATOM     19  H   LIG d   1       6.546   1.499  -2.497  0.00  0.00     0.065 H 
ATOM     20  C   LIG d   1       3.577  -0.039  -2.019  0.00  0.00    -0.061 A 
ATOM     21  H   LIG d   1       4.873   1.085  -0.744  0.00  0.00     0.062 H 
ATOM     22  C   LIG d   1       3.368  -0.538  -3.288  0.00  0.00    -0.050 A 
ATOM     23  H   LIG d   1       2.846  -0.216  -1.244  0.00  0.00     0.062 H 
ATOM     24  H   LIG d   1       2.475  -1.106  -3.506  0.00  0.00     0.062 H 
BRANCH  16  25
ATOM     25  O   LIG d   1       6.387   0.654  -4.970  0.00  0.00    -0.494 OA
BRANCH  25  26
ATOM     26  C   LIG d   1       7.725   0.917  -4.542  0.00  0.00     0.079 C 
ATOM     27  H   LIG d   1       8.075   1.846  -4.992  0.00  0.00     0.066 H 
ATOM     28  H   LIG d   1       7.747   1.008  -3.456  0.00  0.00     0.066 H 
ATOM     29  H   LIG d   1       8.373   0.096  -4.851  0.00  0.00     0.066 H 
ENDBRANCH  25  26
ENDBRANCH  16  25
ENDBRANCH   1  15
BRANCH  11  30
ATOM     30  C   LIG d   1       5.243  -2.916  -4.939  0.00  0.00     0.451 C 
ATOM     31  F   LIG d   1       4.419  -3.055  -3.816  0.00  0.00    -0.163 F 
ATOM     32  F   LIG d   1       5.540  -4.180  -5.460  0.00  0.00    -0.163 F 
ATOM     33  F   LIG d   1       6.430  -2.274  -4.569  0.00  0.00    -0.163 F 
ENDBRANCH  11  30
BRANCH   7  34
ATOM     34  O   LIG d   1       2.799  -2.467 -11.682  0.00  0.00    -0.487 OA
BRANCH  34  35
ATOM     35  C   LIG d   1       2.105  -1.721 -12.684  0.00  0.00     0.117 C 
ATOM     36  H   LIG d   1       1.179  -2.235 -12.943  0.00  0.00     0.075 H 
ATOM     37  H   LIG d   1       1.874  -0.727 -12.301  0.00  0.00     0.075 H 
BRANCH  35  38
ATOM     38  C   LIG d   1       2.972  -1.598 -13.911  0.00  0.00     0.025 A 
ATOM     39  C   LIG d   1       4.036  -0.713 -13.921  0.00  0.00     0.130 A 
ATOM     40  C   LIG d   1       4.832  -0.601 -15.049  0.00  0.00    -0.026 A 
ATOM     41  F   LIG d   1       4.299   0.041 -12.831  0.00  0.00    -0.205 F 
ATOM     42  C   LIG d   1       4.562  -1.373 -16.162  0.00  0.00    -0.059 A 
ATOM     43  H   LIG d   1       5.663   0.088 -15.058  0.00  0.00     0.065 H 
ATOM     44  C   LIG d   1       3.499  -2.257 -16.151  0.00  0.00    -0.061 A 
ATOM     45  H   LIG d   1       5.182  -1.286 -17.043  0.00  0.00     0.062 H 
ATOM     46  C   LIG d   1       2.707  -2.374 -15.024  0.00  0.00    -0.053 A 
ATOM     47  H   LIG d   1       3.289  -2.859 -17.022  0.00  0.00     0.062 H 
ATOM     48  H   LIG d   1       1.880  -3.066 -15.015  0.00  0.00     0.062 H 
ENDBRANCH  35  38
ENDBRANCH  34  35
ENDBRANCH   7  34
TORSDOF 7
ENDMDL
MODEL 6
REMARK VINA RESULT:      -7.0      2.690      9.503
REMARK  7 active torsions:
REMARK  status: ('A' for Active; 'I' for Inactive)
REMARK    1  A    between atoms: C_1  and  O_2 
REMARK    2  A    between atoms: O_2  and  C_3 
REMARK    3  A    between atoms: C_8  and  C_9 
REMARK    4  A    between atoms: C_15  and  O_24 
REMARK    5  A    between atoms: C_19  and  C_20 
REMARK    6  A    between atoms: O_24  and  C_25 
REMARK    7  A    between atoms: C_25  and  C_26 
ROOT
ATOM      1  C   LIG d   1       4.085  -0.865  -5.573  0.00  0.00     0.080 A 
ATOM      2  C   LIG d   1       3.420  -0.089  -6.635  0.00  0.00     0.201 A 
ATOM      3  O   LIG d   1       3.030   1.050  -6.445  0.00  0.00    -0.286 OA
ATOM      4  C   LIG d   1       3.250  -0.758  -7.937  0.00  0.00     0.065 A 
ATOM      5  C   LIG d   1       2.631  -0.110  -9.007  0.00  0.00    -0.044 A 
ATOM      6  C   LIG d   1       2.494  -0.757 -10.203  0.00  0.00    -0.019 A 
ATOM      7  C   LIG d   1       2.958  -2.063 -10.353  0.00  0.00     0.124 A 
ATOM      8  C   LIG d   1       3.572  -2.718  -9.301  0.00  0.00     0.023 A 
ATOM      9  C   LIG d   1       3.726  -2.073  -8.080  0.00  0.00     0.143 A 
ATOM     10  O   LIG d   1       4.321  -2.697  -7.045  0.00  0.00    -0.450 OA
ATOM     11  C   LIG d   1       4.496  -2.129  -5.849  0.00  0.00     0.220 A 
ATOM     12  H   LIG d   1       2.268   0.900  -8.893  0.00  0.00     0.063 H 
ATOM     13  H   LIG d   1       2.021  -0.256 -11.034  0.00  0.00     0.065 H 
ATOM     14  H   LIG d   1       3.932  -3.728  -9.427  0.00  0.00     0.069 H 
ENDROOT
BRANCH   1  15
ATOM     15  C   LIG d   1       4.301  -0.275  -4.229  0.00  0.00     0.031 A 
ATOM     16  C   LIG d   1       5.462   0.458  -3.963  0.00  0.00     0.128 A 
ATOM     17  C   LIG d   1       5.655   1.006  -2.706  0.00  0.00    -0.019 A 
ATOM     18  C   LIG d   1       4.705   0.828  -1.718  0.00  0.00    -0.058 A 
ATOM     19  H   LIG d   1       6.551   1.574  -2.496  0.00  0.00     0.065 H 
ATOM     20  C   LIG d   1       3.555   0.102  -1.979  0.00  0.00    -0.061 A 
ATOM     21  H   LIG d   1       4.860   1.256  -0.740  0.00  0.00     0.062 H 
ATOM     22  C   LIG d   1       3.347  -0.444  -3.229  0.00  0.00    -0.050 A 
ATOM     23  H   LIG d   1       2.817  -0.033  -1.203  0.00  0.00     0.062 H 
ATOM     24  H   LIG d   1       2.447  -1.006  -3.430  0.00  0.00     0.062 H 
BRANCH  16  25
ATOM     25  O   LIG d   1       6.396   0.633  -4.934  0.00  0.00    -0.494 OA
BRANCH  25  26
ATOM     26  C   LIG d   1       7.725   0.940  -4.508  0.00  0.00     0.079 C 
ATOM     27  H   LIG d   1       7.752   1.004  -3.421  0.00  0.00     0.066 H 
ATOM     28  H   LIG d   1       8.403   0.155  -4.843  0.00  0.00     0.066 H 
ATOM     29  H   LIG d   1       8.033   1.894  -4.937  0.00  0.00     0.066 H 
ENDBRANCH  25  26
ENDBRANCH  16  25
ENDBRANCH   1  15
BRANCH  11  30
ATOM     30  C   LIG d   1       5.177  -2.922  -4.763  0.00  0.00     0.451 C 
ATOM     31  F   LIG d   1       6.356  -2.272  -4.380  0.00  0.00    -0.163 F 
ATOM     32  F   LIG d   1       4.324  -3.030  -3.660  0.00  0.00    -0.163 F 
ATOM     33  F   LIG d   1       5.484  -4.201  -5.242  0.00  0.00    -0.163 F 
ENDBRANCH  11  30
BRANCH   7  34
ATOM     34  O   LIG d   1       2.810  -2.695 -11.545  0.00  0.00    -0.487 OA
BRANCH  34  35
ATOM     35  C   LIG d   1       2.814  -1.879 -12.718  0.00  0.00     0.117 C 
ATOM     36  H   LIG d   1       2.884  -0.830 -12.430  0.00  0.00     0.075 H 
ATOM     37  H   LIG d   1       3.668  -2.143 -13.342  0.00  0.00     0.075 H 
BRANCH  35  38
ATOM     38  C   LIG d   1       1.539  -2.103 -13.490  0.00  0.00     0.025 A 
ATOM     39  C   LIG d   1       1.592  -2.397 -14.842  0.00  0.00     0.130 A 
ATOM     40  C   LIG d   1       0.419  -2.604 -15.551  0.00  0.00    -0.026 A 
ATOM     41  F   LIG d   1       2.785  -2.484 -15.470  0.00  0.00    -0.205 F 
ATOM     42  C   LIG d   1      -0.800  -2.515 -14.907  0.00  0.00    -0.059 A 
ATOM     43  H   LIG d   1       0.459  -2.833 -16.605  0.00  0.00     0.065 H 
ATOM     44  C   LIG d   1      -0.851  -2.221 -13.557  0.00  0.00    -0.061 A 
ATOM     45  H   LIG d   1      -1.715  -2.675 -15.459  0.00  0.00     0.062 H 
ATOM     46  C   LIG d   1       0.318  -2.021 -12.847  0.00  0.00    -0.053 A 
ATOM     47  H   LIG d   1      -1.805  -2.152 -13.055  0.00  0.00     0.062 H 
ATOM     48  H   LIG d   1       0.277  -1.795 -11.793  0.00  0.00     0.062 H 
ENDBRANCH  35  38
ENDBRANCH  34  35
ENDBRANCH   7  34
TORSDOF 7
ENDMDL
MODEL 7
REMARK VINA RESULT:      -7.0      8.144     13.946
REMARK  7 active torsions:
REMARK  status: ('A' for Active; 'I' for Inactive)
REMARK    1  A    between atoms: C_1  and  O_2 
REMARK    2  A    between atoms: O_2  and  C_3 
REMARK    3  A    between atoms: C_8  and  C_9 
REMARK    4  A    between atoms: C_15  and  O_24 
REMARK    5  A    between atoms: C_19  and  C_20 
REMARK    6  A    between atoms: O_24  and  C_25 
REMARK    7  A    between atoms: C_25  and  C_26 
ROOT
ATOM      1  C   LIG d   1      10.959   6.563  -2.719  0.00  0.00     0.080 A 
ATOM      2  C   LIG d   1      10.307   6.154  -3.976  0.00  0.00     0.201 A 
ATOM      3  O   LIG d   1      10.167   6.930  -4.904  0.00  0.00    -0.286 OA
ATOM      4  C   LIG d   1       9.833   4.760  -4.054  0.00  0.00     0.065 A 
ATOM      5  C   LIG d   1       9.202   4.275  -5.200  0.00  0.00    -0.044 A 
ATOM      6  C   LIG d   1       8.780   2.977  -5.242  0.00  0.00    -0.019 A 
ATOM      7  C   LIG d   1       8.965   2.141  -4.142  0.00  0.00     0.124 A 
ATOM      8  C   LIG d   1       9.589   2.608  -2.999  0.00  0.00     0.023 A 
ATOM      9  C   LIG d   1      10.030   3.924  -2.941  0.00  0.00     0.143 A 
ATOM     10  O   LIG d   1      10.638   4.395  -1.835  0.00  0.00    -0.450 OA
ATOM     11  C   LIG d   1      11.084   5.650  -1.721  0.00  0.00     0.220 A 
ATOM     12  H   LIG d   1       9.054   4.921  -6.052  0.00  0.00     0.063 H 
ATOM     13  H   LIG d   1       8.296   2.597  -6.129  0.00  0.00     0.065 H 
ATOM     14  H   LIG d   1       9.732   1.953  -2.153  0.00  0.00     0.069 H 
ENDROOT
BRANCH   1  15
ATOM     15  C   LIG d   1      11.469   7.946  -2.547  0.00  0.00     0.031 A 
ATOM     16  C   LIG d   1      10.639   8.939  -2.018  0.00  0.00     0.128 A 
ATOM     17  C   LIG d   1      11.124  10.226  -1.861  0.00  0.00    -0.019 A 
ATOM     18  C   LIG d   1      12.423  10.528  -2.225  0.00  0.00    -0.058 A 
ATOM     19  H   LIG d   1      10.486  10.998  -1.452  0.00  0.00     0.065 H 
ATOM     20  C   LIG d   1      13.246   9.546  -2.749  0.00  0.00    -0.061 A 
ATOM     21  H   LIG d   1      12.797  11.533  -2.101  0.00  0.00     0.062 H 
ATOM     22  C   LIG d   1      12.778   8.258  -2.907  0.00  0.00    -0.050 A 
ATOM     23  H   LIG d   1      14.260   9.789  -3.031  0.00  0.00     0.062 H 
ATOM     24  H   LIG d   1      13.424   7.493  -3.311  0.00  0.00     0.062 H 
BRANCH  16  25
ATOM     25  O   LIG d   1       9.363   8.642  -1.660  0.00  0.00    -0.494 OA
BRANCH  25  26
ATOM     26  C   LIG d   1       8.702   9.566  -0.792  0.00  0.00     0.079 C 
ATOM     27  H   LIG d   1       9.419  10.302  -0.431  0.00  0.00     0.066 H 
ATOM     28  H   LIG d   1       7.906  10.071  -1.340  0.00  0.00     0.066 H 
ATOM     29  H   LIG d   1       8.275   9.027   0.054  0.00  0.00     0.066 H 
ENDBRANCH  25  26
ENDBRANCH  16  25
ENDBRANCH   1  15
BRANCH  11  30
ATOM     30  C   LIG d   1      11.751   6.067  -0.436  0.00  0.00     0.451 C 
ATOM     31  F   LIG d   1      13.048   6.516  -0.709  0.00  0.00    -0.163 F 
ATOM     32  F   LIG d   1      11.015   7.099   0.157  0.00  0.00    -0.163 F 
ATOM     33  F   LIG d   1      11.809   4.974   0.436  0.00  0.00    -0.163 F 
ENDBRANCH  11  30
BRANCH   7  34
ATOM     34  O   LIG d   1       8.536   0.854  -4.196  0.00  0.00    -0.487 OA
BRANCH  34  35
ATOM     35  C   LIG d   1       7.256   0.621  -4.786  0.00  0.00     0.117 C 
ATOM     36  H   LIG d   1       6.917   1.528  -5.288  0.00  0.00     0.075 H 
ATOM     37  H   LIG d   1       7.333  -0.188  -5.513  0.00  0.00     0.075 H 
BRANCH  35  38
ATOM     38  C   LIG d   1       6.268   0.241  -3.713  0.00  0.00     0.025 A 
ATOM     39  C   LIG d   1       5.972  -1.092  -3.485  0.00  0.00     0.130 A 
ATOM     40  C   LIG d   1       5.065  -1.440  -2.498  0.00  0.00    -0.026 A 
ATOM     41  F   LIG d   1       6.569  -2.053  -4.223  0.00  0.00    -0.205 F 
ATOM     42  C   LIG d   1       4.455  -0.455  -1.744  0.00  0.00    -0.059 A 
ATOM     43  H   LIG d   1       4.834  -2.479  -2.319  0.00  0.00     0.065 H 
ATOM     44  C   LIG d   1       4.751   0.876  -1.973  0.00  0.00    -0.061 A 
ATOM     45  H   LIG d   1       3.747  -0.726  -0.975  0.00  0.00     0.062 H 
ATOM     46  C   LIG d   1       5.661   1.224  -2.953  0.00  0.00    -0.053 A 
ATOM     47  H   LIG d   1       4.274   1.644  -1.383  0.00  0.00     0.062 H 
ATOM     48  H   LIG d   1       5.894   2.263  -3.129  0.00  0.00     0.062 H 
ENDBRANCH  35  38
ENDBRANCH  34  35
ENDBRANCH   7  34
TORSDOF 7
ENDMDL
MODEL 8
REMARK VINA RESULT:      -6.9      7.759     12.544
REMARK  7 active torsions:
REMARK  status: ('A' for Active; 'I' for Inactive)
REMARK    1  A    between atoms: C_1  and  O_2 
REMARK    2  A    between atoms: O_2  and  C_3 
REMARK    3  A    between atoms: C_8  and  C_9 
REMARK    4  A    between atoms: C_15  and  O_24 
REMARK    5  A    between atoms: C_19  and  C_20 
REMARK    6  A    between atoms: O_24  and  C_25 
REMARK    7  A    between atoms: C_25  and  C_26 
ROOT
ATOM      1  C   LIG d   1      10.790   5.612  -4.291  0.00  0.00     0.080 A 
ATOM      2  C   LIG d   1      10.447   4.830  -5.493  0.00  0.00     0.201 A 
ATOM      3  O   LIG d   1      10.839   5.156  -6.600  0.00  0.00    -0.286 OA
ATOM      4  C   LIG d   1       9.605   3.637  -5.290  0.00  0.00     0.065 A 
ATOM      5  C   LIG d   1       9.223   2.831  -6.363  0.00  0.00    -0.044 A 
ATOM      6  C   LIG d   1       8.448   1.730  -6.141  0.00  0.00    -0.019 A 
ATOM      7  C   LIG d   1       8.027   1.415  -4.849  0.00  0.00     0.124 A 
ATOM      8  C   LIG d   1       8.397   2.205  -3.776  0.00  0.00     0.023 A 
ATOM      9  C   LIG d   1       9.191   3.326  -3.984  0.00  0.00     0.143 A 
ATOM     10  O   LIG d   1       9.559   4.107  -2.949  0.00  0.00    -0.450 OA
ATOM     11  C   LIG d   1      10.320   5.196  -3.086  0.00  0.00     0.220 A 
ATOM     12  H   LIG d   1       9.545   3.074  -7.365  0.00  0.00     0.063 H 
ATOM     13  H   LIG d   1       8.155   1.101  -6.969  0.00  0.00     0.065 H 
ATOM     14  H   LIG d   1       8.070   1.952  -2.778  0.00  0.00     0.069 H 
ENDROOT
BRANCH   1  15
ATOM     15  C   LIG d   1      11.633   6.828  -4.396  0.00  0.00     0.031 A 
ATOM     16  C   LIG d   1      11.046   8.067  -4.673  0.00  0.00     0.128 A 
ATOM     17  C   LIG d   1      11.840   9.197  -4.768  0.00  0.00    -0.019 A 
ATOM     18  C   LIG d   1      13.208   9.101  -4.590  0.00  0.00    -0.058 A 
ATOM     19  H   LIG d   1      11.391  10.157  -4.981  0.00  0.00     0.065 H 
ATOM     20  C   LIG d   1      13.791   7.876  -4.317  0.00  0.00    -0.061 A 
ATOM     21  H   LIG d   1      13.823   9.984  -4.666  0.00  0.00     0.062 H 
ATOM     22  C   LIG d   1      13.011   6.742  -4.214  0.00  0.00    -0.050 A 
ATOM     23  H   LIG d   1      14.860   7.808  -4.179  0.00  0.00     0.062 H 
ATOM     24  H   LIG d   1      13.469   5.788  -3.996  0.00  0.00     0.062 H 
BRANCH  16  25
ATOM     25  O   LIG d   1       9.702   8.161  -4.846  0.00  0.00    -0.494 OA
BRANCH  25  26
ATOM     26  C   LIG d   1       9.237   8.431  -6.170  0.00  0.00     0.079 C 
ATOM     27  H   LIG d   1       8.164   8.246  -6.224  0.00  0.00     0.066 H 
ATOM     28  H   LIG d   1       9.439   9.473  -6.420  0.00  0.00     0.066 H 
ATOM     29  H   LIG d   1       9.753   7.781  -6.877  0.00  0.00     0.066 H 
ENDBRANCH  25  26
ENDBRANCH  16  25
ENDBRANCH   1  15
BRANCH  11  30
ATOM     30  C   LIG d   1      10.672   5.994  -1.858  0.00  0.00     0.451 C 
ATOM     31  F   LIG d   1      12.060   6.160  -1.791  0.00  0.00    -0.163 F 
ATOM     32  F   LIG d   1      10.054   7.247  -1.923  0.00  0.00    -0.163 F 
ATOM     33  F   LIG d   1      10.229   5.314  -0.717  0.00  0.00    -0.163 F 
ENDBRANCH  11  30
BRANCH   7  34
ATOM     34  O   LIG d   1       7.252   0.320  -4.643  0.00  0.00    -0.487 OA
BRANCH  34  35
ATOM     35  C   LIG d   1       7.081  -0.109  -3.291  0.00  0.00     0.117 C 
ATOM     36  H   LIG d   1       7.688  -0.997  -3.112  0.00  0.00     0.075 H 
ATOM     37  H   LIG d   1       7.396   0.686  -2.614  0.00  0.00     0.075 H 
BRANCH  35  38
ATOM     38  C   LIG d   1       5.631  -0.433  -3.045  0.00  0.00     0.025 A 
ATOM     39  C   LIG d   1       4.715   0.588  -2.856  0.00  0.00     0.130 A 
ATOM     40  C   LIG d   1       3.381   0.288  -2.631  0.00  0.00    -0.026 A 
ATOM     41  F   LIG d   1       5.122   1.875  -2.892  0.00  0.00    -0.205 F 
ATOM     42  C   LIG d   1       2.968  -1.030  -2.593  0.00  0.00    -0.059 A 
ATOM     43  H   LIG d   1       2.667   1.083  -2.484  0.00  0.00     0.065 H 
ATOM     44  C   LIG d   1       3.883  -2.049  -2.782  0.00  0.00    -0.061 A 
ATOM     45  H   LIG d   1       1.928  -1.264  -2.417  0.00  0.00     0.062 H 
ATOM     46  C   LIG d   1       5.213  -1.751  -3.013  0.00  0.00    -0.053 A 
ATOM     47  H   LIG d   1       3.558  -3.078  -2.753  0.00  0.00     0.062 H 
ATOM     48  H   LIG d   1       5.926  -2.547  -3.164  0.00  0.00     0.062 H 
ENDBRANCH  35  38
ENDBRANCH  34  35
ENDBRANCH   7  34
TORSDOF 7
ENDMDL
MODEL 9
REMARK VINA RESULT:      -6.8      5.011      7.143
REMARK  7 active torsions:
REMARK  status: ('A' for Active; 'I' for Inactive)
REMARK    1  A    between atoms: C_1  and  O_2 
REMARK    2  A    between atoms: O_2  and  C_3 
REMARK    3  A    between atoms: C_8  and  C_9 
REMARK    4  A    between atoms: C_15  and  O_24 
REMARK    5  A    between atoms: C_19  and  C_20 
REMARK    6  A    between atoms: O_24  and  C_25 
REMARK    7  A    between atoms: C_25  and  C_26 
ROOT
ATOM      1  C   LIG d   1       3.931  -1.424  -8.129  0.00  0.00     0.080 A 
ATOM      2  C   LIG d   1       4.669  -1.883  -6.939  0.00  0.00     0.201 A 
ATOM      3  O   LIG d   1       5.277  -1.104  -6.225  0.00  0.00    -0.286 OA
ATOM      4  C   LIG d   1       4.636  -3.329  -6.655  0.00  0.00     0.065 A 
ATOM      5  C   LIG d   1       5.304  -3.864  -5.553  0.00  0.00    -0.044 A 
ATOM      6  C   LIG d   1       5.249  -5.208  -5.315  0.00  0.00    -0.019 A 
ATOM      7  C   LIG d   1       4.540  -6.046  -6.175  0.00  0.00     0.124 A 
ATOM      8  C   LIG d   1       3.874  -5.529  -7.272  0.00  0.00     0.023 A 
ATOM      9  C   LIG d   1       3.914  -4.164  -7.525  0.00  0.00     0.143 A 
ATOM     10  O   LIG d   1       3.272  -3.645  -8.590  0.00  0.00    -0.450 OA
ATOM     11  C   LIG d   1       3.274  -2.342  -8.884  0.00  0.00     0.220 A 
ATOM     12  H   LIG d   1       5.857  -3.218  -4.887  0.00  0.00     0.063 H 
ATOM     13  H   LIG d   1       5.761  -5.624  -4.460  0.00  0.00     0.065 H 
ATOM     14  H   LIG d   1       3.324  -6.185  -7.930  0.00  0.00     0.069 H 
ENDROOT
BRANCH   1  15
ATOM     15  C   LIG d   1       3.906   0.014  -8.495  0.00  0.00     0.031 A 
ATOM     16  C   LIG d   1       4.955   0.568  -9.236  0.00  0.00     0.128 A 
ATOM     17  C   LIG d   1       4.922   1.911  -9.573  0.00  0.00    -0.019 A 
ATOM     18  C   LIG d   1       3.858   2.700  -9.179  0.00  0.00    -0.058 A 
ATOM     19  H   LIG d   1       5.731   2.343 -10.146  0.00  0.00     0.065 H 
ATOM     20  C   LIG d   1       2.818   2.153  -8.447  0.00  0.00    -0.061 A 
ATOM     21  H   LIG d   1       3.837   3.746  -9.445  0.00  0.00     0.062 H 
ATOM     22  C   LIG d   1       2.835   0.816  -8.108  0.00  0.00    -0.050 A 
ATOM     23  H   LIG d   1       1.990   2.775  -8.143  0.00  0.00     0.062 H 
ATOM     24  H   LIG d   1       2.020   0.392  -7.539  0.00  0.00     0.062 H 
BRANCH  16  25
ATOM     25  O   LIG d   1       6.001  -0.208  -9.623  0.00  0.00    -0.494 OA
BRANCH  25  26
ATOM     26  C   LIG d   1       7.283   0.116  -9.080  0.00  0.00     0.079 C 
ATOM     27  H   LIG d   1       7.156   0.731  -8.190  0.00  0.00     0.066 H 
ATOM     28  H   LIG d   1       7.807  -0.803  -8.816  0.00  0.00     0.066 H 
ATOM     29  H   LIG d   1       7.863   0.664  -9.822  0.00  0.00     0.066 H 
ENDBRANCH  25  26
ENDBRANCH  16  25
ENDBRANCH   1  15
BRANCH  11  30
ATOM     30  C   LIG d   1       2.519  -1.873 -10.101  0.00  0.00     0.451 C 
ATOM     31  F   LIG d   1       2.017  -2.980 -10.793  0.00  0.00    -0.163 F 
ATOM     32  F   LIG d   1       1.459  -1.051  -9.703  0.00  0.00    -0.163 F 
ATOM     33  F   LIG d   1       3.381  -1.152 -10.936  0.00  0.00    -0.163 F 
ENDBRANCH  11  30
BRANCH   7  34
ATOM     34  O   LIG d   1       4.499  -7.380  -5.929  0.00  0.00    -0.487 OA
BRANCH  34  35
ATOM     35  C   LIG d   1       5.745  -8.035  -5.689  0.00  0.00     0.117 C 
ATOM     36  H   LIG d   1       6.036  -8.600  -6.575  0.00  0.00     0.075 H 
ATOM     37  H   LIG d   1       6.510  -7.291  -5.467  0.00  0.00     0.075 H 
BRANCH  35  38
ATOM     38  C   LIG d   1       5.603  -8.974  -4.519  0.00  0.00     0.025 A 
ATOM     39  C   LIG d   1       6.710  -9.303  -3.756  0.00  0.00     0.130 A 
ATOM     40  C   LIG d   1       6.577 -10.166  -2.680  0.00  0.00    -0.026 A 
ATOM     41  F   LIG d   1       7.919  -8.782  -4.059  0.00  0.00    -0.205 F 
ATOM     42  C   LIG d   1       5.340 -10.698  -2.372  0.00  0.00    -0.059 A 
ATOM     43  H   LIG d   1       7.440 -10.423  -2.084  0.00  0.00     0.065 H 
ATOM     44  C   LIG d   1       4.235 -10.369  -3.135  0.00  0.00    -0.061 A 
ATOM     45  H   LIG d   1       5.236 -11.371  -1.534  0.00  0.00     0.062 H 
ATOM     46  C   LIG d   1       4.365  -9.503  -4.204  0.00  0.00    -0.053 A 
ATOM     47  H   LIG d   1       3.268 -10.785  -2.892  0.00  0.00     0.062 H 
ATOM     48  H   LIG d   1       3.501  -9.244  -4.797  0.00  0.00     0.062 H 
ENDBRANCH  35  38
ENDBRANCH  34  35
ENDBRANCH   7  34
TORSDOF 7
ENDMDL
