MODEL 1
REMARK VINA RESULT:      -4.7      0.000      0.000
REMARK  6 active torsions:
REMARK  status: ('A' for Active; 'I' for Inactive)
REMARK    1  A    between atoms: C_1  and  C_2 
REMARK    2  A    between atoms: C_6  and  C_13 
REMARK    3  A    between atoms: C_8  and  C_10 
REMARK    4  A    between atoms: C_10  and  C_12 
REMARK    5  A    between atoms: C_13  and  C_14 
REMARK    6  A    between atoms: C_13  and  C_15 
ROOT
ATOM      1  C   LIG d   1       5.863  -2.412  -4.607  0.00  0.00    -0.034 C 
ATOM      2  H   LIG d   1       5.502  -1.995  -5.546  0.00  0.00     0.030 H 
ATOM      3  C   LIG d   1       4.733  -3.190  -3.888  0.00  0.00    -0.050 C 
ATOM      4  C   LIG d   1       3.925  -2.062  -3.201  0.00  0.00    -0.049 C 
ATOM      5  C   LIG d   1       5.000  -1.062  -2.727  0.00  0.00    -0.029 C 
ATOM      6  H   LIG d   1       5.255  -1.253  -1.685  0.00  0.00     0.031 H 
ATOM      7  C   LIG d   1       6.232  -1.284  -3.621  0.00  0.00     0.023 C 
ATOM      8  H   LIG d   1       7.026  -1.562  -3.080  0.00  0.00     0.038 H 
ATOM      9  H   LIG d   1       5.147  -3.875  -3.148  0.00  0.00     0.027 H 
ATOM     10  H   LIG d   1       4.112  -3.727  -4.606  0.00  0.00     0.027 H 
ATOM     11  H   LIG d   1       3.250  -1.587  -3.914  0.00  0.00     0.027 H 
ATOM     12  H   LIG d   1       3.369  -2.454  -2.350  0.00  0.00     0.027 H 
ENDROOT
BRANCH   5  13
ATOM     13  C   LIG d   1       4.489   0.372  -2.887  0.00  0.00    -0.043 C 
ATOM     14  H   LIG d   1       5.116   0.903  -3.603  0.00  0.00     0.030 H 
BRANCH  13  15
ATOM     15  C   LIG d   1       3.046   0.346  -3.395  0.00  0.00    -0.062 C 
ATOM     16  H   LIG d   1       2.973   0.934  -4.310  0.00  0.00     0.023 H 
ATOM     17  H   LIG d   1       2.751  -0.683  -3.600  0.00  0.00     0.023 H 
ATOM     18  H   LIG d   1       2.387   0.769  -2.638  0.00  0.00     0.023 H 
ENDBRANCH  13  15
BRANCH  13  19
ATOM     19  C   LIG d   1       4.542   1.086  -1.536  0.00  0.00    -0.062 C 
ATOM     20  H   LIG d   1       5.143   0.502  -0.839  0.00  0.00     0.023 H 
ATOM     21  H   LIG d   1       4.988   2.073  -1.663  0.00  0.00     0.023 H 
ATOM     22  H   LIG d   1       3.531   1.194  -1.142  0.00  0.00     0.023 H 
ENDBRANCH  13  19
ENDBRANCH   5  13
BRANCH   7  23
ATOM     23  C   LIG d   1       6.556  -0.022  -4.378  0.00  0.00     0.134 C 
ATOM     24  O   LIG d   1       6.016   0.204  -5.434  0.00  0.00    -0.297 OA
BRANCH  23  25
ATOM     25  C   LIG d   1       7.554   0.957  -3.818  0.00  0.00    -0.006 C 
ATOM     26  H   LIG d   1       7.946   1.496  -4.563  0.00  0.00     0.031 H 
ATOM     27  H   LIG d   1       7.054   1.622  -3.113  0.00  0.00     0.031 H 
ATOM     28  H   LIG d   1       8.348   0.414  -3.305  0.00  0.00     0.031 H 
ENDBRANCH  23  25
ENDBRANCH   7  23
BRANCH   1  29
ATOM     29  C   LIG d   1       7.068  -3.324  -4.853  0.00  0.00    -0.062 C 
ATOM     30  H   LIG d   1       7.983  -2.796  -4.586  0.00  0.00     0.023 H 
ATOM     31  H   LIG d   1       6.974  -4.222  -4.242  0.00  0.00     0.023 H 
ATOM     32  H   LIG d   1       7.102  -3.603  -5.906  0.00  0.00     0.023 H 
ENDBRANCH   1  29
TORSDOF 6
ENDMDL
MODEL 2
REMARK VINA RESULT:      -4.6      1.154      3.413
REMARK  6 active torsions:
REMARK  status: ('A' for Active; 'I' for Inactive)
REMARK    1  A    between atoms: C_1  and  C_2 
REMARK    2  A    between atoms: C_6  and  C_13 
REMARK    3  A    between atoms: C_8  and  C_10 
REMARK    4  A    between atoms: C_10  and  C_12 
REMARK    5  A    between atoms: C_13  and  C_14 
REMARK    6  A    between atoms: C_13  and  C_15 
ROOT
ATOM      1  C   LIG d   1       4.986  -0.421  -2.420  0.00  0.00    -0.034 C 
ATOM      2  H   LIG d   1       6.023  -0.639  -2.167  0.00  0.00     0.030 H 
ATOM      3  C   LIG d   1       4.066  -1.594  -1.997  0.00  0.00    -0.050 C 
ATOM      4  C   LIG d   1       4.248  -2.605  -3.156  0.00  0.00    -0.049 C 
ATOM      5  C   LIG d   1       4.340  -1.722  -4.417  0.00  0.00    -0.029 C 
ATOM      6  H   LIG d   1       3.362  -1.645  -4.892  0.00  0.00     0.031 H 
ATOM      7  C   LIG d   1       4.809  -0.333  -3.950  0.00  0.00     0.023 C 
ATOM      8  H   LIG d   1       4.131   0.369  -4.167  0.00  0.00     0.038 H 
ATOM      9  H   LIG d   1       3.029  -1.265  -1.930  0.00  0.00     0.027 H 
ATOM     10  H   LIG d   1       4.396  -2.026  -1.052  0.00  0.00     0.027 H 
ATOM     11  H   LIG d   1       5.167  -3.176  -3.023  0.00  0.00     0.027 H 
ATOM     12  H   LIG d   1       3.389  -3.271  -3.220  0.00  0.00     0.027 H 
ENDROOT
BRANCH   5  13
ATOM     13  C   LIG d   1       5.354  -2.313  -5.399  0.00  0.00    -0.043 C 
ATOM     14  H   LIG d   1       6.171  -1.607  -5.548  0.00  0.00     0.030 H 
BRANCH  13  15
ATOM     15  C   LIG d   1       5.909  -3.622  -4.833  0.00  0.00    -0.062 C 
ATOM     16  H   LIG d   1       5.930  -3.566  -3.745  0.00  0.00     0.023 H 
ATOM     17  H   LIG d   1       5.272  -4.450  -5.142  0.00  0.00     0.023 H 
ATOM     18  H   LIG d   1       6.919  -3.781  -5.208  0.00  0.00     0.023 H 
ENDBRANCH  13  15
BRANCH  13  19
ATOM     19  C   LIG d   1       4.668  -2.587  -6.739  0.00  0.00    -0.062 C 
ATOM     20  H   LIG d   1       3.586  -2.585  -6.600  0.00  0.00     0.023 H 
ATOM     21  H   LIG d   1       4.945  -1.813  -7.454  0.00  0.00     0.023 H 
ATOM     22  H   LIG d   1       4.983  -3.560  -7.116  0.00  0.00     0.023 H 
ENDBRANCH  13  19
ENDBRANCH   5  13
BRANCH   7  23
ATOM     23  C   LIG d   1       6.122   0.016  -4.602  0.00  0.00     0.134 C 
ATOM     24  O   LIG d   1       6.137   0.516  -5.701  0.00  0.00    -0.297 OA
BRANCH  23  25
ATOM     25  C   LIG d   1       7.417  -0.261  -3.883  0.00  0.00    -0.006 C 
ATOM     26  H   LIG d   1       7.249  -0.889  -3.124  0.00  0.00     0.031 H 
ATOM     27  H   LIG d   1       8.129  -0.710  -4.576  0.00  0.00     0.031 H 
ATOM     28  H   LIG d   1       7.826   0.674  -3.498  0.00  0.00     0.031 H 
ENDBRANCH  23  25
ENDBRANCH   7  23
BRANCH   1  29
ATOM     29  C   LIG d   1       4.534   0.881  -1.753  0.00  0.00    -0.062 C 
ATOM     30  H   LIG d   1       3.752   0.663  -1.026  0.00  0.00     0.023 H 
ATOM     31  H   LIG d   1       5.382   1.343  -1.247  0.00  0.00     0.023 H 
ATOM     32  H   LIG d   1       4.147   1.562  -2.511  0.00  0.00     0.023 H 
ENDBRANCH   1  29
TORSDOF 6
ENDMDL
MODEL 3
REMARK VINA RESULT:      -4.5      1.150      3.244
REMARK  6 active torsions:
REMARK  status: ('A' for Active; 'I' for Inactive)
REMARK    1  A    between atoms: C_1  and  C_2 
REMARK    2  A    between atoms: C_6  and  C_13 
REMARK    3  A    between atoms: C_8  and  C_10 
REMARK    4  A    between atoms: C_10  and  C_12 
REMARK    5  A    between atoms: C_13  and  C_14 
REMARK    6  A    between atoms: C_13  and  C_15 
ROOT
ATOM      1  C   LIG d   1       6.958   0.526  -4.221  0.00  0.00    -0.034 C 
ATOM      2  H   LIG d   1       6.435   0.723  -5.157  0.00  0.00     0.030 H 
ATOM      3  C   LIG d   1       7.876  -0.714  -4.363  0.00  0.00    -0.050 C 
ATOM      4  C   LIG d   1       6.887  -1.893  -4.185  0.00  0.00    -0.049 C 
ATOM      5  C   LIG d   1       5.912  -1.407  -3.094  0.00  0.00    -0.029 C 
ATOM      6  H   LIG d   1       6.229  -1.776  -2.118  0.00  0.00     0.031 H 
ATOM      7  C   LIG d   1       5.956   0.131  -3.116  0.00  0.00     0.023 C 
ATOM      8  H   LIG d   1       6.267   0.496  -2.239  0.00  0.00     0.038 H 
ATOM      9  H   LIG d   1       8.634  -0.724  -3.580  0.00  0.00     0.027 H 
ATOM     10  H   LIG d   1       8.339  -0.744  -5.350  0.00  0.00     0.027 H 
ATOM     11  H   LIG d   1       6.353  -2.086  -5.116  0.00  0.00     0.027 H 
ATOM     12  H   LIG d   1       7.415  -2.787  -3.854  0.00  0.00     0.027 H 
ENDROOT
BRANCH   5  13
ATOM     13  C   LIG d   1       4.494  -1.894  -3.403  0.00  0.00    -0.043 C 
ATOM     14  H   LIG d   1       3.912  -1.075  -3.823  0.00  0.00     0.030 H 
BRANCH  13  15
ATOM     15  C   LIG d   1       4.558  -3.043  -4.412  0.00  0.00    -0.062 C 
ATOM     16  H   LIG d   1       5.572  -3.440  -4.445  0.00  0.00     0.023 H 
ATOM     17  H   LIG d   1       3.869  -3.830  -4.110  0.00  0.00     0.023 H 
ATOM     18  H   LIG d   1       4.280  -2.675  -5.399  0.00  0.00     0.023 H 
ENDBRANCH  13  15
BRANCH  13  19
ATOM     19  C   LIG d   1       3.830  -2.383  -2.114  0.00  0.00    -0.062 C 
ATOM     20  H   LIG d   1       3.252  -1.571  -1.673  0.00  0.00     0.023 H 
ATOM     21  H   LIG d   1       3.169  -3.220  -2.341  0.00  0.00     0.023 H 
ATOM     22  H   LIG d   1       4.597  -2.707  -1.411  0.00  0.00     0.023 H 
ENDBRANCH  13  19
ENDBRANCH   5  13
BRANCH   7  23
ATOM     23  C   LIG d   1       4.591   0.683  -3.436  0.00  0.00     0.134 C 
ATOM     24  O   LIG d   1       4.179   0.657  -4.571  0.00  0.00    -0.297 OA
BRANCH  23  25
ATOM     25  C   LIG d   1       3.739   1.267  -2.339  0.00  0.00    -0.006 C 
ATOM     26  H   LIG d   1       2.775   1.196  -2.592  0.00  0.00     0.031 H 
ATOM     27  H   LIG d   1       3.913   0.719  -1.413  0.00  0.00     0.031 H 
ATOM     28  H   LIG d   1       4.001   2.316  -2.195  0.00  0.00     0.031 H 
ENDBRANCH  23  25
ENDBRANCH   7  23
BRANCH   1  29
ATOM     29  C   LIG d   1       7.773   1.749  -3.793  0.00  0.00    -0.062 C 
ATOM     30  H   LIG d   1       7.099   2.579  -3.583  0.00  0.00     0.023 H 
ATOM     31  H   LIG d   1       8.345   1.508  -2.897  0.00  0.00     0.023 H 
ATOM     32  H   LIG d   1       8.455   2.029  -4.596  0.00  0.00     0.023 H 
ENDBRANCH   1  29
TORSDOF 6
ENDMDL
MODEL 4
REMARK VINA RESULT:      -4.5      1.942      2.839
REMARK  6 active torsions:
REMARK  status: ('A' for Active; 'I' for Inactive)
REMARK    1  A    between atoms: C_1  and  C_2 
REMARK    2  A    between atoms: C_6  and  C_13 
REMARK    3  A    between atoms: C_8  and  C_10 
REMARK    4  A    between atoms: C_10  and  C_12 
REMARK    5  A    between atoms: C_13  and  C_14 
REMARK    6  A    between atoms: C_13  and  C_15 
ROOT
ATOM      1  C   LIG d   1       3.926  -0.075  -6.344  0.00  0.00    -0.034 C 
ATOM      2  H   LIG d   1       4.546   0.821  -6.374  0.00  0.00     0.030 H 
ATOM      3  C   LIG d   1       2.473   0.283  -5.944  0.00  0.00    -0.050 C 
ATOM      4  C   LIG d   1       2.563   0.403  -4.403  0.00  0.00    -0.049 C 
ATOM      5  C   LIG d   1       3.536  -0.720  -3.992  0.00  0.00    -0.029 C 
ATOM      6  H   LIG d   1       2.978  -1.610  -3.699  0.00  0.00     0.031 H 
ATOM      7  C   LIG d   1       4.403  -1.025  -5.226  0.00  0.00     0.023 C 
ATOM      8  H   LIG d   1       4.289  -1.973  -5.523  0.00  0.00     0.038 H 
ATOM      9  H   LIG d   1       1.787  -0.514  -6.231  0.00  0.00     0.027 H 
ATOM     10  H   LIG d   1       2.170   1.232  -6.389  0.00  0.00     0.027 H 
ATOM     11  H   LIG d   1       2.963   1.377  -4.119  0.00  0.00     0.027 H 
ATOM     12  H   LIG d   1       1.585   0.244  -3.950  0.00  0.00     0.027 H 
ENDROOT
BRANCH   5  13
ATOM     13  C   LIG d   1       4.420  -0.252  -2.834  0.00  0.00    -0.043 C 
ATOM     14  H   LIG d   1       5.440  -0.109  -3.190  0.00  0.00     0.030 H 
BRANCH  13  15
ATOM     15  C   LIG d   1       3.882   1.072  -2.285  0.00  0.00    -0.062 C 
ATOM     16  H   LIG d   1       4.109   1.142  -1.221  0.00  0.00     0.023 H 
ATOM     17  H   LIG d   1       4.352   1.901  -2.813  0.00  0.00     0.023 H 
ATOM     18  H   LIG d   1       2.803   1.113  -2.430  0.00  0.00     0.023 H 
ENDBRANCH  13  15
BRANCH  13  19
ATOM     19  C   LIG d   1       4.410  -1.305  -1.726  0.00  0.00    -0.062 C 
ATOM     20  H   LIG d   1       3.514  -1.185  -1.117  0.00  0.00     0.023 H 
ATOM     21  H   LIG d   1       4.417  -2.301  -2.170  0.00  0.00     0.023 H 
ATOM     22  H   LIG d   1       5.294  -1.182  -1.099  0.00  0.00     0.023 H 
ENDBRANCH  13  19
ENDBRANCH   5  13
BRANCH   7  23
ATOM     23  C   LIG d   1       5.855  -0.767  -4.914  0.00  0.00     0.134 C 
ATOM     24  O   LIG d   1       6.298   0.354  -4.985  0.00  0.00    -0.297 OA
BRANCH  23  25
ATOM     25  C   LIG d   1       6.753  -1.908  -4.514  0.00  0.00    -0.006 C 
ATOM     26  H   LIG d   1       7.701  -1.679  -4.734  0.00  0.00     0.031 H 
ATOM     27  H   LIG d   1       6.662  -2.083  -3.441  0.00  0.00     0.031 H 
ATOM     28  H   LIG d   1       6.461  -2.808  -5.055  0.00  0.00     0.031 H 
ENDBRANCH  23  25
ENDBRANCH   7  23
BRANCH   1  29
ATOM     29  C   LIG d   1       3.948  -0.788  -7.699  0.00  0.00    -0.062 C 
ATOM     30  H   LIG d   1       4.891  -0.579  -8.203  0.00  0.00     0.023 H 
ATOM     31  H   LIG d   1       3.847  -1.862  -7.545  0.00  0.00     0.023 H 
ATOM     32  H   LIG d   1       3.121  -0.429  -8.311  0.00  0.00     0.023 H 
ENDBRANCH   1  29
TORSDOF 6
ENDMDL
MODEL 5
REMARK VINA RESULT:      -4.4      1.542      4.246
REMARK  6 active torsions:
REMARK  status: ('A' for Active; 'I' for Inactive)
REMARK    1  A    between atoms: C_1  and  C_2 
REMARK    2  A    between atoms: C_6  and  C_13 
REMARK    3  A    between atoms: C_8  and  C_10 
REMARK    4  A    between atoms: C_10  and  C_12 
REMARK    5  A    between atoms: C_13  and  C_14 
REMARK    6  A    between atoms: C_13  and  C_15 
ROOT
ATOM      1  C   LIG d   1       4.973   0.527  -2.783  0.00  0.00    -0.034 C 
ATOM      2  H   LIG d   1       4.184   0.743  -3.504  0.00  0.00     0.030 H 
ATOM      3  C   LIG d   1       6.340   1.036  -3.307  0.00  0.00    -0.050 C 
ATOM      4  C   LIG d   1       6.772  -0.088  -4.281  0.00  0.00    -0.049 C 
ATOM      5  C   LIG d   1       6.312  -1.386  -3.589  0.00  0.00    -0.029 C 
ATOM      6  H   LIG d   1       7.136  -1.821  -3.024  0.00  0.00     0.031 H 
ATOM      7  C   LIG d   1       5.168  -0.996  -2.637  0.00  0.00     0.023 C 
ATOM      8  H   LIG d   1       5.398  -1.213  -1.688  0.00  0.00     0.038 H 
ATOM      9  H   LIG d   1       7.053   1.134  -2.489  0.00  0.00     0.027 H 
ATOM     10  H   LIG d   1       6.226   1.983  -3.835  0.00  0.00     0.027 H 
ATOM     11  H   LIG d   1       6.273   0.030  -5.244  0.00  0.00     0.027 H 
ATOM     12  H   LIG d   1       7.854  -0.087  -4.408  0.00  0.00     0.027 H 
ENDROOT
BRANCH   5  13
ATOM     13  C   LIG d   1       5.806  -2.386  -4.632  0.00  0.00    -0.043 C 
ATOM     14  H   LIG d   1       4.806  -2.721  -4.359  0.00  0.00     0.030 H 
BRANCH  13  15
ATOM     15  C   LIG d   1       5.761  -1.712  -6.005  0.00  0.00    -0.062 C 
ATOM     16  H   LIG d   1       5.060  -0.878  -5.976  0.00  0.00     0.023 H 
ATOM     17  H   LIG d   1       6.753  -1.344  -6.262  0.00  0.00     0.023 H 
ATOM     18  H   LIG d   1       5.436  -2.434  -6.753  0.00  0.00     0.023 H 
ENDBRANCH  13  15
BRANCH  13  19
ATOM     19  C   LIG d   1       6.750  -3.589  -4.685  0.00  0.00    -0.062 C 
ATOM     20  H   LIG d   1       7.380  -3.517  -5.572  0.00  0.00     0.023 H 
ATOM     21  H   LIG d   1       7.377  -3.599  -3.793  0.00  0.00     0.023 H 
ATOM     22  H   LIG d   1       6.165  -4.508  -4.729  0.00  0.00     0.023 H 
ENDBRANCH  13  19
ENDBRANCH   5  13
BRANCH   7  23
ATOM     23  C   LIG d   1       3.903  -1.718  -3.025  0.00  0.00     0.134 C 
ATOM     24  O   LIG d   1       3.779  -2.894  -2.779  0.00  0.00    -0.297 OA
BRANCH  23  25
ATOM     25  C   LIG d   1       2.794  -0.972  -3.721  0.00  0.00    -0.006 C 
ATOM     26  H   LIG d   1       3.013  -0.879  -4.692  0.00  0.00     0.031 H 
ATOM     27  H   LIG d   1       1.860  -1.526  -3.612  0.00  0.00     0.031 H 
ATOM     28  H   LIG d   1       2.685   0.016  -3.275  0.00  0.00     0.031 H 
ENDBRANCH  23  25
ENDBRANCH   7  23
BRANCH   1  29
ATOM     29  C   LIG d   1       4.650   1.159  -1.428  0.00  0.00    -0.062 C 
ATOM     30  H   LIG d   1       4.714   0.400  -0.649  0.00  0.00     0.023 H 
ATOM     31  H   LIG d   1       5.364   1.956  -1.219  0.00  0.00     0.023 H 
ATOM     32  H   LIG d   1       3.641   1.573  -1.451  0.00  0.00     0.023 H 
ENDBRANCH   1  29
TORSDOF 6
ENDMDL
MODEL 6
REMARK VINA RESULT:      -4.3      1.609      3.020
REMARK  6 active torsions:
REMARK  status: ('A' for Active; 'I' for Inactive)
REMARK    1  A    between atoms: C_1  and  C_2 
REMARK    2  A    between atoms: C_6  and  C_13 
REMARK    3  A    between atoms: C_8  and  C_10 
REMARK    4  A    between atoms: C_10  and  C_12 
REMARK    5  A    between atoms: C_13  and  C_14 
REMARK    6  A    between atoms: C_13  and  C_15 
ROOT
ATOM      1  C   LIG d   1       6.774  -1.283  -3.325  0.00  0.00    -0.034 C 
ATOM      2  H   LIG d   1       6.542  -1.574  -2.301  0.00  0.00     0.030 H 
ATOM      3  C   LIG d   1       7.282   0.180  -3.372  0.00  0.00    -0.050 C 
ATOM      4  C   LIG d   1       5.969   0.999  -3.321  0.00  0.00    -0.049 C 
ATOM      5  C   LIG d   1       4.982   0.185  -4.181  0.00  0.00    -0.029 C 
ATOM      6  H   LIG d   1       4.962   0.577  -5.198  0.00  0.00     0.031 H 
ATOM      7  C   LIG d   1       5.492  -1.266  -4.184  0.00  0.00     0.023 C 
ATOM      8  H   LIG d   1       5.710  -1.571  -5.112  0.00  0.00     0.038 H 
ATOM      9  H   LIG d   1       7.822   0.370  -4.299  0.00  0.00     0.027 H 
ATOM     10  H   LIG d   1       7.910   0.401  -2.508  0.00  0.00     0.027 H 
ATOM     11  H   LIG d   1       5.608   1.077  -2.295  0.00  0.00     0.027 H 
ATOM     12  H   LIG d   1       6.121   1.990  -3.749  0.00  0.00     0.027 H 
ENDROOT
BRANCH   5  13
ATOM     13  C   LIG d   1       3.580   0.246  -3.570  0.00  0.00    -0.043 C 
ATOM     14  H   LIG d   1       3.335  -0.719  -3.126  0.00  0.00     0.030 H 
BRANCH  13  15
ATOM     15  C   LIG d   1       3.541   1.328  -2.489  0.00  0.00    -0.062 C 
ATOM     16  H   LIG d   1       4.274   1.095  -1.716  0.00  0.00     0.023 H 
ATOM     17  H   LIG d   1       3.777   2.294  -2.933  0.00  0.00     0.023 H 
ATOM     18  H   LIG d   1       2.546   1.364  -2.046  0.00  0.00     0.023 H 
ENDBRANCH  13  15
BRANCH  13  19
ATOM     19  C   LIG d   1       2.561   0.577  -4.661  0.00  0.00    -0.062 C 
ATOM     20  H   LIG d   1       2.606  -0.180  -5.444  0.00  0.00     0.023 H 
ATOM     21  H   LIG d   1       1.559   0.595  -4.230  0.00  0.00     0.023 H 
ATOM     22  H   LIG d   1       2.790   1.554  -5.087  0.00  0.00     0.023 H 
ENDBRANCH  13  19
ENDBRANCH   5  13
BRANCH   7  23
ATOM     23  C   LIG d   1       4.456  -2.180  -3.584  0.00  0.00     0.134 C 
ATOM     24  O   LIG d   1       3.874  -2.975  -4.282  0.00  0.00    -0.297 OA
BRANCH  23  25
ATOM     25  C   LIG d   1       4.144  -2.101  -2.111  0.00  0.00    -0.006 C 
ATOM     26  H   LIG d   1       4.556  -2.882  -1.641  0.00  0.00     0.031 H 
ATOM     27  H   LIG d   1       4.552  -1.175  -1.703  0.00  0.00     0.031 H 
ATOM     28  H   LIG d   1       3.064  -2.117  -1.967  0.00  0.00     0.031 H 
ENDBRANCH  23  25
ENDBRANCH   7  23
BRANCH   1  29
ATOM     29  C   LIG d   1       7.812  -2.231  -3.931  0.00  0.00    -0.062 C 
ATOM     30  H   LIG d   1       7.762  -2.178  -5.018  0.00  0.00     0.023 H 
ATOM     31  H   LIG d   1       8.808  -1.938  -3.598  0.00  0.00     0.023 H 
ATOM     32  H   LIG d   1       7.606  -3.251  -3.605  0.00  0.00     0.023 H 
ENDBRANCH   1  29
TORSDOF 6
ENDMDL
MODEL 7
REMARK VINA RESULT:      -4.3      1.617      3.713
REMARK  6 active torsions:
REMARK  status: ('A' for Active; 'I' for Inactive)
REMARK    1  A    between atoms: C_1  and  C_2 
REMARK    2  A    between atoms: C_6  and  C_13 
REMARK    3  A    between atoms: C_8  and  C_10 
REMARK    4  A    between atoms: C_10  and  C_12 
REMARK    5  A    between atoms: C_13  and  C_14 
REMARK    6  A    between atoms: C_13  and  C_15 
ROOT
ATOM      1  C   LIG d   1       3.478  -0.266  -4.120  0.00  0.00    -0.034 C 
ATOM      2  H   LIG d   1       4.156   0.553  -3.878  0.00  0.00     0.030 H 
ATOM      3  C   LIG d   1       3.193  -1.124  -2.862  0.00  0.00    -0.050 C 
ATOM      4  C   LIG d   1       4.441  -2.037  -2.782  0.00  0.00    -0.049 C 
ATOM      5  C   LIG d   1       4.760  -2.374  -4.253  0.00  0.00    -0.029 C 
ATOM      6  H   LIG d   1       4.313  -3.331  -4.522  0.00  0.00     0.031 H 
ATOM      7  C   LIG d   1       4.148  -1.248  -5.104  0.00  0.00     0.023 C 
ATOM      8  H   LIG d   1       3.461  -1.605  -5.737  0.00  0.00     0.038 H 
ATOM      9  H   LIG d   1       2.288  -1.717  -2.998  0.00  0.00     0.027 H 
ATOM     10  H   LIG d   1       3.114  -0.498  -1.974  0.00  0.00     0.027 H 
ATOM     11  H   LIG d   1       5.275  -1.504  -2.323  0.00  0.00     0.027 H 
ATOM     12  H   LIG d   1       4.215  -2.946  -2.224  0.00  0.00     0.027 H 
ENDROOT
BRANCH   5  13
ATOM     13  C   LIG d   1       6.275  -2.424  -4.463  0.00  0.00    -0.043 C 
ATOM     14  H   LIG d   1       6.559  -1.705  -5.231  0.00  0.00     0.030 H 
BRANCH  13  15
ATOM     15  C   LIG d   1       6.984  -2.078  -3.152  0.00  0.00    -0.062 C 
ATOM     16  H   LIG d   1       6.528  -2.636  -2.335  0.00  0.00     0.023 H 
ATOM     17  H   LIG d   1       8.038  -2.341  -3.229  0.00  0.00     0.023 H 
ATOM     18  H   LIG d   1       6.889  -1.010  -2.959  0.00  0.00     0.023 H 
ENDBRANCH  13  15
BRANCH  13  19
ATOM     19  C   LIG d   1       6.682  -3.830  -4.907  0.00  0.00    -0.062 C 
ATOM     20  H   LIG d   1       7.420  -3.760  -5.706  0.00  0.00     0.023 H 
ATOM     21  H   LIG d   1       7.111  -4.369  -4.062  0.00  0.00     0.023 H 
ATOM     22  H   LIG d   1       5.804  -4.365  -5.271  0.00  0.00     0.023 H 
ENDBRANCH  13  19
ENDBRANCH   5  13
BRANCH   7  23
ATOM     23  C   LIG d   1       5.229  -0.542  -5.882  0.00  0.00     0.134 C 
ATOM     24  O   LIG d   1       5.842   0.367  -5.376  0.00  0.00    -0.297 OA
BRANCH  23  25
ATOM     25  C   LIG d   1       5.544  -0.970  -7.292  0.00  0.00    -0.006 C 
ATOM     26  H   LIG d   1       5.237  -0.266  -7.931  0.00  0.00     0.031 H 
ATOM     27  H   LIG d   1       6.621  -1.111  -7.396  0.00  0.00     0.031 H 
ATOM     28  H   LIG d   1       5.033  -1.908  -7.510  0.00  0.00     0.031 H 
ENDBRANCH  23  25
ENDBRANCH   7  23
BRANCH   1  29
ATOM     29  C   LIG d   1       2.172   0.274  -4.707  0.00  0.00    -0.062 C 
ATOM     30  H   LIG d   1       2.166   0.117  -5.786  0.00  0.00     0.023 H 
ATOM     31  H   LIG d   1       1.328  -0.250  -4.258  0.00  0.00     0.023 H 
ATOM     32  H   LIG d   1       2.092   1.340  -4.495  0.00  0.00     0.023 H 
ENDBRANCH   1  29
TORSDOF 6
ENDMDL
MODEL 8
REMARK VINA RESULT:      -4.1      1.446      3.063
REMARK  6 active torsions:
REMARK  status: ('A' for Active; 'I' for Inactive)
REMARK    1  A    between atoms: C_1  and  C_2 
REMARK    2  A    between atoms: C_6  and  C_13 
REMARK    3  A    between atoms: C_8  and  C_10 
REMARK    4  A    between atoms: C_10  and  C_12 
REMARK    5  A    between atoms: C_13  and  C_14 
REMARK    6  A    between atoms: C_13  and  C_15 
ROOT
ATOM      1  C   LIG d   1       7.100  -0.024  -4.547  0.00  0.00    -0.034 C 
ATOM      2  H   LIG d   1       7.589  -0.850  -4.030  0.00  0.00     0.030 H 
ATOM      3  C   LIG d   1       6.922   1.184  -3.593  0.00  0.00    -0.050 C 
ATOM      4  C   LIG d   1       5.658   0.798  -2.786  0.00  0.00    -0.049 C 
ATOM      5  C   LIG d   1       4.743   0.112  -3.821  0.00  0.00    -0.029 C 
ATOM      6  H   LIG d   1       4.032   0.832  -4.227  0.00  0.00     0.031 H 
ATOM      7  C   LIG d   1       5.660  -0.411  -4.941  0.00  0.00     0.023 C 
ATOM      8  H   LIG d   1       5.432   0.007  -5.820  0.00  0.00     0.038 H 
ATOM      9  H   LIG d   1       6.755   2.100  -4.159  0.00  0.00     0.027 H 
ATOM     10  H   LIG d   1       7.784   1.289  -2.934  0.00  0.00     0.027 H 
ATOM     11  H   LIG d   1       5.914   0.105  -1.984  0.00  0.00     0.027 H 
ATOM     12  H   LIG d   1       5.176   1.689  -2.383  0.00  0.00     0.027 H 
ENDROOT
BRANCH   5  13
ATOM     13  C   LIG d   1       3.995  -1.053  -3.170  0.00  0.00    -0.043 C 
ATOM     14  H   LIG d   1       4.215  -1.974  -3.710  0.00  0.00     0.030 H 
BRANCH  13  15
ATOM     15  C   LIG d   1       4.444  -1.197  -1.714  0.00  0.00    -0.062 C 
ATOM     16  H   LIG d   1       3.748  -0.663  -1.066  0.00  0.00     0.023 H 
ATOM     17  H   LIG d   1       4.459  -2.251  -1.441  0.00  0.00     0.023 H 
ATOM     18  H   LIG d   1       5.442  -0.777  -1.599  0.00  0.00     0.023 H 
ENDBRANCH  13  15
BRANCH  13  19
ATOM     19  C   LIG d   1       2.490  -0.783  -3.216  0.00  0.00    -0.062 C 
ATOM     20  H   LIG d   1       2.115  -0.985  -4.220  0.00  0.00     0.023 H 
ATOM     21  H   LIG d   1       1.982  -1.431  -2.501  0.00  0.00     0.023 H 
ATOM     22  H   LIG d   1       2.300   0.259  -2.960  0.00  0.00     0.023 H 
ENDBRANCH  13  19
ENDBRANCH   5  13
BRANCH   7  23
ATOM     23  C   LIG d   1       5.539  -1.909  -5.050  0.00  0.00     0.134 C 
ATOM     24  O   LIG d   1       4.647  -2.397  -5.701  0.00  0.00    -0.297 OA
BRANCH  23  25
ATOM     25  C   LIG d   1       6.531  -2.798  -4.346  0.00  0.00    -0.006 C 
ATOM     26  H   LIG d   1       6.481  -3.721  -4.727  0.00  0.00     0.031 H 
ATOM     27  H   LIG d   1       7.537  -2.402  -4.487  0.00  0.00     0.031 H 
ATOM     28  H   LIG d   1       6.299  -2.831  -3.282  0.00  0.00     0.031 H 
ENDBRANCH  23  25
ENDBRANCH   7  23
BRANCH   1  29
ATOM     29  C   LIG d   1       7.903   0.384  -5.784  0.00  0.00    -0.062 C 
ATOM     30  H   LIG d   1       8.156  -0.504  -6.363  0.00  0.00     0.023 H 
ATOM     31  H   LIG d   1       7.307   1.060  -6.397  0.00  0.00     0.023 H 
ATOM     32  H   LIG d   1       8.818   0.888  -5.473  0.00  0.00     0.023 H 
ENDBRANCH   1  29
TORSDOF 6
ENDMDL
MODEL 9
REMARK VINA RESULT:      -4.1      1.321      3.665
REMARK  6 active torsions:
REMARK  status: ('A' for Active; 'I' for Inactive)
REMARK    1  A    between atoms: C_1  and  C_2 
REMARK    2  A    between atoms: C_6  and  C_13 
REMARK    3  A    between atoms: C_8  and  C_10 
REMARK    4  A    between atoms: C_10  and  C_12 
REMARK    5  A    between atoms: C_13  and  C_14 
REMARK    6  A    between atoms: C_13  and  C_15 
ROOT
ATOM      1  C   LIG d   1       3.176   0.229  -4.127  0.00  0.00    -0.034 C 
ATOM      2  H   LIG d   1       3.530   1.050  -4.750  0.00  0.00     0.030 H 
ATOM      3  C   LIG d   1       3.372   0.562  -2.627  0.00  0.00    -0.050 C 
ATOM      4  C   LIG d   1       4.869   0.235  -2.397  0.00  0.00    -0.049 C 
ATOM      5  C   LIG d   1       5.116  -1.025  -3.251  0.00  0.00    -0.029 C 
ATOM      6  H   LIG d   1       5.023  -1.918  -2.634  0.00  0.00     0.031 H 
ATOM      7  C   LIG d   1       4.041  -1.029  -4.351  0.00  0.00     0.023 C 
ATOM      8  H   LIG d   1       3.464  -1.844  -4.290  0.00  0.00     0.038 H 
ATOM      9  H   LIG d   1       2.738  -0.070  -2.006  0.00  0.00     0.027 H 
ATOM     10  H   LIG d   1       3.173   1.617  -2.434  0.00  0.00     0.027 H 
ATOM     11  H   LIG d   1       5.496   1.059  -2.741  0.00  0.00     0.027 H 
ATOM     12  H   LIG d   1       5.056   0.025  -1.345  0.00  0.00     0.027 H 
ENDROOT
BRANCH   5  13
ATOM     13  C   LIG d   1       6.509  -0.967  -3.881  0.00  0.00    -0.043 C 
ATOM     14  H   LIG d   1       6.420  -1.027  -4.966  0.00  0.00     0.030 H 
BRANCH  13  15
ATOM     15  C   LIG d   1       7.187   0.351  -3.499  0.00  0.00    -0.062 C 
ATOM     16  H   LIG d   1       7.105   1.055  -4.327  0.00  0.00     0.023 H 
ATOM     17  H   LIG d   1       6.701   0.768  -2.618  0.00  0.00     0.023 H 
ATOM     18  H   LIG d   1       8.239   0.168  -3.281  0.00  0.00     0.023 H 
ENDBRANCH  13  15
BRANCH  13  19
ATOM     19  C   LIG d   1       7.349  -2.139  -3.373  0.00  0.00    -0.062 C 
ATOM     20  H   LIG d   1       8.135  -2.363  -4.094  0.00  0.00     0.023 H 
ATOM     21  H   LIG d   1       7.799  -1.876  -2.415  0.00  0.00     0.023 H 
ATOM     22  H   LIG d   1       6.712  -3.015  -3.246  0.00  0.00     0.023 H 
ENDBRANCH  13  19
ENDBRANCH   5  13
BRANCH   7  23
ATOM     23  C   LIG d   1       4.691  -0.974  -5.710  0.00  0.00     0.134 C 
ATOM     24  O   LIG d   1       4.949   0.093  -6.213  0.00  0.00    -0.297 OA
BRANCH  23  25
ATOM     25  C   LIG d   1       5.018  -2.251  -6.441  0.00  0.00    -0.006 C 
ATOM     26  H   LIG d   1       4.307  -2.930  -6.259  0.00  0.00     0.031 H 
ATOM     27  H   LIG d   1       5.066  -2.053  -7.512  0.00  0.00     0.031 H 
ATOM     28  H   LIG d   1       5.980  -2.630  -6.097  0.00  0.00     0.031 H 
ENDBRANCH  23  25
ENDBRANCH   7  23
BRANCH   1  29
ATOM     29  C   LIG d   1       1.705  -0.072  -4.421  0.00  0.00    -0.062 C 
ATOM     30  H   LIG d   1       1.110   0.121  -3.529  0.00  0.00     0.023 H 
ATOM     31  H   LIG d   1       1.359   0.566  -5.235  0.00  0.00     0.023 H 
ATOM     32  H   LIG d   1       1.599  -1.118  -4.710  0.00  0.00     0.023 H 
ENDBRANCH   1  29
TORSDOF 6
ENDMDL
MODEL 10
REMARK VINA RESULT:      -4.0      1.785      4.081
REMARK  6 active torsions:
REMARK  status: ('A' for Active; 'I' for Inactive)
REMARK    1  A    between atoms: C_1  and  C_2 
REMARK    2  A    between atoms: C_6  and  C_13 
REMARK    3  A    between atoms: C_8  and  C_10 
REMARK    4  A    between atoms: C_10  and  C_12 
REMARK    5  A    between atoms: C_13  and  C_14 
REMARK    6  A    between atoms: C_13  and  C_15 
ROOT
ATOM      1  C   LIG d   1       4.067  -0.651  -3.536  0.00  0.00    -0.034 C 
ATOM      2  H   LIG d   1       3.981  -0.360  -4.582  0.00  0.00     0.030 H 
ATOM      3  C   LIG d   1       4.953   0.358  -2.763  0.00  0.00    -0.050 C 
ATOM      4  C   LIG d   1       6.388  -0.102  -3.122  0.00  0.00    -0.049 C 
ATOM      5  C   LIG d   1       6.296  -1.642  -3.145  0.00  0.00    -0.029 C 
ATOM      6  H   LIG d   1       6.611  -2.049  -2.184  0.00  0.00     0.031 H 
ATOM      7  C   LIG d   1       4.821  -1.991  -3.409  0.00  0.00     0.023 C 
ATOM      8  H   LIG d   1       4.434  -2.520  -2.653  0.00  0.00     0.038 H 
ATOM      9  H   LIG d   1       4.779   0.281  -1.690  0.00  0.00     0.027 H 
ATOM     10  H   LIG d   1       4.776   1.377  -3.110  0.00  0.00     0.027 H 
ATOM     11  H   LIG d   1       6.676   0.278  -4.102  0.00  0.00     0.027 H 
ATOM     12  H   LIG d   1       7.095   0.226  -2.361  0.00  0.00     0.027 H 
ENDROOT
BRANCH   5  13
ATOM     13  C   LIG d   1       7.175  -2.202  -4.265  0.00  0.00    -0.043 C 
ATOM     14  H   LIG d   1       6.546  -2.679  -5.017  0.00  0.00     0.030 H 
BRANCH  13  15
ATOM     15  C   LIG d   1       7.966  -1.063  -4.912  0.00  0.00    -0.062 C 
ATOM     16  H   LIG d   1       7.481  -0.767  -5.841  0.00  0.00     0.023 H 
ATOM     17  H   LIG d   1       8.000  -0.213  -4.232  0.00  0.00     0.023 H 
ATOM     18  H   LIG d   1       8.981  -1.400  -5.123  0.00  0.00     0.023 H 
ENDBRANCH  13  15
BRANCH  13  19
ATOM     19  C   LIG d   1       8.145  -3.233  -3.686  0.00  0.00    -0.062 C 
ATOM     20  H   LIG d   1       9.158  -3.006  -4.019  0.00  0.00     0.023 H 
ATOM     21  H   LIG d   1       8.105  -3.198  -2.597  0.00  0.00     0.023 H 
ATOM     22  H   LIG d   1       7.864  -4.229  -4.028  0.00  0.00     0.023 H 
ENDBRANCH  13  19
ENDBRANCH   5  13
BRANCH   7  23
ATOM     23  C   LIG d   1       4.697  -2.777  -4.688  0.00  0.00     0.134 C 
ATOM     24  O   LIG d   1       4.661  -3.983  -4.655  0.00  0.00    -0.297 OA
BRANCH  23  25
ATOM     25  C   LIG d   1       4.618  -2.057  -6.010  0.00  0.00    -0.006 C 
ATOM     26  H   LIG d   1       5.201  -1.245  -5.982  0.00  0.00     0.031 H 
ATOM     27  H   LIG d   1       4.958  -2.720  -6.806  0.00  0.00     0.031 H 
ATOM     28  H   LIG d   1       3.587  -1.759  -6.200  0.00  0.00     0.031 H 
ENDBRANCH  23  25
ENDBRANCH   7  23
BRANCH   1  29
ATOM     29  C   LIG d   1       2.683  -0.751  -2.891  0.00  0.00    -0.062 C 
ATOM     30  H   LIG d   1       2.598  -0.010  -2.097  0.00  0.00     0.023 H 
ATOM     31  H   LIG d   1       1.917  -0.567  -3.645  0.00  0.00     0.023 H 
ATOM     32  H   LIG d   1       2.549  -1.749  -2.473  0.00  0.00     0.023 H 
ENDBRANCH   1  29
TORSDOF 6
ENDMDL
