MODEL 1
REMARK VINA RESULT:      -6.0      0.000      0.000
REMARK  10 active torsions:
REMARK  status: ('A' for Active; 'I' for Inactive)
REMARK    1  A    between atoms: C_1  and  C_2 
REMARK    2  A    between atoms: C_3  and  C_25 
REMARK    3  A    between atoms: N_11  and  C_14 
REMARK    4  A    between atoms: C_14  and  C_15 
REMARK    5  A    between atoms: C_17  and  C_21 
REMARK    6  A    between atoms: C_18  and  N_20 
REMARK    7  A    between atoms: C_21  and  O_23 
REMARK    8  A    between atoms: O_23  and  C_24 
REMARK    9  A    between atoms: C_25  and  O_27 
REMARK   10  A    between atoms: O_27  and  C_28 
ROOT
ATOM      1  C   LIG d   1       8.422  -1.168  -5.207  0.00  0.00     0.116 C 
ATOM      2  C   LIG d   1       7.273  -0.557  -5.526  0.00  0.00     0.098 C 
ATOM      3  C   LIG d   1       5.952  -1.230  -5.292  0.00  0.00     0.145 A 
ATOM      4  C   LIG d   1       5.236  -0.597  -4.126  0.00  0.00    -0.002 A 
ATOM      5  C   LIG d   1       5.545  -0.466  -2.790  0.00  0.00    -0.055 A 
ATOM      6  C   LIG d   1       4.668   0.180  -1.937  0.00  0.00    -0.061 A 
ATOM      7  C   LIG d   1       3.482   0.692  -2.429  0.00  0.00    -0.060 A 
ATOM      8  C   LIG d   1       3.168   0.563  -3.767  0.00  0.00    -0.040 A 
ATOM      9  C   LIG d   1       4.047  -0.085  -4.632  0.00  0.00     0.042 A 
ATOM     10  N   LIG d   1       3.957  -0.339  -6.002  0.00  0.00    -0.266 N 
ATOM     11  C   LIG d   1       5.030  -1.002  -6.467  0.00  0.00     0.240 A 
ATOM     12  O   LIG d   1       5.222  -1.352  -7.613  0.00  0.00    -0.274 OA
ATOM     13  C   LIG d   1       6.147  -2.703  -5.063  0.00  0.00     0.117 C 
ATOM     14  C   LIG d   1       7.379  -3.195  -4.766  0.00  0.00     0.195 C 
ATOM     15  O   LIG d   1       8.454  -2.396  -4.669  0.00  0.00    -0.446 OA
ATOM     16  H   LIG d   1       6.472  -0.868  -2.409  0.00  0.00     0.062 H 
ATOM     17  H   LIG d   1       4.909   0.285  -0.890  0.00  0.00     0.062 H 
ATOM     18  H   LIG d   1       2.796   1.196  -1.763  0.00  0.00     0.062 H 
ATOM     19  H   LIG d   1       2.240   0.967  -4.145  0.00  0.00     0.064 H 
ENDROOT
BRANCH   2  20
ATOM     20  C   LIG d   1       7.306   0.743  -6.089  0.00  0.00     0.340 C 
ATOM     21  O   LIG d   1       7.293   1.719  -5.364  0.00  0.00    -0.245 OA
BRANCH  20  22
ATOM     22  O   LIG d   1       7.347   0.897  -7.429  0.00  0.00    -0.465 OA
BRANCH  22  23
ATOM     23  C   LIG d   1       8.154   1.963  -7.934  0.00  0.00     0.082 C 
ATOM     24  H   LIG d   1       7.543   2.620  -8.552  0.00  0.00     0.066 H 
ATOM     25  H   LIG d   1       8.570   2.530  -7.102  0.00  0.00     0.066 H 
ATOM     26  H   LIG d   1       8.966   1.550  -8.535  0.00  0.00     0.066 H 
ENDBRANCH  22  23
ENDBRANCH  20  22
ENDBRANCH   2  20
BRANCH  13  27
ATOM     27  C   LIG d   1       5.050  -3.573  -5.148  0.00  0.00     0.342 C 
ATOM     28  O   LIG d   1       4.293  -3.694  -4.201  0.00  0.00    -0.245 OA
BRANCH  27  29
ATOM     29  O   LIG d   1       4.834  -4.278  -6.280  0.00  0.00    -0.465 OA
BRANCH  29  30
ATOM     30  C   LIG d   1       4.293  -5.592  -6.133  0.00  0.00     0.082 C 
ATOM     31  H   LIG d   1       5.078  -6.329  -6.297  0.00  0.00     0.066 H 
ATOM     32  H   LIG d   1       3.891  -5.709  -5.126  0.00  0.00     0.066 H 
ATOM     33  H   LIG d   1       3.496  -5.741  -6.862  0.00  0.00     0.066 H 
ENDBRANCH  29  30
ENDBRANCH  27  29
ENDBRANCH  13  27
BRANCH   1  34
ATOM     34  C   LIG d   1       9.723  -0.451  -5.459  0.00  0.00    -0.006 C 
ATOM     35  H   LIG d   1       9.522   0.509  -5.935  0.00  0.00     0.031 H 
ATOM     36  H   LIG d   1      10.238  -0.287  -4.513  0.00  0.00     0.031 H 
ATOM     37  H   LIG d   1      10.350  -1.057  -6.114  0.00  0.00     0.031 H 
ENDBRANCH   1  34
BRANCH  10  38
ATOM     38  C   LIG d   1       2.825   0.072  -6.836  0.00  0.00     0.038 C 
ATOM     39  H   LIG d   1       2.612  -0.707  -7.568  0.00  0.00     0.051 H 
ATOM     40  H   LIG d   1       1.949   0.230  -6.207  0.00  0.00     0.051 H 
BRANCH  38  41
ATOM     41  C   LIG d   1       3.168   1.353  -7.552  0.00  0.00    -0.074 C 
ATOM     42  C   LIG d   1       2.793   1.529  -8.794  0.00  0.00    -0.101 C 
ATOM     43  H   LIG d   1       2.238   0.757  -9.306  0.00  0.00     0.053 H 
ATOM     44  H   LIG d   1       3.038   2.448  -9.307  0.00  0.00     0.053 H 
ATOM     45  H   LIG d   1       3.722   2.125  -7.040  0.00  0.00     0.058 H 
ENDBRANCH  38  41
ENDBRANCH  10  38
BRANCH  14  46
ATOM     46  N   LIG d   1       7.528  -4.541  -4.562  0.00  0.00    -0.329 N 
ATOM     47  H   LIG d   1       7.907  -4.866  -3.730  0.00  0.00     0.145 HD
ATOM     48  H   LIG d   1       7.253  -5.169  -5.248  0.00  0.00     0.145 HD
ENDBRANCH  14  46
TORSDOF 10
ENDMDL
MODEL 2
REMARK VINA RESULT:      -5.8      1.953      4.304
REMARK  10 active torsions:
REMARK  status: ('A' for Active; 'I' for Inactive)
REMARK    1  A    between atoms: C_1  and  C_2 
REMARK    2  A    between atoms: C_3  and  C_25 
REMARK    3  A    between atoms: N_11  and  C_14 
REMARK    4  A    between atoms: C_14  and  C_15 
REMARK    5  A    between atoms: C_17  and  C_21 
REMARK    6  A    between atoms: C_18  and  N_20 
REMARK    7  A    between atoms: C_21  and  O_23 
REMARK    8  A    between atoms: O_23  and  C_24 
REMARK    9  A    between atoms: C_25  and  O_27 
REMARK   10  A    between atoms: O_27  and  C_28 
ROOT
ATOM      1  C   LIG d   1       6.343  -3.820  -5.523  0.00  0.00     0.116 C 
ATOM      2  C   LIG d   1       6.814  -2.666  -5.032  0.00  0.00     0.098 C 
ATOM      3  C   LIG d   1       6.078  -1.377  -5.254  0.00  0.00     0.145 A 
ATOM      4  C   LIG d   1       5.411  -0.923  -3.980  0.00  0.00    -0.002 A 
ATOM      5  C   LIG d   1       4.443  -1.480  -3.173  0.00  0.00    -0.055 A 
ATOM      6  C   LIG d   1       4.019  -0.811  -2.039  0.00  0.00    -0.061 A 
ATOM      7  C   LIG d   1       4.568   0.418  -1.719  0.00  0.00    -0.060 A 
ATOM      8  C   LIG d   1       5.538   0.979  -2.525  0.00  0.00    -0.040 A 
ATOM      9  C   LIG d   1       5.971   0.310  -3.668  0.00  0.00     0.042 A 
ATOM     10  N   LIG d   1       6.923   0.665  -4.626  0.00  0.00    -0.266 N 
ATOM     11  C   LIG d   1       7.047  -0.268  -5.586  0.00  0.00     0.240 A 
ATOM     12  O   LIG d   1       7.796  -0.226  -6.540  0.00  0.00    -0.274 OA
ATOM     13  C   LIG d   1       5.068  -1.534  -6.357  0.00  0.00     0.117 C 
ATOM     14  C   LIG d   1       4.695  -2.771  -6.777  0.00  0.00     0.195 C 
ATOM     15  O   LIG d   1       5.206  -3.886  -6.231  0.00  0.00    -0.446 OA
ATOM     16  H   LIG d   1       4.016  -2.439  -3.427  0.00  0.00     0.062 H 
ATOM     17  H   LIG d   1       3.261  -1.246  -1.405  0.00  0.00     0.062 H 
ATOM     18  H   LIG d   1       4.236   0.941  -0.834  0.00  0.00     0.062 H 
ATOM     19  H   LIG d   1       5.963   1.938  -2.268  0.00  0.00     0.064 H 
ENDROOT
BRANCH   2  20
ATOM     20  C   LIG d   1       8.021  -2.663  -4.290  0.00  0.00     0.340 C 
ATOM     21  O   LIG d   1       7.987  -2.695  -3.075  0.00  0.00    -0.245 OA
BRANCH  20  22
ATOM     22  O   LIG d   1       9.207  -2.620  -4.932  0.00  0.00    -0.465 OA
BRANCH  22  23
ATOM     23  C   LIG d   1      10.291  -3.339  -4.339  0.00  0.00     0.082 C 
ATOM     24  H   LIG d   1      11.108  -3.422  -5.056  0.00  0.00     0.066 H 
ATOM     25  H   LIG d   1      10.638  -2.809  -3.453  0.00  0.00     0.066 H 
ATOM     26  H   LIG d   1       9.954  -4.337  -4.057  0.00  0.00     0.066 H 
ENDBRANCH  22  23
ENDBRANCH  20  22
ENDBRANCH   2  20
BRANCH  13  27
ATOM     27  C   LIG d   1       4.503  -0.395  -6.952  0.00  0.00     0.342 C 
ATOM     28  O   LIG d   1       3.638   0.232  -6.368  0.00  0.00    -0.245 OA
BRANCH  27  29
ATOM     29  O   LIG d   1       4.920   0.006  -8.173  0.00  0.00    -0.465 OA
BRANCH  29  30
ATOM     30  C   LIG d   1       4.063   0.896  -8.891  0.00  0.00     0.082 C 
ATOM     31  H   LIG d   1       4.544   1.869  -8.982  0.00  0.00     0.066 H 
ATOM     32  H   LIG d   1       3.871   0.492  -9.885  0.00  0.00     0.066 H 
ATOM     33  H   LIG d   1       3.120   1.004  -8.354  0.00  0.00     0.066 H 
ENDBRANCH  29  30
ENDBRANCH  27  29
ENDBRANCH  13  27
BRANCH   1  34
ATOM     34  C   LIG d   1       7.118  -5.089  -5.273  0.00  0.00    -0.006 C 
ATOM     35  H   LIG d   1       8.168  -4.847  -5.115  0.00  0.00     0.031 H 
ATOM     36  H   LIG d   1       6.722  -5.587  -4.388  0.00  0.00     0.031 H 
ATOM     37  H   LIG d   1       7.022  -5.749  -6.135  0.00  0.00     0.031 H 
ENDBRANCH   1  34
BRANCH  10  38
ATOM     38  C   LIG d   1       7.697   1.908  -4.588  0.00  0.00     0.038 C 
ATOM     39  H   LIG d   1       7.957   2.205  -5.604  0.00  0.00     0.051 H 
ATOM     40  H   LIG d   1       7.101   2.692  -4.121  0.00  0.00     0.051 H 
BRANCH  38  41
ATOM     41  C   LIG d   1       8.956   1.690  -3.789  0.00  0.00    -0.074 C 
ATOM     42  C   LIG d   1       9.664   2.718  -3.391  0.00  0.00    -0.101 C 
ATOM     43  H   LIG d   1       9.346   3.720  -3.635  0.00  0.00     0.053 H 
ATOM     44  H   LIG d   1      10.567   2.562  -2.818  0.00  0.00     0.053 H 
ATOM     45  H   LIG d   1       9.274   0.688  -3.544  0.00  0.00     0.058 H 
ENDBRANCH  38  41
ENDBRANCH  10  38
BRANCH  14  46
ATOM     46  N   LIG d   1       3.773  -2.884  -7.783  0.00  0.00    -0.329 N 
ATOM     47  H   LIG d   1       3.217  -2.124  -8.019  0.00  0.00     0.145 HD
ATOM     48  H   LIG d   1       3.676  -3.723  -8.262  0.00  0.00     0.145 HD
ENDBRANCH  14  46
TORSDOF 10
ENDMDL
MODEL 3
REMARK VINA RESULT:      -5.7      2.110      5.137
REMARK  10 active torsions:
REMARK  status: ('A' for Active; 'I' for Inactive)
REMARK    1  A    between atoms: C_1  and  C_2 
REMARK    2  A    between atoms: C_3  and  C_25 
REMARK    3  A    between atoms: N_11  and  C_14 
REMARK    4  A    between atoms: C_14  and  C_15 
REMARK    5  A    between atoms: C_17  and  C_21 
REMARK    6  A    between atoms: C_18  and  N_20 
REMARK    7  A    between atoms: C_21  and  O_23 
REMARK    8  A    between atoms: O_23  and  C_24 
REMARK    9  A    between atoms: C_25  and  O_27 
REMARK   10  A    between atoms: O_27  and  C_28 
ROOT
ATOM      1  C   LIG d   1       5.374   0.779  -3.019  0.00  0.00     0.116 C 
ATOM      2  C   LIG d   1       5.120  -0.062  -4.031  0.00  0.00     0.098 C 
ATOM      3  C   LIG d   1       6.159  -0.346  -5.077  0.00  0.00     0.145 A 
ATOM      4  C   LIG d   1       6.727  -1.730  -4.895  0.00  0.00    -0.002 A 
ATOM      5  C   LIG d   1       7.417  -2.338  -3.870  0.00  0.00    -0.055 A 
ATOM      6  C   LIG d   1       7.821  -3.656  -3.993  0.00  0.00    -0.061 A 
ATOM      7  C   LIG d   1       7.533  -4.358  -5.149  0.00  0.00    -0.060 A 
ATOM      8  C   LIG d   1       6.842  -3.752  -6.179  0.00  0.00    -0.040 A 
ATOM      9  C   LIG d   1       6.430  -2.427  -6.062  0.00  0.00     0.042 A 
ATOM     10  N   LIG d   1       5.731  -1.607  -6.949  0.00  0.00    -0.266 N 
ATOM     11  C   LIG d   1       5.530  -0.375  -6.449  0.00  0.00     0.240 A 
ATOM     12  O   LIG d   1       4.952   0.541  -6.998  0.00  0.00    -0.274 OA
ATOM     13  C   LIG d   1       7.249   0.689  -5.026  0.00  0.00     0.117 C 
ATOM     14  C   LIG d   1       7.380   1.497  -3.941  0.00  0.00     0.195 C 
ATOM     15  O   LIG d   1       6.553   1.405  -2.888  0.00  0.00    -0.446 OA
ATOM     16  H   LIG d   1       7.641  -1.786  -2.969  0.00  0.00     0.062 H 
ATOM     17  H   LIG d   1       8.361  -4.134  -3.190  0.00  0.00     0.062 H 
ATOM     18  H   LIG d   1       7.849  -5.386  -5.247  0.00  0.00     0.062 H 
ATOM     19  H   LIG d   1       6.620  -4.308  -7.079  0.00  0.00     0.064 H 
ENDROOT
BRANCH   2  20
ATOM     20  C   LIG d   1       3.855  -0.694  -4.113  0.00  0.00     0.340 C 
ATOM     21  O   LIG d   1       2.877  -0.057  -4.456  0.00  0.00    -0.245 OA
BRANCH  20  22
ATOM     22  O   LIG d   1       3.733  -2.003  -3.805  0.00  0.00    -0.465 OA
BRANCH  22  23
ATOM     23  C   LIG d   1       3.876  -2.361  -2.429  0.00  0.00     0.082 C 
ATOM     24  H   LIG d   1       3.025  -2.967  -2.121  0.00  0.00     0.066 H 
ATOM     25  H   LIG d   1       4.795  -2.931  -2.294  0.00  0.00     0.066 H 
ATOM     26  H   LIG d   1       3.917  -1.457  -1.821  0.00  0.00     0.066 H 
ENDBRANCH  22  23
ENDBRANCH  20  22
ENDBRANCH   2  20
BRANCH  13  27
ATOM     27  C   LIG d   1       8.140   0.816  -6.103  0.00  0.00     0.342 C 
ATOM     28  O   LIG d   1       9.074   0.042  -6.215  0.00  0.00    -0.245 OA
BRANCH  27  29
ATOM     29  O   LIG d   1       7.962   1.797  -7.015  0.00  0.00    -0.465 OA
BRANCH  29  30
ATOM     30  C   LIG d   1       9.133   2.470  -7.480  0.00  0.00     0.082 C 
ATOM     31  H   LIG d   1       9.741   2.773  -6.629  0.00  0.00     0.066 H 
ATOM     32  H   LIG d   1       9.710   1.797  -8.116  0.00  0.00     0.066 H 
ATOM     33  H   LIG d   1       8.842   3.351  -8.053  0.00  0.00     0.066 H 
ENDBRANCH  29  30
ENDBRANCH  27  29
ENDBRANCH  13  27
BRANCH   1  34
ATOM     34  C   LIG d   1       4.299   1.030  -1.993  0.00  0.00    -0.006 C 
ATOM     35  H   LIG d   1       3.334   1.108  -2.491  0.00  0.00     0.031 H 
ATOM     36  H   LIG d   1       4.276   0.205  -1.282  0.00  0.00     0.031 H 
ATOM     37  H   LIG d   1       4.513   1.959  -1.464  0.00  0.00     0.031 H 
ENDBRANCH   1  34
BRANCH  10  38
ATOM     38  C   LIG d   1       5.269  -2.039  -8.270  0.00  0.00     0.038 C 
ATOM     39  H   LIG d   1       5.237  -1.182  -8.942  0.00  0.00     0.051 H 
ATOM     40  H   LIG d   1       5.955  -2.788  -8.667  0.00  0.00     0.051 H 
BRANCH  38  41
ATOM     41  C   LIG d   1       3.890  -2.635  -8.149  0.00  0.00    -0.074 C 
ATOM     42  C   LIG d   1       3.697  -3.901  -8.423  0.00  0.00    -0.101 C 
ATOM     43  H   LIG d   1       4.526  -4.518  -8.737  0.00  0.00     0.053 H 
ATOM     44  H   LIG d   1       2.709  -4.328  -8.336  0.00  0.00     0.053 H 
ATOM     45  H   LIG d   1       3.062  -2.018  -7.835  0.00  0.00     0.058 H 
ENDBRANCH  38  41
ENDBRANCH  10  38
BRANCH  14  46
ATOM     46  N   LIG d   1       8.382   2.430  -3.922  0.00  0.00    -0.329 N 
ATOM     47  H   LIG d   1       8.878   2.592  -3.105  0.00  0.00     0.145 HD
ATOM     48  H   LIG d   1       8.597   2.928  -4.727  0.00  0.00     0.145 HD
ENDBRANCH  14  46
TORSDOF 10
ENDMDL
MODEL 4
REMARK VINA RESULT:      -5.5      1.772      2.174
REMARK  10 active torsions:
REMARK  status: ('A' for Active; 'I' for Inactive)
REMARK    1  A    between atoms: C_1  and  C_2 
REMARK    2  A    between atoms: C_3  and  C_25 
REMARK    3  A    between atoms: N_11  and  C_14 
REMARK    4  A    between atoms: C_14  and  C_15 
REMARK    5  A    between atoms: C_17  and  C_21 
REMARK    6  A    between atoms: C_18  and  N_20 
REMARK    7  A    between atoms: C_21  and  O_23 
REMARK    8  A    between atoms: O_23  and  C_24 
REMARK    9  A    between atoms: C_25  and  O_27 
REMARK   10  A    between atoms: O_27  and  C_28 
ROOT
ATOM      1  C   LIG d   1       7.887  -3.639  -4.762  0.00  0.00     0.116 C 
ATOM      2  C   LIG d   1       7.159  -2.569  -5.107  0.00  0.00     0.098 C 
ATOM      3  C   LIG d   1       5.732  -2.719  -5.548  0.00  0.00     0.145 A 
ATOM      4  C   LIG d   1       4.793  -2.230  -4.474  0.00  0.00    -0.002 A 
ATOM      5  C   LIG d   1       4.561  -2.624  -3.175  0.00  0.00    -0.055 A 
ATOM      6  C   LIG d   1       3.611  -1.970  -2.412  0.00  0.00    -0.061 A 
ATOM      7  C   LIG d   1       2.893  -0.922  -2.958  0.00  0.00    -0.060 A 
ATOM      8  C   LIG d   1       3.122  -0.524  -4.260  0.00  0.00    -0.040 A 
ATOM      9  C   LIG d   1       4.079  -1.177  -5.033  0.00  0.00     0.042 A 
ATOM     10  N   LIG d   1       4.486  -0.964  -6.352  0.00  0.00    -0.266 N 
ATOM     11  C   LIG d   1       5.450  -1.822  -6.730  0.00  0.00     0.240 A 
ATOM     12  O   LIG d   1       5.991  -1.867  -7.815  0.00  0.00    -0.274 OA
ATOM     13  C   LIG d   1       5.440  -4.151  -5.900  0.00  0.00     0.117 C 
ATOM     14  C   LIG d   1       6.281  -5.142  -5.503  0.00  0.00     0.195 C 
ATOM     15  O   LIG d   1       7.389  -4.885  -4.792  0.00  0.00    -0.446 OA
ATOM     16  H   LIG d   1       5.123  -3.444  -2.751  0.00  0.00     0.062 H 
ATOM     17  H   LIG d   1       3.429  -2.277  -1.393  0.00  0.00     0.062 H 
ATOM     18  H   LIG d   1       2.150  -0.411  -2.363  0.00  0.00     0.062 H 
ATOM     19  H   LIG d   1       2.558   0.297  -4.679  0.00  0.00     0.064 H 
ENDROOT
BRANCH   2  20
ATOM     20  C   LIG d   1       7.742  -1.279  -5.051  0.00  0.00     0.340 C 
ATOM     21  O   LIG d   1       7.505  -0.545  -4.111  0.00  0.00    -0.245 OA
BRANCH  20  22
ATOM     22  O   LIG d   1       8.556  -0.864  -6.044  0.00  0.00    -0.465 OA
BRANCH  22  23
ATOM     23  C   LIG d   1       9.553   0.102  -5.703  0.00  0.00     0.082 C 
ATOM     24  H   LIG d   1       9.554   0.258  -4.625  0.00  0.00     0.066 H 
ATOM     25  H   LIG d   1      10.532  -0.259  -6.018  0.00  0.00     0.066 H 
ATOM     26  H   LIG d   1       9.333   1.044  -6.206  0.00  0.00     0.066 H 
ENDBRANCH  22  23
ENDBRANCH  20  22
ENDBRANCH   2  20
BRANCH  13  27
ATOM     27  C   LIG d   1       4.288  -4.466  -6.637  0.00  0.00     0.342 C 
ATOM     28  O   LIG d   1       3.350  -5.021  -6.094  0.00  0.00    -0.245 OA
BRANCH  27  29
ATOM     29  O   LIG d   1       4.220  -4.155  -7.950  0.00  0.00    -0.465 OA
BRANCH  29  30
ATOM     30  C   LIG d   1       3.364  -4.958  -8.764  0.00  0.00     0.082 C 
ATOM     31  H   LIG d   1       2.529  -5.321  -8.166  0.00  0.00     0.066 H 
ATOM     32  H   LIG d   1       2.983  -4.359  -9.593  0.00  0.00     0.066 H 
ATOM     33  H   LIG d   1       3.926  -5.806  -9.157  0.00  0.00     0.066 H 
ENDBRANCH  29  30
ENDBRANCH  27  29
ENDBRANCH  13  27
BRANCH   1  34
ATOM     34  C   LIG d   1       9.316  -3.438  -4.324  0.00  0.00    -0.006 C 
ATOM     35  H   LIG d   1       9.357  -2.645  -3.578  0.00  0.00     0.031 H 
ATOM     36  H   LIG d   1       9.698  -4.363  -3.894  0.00  0.00     0.031 H 
ATOM     37  H   LIG d   1       9.923  -3.159  -5.185  0.00  0.00     0.031 H 
ENDBRANCH   1  34
BRANCH  10  38
ATOM     38  C   LIG d   1       3.928   0.074  -7.221  0.00  0.00     0.038 C 
ATOM     39  H   LIG d   1       3.733   0.973  -6.636  0.00  0.00     0.051 H 
ATOM     40  H   LIG d   1       4.639   0.304  -8.015  0.00  0.00     0.051 H 
BRANCH  38  41
ATOM     41  C   LIG d   1       2.639  -0.419  -7.828  0.00  0.00    -0.074 C 
ATOM     42  C   LIG d   1       2.653  -1.029  -8.987  0.00  0.00    -0.101 C 
ATOM     43  H   LIG d   1       3.586  -1.178  -9.508  0.00  0.00     0.053 H 
ATOM     44  H   LIG d   1       1.729  -1.383  -9.421  0.00  0.00     0.053 H 
ATOM     45  H   LIG d   1       1.706  -0.271  -7.306  0.00  0.00     0.058 H 
ENDBRANCH  38  41
ENDBRANCH  10  38
BRANCH  14  46
ATOM     46  N   LIG d   1       5.989  -6.437  -5.838  0.00  0.00    -0.329 N 
ATOM     47  H   LIG d   1       5.471  -6.627  -6.636  0.00  0.00     0.145 HD
ATOM     48  H   LIG d   1       6.302  -7.166  -5.278  0.00  0.00     0.145 HD
ENDBRANCH  14  46
TORSDOF 10
ENDMDL
MODEL 5
REMARK VINA RESULT:      -5.5      2.066      4.507
REMARK  10 active torsions:
REMARK  status: ('A' for Active; 'I' for Inactive)
REMARK    1  A    between atoms: C_1  and  C_2 
REMARK    2  A    between atoms: C_3  and  C_25 
REMARK    3  A    between atoms: N_11  and  C_14 
REMARK    4  A    between atoms: C_14  and  C_15 
REMARK    5  A    between atoms: C_17  and  C_21 
REMARK    6  A    between atoms: C_18  and  N_20 
REMARK    7  A    between atoms: C_21  and  O_23 
REMARK    8  A    between atoms: O_23  and  C_24 
REMARK    9  A    between atoms: C_25  and  O_27 
REMARK   10  A    between atoms: O_27  and  C_28 
ROOT
ATOM      1  C   LIG d   1       7.152   0.761  -7.521  0.00  0.00     0.116 C 
ATOM      2  C   LIG d   1       6.648   0.157  -6.436  0.00  0.00     0.098 C 
ATOM      3  C   LIG d   1       5.438  -0.724  -6.538  0.00  0.00     0.145 A 
ATOM      4  C   LIG d   1       5.826  -2.174  -6.395  0.00  0.00    -0.002 A 
ATOM      5  C   LIG d   1       6.645  -3.007  -7.125  0.00  0.00    -0.055 A 
ATOM      6  C   LIG d   1       6.810  -4.325  -6.741  0.00  0.00    -0.061 A 
ATOM      7  C   LIG d   1       6.150  -4.805  -5.625  0.00  0.00    -0.060 A 
ATOM      8  C   LIG d   1       5.329  -3.974  -4.890  0.00  0.00    -0.040 A 
ATOM      9  C   LIG d   1       5.158  -2.645  -5.269  0.00  0.00     0.042 A 
ATOM     10  N   LIG d   1       4.394  -1.625  -4.700  0.00  0.00    -0.266 N 
ATOM     11  C   LIG d   1       4.503  -0.469  -5.379  0.00  0.00     0.240 A 
ATOM     12  O   LIG d   1       3.954   0.579  -5.113  0.00  0.00    -0.274 OA
ATOM     13  C   LIG d   1       4.727  -0.489  -7.841  0.00  0.00     0.117 C 
ATOM     14  C   LIG d   1       5.351   0.162  -8.858  0.00  0.00     0.195 C 
ATOM     15  O   LIG d   1       6.609   0.615  -8.739  0.00  0.00    -0.446 OA
ATOM     16  H   LIG d   1       7.158  -2.629  -7.997  0.00  0.00     0.062 H 
ATOM     17  H   LIG d   1       7.453  -4.979  -7.312  0.00  0.00     0.062 H 
ATOM     18  H   LIG d   1       6.279  -5.835  -5.325  0.00  0.00     0.062 H 
ATOM     19  H   LIG d   1       4.818  -4.356  -4.018  0.00  0.00     0.064 H 
ENDROOT
BRANCH   2  20
ATOM     20  C   LIG d   1       7.269   0.350  -5.178  0.00  0.00     0.340 C 
ATOM     21  O   LIG d   1       7.998  -0.511  -4.721  0.00  0.00    -0.245 OA
BRANCH  20  22
ATOM     22  O   LIG d   1       7.049   1.485  -4.483  0.00  0.00    -0.465 OA
BRANCH  22  23
ATOM     23  C   LIG d   1       8.162   2.042  -3.781  0.00  0.00     0.082 C 
ATOM     24  H   LIG d   1       9.059   1.466  -4.006  0.00  0.00     0.066 H 
ATOM     25  H   LIG d   1       8.308   3.077  -4.091  0.00  0.00     0.066 H 
ATOM     26  H   LIG d   1       7.969   2.008  -2.708  0.00  0.00     0.066 H 
ENDBRANCH  22  23
ENDBRANCH  20  22
ENDBRANCH   2  20
BRANCH  13  27
ATOM     27  C   LIG d   1       3.412  -0.951  -8.012  0.00  0.00     0.342 C 
ATOM     28  O   LIG d   1       2.473  -0.200  -7.818  0.00  0.00    -0.245 OA
BRANCH  27  29
ATOM     29  O   LIG d   1       3.189  -2.228  -8.391  0.00  0.00    -0.465 OA
BRANCH  29  30
ATOM     30  C   LIG d   1       2.512  -2.427  -9.633  0.00  0.00     0.082 C 
ATOM     31  H   LIG d   1       2.008  -3.393  -9.622  0.00  0.00     0.066 H 
ATOM     32  H   LIG d   1       1.775  -1.636  -9.776  0.00  0.00     0.066 H 
ATOM     33  H   LIG d   1       3.234  -2.403 -10.449  0.00  0.00     0.066 H 
ENDBRANCH  29  30
ENDBRANCH  27  29
ENDBRANCH  13  27
BRANCH   1  34
ATOM     34  C   LIG d   1       8.371   1.635  -7.368  0.00  0.00    -0.006 C 
ATOM     35  H   LIG d   1       8.132   2.649  -7.690  0.00  0.00     0.031 H 
ATOM     36  H   LIG d   1       8.680   1.648  -6.324  0.00  0.00     0.031 H 
ATOM     37  H   LIG d   1       9.180   1.240  -7.982  0.00  0.00     0.031 H 
ENDBRANCH   1  34
BRANCH  10  38
ATOM     38  C   LIG d   1       3.571  -1.794  -3.500  0.00  0.00     0.038 C 
ATOM     39  H   LIG d   1       2.738  -1.090  -3.529  0.00  0.00     0.051 H 
ATOM     40  H   LIG d   1       3.185  -2.812  -3.465  0.00  0.00     0.051 H 
BRANCH  38  41
ATOM     41  C   LIG d   1       4.409  -1.530  -2.275  0.00  0.00    -0.074 C 
ATOM     42  C   LIG d   1       4.453  -0.327  -1.759  0.00  0.00    -0.101 C 
ATOM     43  H   LIG d   1       3.890   0.476  -2.211  0.00  0.00     0.053 H 
ATOM     44  H   LIG d   1       5.053  -0.138  -0.881  0.00  0.00     0.053 H 
ATOM     45  H   LIG d   1       4.971  -2.333  -1.824  0.00  0.00     0.058 H 
ENDBRANCH  38  41
ENDBRANCH  10  38
BRANCH  14  46
ATOM     46  N   LIG d   1       4.679   0.362 -10.034  0.00  0.00    -0.329 N 
ATOM     47  H   LIG d   1       5.104   0.145 -10.878  0.00  0.00     0.145 HD
ATOM     48  H   LIG d   1       3.777   0.720 -10.023  0.00  0.00     0.145 HD
ENDBRANCH  14  46
TORSDOF 10
ENDMDL
MODEL 6
REMARK VINA RESULT:      -5.3      1.891      3.964
REMARK  10 active torsions:
REMARK  status: ('A' for Active; 'I' for Inactive)
REMARK    1  A    between atoms: C_1  and  C_2 
REMARK    2  A    between atoms: C_3  and  C_25 
REMARK    3  A    between atoms: N_11  and  C_14 
REMARK    4  A    between atoms: C_14  and  C_15 
REMARK    5  A    between atoms: C_17  and  C_21 
REMARK    6  A    between atoms: C_18  and  N_20 
REMARK    7  A    between atoms: C_21  and  O_23 
REMARK    8  A    between atoms: O_23  and  C_24 
REMARK    9  A    between atoms: C_25  and  O_27 
REMARK   10  A    between atoms: O_27  and  C_28 
ROOT
ATOM      1  C   LIG d   1       4.684  -1.917  -3.483  0.00  0.00     0.116 C 
ATOM      2  C   LIG d   1       5.345  -1.106  -4.320  0.00  0.00     0.098 C 
ATOM      3  C   LIG d   1       5.551  -1.486  -5.757  0.00  0.00     0.145 A 
ATOM      4  C   LIG d   1       4.665  -0.660  -6.655  0.00  0.00    -0.002 A 
ATOM      5  C   LIG d   1       3.299  -0.521  -6.761  0.00  0.00    -0.055 A 
ATOM      6  C   LIG d   1       2.761   0.334  -7.706  0.00  0.00    -0.061 A 
ATOM      7  C   LIG d   1       3.599   1.046  -8.545  0.00  0.00    -0.060 A 
ATOM      8  C   LIG d   1       4.968   0.910  -8.443  0.00  0.00    -0.040 A 
ATOM      9  C   LIG d   1       5.517   0.052  -7.492  0.00  0.00     0.042 A 
ATOM     10  N   LIG d   1       6.848  -0.252  -7.198  0.00  0.00    -0.266 N 
ATOM     11  C   LIG d   1       6.955  -1.141  -6.196  0.00  0.00     0.240 A 
ATOM     12  O   LIG d   1       7.985  -1.584  -5.731  0.00  0.00    -0.274 OA
ATOM     13  C   LIG d   1       5.290  -2.953  -5.954  0.00  0.00     0.117 C 
ATOM     14  C   LIG d   1       4.624  -3.666  -5.008  0.00  0.00     0.195 C 
ATOM     15  O   LIG d   1       4.180  -3.096  -3.877  0.00  0.00    -0.446 OA
ATOM     16  H   LIG d   1       2.648  -1.080  -6.104  0.00  0.00     0.062 H 
ATOM     17  H   LIG d   1       1.690   0.444  -7.790  0.00  0.00     0.062 H 
ATOM     18  H   LIG d   1       3.179   1.713  -9.284  0.00  0.00     0.062 H 
ATOM     19  H   LIG d   1       5.616   1.471  -9.100  0.00  0.00     0.064 H 
ENDROOT
BRANCH   2  20
ATOM     20  C   LIG d   1       5.851   0.128  -3.843  0.00  0.00     0.340 C 
ATOM     21  O   LIG d   1       5.148   1.121  -3.859  0.00  0.00    -0.245 OA
BRANCH  20  22
ATOM     22  O   LIG d   1       7.115   0.204  -3.376  0.00  0.00    -0.465 OA
BRANCH  22  23
ATOM     23  C   LIG d   1       7.853   1.387  -3.691  0.00  0.00     0.082 C 
ATOM     24  H   LIG d   1       7.759   1.601  -4.755  0.00  0.00     0.066 H 
ATOM     25  H   LIG d   1       7.460   2.225  -3.115  0.00  0.00     0.066 H 
ATOM     26  H   LIG d   1       8.904   1.236  -3.443  0.00  0.00     0.066 H 
ENDBRANCH  22  23
ENDBRANCH  20  22
ENDBRANCH   2  20
BRANCH  13  27
ATOM     27  C   LIG d   1       5.731  -3.589  -7.125  0.00  0.00     0.342 C 
ATOM     28  O   LIG d   1       6.627  -4.412  -7.071  0.00  0.00    -0.245 OA
BRANCH  27  29
ATOM     29  O   LIG d   1       5.161  -3.288  -8.313  0.00  0.00    -0.465 OA
BRANCH  29  30
ATOM     30  C   LIG d   1       3.854  -3.811  -8.556  0.00  0.00     0.082 C 
ATOM     31  H   LIG d   1       3.882  -4.899  -8.506  0.00  0.00     0.066 H 
ATOM     32  H   LIG d   1       3.165  -3.430  -7.801  0.00  0.00     0.066 H 
ATOM     33  H   LIG d   1       3.517  -3.500  -9.545  0.00  0.00     0.066 H 
ENDBRANCH  29  30
ENDBRANCH  27  29
ENDBRANCH  13  27
BRANCH   1  34
ATOM     34  C   LIG d   1       4.500  -1.490  -2.049  0.00  0.00    -0.006 C 
ATOM     35  H   LIG d   1       4.063  -0.493  -2.021  0.00  0.00     0.031 H 
ATOM     36  H   LIG d   1       3.839  -2.193  -1.543  0.00  0.00     0.031 H 
ATOM     37  H   LIG d   1       5.469  -1.477  -1.548  0.00  0.00     0.031 H 
ENDBRANCH   1  34
BRANCH  10  38
ATOM     38  C   LIG d   1       7.993   0.332  -7.900  0.00  0.00     0.038 C 
ATOM     39  H   LIG d   1       8.864  -0.312  -7.773  0.00  0.00     0.051 H 
ATOM     40  H   LIG d   1       7.760   0.424  -8.961  0.00  0.00     0.051 H 
BRANCH  38  41
ATOM     41  C   LIG d   1       8.289   1.695  -7.330  0.00  0.00    -0.074 C 
ATOM     42  C   LIG d   1       8.769   2.638  -8.103  0.00  0.00    -0.101 C 
ATOM     43  H   LIG d   1       8.952   2.438  -9.148  0.00  0.00     0.053 H 
ATOM     44  H   LIG d   1       8.980   3.615  -7.694  0.00  0.00     0.053 H 
ATOM     45  H   LIG d   1       8.105   1.895  -6.285  0.00  0.00     0.058 H 
ENDBRANCH  38  41
ENDBRANCH  10  38
BRANCH  14  46
ATOM     46  N   LIG d   1       4.400  -5.001  -5.214  0.00  0.00    -0.329 N 
ATOM     47  H   LIG d   1       4.187  -5.325  -6.103  0.00  0.00     0.145 HD
ATOM     48  H   LIG d   1       4.455  -5.623  -4.471  0.00  0.00     0.145 HD
ENDBRANCH  14  46
TORSDOF 10
ENDMDL
MODEL 7
REMARK VINA RESULT:      -5.2      1.824      3.767
REMARK  10 active torsions:
REMARK  status: ('A' for Active; 'I' for Inactive)
REMARK    1  A    between atoms: C_1  and  C_2 
REMARK    2  A    between atoms: C_3  and  C_25 
REMARK    3  A    between atoms: N_11  and  C_14 
REMARK    4  A    between atoms: C_14  and  C_15 
REMARK    5  A    between atoms: C_17  and  C_21 
REMARK    6  A    between atoms: C_18  and  N_20 
REMARK    7  A    between atoms: C_21  and  O_23 
REMARK    8  A    between atoms: O_23  and  C_24 
REMARK    9  A    between atoms: C_25  and  O_27 
REMARK   10  A    between atoms: O_27  and  C_28 
ROOT
ATOM      1  C   LIG d   1       7.756   0.359  -6.422  0.00  0.00     0.116 C 
ATOM      2  C   LIG d   1       6.721  -0.491  -6.368  0.00  0.00     0.098 C 
ATOM      3  C   LIG d   1       6.778  -1.719  -5.507  0.00  0.00     0.145 A 
ATOM      4  C   LIG d   1       5.899  -1.556  -4.293  0.00  0.00    -0.002 A 
ATOM      5  C   LIG d   1       5.904  -0.669  -3.240  0.00  0.00    -0.055 A 
ATOM      6  C   LIG d   1       4.947  -0.768  -2.246  0.00  0.00    -0.061 A 
ATOM      7  C   LIG d   1       3.987  -1.762  -2.314  0.00  0.00    -0.060 A 
ATOM      8  C   LIG d   1       3.978  -2.652  -3.367  0.00  0.00    -0.040 A 
ATOM      9  C   LIG d   1       4.938  -2.557  -4.372  0.00  0.00     0.042 A 
ATOM     10  N   LIG d   1       5.136  -3.326  -5.521  0.00  0.00    -0.266 N 
ATOM     11  C   LIG d   1       6.190  -2.902  -6.240  0.00  0.00     0.240 A 
ATOM     12  O   LIG d   1       6.592  -3.379  -7.281  0.00  0.00    -0.274 OA
ATOM     13  C   LIG d   1       8.196  -2.011  -5.104  0.00  0.00     0.117 C 
ATOM     14  C   LIG d   1       9.158  -1.059  -5.234  0.00  0.00     0.195 C 
ATOM     15  O   LIG d   1       8.883   0.161  -5.722  0.00  0.00    -0.446 OA
ATOM     16  H   LIG d   1       6.656   0.106  -3.190  0.00  0.00     0.062 H 
ATOM     17  H   LIG d   1       4.949  -0.073  -1.420  0.00  0.00     0.062 H 
ATOM     18  H   LIG d   1       3.239  -1.840  -1.537  0.00  0.00     0.062 H 
ATOM     19  H   LIG d   1       3.225  -3.425  -3.414  0.00  0.00     0.064 H 
ENDROOT
BRANCH   2  20
ATOM     20  C   LIG d   1       5.557  -0.223  -7.129  0.00  0.00     0.340 C 
ATOM     21  O   LIG d   1       5.546  -0.452  -8.324  0.00  0.00    -0.245 OA
BRANCH  20  22
ATOM     22  O   LIG d   1       4.462   0.290  -6.530  0.00  0.00    -0.465 OA
BRANCH  22  23
ATOM     23  C   LIG d   1       3.192  -0.084  -7.069  0.00  0.00     0.082 C 
ATOM     24  H   LIG d   1       3.311  -0.964  -7.702  0.00  0.00     0.066 H 
ATOM     25  H   LIG d   1       2.505  -0.313  -6.256  0.00  0.00     0.066 H 
ATOM     26  H   LIG d   1       2.793   0.738  -7.664  0.00  0.00     0.066 H 
ENDBRANCH  22  23
ENDBRANCH  20  22
ENDBRANCH   2  20
BRANCH  13  27
ATOM     27  C   LIG d   1       8.528  -3.271  -4.582  0.00  0.00     0.342 C 
ATOM     28  O   LIG d   1       8.362  -3.504  -3.398  0.00  0.00    -0.245 OA
BRANCH  27  29
ATOM     29  O   LIG d   1       9.031  -4.226  -5.394  0.00  0.00    -0.465 OA
BRANCH  29  30
ATOM     30  C   LIG d   1       8.587  -5.566  -5.172  0.00  0.00     0.082 C 
ATOM     31  H   LIG d   1       7.554  -5.667  -5.504  0.00  0.00     0.066 H 
ATOM     32  H   LIG d   1       9.218  -6.256  -5.735  0.00  0.00     0.066 H 
ATOM     33  H   LIG d   1       8.653  -5.799  -4.109  0.00  0.00     0.066 H 
ENDBRANCH  29  30
ENDBRANCH  27  29
ENDBRANCH  13  27
BRANCH   1  34
ATOM     34  C   LIG d   1       7.650   1.580  -7.299  0.00  0.00    -0.006 C 
ATOM     35  H   LIG d   1       8.345   2.342  -6.945  0.00  0.00     0.031 H 
ATOM     36  H   LIG d   1       7.896   1.313  -8.326  0.00  0.00     0.031 H 
ATOM     37  H   LIG d   1       6.632   1.969  -7.259  0.00  0.00     0.031 H 
ENDBRANCH   1  34
BRANCH  10  38
ATOM     38  C   LIG d   1       4.293  -4.463  -5.898  0.00  0.00     0.038 C 
ATOM     39  H   LIG d   1       3.284  -4.310  -5.514  0.00  0.00     0.051 H 
ATOM     40  H   LIG d   1       4.260  -4.546  -6.984  0.00  0.00     0.051 H 
BRANCH  38  41
ATOM     41  C   LIG d   1       4.866  -5.728  -5.313  0.00  0.00    -0.074 C 
ATOM     42  C   LIG d   1       5.062  -6.773  -6.078  0.00  0.00    -0.101 C 
ATOM     43  H   LIG d   1       4.812  -6.728  -7.128  0.00  0.00     0.053 H 
ATOM     44  H   LIG d   1       5.473  -7.679  -5.660  0.00  0.00     0.053 H 
ATOM     45  H   LIG d   1       5.116  -5.773  -4.264  0.00  0.00     0.058 H 
ENDBRANCH  38  41
ENDBRANCH  10  38
BRANCH  14  46
ATOM     46  N   LIG d   1      10.442  -1.353  -4.858  0.00  0.00    -0.329 N 
ATOM     47  H   LIG d   1      11.116  -0.656  -4.853  0.00  0.00     0.145 HD
ATOM     48  H   LIG d   1      10.676  -2.258  -4.596  0.00  0.00     0.145 HD
ENDBRANCH  14  46
TORSDOF 10
ENDMDL
MODEL 8
REMARK VINA RESULT:      -5.1      9.951     12.683
REMARK  10 active torsions:
REMARK  status: ('A' for Active; 'I' for Inactive)
REMARK    1  A    between atoms: C_1  and  C_2 
REMARK    2  A    between atoms: C_3  and  C_25 
REMARK    3  A    between atoms: N_11  and  C_14 
REMARK    4  A    between atoms: C_14  and  C_15 
REMARK    5  A    between atoms: C_17  and  C_21 
REMARK    6  A    between atoms: C_18  and  N_20 
REMARK    7  A    between atoms: C_21  and  O_23 
REMARK    8  A    between atoms: O_23  and  C_24 
REMARK    9  A    between atoms: C_25  and  O_27 
REMARK   10  A    between atoms: O_27  and  C_28 
ROOT
ATOM      1  C   LIG d   1      11.448   9.507   1.274  0.00  0.00     0.116 C 
ATOM      2  C   LIG d   1      11.254   8.571   0.335  0.00  0.00     0.098 C 
ATOM      3  C   LIG d   1      10.761   8.942  -1.033  0.00  0.00     0.145 A 
ATOM      4  C   LIG d   1      11.874   8.832  -2.044  0.00  0.00    -0.002 A 
ATOM      5  C   LIG d   1      13.091   9.463  -2.177  0.00  0.00    -0.055 A 
ATOM      6  C   LIG d   1      13.922   9.147  -3.237  0.00  0.00    -0.061 A 
ATOM      7  C   LIG d   1      13.526   8.198  -4.162  0.00  0.00    -0.060 A 
ATOM      8  C   LIG d   1      12.308   7.563  -4.032  0.00  0.00    -0.040 A 
ATOM      9  C   LIG d   1      11.467   7.875  -2.967  0.00  0.00     0.042 A 
ATOM     10  N   LIG d   1      10.207   7.380  -2.624  0.00  0.00    -0.266 N 
ATOM     11  C   LIG d   1       9.725   7.950  -1.505  0.00  0.00     0.240 A 
ATOM     12  O   LIG d   1       8.659   7.712  -0.976  0.00  0.00    -0.274 OA
ATOM     13  C   LIG d   1      10.185  10.330  -1.023  0.00  0.00     0.117 C 
ATOM     14  C   LIG d   1      10.445  11.175   0.010  0.00  0.00     0.195 C 
ATOM     15  O   LIG d   1      11.214  10.808   1.046  0.00  0.00    -0.446 OA
ATOM     16  H   LIG d   1      13.396  10.205  -1.453  0.00  0.00     0.062 H 
ATOM     17  H   LIG d   1      14.877   9.640  -3.343  0.00  0.00     0.062 H 
ATOM     18  H   LIG d   1      14.175   7.952  -4.991  0.00  0.00     0.062 H 
ATOM     19  H   LIG d   1      12.006   6.822  -4.758  0.00  0.00     0.064 H 
ENDROOT
BRANCH   2  20
ATOM     20  C   LIG d   1      11.522   7.213   0.638  0.00  0.00     0.340 C 
ATOM     21  O   LIG d   1      10.673   6.532   1.180  0.00  0.00    -0.245 OA
BRANCH  20  22
ATOM     22  O   LIG d   1      12.722   6.677   0.328  0.00  0.00    -0.465 OA
BRANCH  22  23
ATOM     23  C   LIG d   1      12.718   5.526  -0.520  0.00  0.00     0.082 C 
ATOM     24  H   LIG d   1      11.945   5.638  -1.280  0.00  0.00     0.066 H 
ATOM     25  H   LIG d   1      13.690   5.427  -1.003  0.00  0.00     0.066 H 
ATOM     26  H   LIG d   1      12.515   4.636   0.076  0.00  0.00     0.066 H 
ENDBRANCH  22  23
ENDBRANCH  20  22
ENDBRANCH   2  20
BRANCH  13  27
ATOM     27  C   LIG d   1       9.380  10.759  -2.089  0.00  0.00     0.342 C 
ATOM     28  O   LIG d   1       8.167  10.753  -1.978  0.00  0.00    -0.245 OA
BRANCH  27  29
ATOM     29  O   LIG d   1       9.950  11.177  -3.240  0.00  0.00    -0.465 OA
BRANCH  29  30
ATOM     30  C   LIG d   1       9.400  10.672  -4.458  0.00  0.00     0.082 C 
ATOM     31  H   LIG d   1       9.211  11.499  -5.143  0.00  0.00     0.066 H 
ATOM     32  H   LIG d   1      10.105   9.977  -4.915  0.00  0.00     0.066 H 
ATOM     33  H   LIG d   1       8.464  10.154  -4.246  0.00  0.00     0.066 H 
ENDBRANCH  29  30
ENDBRANCH  27  29
ENDBRANCH  13  27
BRANCH   1  34
ATOM     34  C   LIG d   1      11.947   9.085   2.632  0.00  0.00    -0.006 C 
ATOM     35  H   LIG d   1      11.291   9.492   3.401  0.00  0.00     0.031 H 
ATOM     36  H   LIG d   1      11.951   7.997   2.696  0.00  0.00     0.031 H 
ATOM     37  H   LIG d   1      12.959   9.462   2.780  0.00  0.00     0.031 H 
ENDBRANCH   1  34
BRANCH  10  38
ATOM     38  C   LIG d   1       9.495   6.357  -3.393  0.00  0.00     0.038 C 
ATOM     39  H   LIG d   1       8.420   6.503  -3.284  0.00  0.00     0.051 H 
ATOM     40  H   LIG d   1       9.769   6.437  -4.445  0.00  0.00     0.051 H 
BRANCH  38  41
ATOM     41  C   LIG d   1       9.870   4.991  -2.878  0.00  0.00    -0.074 C 
ATOM     42  C   LIG d   1       9.719   3.939  -3.644  0.00  0.00    -0.101 C 
ATOM     43  H   LIG d   1       9.325   4.050  -4.643  0.00  0.00     0.053 H 
ATOM     44  H   LIG d   1       9.988   2.960  -3.276  0.00  0.00     0.053 H 
ATOM     45  H   LIG d   1      10.264   4.880  -1.880  0.00  0.00     0.058 H 
ENDBRANCH  38  41
ENDBRANCH  10  38
BRANCH  14  46
ATOM     46  N   LIG d   1       9.907  12.435  -0.008  0.00  0.00    -0.329 N 
ATOM     47  H   LIG d   1       9.122  12.634   0.526  0.00  0.00     0.145 HD
ATOM     48  H   LIG d   1      10.311  13.128  -0.555  0.00  0.00     0.145 HD
ENDBRANCH  14  46
TORSDOF 10
ENDMDL
MODEL 9
REMARK VINA RESULT:      -5.0      8.270     10.703
REMARK  10 active torsions:
REMARK  status: ('A' for Active; 'I' for Inactive)
REMARK    1  A    between atoms: C_1  and  C_2 
REMARK    2  A    between atoms: C_3  and  C_25 
REMARK    3  A    between atoms: N_11  and  C_14 
REMARK    4  A    between atoms: C_14  and  C_15 
REMARK    5  A    between atoms: C_17  and  C_21 
REMARK    6  A    between atoms: C_18  and  N_20 
REMARK    7  A    between atoms: C_21  and  O_23 
REMARK    8  A    between atoms: O_23  and  C_24 
REMARK    9  A    between atoms: C_25  and  O_27 
REMARK   10  A    between atoms: O_27  and  C_28 
ROOT
ATOM      1  C   LIG d   1      11.746   6.762   0.159  0.00  0.00     0.116 C 
ATOM      2  C   LIG d   1      11.174   7.110  -1.001  0.00  0.00     0.098 C 
ATOM      3  C   LIG d   1      11.737   6.639  -2.310  0.00  0.00     0.145 A 
ATOM      4  C   LIG d   1      10.855   5.576  -2.914  0.00  0.00    -0.002 A 
ATOM      5  C   LIG d   1      10.465   4.325  -2.492  0.00  0.00    -0.055 A 
ATOM      6  C   LIG d   1       9.627   3.558  -3.282  0.00  0.00    -0.061 A 
ATOM      7  C   LIG d   1       9.185   4.051  -4.497  0.00  0.00    -0.060 A 
ATOM      8  C   LIG d   1       9.574   5.304  -4.923  0.00  0.00    -0.040 A 
ATOM      9  C   LIG d   1      10.416   6.083  -4.132  0.00  0.00     0.042 A 
ATOM     10  N   LIG d   1      10.940   7.360  -4.341  0.00  0.00    -0.266 N 
ATOM     11  C   LIG d   1      11.722   7.760  -3.323  0.00  0.00     0.240 A 
ATOM     12  O   LIG d   1      12.305   8.820  -3.234  0.00  0.00    -0.274 OA
ATOM     13  C   LIG d   1      13.138   6.126  -2.123  0.00  0.00     0.117 C 
ATOM     14  C   LIG d   1      13.602   5.832  -0.880  0.00  0.00     0.195 C 
ATOM     15  O   LIG d   1      12.839   5.986   0.214  0.00  0.00    -0.446 OA
ATOM     16  H   LIG d   1      10.812   3.942  -1.544  0.00  0.00     0.062 H 
ATOM     17  H   LIG d   1       9.319   2.577  -2.953  0.00  0.00     0.062 H 
ATOM     18  H   LIG d   1       8.531   3.452  -5.114  0.00  0.00     0.062 H 
ATOM     19  H   LIG d   1       9.223   5.683  -5.872  0.00  0.00     0.064 H 
ENDROOT
BRANCH   2  20
ATOM     20  C   LIG d   1      10.018   7.930  -0.992  0.00  0.00     0.340 C 
ATOM     21  O   LIG d   1       8.919   7.434  -1.154  0.00  0.00    -0.245 OA
BRANCH  20  22
ATOM     22  O   LIG d   1      10.137   9.261  -0.808  0.00  0.00    -0.465 OA
BRANCH  22  23
ATOM     23  C   LIG d   1       9.250  10.100  -1.551  0.00  0.00     0.082 C 
ATOM     24  H   LIG d   1       8.354   9.538  -1.815  0.00  0.00     0.066 H 
ATOM     25  H   LIG d   1       8.971  10.962  -0.945  0.00  0.00     0.066 H 
ATOM     26  H   LIG d   1       9.747  10.439  -2.460  0.00  0.00     0.066 H 
ENDBRANCH  22  23
ENDBRANCH  20  22
ENDBRANCH   2  20
BRANCH  13  27
ATOM     27  C   LIG d   1      13.969   5.944  -3.239  0.00  0.00     0.342 C 
ATOM     28  O   LIG d   1      14.944   6.657  -3.396  0.00  0.00    -0.245 OA
BRANCH  27  29
ATOM     29  O   LIG d   1      13.687   4.977  -4.140  0.00  0.00    -0.465 OA
BRANCH  29  30
ATOM     30  C   LIG d   1      13.990   3.633  -3.765  0.00  0.00     0.082 C 
ATOM     31  H   LIG d   1      14.191   3.590  -2.695  0.00  0.00     0.066 H 
ATOM     32  H   LIG d   1      13.142   2.989  -4.001  0.00  0.00     0.066 H 
ATOM     33  H   LIG d   1      14.869   3.292  -4.314  0.00  0.00     0.066 H 
ENDBRANCH  29  30
ENDBRANCH  27  29
ENDBRANCH  13  27
BRANCH   1  34
ATOM     34  C   LIG d   1      11.142   7.258   1.448  0.00  0.00    -0.006 C 
ATOM     35  H   LIG d   1      10.261   7.859   1.227  0.00  0.00     0.031 H 
ATOM     36  H   LIG d   1      10.857   6.407   2.066  0.00  0.00     0.031 H 
ATOM     37  H   LIG d   1      11.873   7.866   1.981  0.00  0.00     0.031 H 
ENDBRANCH   1  34
BRANCH  10  38
ATOM     38  C   LIG d   1      10.669   8.169  -5.531  0.00  0.00     0.038 C 
ATOM     39  H   LIG d   1      11.521   8.820  -5.729  0.00  0.00     0.051 H 
ATOM     40  H   LIG d   1      10.505   7.514  -6.386  0.00  0.00     0.051 H 
BRANCH  38  41
ATOM     41  C   LIG d   1       9.440   9.009  -5.297  0.00  0.00    -0.074 C 
ATOM     42  C   LIG d   1       9.533  10.316  -5.284  0.00  0.00    -0.101 C 
ATOM     43  H   LIG d   1      10.489  10.791  -5.440  0.00  0.00     0.053 H 
ATOM     44  H   LIG d   1       8.652  10.918  -5.117  0.00  0.00     0.053 H 
ATOM     45  H   LIG d   1       8.483   8.534  -5.141  0.00  0.00     0.058 H 
ENDBRANCH  38  41
ENDBRANCH  10  38
BRANCH  14  46
ATOM     46  N   LIG d   1      14.882   5.366  -0.740  0.00  0.00    -0.329 N 
ATOM     47  H   LIG d   1      15.086   4.440  -0.942  0.00  0.00     0.145 HD
ATOM     48  H   LIG d   1      15.586   5.963  -0.438  0.00  0.00     0.145 HD
ENDBRANCH  14  46
TORSDOF 10
ENDMDL
