MODEL 1
REMARK VINA RESULT:      -7.0      0.000      0.000
REMARK  12 active torsions:
REMARK  status: ('A' for Active; 'I' for Inactive)
REMARK    1  A    between atoms: C_1  and  C_2 
REMARK    2  A    between atoms: C_2  and  C_3 
REMARK    3  A    between atoms: C_2  and  O_4 
REMARK    4  A    between atoms: O_4  and  C_5 
REMARK    5  A    between atoms: C_8  and  C_11 
REMARK    6  A    between atoms: C_11  and  N_61 
REMARK    7  A    between atoms: C_12  and  C_13 
REMARK    8  A    between atoms: C_12  and  N_61 
REMARK    9  A    between atoms: C_13  and  C_14 
REMARK   10  A    between atoms: C_14  and  C_16 
REMARK   11  A    between atoms: C_14  and  C_23 
REMARK   12  A    between atoms: C_16  and  C_17 
ROOT
ATOM      1  C   LIG d   1       6.227  -1.683  -4.111  0.00  0.00    -0.005 C 
ATOM      2  H   LIG d   1       6.007  -1.049  -3.252  0.00  0.00     0.032 H 
ATOM      3  H   LIG d   1       6.038  -1.128  -5.029  0.00  0.00     0.032 H 
ENDROOT
BRANCH   1   4
ATOM      4  C   LIG d   1       7.696  -2.110  -4.066  0.00  0.00    -0.033 C 
ATOM      5  H   LIG d   1       7.832  -3.006  -4.671  0.00  0.00     0.081 H 
ATOM      6  H   LIG d   1       7.982  -2.319  -3.035  0.00  0.00     0.081 H 
BRANCH   4   7
ATOM      7  N   LIG d   1       8.533  -1.019  -4.600  0.00  0.00     0.230 N 
ATOM      8  H   LIG d   1       7.971  -0.161  -4.661  0.00  0.00     0.202 HD
ATOM      9  H   LIG d   1       9.329  -0.862  -3.971  0.00  0.00     0.202 HD
BRANCH   7  10
ATOM     10  C   LIG d   1       9.035  -1.368  -5.942  0.00  0.00    -0.008 C 
ATOM     11  H   LIG d   1       8.930  -2.441  -6.105  0.00  0.00     0.087 H 
ATOM     12  H   LIG d   1      10.085  -1.090  -6.024  0.00  0.00     0.087 H 
BRANCH  10  13
ATOM     13  C   LIG d   1       8.234  -0.623  -6.979  0.00  0.00    -0.003 A 
ATOM     14  C   LIG d   1       7.870  -1.253  -8.154  0.00  0.00    -0.050 A 
ATOM     15  C   LIG d   1       7.137  -0.573  -9.107  0.00  0.00    -0.019 A 
ATOM     16  H   LIG d   1       8.161  -2.280  -8.328  0.00  0.00     0.062 H 
ATOM     17  C   LIG d   1       6.764   0.745  -8.882  0.00  0.00     0.121 A 
ATOM     18  H   LIG d   1       6.857  -1.065 -10.026  0.00  0.00     0.065 H 
ATOM     19  C   LIG d   1       7.130   1.375  -7.701  0.00  0.00    -0.019 A 
ATOM     20  C   LIG d   1       7.865   0.690  -6.753  0.00  0.00    -0.050 A 
ATOM     21  H   LIG d   1       6.842   2.401  -7.525  0.00  0.00     0.065 H 
ATOM     22  H   LIG d   1       8.150   1.180  -5.834  0.00  0.00     0.062 H 
BRANCH  17  23
ATOM     23  O   LIG d   1       6.043   1.417  -9.817  0.00  0.00    -0.489 OA
BRANCH  23  24
ATOM     24  C   LIG d   1       4.620   1.307  -9.742  0.00  0.00     0.095 C 
ATOM     25  H   LIG d   1       4.353   0.540  -9.016  0.00  0.00     0.073 H 
BRANCH  24  26
ATOM     26  C   LIG d   1       4.027   2.649  -9.307  0.00  0.00    -0.028 C 
ATOM     27  H   LIG d   1       3.198   2.910  -9.964  0.00  0.00     0.026 H 
ATOM     28  H   LIG d   1       3.667   2.572  -8.281  0.00  0.00     0.026 H 
ATOM     29  H   LIG d   1       4.794   3.421  -9.366  0.00  0.00     0.026 H 
ENDBRANCH  24  26
BRANCH  24  30
ATOM     30  C   LIG d   1       4.065   0.926 -11.116  0.00  0.00    -0.028 C 
ATOM     31  H   LIG d   1       4.380  -0.087 -11.367  0.00  0.00     0.026 H 
ATOM     32  H   LIG d   1       2.976   0.972 -11.094  0.00  0.00     0.026 H 
ATOM     33  H   LIG d   1       4.442   1.621 -11.866  0.00  0.00     0.026 H 
ENDBRANCH  24  30
ENDBRANCH  23  24
ENDBRANCH  17  23
ENDBRANCH  10  13
ENDBRANCH   7  10
ENDBRANCH   4   7
ENDBRANCH   1   4
BRANCH   1  34
ATOM     34  C   LIG d   1       5.334  -2.925  -4.072  0.00  0.00    -0.007 C 
ATOM     35  H   LIG d   1       5.912  -3.776  -3.715  0.00  0.00     0.035 H 
BRANCH  34  36
ATOM     36  C   LIG d   1       4.155  -2.675  -3.129  0.00  0.00    -0.021 C 
ATOM     37  H   LIG d   1       3.243  -3.071  -3.577  0.00  0.00     0.032 H 
ATOM     38  H   LIG d   1       4.338  -3.174  -2.178  0.00  0.00     0.032 H 
BRANCH  36  39
ATOM     39  C   LIG d   1       4.000  -1.194  -2.899  0.00  0.00    -0.047 A 
ATOM     40  C   LIG d   1       3.226  -0.438  -3.759  0.00  0.00    -0.059 A 
ATOM     41  C   LIG d   1       3.084   0.921  -3.548  0.00  0.00    -0.061 A 
ATOM     42  H   LIG d   1       2.732  -0.909  -4.597  0.00  0.00     0.062 H 
ATOM     43  C   LIG d   1       3.716   1.523  -2.477  0.00  0.00    -0.062 A 
ATOM     44  H   LIG d   1       2.480   1.511  -4.220  0.00  0.00     0.062 H 
ATOM     45  C   LIG d   1       4.490   0.767  -1.617  0.00  0.00    -0.061 A 
ATOM     46  H   LIG d   1       3.605   2.584  -2.312  0.00  0.00     0.062 H 
ATOM     47  C   LIG d   1       4.629  -0.593  -1.824  0.00  0.00    -0.059 A 
ATOM     48  H   LIG d   1       4.984   1.238  -0.780  0.00  0.00     0.062 H 
ATOM     49  H   LIG d   1       5.230  -1.184  -1.150  0.00  0.00     0.062 H 
ENDBRANCH  36  39
ENDBRANCH  34  36
BRANCH  34  50
ATOM     50  C   LIG d   1       4.817  -3.214  -5.458  0.00  0.00    -0.040 A 
ATOM     51  C   LIG d   1       4.392  -4.488  -5.783  0.00  0.00    -0.013 A 
ATOM     52  C   LIG d   1       3.915  -4.756  -7.055  0.00  0.00     0.167 A 
ATOM     53  H   LIG d   1       4.431  -5.276  -5.045  0.00  0.00     0.066 H 
ATOM     54  C   LIG d   1       3.866  -3.739  -8.006  0.00  0.00     0.166 A 
ATOM     55  O   LIG d   1       3.444  -5.906  -7.623  0.00  0.00    -0.453 OA
ATOM     56  C   LIG d   1       4.293  -2.464  -7.672  0.00  0.00    -0.016 A 
ATOM     57  O   LIG d   1       3.363  -4.251  -9.167  0.00  0.00    -0.453 OA
ATOM     58  C   LIG d   1       4.763  -2.203  -6.399  0.00  0.00    -0.055 A 
ATOM     59  H   LIG d   1       4.256  -1.674  -8.408  0.00  0.00     0.066 H 
ATOM     60  H   LIG d   1       5.091  -1.207  -6.140  0.00  0.00     0.062 H 
ATOM     61  C   LIG d   1       3.488  -5.680  -9.044  0.00  0.00     0.233 C 
ATOM     62  H   LIG d   1       4.439  -6.018  -9.455  0.00  0.00     0.117 H 
ATOM     63  H   LIG d   1       2.656  -6.182  -9.537  0.00  0.00     0.117 H 
ENDBRANCH  34  50
ENDBRANCH   1  34
TORSDOF 12
ENDMDL
MODEL 2
REMARK VINA RESULT:      -6.8      2.389      5.304
REMARK  12 active torsions:
REMARK  status: ('A' for Active; 'I' for Inactive)
REMARK    1  A    between atoms: C_1  and  C_2 
REMARK    2  A    between atoms: C_2  and  C_3 
REMARK    3  A    between atoms: C_2  and  O_4 
REMARK    4  A    between atoms: O_4  and  C_5 
REMARK    5  A    between atoms: C_8  and  C_11 
REMARK    6  A    between atoms: C_11  and  N_61 
REMARK    7  A    between atoms: C_12  and  C_13 
REMARK    8  A    between atoms: C_12  and  N_61 
REMARK    9  A    between atoms: C_13  and  C_14 
REMARK   10  A    between atoms: C_14  and  C_16 
REMARK   11  A    between atoms: C_14  and  C_23 
REMARK   12  A    between atoms: C_16  and  C_17 
ROOT
ATOM      1  C   LIG d   1       8.470  -1.675  -4.813  0.00  0.00    -0.005 C 
ATOM      2  H   LIG d   1       9.268  -1.604  -4.074  0.00  0.00     0.032 H 
ATOM      3  H   LIG d   1       8.886  -1.544  -5.811  0.00  0.00     0.032 H 
ENDROOT
BRANCH   1   4
ATOM      4  C   LIG d   1       7.804  -3.049  -4.714  0.00  0.00    -0.033 C 
ATOM      5  H   LIG d   1       6.774  -2.929  -4.376  0.00  0.00     0.081 H 
ATOM      6  H   LIG d   1       8.351  -3.667  -4.002  0.00  0.00     0.081 H 
BRANCH   4   7
ATOM      7  N   LIG d   1       7.820  -3.690  -6.042  0.00  0.00     0.230 N 
ATOM      8  H   LIG d   1       8.304  -3.076  -6.709  0.00  0.00     0.202 HD
ATOM      9  H   LIG d   1       8.316  -4.586  -5.980  0.00  0.00     0.202 HD
BRANCH   7  10
ATOM     10  C   LIG d   1       6.442  -3.927  -6.513  0.00  0.00    -0.008 C 
ATOM     11  H   LIG d   1       5.860  -4.397  -5.721  0.00  0.00     0.087 H 
ATOM     12  H   LIG d   1       6.460  -4.579  -7.386  0.00  0.00     0.087 H 
BRANCH  10  13
ATOM     13  C   LIG d   1       5.812  -2.609  -6.884  0.00  0.00    -0.003 A 
ATOM     14  C   LIG d   1       4.670  -2.183  -6.232  0.00  0.00    -0.050 A 
ATOM     15  C   LIG d   1       4.090  -0.975  -6.569  0.00  0.00    -0.019 A 
ATOM     16  H   LIG d   1       4.230  -2.795  -5.458  0.00  0.00     0.062 H 
ATOM     17  C   LIG d   1       4.657  -0.189  -7.563  0.00  0.00     0.121 A 
ATOM     18  H   LIG d   1       3.196  -0.645  -6.063  0.00  0.00     0.065 H 
ATOM     19  C   LIG d   1       5.803  -0.619  -8.215  0.00  0.00    -0.019 A 
ATOM     20  C   LIG d   1       6.378  -1.828  -7.875  0.00  0.00    -0.050 A 
ATOM     21  H   LIG d   1       6.245  -0.009  -8.989  0.00  0.00     0.065 H 
ATOM     22  H   LIG d   1       7.271  -2.163  -8.382  0.00  0.00     0.062 H 
BRANCH  17  23
ATOM     23  O   LIG d   1       4.088   0.999  -7.897  0.00  0.00    -0.489 OA
BRANCH  23  24
ATOM     24  C   LIG d   1       3.724   1.182  -9.267  0.00  0.00     0.095 C 
ATOM     25  H   LIG d   1       4.480   0.729  -9.907  0.00  0.00     0.073 H 
BRANCH  24  26
ATOM     26  C   LIG d   1       2.369   0.520  -9.528  0.00  0.00    -0.028 C 
ATOM     27  H   LIG d   1       2.299  -0.401  -8.951  0.00  0.00     0.026 H 
ATOM     28  H   LIG d   1       1.570   1.199  -9.229  0.00  0.00     0.026 H 
ATOM     29  H   LIG d   1       2.275   0.293 -10.589  0.00  0.00     0.026 H 
ENDBRANCH  24  26
BRANCH  24  30
ATOM     30  C   LIG d   1       3.628   2.679  -9.572  0.00  0.00    -0.028 C 
ATOM     31  H   LIG d   1       2.644   2.903  -9.984  0.00  0.00     0.026 H 
ATOM     32  H   LIG d   1       3.774   3.248  -8.654  0.00  0.00     0.026 H 
ATOM     33  H   LIG d   1       4.396   2.953 -10.295  0.00  0.00     0.026 H 
ENDBRANCH  24  30
ENDBRANCH  23  24
ENDBRANCH  17  23
ENDBRANCH  10  13
ENDBRANCH   7  10
ENDBRANCH   4   7
ENDBRANCH   1   4
BRANCH   1  34
ATOM     34  C   LIG d   1       7.430  -0.584  -4.548  0.00  0.00    -0.007 C 
ATOM     35  H   LIG d   1       6.562  -0.746  -5.185  0.00  0.00     0.035 H 
BRANCH  34  36
ATOM     36  C   LIG d   1       7.002  -0.634  -3.079  0.00  0.00    -0.021 C 
ATOM     37  H   LIG d   1       7.398  -1.538  -2.617  0.00  0.00     0.032 H 
ATOM     38  H   LIG d   1       7.389   0.241  -2.558  0.00  0.00     0.032 H 
BRANCH  36  39
ATOM     39  C   LIG d   1       5.497  -0.643  -2.995  0.00  0.00    -0.047 A 
ATOM     40  C   LIG d   1       4.830  -1.814  -2.689  0.00  0.00    -0.059 A 
ATOM     41  C   LIG d   1       3.449  -1.823  -2.611  0.00  0.00    -0.061 A 
ATOM     42  H   LIG d   1       5.386  -2.722  -2.509  0.00  0.00     0.062 H 
ATOM     43  C   LIG d   1       2.737  -0.661  -2.840  0.00  0.00    -0.062 A 
ATOM     44  H   LIG d   1       2.927  -2.737  -2.372  0.00  0.00     0.062 H 
ATOM     45  C   LIG d   1       3.405   0.510  -3.146  0.00  0.00    -0.061 A 
ATOM     46  H   LIG d   1       1.659  -0.667  -2.779  0.00  0.00     0.062 H 
ATOM     47  C   LIG d   1       4.785   0.521  -3.219  0.00  0.00    -0.059 A 
ATOM     48  H   LIG d   1       2.848   1.418  -3.326  0.00  0.00     0.062 H 
ATOM     49  H   LIG d   1       5.307   1.436  -3.454  0.00  0.00     0.062 H 
ENDBRANCH  36  39
ENDBRANCH  34  36
BRANCH  34  50
ATOM     50  C   LIG d   1       8.030   0.766  -4.850  0.00  0.00    -0.040 A 
ATOM     51  C   LIG d   1       8.245   1.147  -6.160  0.00  0.00    -0.013 A 
ATOM     52  C   LIG d   1       8.795   2.387  -6.441  0.00  0.00     0.167 A 
ATOM     53  H   LIG d   1       7.984   0.478  -6.967  0.00  0.00     0.066 H 
ATOM     54  C   LIG d   1       9.131   3.247  -5.398  0.00  0.00     0.166 A 
ATOM     55  O   LIG d   1       9.104   2.994  -7.624  0.00  0.00    -0.453 OA
ATOM     56  C   LIG d   1       8.912   2.859  -4.087  0.00  0.00    -0.016 A 
ATOM     57  O   LIG d   1       9.650   4.393  -5.929  0.00  0.00    -0.453 OA
ATOM     58  C   LIG d   1       8.358   1.622  -3.815  0.00  0.00    -0.055 A 
ATOM     59  H   LIG d   1       9.173   3.524  -3.277  0.00  0.00     0.066 H 
ATOM     60  H   LIG d   1       8.185   1.323  -2.792  0.00  0.00     0.062 H 
ATOM     61  C   LIG d   1      10.006   4.063  -7.285  0.00  0.00     0.233 C 
ATOM     62  H   LIG d   1      11.040   3.722  -7.336  0.00  0.00     0.117 H 
ATOM     63  H   LIG d   1       9.850   4.919  -7.941  0.00  0.00     0.117 H 
ENDBRANCH  34  50
ENDBRANCH   1  34
TORSDOF 12
ENDMDL
MODEL 3
REMARK VINA RESULT:      -6.8      3.538      5.278
REMARK  12 active torsions:
REMARK  status: ('A' for Active; 'I' for Inactive)
REMARK    1  A    between atoms: C_1  and  C_2 
REMARK    2  A    between atoms: C_2  and  C_3 
REMARK    3  A    between atoms: C_2  and  O_4 
REMARK    4  A    between atoms: O_4  and  C_5 
REMARK    5  A    between atoms: C_8  and  C_11 
REMARK    6  A    between atoms: C_11  and  N_61 
REMARK    7  A    between atoms: C_12  and  C_13 
REMARK    8  A    between atoms: C_12  and  N_61 
REMARK    9  A    between atoms: C_13  and  C_14 
REMARK   10  A    between atoms: C_14  and  C_16 
REMARK   11  A    between atoms: C_14  and  C_23 
REMARK   12  A    between atoms: C_16  and  C_17 
ROOT
ATOM      1  C   LIG d   1       5.061  -3.069  -6.304  0.00  0.00    -0.005 C 
ATOM      2  H   LIG d   1       3.989  -3.202  -6.162  0.00  0.00     0.032 H 
ATOM      3  H   LIG d   1       5.500  -4.005  -6.648  0.00  0.00     0.032 H 
ENDROOT
BRANCH   1   4
ATOM      4  C   LIG d   1       5.305  -1.977  -7.347  0.00  0.00    -0.033 C 
ATOM      5  H   LIG d   1       4.566  -1.186  -7.225  0.00  0.00     0.081 H 
ATOM      6  H   LIG d   1       5.220  -2.404  -8.347  0.00  0.00     0.081 H 
BRANCH   4   7
ATOM      7  N   LIG d   1       6.660  -1.424  -7.159  0.00  0.00     0.230 N 
ATOM      8  H   LIG d   1       6.953  -1.571  -6.186  0.00  0.00     0.202 HD
ATOM      9  H   LIG d   1       7.313  -1.905  -7.789  0.00  0.00     0.202 HD
BRANCH   7  10
ATOM     10  C   LIG d   1       6.670   0.020  -7.458  0.00  0.00    -0.008 C 
ATOM     11  H   LIG d   1       5.649   0.369  -7.614  0.00  0.00     0.087 H 
ATOM     12  H   LIG d   1       7.257   0.204  -8.357  0.00  0.00     0.087 H 
BRANCH  10  13
ATOM     13  C   LIG d   1       7.281   0.761  -6.297  0.00  0.00    -0.003 A 
ATOM     14  C   LIG d   1       8.184   1.782  -6.529  0.00  0.00    -0.050 A 
ATOM     15  C   LIG d   1       8.747   2.463  -5.467  0.00  0.00    -0.019 A 
ATOM     16  H   LIG d   1       8.451   2.047  -7.542  0.00  0.00     0.062 H 
ATOM     17  C   LIG d   1       8.404   2.122  -4.166  0.00  0.00     0.121 A 
ATOM     18  H   LIG d   1       9.456   3.257  -5.649  0.00  0.00     0.065 H 
ATOM     19  C   LIG d   1       7.497   1.098  -3.937  0.00  0.00    -0.019 A 
ATOM     20  C   LIG d   1       6.938   0.419  -5.002  0.00  0.00    -0.050 A 
ATOM     21  H   LIG d   1       7.229   0.830  -2.925  0.00  0.00     0.065 H 
ATOM     22  H   LIG d   1       6.232  -0.378  -4.824  0.00  0.00     0.062 H 
BRANCH  17  23
ATOM     23  O   LIG d   1       8.956   2.790  -3.120  0.00  0.00    -0.489 OA
BRANCH  23  24
ATOM     24  C   LIG d   1      10.147   3.536  -3.382  0.00  0.00     0.095 C 
ATOM     25  H   LIG d   1      10.156   3.852  -4.424  0.00  0.00     0.073 H 
BRANCH  24  26
ATOM     26  C   LIG d   1      10.186   4.769  -2.475  0.00  0.00    -0.028 C 
ATOM     27  H   LIG d   1      11.077   4.729  -1.848  0.00  0.00     0.026 H 
ATOM     28  H   LIG d   1      10.212   5.670  -3.088  0.00  0.00     0.026 H 
ATOM     29  H   LIG d   1       9.298   4.783  -1.844  0.00  0.00     0.026 H 
ENDBRANCH  24  26
BRANCH  24  30
ATOM     30  C   LIG d   1      11.370   2.658  -3.103  0.00  0.00    -0.028 C 
ATOM     31  H   LIG d   1      11.061   1.615  -3.045  0.00  0.00     0.026 H 
ATOM     32  H   LIG d   1      12.094   2.779  -3.909  0.00  0.00     0.026 H 
ATOM     33  H   LIG d   1      11.824   2.958  -2.159  0.00  0.00     0.026 H 
ENDBRANCH  24  30
ENDBRANCH  23  24
ENDBRANCH  17  23
ENDBRANCH  10  13
ENDBRANCH   7  10
ENDBRANCH   4   7
ENDBRANCH   1   4
BRANCH   1  34
ATOM     34  C   LIG d   1       5.706  -2.661  -4.978  0.00  0.00    -0.007 C 
ATOM     35  H   LIG d   1       6.051  -1.630  -5.044  0.00  0.00     0.035 H 
BRANCH  34  36
ATOM     36  C   LIG d   1       4.677  -2.783  -3.852  0.00  0.00    -0.021 C 
ATOM     37  H   LIG d   1       3.782  -3.278  -4.230  0.00  0.00     0.032 H 
ATOM     38  H   LIG d   1       5.099  -3.369  -3.036  0.00  0.00     0.032 H 
BRANCH  36  39
ATOM     39  C   LIG d   1       4.317  -1.409  -3.349  0.00  0.00    -0.047 A 
ATOM     40  C   LIG d   1       3.473  -0.602  -4.089  0.00  0.00    -0.059 A 
ATOM     41  C   LIG d   1       3.142   0.659  -3.628  0.00  0.00    -0.061 A 
ATOM     42  H   LIG d   1       3.072  -0.956  -5.028  0.00  0.00     0.062 H 
ATOM     43  C   LIG d   1       3.655   1.112  -2.428  0.00  0.00    -0.062 A 
ATOM     44  H   LIG d   1       2.484   1.290  -4.206  0.00  0.00     0.062 H 
ATOM     45  C   LIG d   1       4.499   0.305  -1.688  0.00  0.00    -0.061 A 
ATOM     46  H   LIG d   1       3.397   2.097  -2.067  0.00  0.00     0.062 H 
ATOM     47  C   LIG d   1       4.826  -0.958  -2.146  0.00  0.00    -0.059 A 
ATOM     48  H   LIG d   1       4.900   0.659  -0.749  0.00  0.00     0.062 H 
ATOM     49  H   LIG d   1       5.481  -1.590  -1.565  0.00  0.00     0.062 H 
ENDBRANCH  36  39
ENDBRANCH  34  36
BRANCH  34  50
ATOM     50  C   LIG d   1       6.876  -3.566  -4.689  0.00  0.00    -0.040 A 
ATOM     51  C   LIG d   1       7.854  -3.166  -3.800  0.00  0.00    -0.013 A 
ATOM     52  C   LIG d   1       8.930  -3.996  -3.532  0.00  0.00     0.167 A 
ATOM     53  H   LIG d   1       7.781  -2.204  -3.313  0.00  0.00     0.066 H 
ATOM     54  C   LIG d   1       9.023  -5.235  -4.161  0.00  0.00     0.166 A 
ATOM     55  O   LIG d   1      10.011  -3.841  -2.712  0.00  0.00    -0.453 OA
ATOM     56  C   LIG d   1       8.037  -5.631  -5.051  0.00  0.00    -0.016 A 
ATOM     57  O   LIG d   1      10.161  -5.857  -3.735  0.00  0.00    -0.453 OA
ATOM     58  C   LIG d   1       6.965  -4.799  -5.309  0.00  0.00    -0.055 A 
ATOM     59  H   LIG d   1       8.107  -6.591  -5.541  0.00  0.00     0.066 H 
ATOM     60  H   LIG d   1       6.195  -5.111  -6.000  0.00  0.00     0.062 H 
ATOM     61  C   LIG d   1      10.972  -4.819  -3.152  0.00  0.00     0.233 C 
ATOM     62  H   LIG d   1      11.638  -4.390  -3.901  0.00  0.00     0.117 H 
ATOM     63  H   LIG d   1      11.540  -5.206  -2.307  0.00  0.00     0.117 H 
ENDBRANCH  34  50
ENDBRANCH   1  34
TORSDOF 12
ENDMDL
MODEL 4
REMARK VINA RESULT:      -6.7      2.703      6.324
REMARK  12 active torsions:
REMARK  status: ('A' for Active; 'I' for Inactive)
REMARK    1  A    between atoms: C_1  and  C_2 
REMARK    2  A    between atoms: C_2  and  C_3 
REMARK    3  A    between atoms: C_2  and  O_4 
REMARK    4  A    between atoms: O_4  and  C_5 
REMARK    5  A    between atoms: C_8  and  C_11 
REMARK    6  A    between atoms: C_11  and  N_61 
REMARK    7  A    between atoms: C_12  and  C_13 
REMARK    8  A    between atoms: C_12  and  N_61 
REMARK    9  A    between atoms: C_13  and  C_14 
REMARK   10  A    between atoms: C_14  and  C_16 
REMARK   11  A    between atoms: C_14  and  C_23 
REMARK   12  A    between atoms: C_16  and  C_17 
ROOT
ATOM      1  C   LIG d   1       3.087   0.641  -5.533  0.00  0.00    -0.005 C 
ATOM      2  H   LIG d   1       2.939   1.715  -5.644  0.00  0.00     0.032 H 
ATOM      3  H   LIG d   1       4.050   0.454  -5.060  0.00  0.00     0.032 H 
ENDROOT
BRANCH   1   4
ATOM      4  C   LIG d   1       1.970   0.060  -4.663  0.00  0.00    -0.033 C 
ATOM      5  H   LIG d   1       1.131  -0.230  -5.295  0.00  0.00     0.081 H 
ATOM      6  H   LIG d   1       1.642   0.811  -3.944  0.00  0.00     0.081 H 
BRANCH   4   7
ATOM      7  N   LIG d   1       2.483  -1.122  -3.945  0.00  0.00     0.230 N 
ATOM      8  H   LIG d   1       1.702  -1.602  -3.481  0.00  0.00     0.202 HD
ATOM      9  H   LIG d   1       2.927  -1.760  -4.615  0.00  0.00     0.202 HD
BRANCH   7  10
ATOM     10  C   LIG d   1       3.474  -0.715  -2.930  0.00  0.00    -0.008 C 
ATOM     11  H   LIG d   1       3.169  -1.085  -1.952  0.00  0.00     0.087 H 
ATOM     12  H   LIG d   1       3.542   0.372  -2.901  0.00  0.00     0.087 H 
BRANCH  10  13
ATOM     13  C   LIG d   1       4.817  -1.294  -3.291  0.00  0.00    -0.003 A 
ATOM     14  C   LIG d   1       4.901  -2.574  -3.806  0.00  0.00    -0.050 A 
ATOM     15  C   LIG d   1       6.131  -3.108  -4.137  0.00  0.00    -0.019 A 
ATOM     16  H   LIG d   1       4.003  -3.158  -3.948  0.00  0.00     0.062 H 
ATOM     17  C   LIG d   1       7.283  -2.357  -3.954  0.00  0.00     0.121 A 
ATOM     18  H   LIG d   1       6.196  -4.110  -4.535  0.00  0.00     0.065 H 
ATOM     19  C   LIG d   1       7.196  -1.072  -3.438  0.00  0.00    -0.019 A 
ATOM     20  C   LIG d   1       5.964  -0.544  -3.107  0.00  0.00    -0.050 A 
ATOM     21  H   LIG d   1       8.092  -0.486  -3.294  0.00  0.00     0.065 H 
ATOM     22  H   LIG d   1       5.895   0.457  -2.706  0.00  0.00     0.062 H 
BRANCH  17  23
ATOM     23  O   LIG d   1       8.495  -2.880  -4.279  0.00  0.00    -0.489 OA
BRANCH  23  24
ATOM     24  C   LIG d   1       8.768  -4.210  -3.833  0.00  0.00     0.095 C 
ATOM     25  H   LIG d   1       7.830  -4.738  -3.671  0.00  0.00     0.073 H 
BRANCH  24  26
ATOM     26  C   LIG d   1       9.592  -4.944  -4.893  0.00  0.00    -0.028 C 
ATOM     27  H   LIG d   1       8.970  -5.694  -5.381  0.00  0.00     0.026 H 
ATOM     28  H   LIG d   1       9.950  -4.230  -5.635  0.00  0.00     0.026 H 
ATOM     29  H   LIG d   1      10.443  -5.432  -4.418  0.00  0.00     0.026 H 
ENDBRANCH  24  26
BRANCH  24  30
ATOM     30  C   LIG d   1       9.557  -4.155  -2.522  0.00  0.00    -0.028 C 
ATOM     31  H   LIG d   1       9.736  -5.169  -2.164  0.00  0.00     0.026 H 
ATOM     32  H   LIG d   1      10.512  -3.657  -2.693  0.00  0.00     0.026 H 
ATOM     33  H   LIG d   1       8.987  -3.601  -1.778  0.00  0.00     0.026 H 
ENDBRANCH  24  30
ENDBRANCH  23  24
ENDBRANCH  17  23
ENDBRANCH  10  13
ENDBRANCH   7  10
ENDBRANCH   4   7
ENDBRANCH   1   4
BRANCH   1  34
ATOM     34  C   LIG d   1       3.058  -0.025  -6.911  0.00  0.00    -0.007 C 
ATOM     35  H   LIG d   1       2.216  -0.713  -6.964  0.00  0.00     0.035 H 
BRANCH  34  36
ATOM     36  C   LIG d   1       2.910   1.048  -7.992  0.00  0.00    -0.021 C 
ATOM     37  H   LIG d   1       2.046   1.674  -7.766  0.00  0.00     0.032 H 
ATOM     38  H   LIG d   1       3.808   1.664  -8.019  0.00  0.00     0.032 H 
BRANCH  36  39
ATOM     39  C   LIG d   1       2.714   0.387  -9.332  0.00  0.00    -0.047 A 
ATOM     40  C   LIG d   1       1.622  -0.433  -9.545  0.00  0.00    -0.059 A 
ATOM     41  C   LIG d   1       1.442  -1.040 -10.775  0.00  0.00    -0.061 A 
ATOM     42  H   LIG d   1       0.909  -0.601  -8.751  0.00  0.00     0.062 H 
ATOM     43  C   LIG d   1       2.355  -0.825 -11.790  0.00  0.00    -0.062 A 
ATOM     44  H   LIG d   1       0.590  -1.681 -10.941  0.00  0.00     0.062 H 
ATOM     45  C   LIG d   1       3.447  -0.005 -11.577  0.00  0.00    -0.061 A 
ATOM     46  H   LIG d   1       2.214  -1.299 -12.751  0.00  0.00     0.062 H 
ATOM     47  C   LIG d   1       3.624   0.605 -10.350  0.00  0.00    -0.059 A 
ATOM     48  H   LIG d   1       4.160   0.162 -12.371  0.00  0.00     0.062 H 
ATOM     49  H   LIG d   1       4.475   1.250 -10.185  0.00  0.00     0.062 H 
ENDBRANCH  36  39
ENDBRANCH  34  36
BRANCH  34  50
ATOM     50  C   LIG d   1       4.342  -0.783  -7.129  0.00  0.00    -0.040 A 
ATOM     51  C   LIG d   1       4.303  -2.126  -7.454  0.00  0.00    -0.013 A 
ATOM     52  C   LIG d   1       5.482  -2.825  -7.655  0.00  0.00     0.167 A 
ATOM     53  H   LIG d   1       3.353  -2.631  -7.550  0.00  0.00     0.066 H 
ATOM     54  C   LIG d   1       6.706  -2.171  -7.530  0.00  0.00     0.166 A 
ATOM     55  O   LIG d   1       5.716  -4.131  -7.978  0.00  0.00    -0.453 OA
ATOM     56  C   LIG d   1       6.737  -0.825  -7.205  0.00  0.00    -0.016 A 
ATOM     57  O   LIG d   1       7.706  -3.067  -7.775  0.00  0.00    -0.453 OA
ATOM     58  C   LIG d   1       5.556  -0.133  -7.010  0.00  0.00    -0.055 A 
ATOM     59  H   LIG d   1       7.684  -0.316  -7.106  0.00  0.00     0.066 H 
ATOM     60  H   LIG d   1       5.583   0.917  -6.760  0.00  0.00     0.062 H 
ATOM     61  C   LIG d   1       7.098  -4.367  -7.650  0.00  0.00     0.233 C 
ATOM     62  H   LIG d   1       7.191  -4.735  -6.628  0.00  0.00     0.117 H 
ATOM     63  H   LIG d   1       7.545  -5.068  -8.354  0.00  0.00     0.117 H 
ENDBRANCH  34  50
ENDBRANCH   1  34
TORSDOF 12
ENDMDL
MODEL 5
REMARK VINA RESULT:      -6.7      3.022      4.527
REMARK  12 active torsions:
REMARK  status: ('A' for Active; 'I' for Inactive)
REMARK    1  A    between atoms: C_1  and  C_2 
REMARK    2  A    between atoms: C_2  and  C_3 
REMARK    3  A    between atoms: C_2  and  O_4 
REMARK    4  A    between atoms: O_4  and  C_5 
REMARK    5  A    between atoms: C_8  and  C_11 
REMARK    6  A    between atoms: C_11  and  N_61 
REMARK    7  A    between atoms: C_12  and  C_13 
REMARK    8  A    between atoms: C_12  and  N_61 
REMARK    9  A    between atoms: C_13  and  C_14 
REMARK   10  A    between atoms: C_14  and  C_16 
REMARK   11  A    between atoms: C_14  and  C_23 
REMARK   12  A    between atoms: C_16  and  C_17 
ROOT
ATOM      1  C   LIG d   1       5.265   0.014  -7.316  0.00  0.00    -0.005 C 
ATOM      2  H   LIG d   1       5.512   0.757  -6.557  0.00  0.00     0.032 H 
ATOM      3  H   LIG d   1       5.018   0.517  -8.250  0.00  0.00     0.032 H 
ENDROOT
BRANCH   1   4
ATOM      4  C   LIG d   1       6.466  -0.908  -7.536  0.00  0.00    -0.033 C 
ATOM      5  H   LIG d   1       7.373  -0.310  -7.617  0.00  0.00     0.081 H 
ATOM      6  H   LIG d   1       6.323  -1.479  -8.454  0.00  0.00     0.081 H 
BRANCH   4   7
ATOM      7  N   LIG d   1       6.581  -1.832  -6.392  0.00  0.00     0.230 N 
ATOM      8  H   LIG d   1       5.928  -1.541  -5.654  0.00  0.00     0.202 HD
ATOM      9  H   LIG d   1       6.347  -2.783  -6.699  0.00  0.00     0.202 HD
BRANCH   7  10
ATOM     10  C   LIG d   1       7.956  -1.818  -5.857  0.00  0.00    -0.008 C 
ATOM     11  H   LIG d   1       8.668  -1.921  -6.676  0.00  0.00     0.087 H 
ATOM     12  H   LIG d   1       8.086  -2.644  -5.158  0.00  0.00     0.087 H 
BRANCH  10  13
ATOM     13  C   LIG d   1       8.196  -0.512  -5.144  0.00  0.00    -0.003 A 
ATOM     14  C   LIG d   1       9.338   0.219  -5.410  0.00  0.00    -0.050 A 
ATOM     15  C   LIG d   1       9.561   1.416  -4.758  0.00  0.00    -0.019 A 
ATOM     16  H   LIG d   1      10.058  -0.146  -6.128  0.00  0.00     0.062 H 
ATOM     17  C   LIG d   1       8.636   1.885  -3.836  0.00  0.00     0.121 A 
ATOM     18  H   LIG d   1      10.456   1.985  -4.962  0.00  0.00     0.065 H 
ATOM     19  C   LIG d   1       7.490   1.149  -3.572  0.00  0.00    -0.019 A 
ATOM     20  C   LIG d   1       7.273  -0.048  -4.225  0.00  0.00    -0.050 A 
ATOM     21  H   LIG d   1       6.769   1.512  -2.854  0.00  0.00     0.065 H 
ATOM     22  H   LIG d   1       6.381  -0.621  -4.020  0.00  0.00     0.062 H 
BRANCH  17  23
ATOM     23  O   LIG d   1       8.853   3.062  -3.192  0.00  0.00    -0.489 OA
BRANCH  23  24
ATOM     24  C   LIG d   1      10.001   3.816  -3.588  0.00  0.00     0.095 C 
ATOM     25  H   LIG d   1      10.616   3.216  -4.258  0.00  0.00     0.073 H 
BRANCH  24  26
ATOM     26  C   LIG d   1       9.552   5.088  -4.310  0.00  0.00    -0.028 C 
ATOM     27  H   LIG d   1       9.793   5.957  -3.699  0.00  0.00     0.026 H 
ATOM     28  H   LIG d   1      10.066   5.163  -5.269  0.00  0.00     0.026 H 
ATOM     29  H   LIG d   1       8.475   5.050  -4.477  0.00  0.00     0.026 H 
ENDBRANCH  24  26
BRANCH  24  30
ATOM     30  C   LIG d   1      10.815   4.194  -2.348  0.00  0.00    -0.028 C 
ATOM     31  H   LIG d   1      11.275   5.170  -2.500  0.00  0.00     0.026 H 
ATOM     32  H   LIG d   1      10.156   4.234  -1.480  0.00  0.00     0.026 H 
ATOM     33  H   LIG d   1      11.590   3.447  -2.181  0.00  0.00     0.026 H 
ENDBRANCH  24  30
ENDBRANCH  23  24
ENDBRANCH  17  23
ENDBRANCH  10  13
ENDBRANCH   7  10
ENDBRANCH   4   7
ENDBRANCH   1   4
BRANCH   1  34
ATOM     34  C   LIG d   1       4.065  -0.814  -6.850  0.00  0.00    -0.007 C 
ATOM     35  H   LIG d   1       4.418  -1.710  -6.342  0.00  0.00     0.035 H 
BRANCH  34  36
ATOM     36  C   LIG d   1       3.215   0.018  -5.887  0.00  0.00    -0.021 C 
ATOM     37  H   LIG d   1       3.381   1.078  -6.080  0.00  0.00     0.032 H 
ATOM     38  H   LIG d   1       2.162  -0.218  -6.035  0.00  0.00     0.032 H 
BRANCH  36  39
ATOM     39  C   LIG d   1       3.606  -0.302  -4.467  0.00  0.00    -0.047 A 
ATOM     40  C   LIG d   1       3.917  -1.601  -4.112  0.00  0.00    -0.059 A 
ATOM     41  C   LIG d   1       4.277  -1.895  -2.810  0.00  0.00    -0.061 A 
ATOM     42  H   LIG d   1       3.879  -2.387  -4.852  0.00  0.00     0.062 H 
ATOM     43  C   LIG d   1       4.325  -0.889  -1.863  0.00  0.00    -0.062 A 
ATOM     44  H   LIG d   1       4.519  -2.909  -2.532  0.00  0.00     0.062 H 
ATOM     45  C   LIG d   1       4.015   0.410  -2.219  0.00  0.00    -0.061 A 
ATOM     46  H   LIG d   1       4.606  -1.118  -0.846  0.00  0.00     0.062 H 
ATOM     47  C   LIG d   1       3.660   0.705  -3.522  0.00  0.00    -0.059 A 
ATOM     48  H   LIG d   1       4.053   1.197  -1.479  0.00  0.00     0.062 H 
ATOM     49  H   LIG d   1       3.422   1.721  -3.800  0.00  0.00     0.062 H 
ENDBRANCH  36  39
ENDBRANCH  34  36
BRANCH  34  50
ATOM     50  C   LIG d   1       3.233  -1.207  -8.043  0.00  0.00    -0.040 A 
ATOM     51  C   LIG d   1       3.355  -2.473  -8.583  0.00  0.00    -0.013 A 
ATOM     52  C   LIG d   1       2.591  -2.837  -9.679  0.00  0.00     0.167 A 
ATOM     53  H   LIG d   1       4.048  -3.180  -8.150  0.00  0.00     0.066 H 
ATOM     54  C   LIG d   1       1.699  -1.923 -10.236  0.00  0.00     0.166 A 
ATOM     55  O   LIG d   1       2.522  -4.001 -10.389  0.00  0.00    -0.453 OA
ATOM     56  C   LIG d   1       1.581  -0.656  -9.689  0.00  0.00    -0.016 A 
ATOM     57  O   LIG d   1       1.071  -2.515 -11.294  0.00  0.00    -0.453 OA
ATOM     58  C   LIG d   1       2.343  -0.302  -8.592  0.00  0.00    -0.055 A 
ATOM     59  H   LIG d   1       0.890   0.055 -10.119  0.00  0.00     0.066 H 
ATOM     60  H   LIG d   1       2.246   0.686  -8.165  0.00  0.00     0.062 H 
ATOM     61  C   LIG d   1       1.881  -3.657 -11.631  0.00  0.00     0.233 C 
ATOM     62  H   LIG d   1       2.623  -3.390 -12.384  0.00  0.00     0.117 H 
ATOM     63  H   LIG d   1       1.257  -4.479 -11.981  0.00  0.00     0.117 H 
ENDBRANCH  34  50
ENDBRANCH   1  34
TORSDOF 12
ENDMDL
MODEL 6
REMARK VINA RESULT:      -6.6      2.646      5.801
REMARK  12 active torsions:
REMARK  status: ('A' for Active; 'I' for Inactive)
REMARK    1  A    between atoms: C_1  and  C_2 
REMARK    2  A    between atoms: C_2  and  C_3 
REMARK    3  A    between atoms: C_2  and  O_4 
REMARK    4  A    between atoms: O_4  and  C_5 
REMARK    5  A    between atoms: C_8  and  C_11 
REMARK    6  A    between atoms: C_11  and  N_61 
REMARK    7  A    between atoms: C_12  and  C_13 
REMARK    8  A    between atoms: C_12  and  N_61 
REMARK    9  A    between atoms: C_13  and  C_14 
REMARK   10  A    between atoms: C_14  and  C_16 
REMARK   11  A    between atoms: C_14  and  C_23 
REMARK   12  A    between atoms: C_16  and  C_17 
ROOT
ATOM      1  C   LIG d   1       5.575  -0.200  -6.925  0.00  0.00    -0.005 C 
ATOM      2  H   LIG d   1       5.723   0.666  -6.281  0.00  0.00     0.032 H 
ATOM      3  H   LIG d   1       5.510   0.126  -7.963  0.00  0.00     0.032 H 
ENDROOT
BRANCH   1   4
ATOM      4  C   LIG d   1       6.755  -1.161  -6.766  0.00  0.00    -0.033 C 
ATOM      5  H   LIG d   1       7.662  -0.592  -6.560  0.00  0.00     0.081 H 
ATOM      6  H   LIG d   1       6.885  -1.733  -7.685  0.00  0.00     0.081 H 
BRANCH   4   7
ATOM      7  N   LIG d   1       6.481  -2.081  -5.646  0.00  0.00     0.230 N 
ATOM      8  H   LIG d   1       6.634  -1.588  -4.758  0.00  0.00     0.202 HD
ATOM      9  H   LIG d   1       5.505  -2.397  -5.698  0.00  0.00     0.202 HD
BRANCH   7  10
ATOM     10  C   LIG d   1       7.377  -3.251  -5.713  0.00  0.00    -0.008 C 
ATOM     11  H   LIG d   1       8.062  -3.237  -4.866  0.00  0.00     0.087 H 
ATOM     12  H   LIG d   1       7.947  -3.223  -6.641  0.00  0.00     0.087 H 
BRANCH  10  13
ATOM     13  C   LIG d   1       6.550  -4.510  -5.669  0.00  0.00    -0.003 A 
ATOM     14  C   LIG d   1       5.171  -4.428  -5.619  0.00  0.00    -0.050 A 
ATOM     15  C   LIG d   1       4.410  -5.580  -5.577  0.00  0.00    -0.019 A 
ATOM     16  H   LIG d   1       4.687  -3.461  -5.611  0.00  0.00     0.062 H 
ATOM     17  C   LIG d   1       5.031  -6.821  -5.587  0.00  0.00     0.121 A 
ATOM     18  H   LIG d   1       3.333  -5.515  -5.534  0.00  0.00     0.065 H 
ATOM     19  C   LIG d   1       6.415  -6.900  -5.638  0.00  0.00    -0.019 A 
ATOM     20  C   LIG d   1       7.171  -5.745  -5.678  0.00  0.00    -0.050 A 
ATOM     21  H   LIG d   1       6.901  -7.865  -5.645  0.00  0.00     0.065 H 
ATOM     22  H   LIG d   1       8.249  -5.806  -5.717  0.00  0.00     0.062 H 
BRANCH  17  23
ATOM     23  O   LIG d   1       4.285  -7.956  -5.547  0.00  0.00    -0.489 OA
BRANCH  23  24
ATOM     24  C   LIG d   1       4.947  -9.153  -5.135  0.00  0.00     0.095 C 
ATOM     25  H   LIG d   1       5.998  -8.941  -4.946  0.00  0.00     0.073 H 
BRANCH  24  26
ATOM     26  C   LIG d   1       4.295  -9.682  -3.854  0.00  0.00    -0.028 C 
ATOM     27  H   LIG d   1       3.386  -9.117  -3.650  0.00  0.00     0.026 H 
ATOM     28  H   LIG d   1       4.049 -10.736  -3.980  0.00  0.00     0.026 H 
ATOM     29  H   LIG d   1       4.988  -9.567  -3.021  0.00  0.00     0.026 H 
ENDBRANCH  24  26
BRANCH  24  30
ATOM     30  C   LIG d   1       4.828 -10.207  -6.239  0.00  0.00    -0.028 C 
ATOM     31  H   LIG d   1       5.783 -10.298  -6.757  0.00  0.00     0.026 H 
ATOM     32  H   LIG d   1       4.562 -11.167  -5.797  0.00  0.00     0.026 H 
ATOM     33  H   LIG d   1       4.056  -9.906  -6.946  0.00  0.00     0.026 H 
ENDBRANCH  24  30
ENDBRANCH  23  24
ENDBRANCH  17  23
ENDBRANCH  10  13
ENDBRANCH   7  10
ENDBRANCH   4   7
ENDBRANCH   1   4
BRANCH   1  34
ATOM     34  C   LIG d   1       4.280  -0.914  -6.533  0.00  0.00    -0.007 C 
ATOM     35  H   LIG d   1       4.519  -1.849  -6.029  0.00  0.00     0.035 H 
BRANCH  34  36
ATOM     36  C   LIG d   1       3.468  -0.019  -5.594  0.00  0.00    -0.021 C 
ATOM     37  H   LIG d   1       3.701   1.026  -5.798  0.00  0.00     0.032 H 
ATOM     38  H   LIG d   1       2.405  -0.194  -5.754  0.00  0.00     0.032 H 
BRANCH  36  39
ATOM     39  C   LIG d   1       3.821  -0.342  -4.164  0.00  0.00    -0.047 A 
ATOM     40  C   LIG d   1       4.308   0.647  -3.332  0.00  0.00    -0.059 A 
ATOM     41  C   LIG d   1       4.630   0.351  -2.021  0.00  0.00    -0.061 A 
ATOM     42  H   LIG d   1       4.436   1.653  -3.706  0.00  0.00     0.062 H 
ATOM     43  C   LIG d   1       4.465  -0.935  -1.543  0.00  0.00    -0.062 A 
ATOM     44  H   LIG d   1       5.011   1.124  -1.370  0.00  0.00     0.062 H 
ATOM     45  C   LIG d   1       3.978  -1.925  -2.375  0.00  0.00    -0.061 A 
ATOM     46  H   LIG d   1       4.717  -1.166  -0.518  0.00  0.00     0.062 H 
ATOM     47  C   LIG d   1       3.651  -1.628  -3.685  0.00  0.00    -0.059 A 
ATOM     48  H   LIG d   1       3.849  -2.930  -2.001  0.00  0.00     0.062 H 
ATOM     49  H   LIG d   1       3.266  -2.401  -4.334  0.00  0.00     0.062 H 
ENDBRANCH  36  39
ENDBRANCH  34  36
BRANCH  34  50
ATOM     50  C   LIG d   1       3.472  -1.204  -7.772  0.00  0.00    -0.040 A 
ATOM     51  C   LIG d   1       3.601  -2.423  -8.410  0.00  0.00    -0.013 A 
ATOM     52  C   LIG d   1       2.859  -2.692  -9.549  0.00  0.00     0.167 A 
ATOM     53  H   LIG d   1       4.282  -3.166  -8.022  0.00  0.00     0.066 H 
ATOM     54  C   LIG d   1       1.983  -1.731 -10.048  0.00  0.00     0.166 A 
ATOM     55  O   LIG d   1       2.802  -3.794 -10.353  0.00  0.00    -0.453 OA
ATOM     56  C   LIG d   1       1.857  -0.512  -9.402  0.00  0.00    -0.016 A 
ATOM     57  O   LIG d   1       1.376  -2.232 -11.164  0.00  0.00    -0.453 OA
ATOM     58  C   LIG d   1       2.598  -0.253  -8.264  0.00  0.00    -0.055 A 
ATOM     59  H   LIG d   1       1.179   0.235  -9.788  0.00  0.00     0.066 H 
ATOM     60  H   LIG d   1       2.495   0.697  -7.761  0.00  0.00     0.062 H 
ATOM     61  C   LIG d   1       2.189  -3.347 -11.576  0.00  0.00     0.233 C 
ATOM     62  H   LIG d   1       2.948  -3.024 -12.288  0.00  0.00     0.117 H 
ATOM     63  H   LIG d   1       1.569  -4.135 -12.004  0.00  0.00     0.117 H 
ENDBRANCH  34  50
ENDBRANCH   1  34
TORSDOF 12
ENDMDL
MODEL 7
REMARK VINA RESULT:      -6.6      2.382      4.118
REMARK  12 active torsions:
REMARK  status: ('A' for Active; 'I' for Inactive)
REMARK    1  A    between atoms: C_1  and  C_2 
REMARK    2  A    between atoms: C_2  and  C_3 
REMARK    3  A    between atoms: C_2  and  O_4 
REMARK    4  A    between atoms: O_4  and  C_5 
REMARK    5  A    between atoms: C_8  and  C_11 
REMARK    6  A    between atoms: C_11  and  N_61 
REMARK    7  A    between atoms: C_12  and  C_13 
REMARK    8  A    between atoms: C_12  and  N_61 
REMARK    9  A    between atoms: C_13  and  C_14 
REMARK   10  A    between atoms: C_14  and  C_16 
REMARK   11  A    between atoms: C_14  and  C_23 
REMARK   12  A    between atoms: C_16  and  C_17 
ROOT
ATOM      1  C   LIG d   1       4.715  -4.680  -5.043  0.00  0.00    -0.005 C 
ATOM      2  H   LIG d   1       4.111  -5.184  -4.289  0.00  0.00     0.032 H 
ATOM      3  H   LIG d   1       5.718  -5.107  -5.050  0.00  0.00     0.032 H 
ENDROOT
BRANCH   1   4
ATOM      4  C   LIG d   1       4.073  -4.868  -6.420  0.00  0.00    -0.033 C 
ATOM      5  H   LIG d   1       3.325  -4.091  -6.580  0.00  0.00     0.081 H 
ATOM      6  H   LIG d   1       3.596  -5.847  -6.467  0.00  0.00     0.081 H 
BRANCH   4   7
ATOM      7  N   LIG d   1       5.117  -4.775  -7.457  0.00  0.00     0.230 N 
ATOM      8  H   LIG d   1       5.892  -4.197  -7.107  0.00  0.00     0.202 HD
ATOM      9  H   LIG d   1       5.464  -5.716  -7.675  0.00  0.00     0.202 HD
BRANCH   7  10
ATOM     10  C   LIG d   1       4.569  -4.162  -8.682  0.00  0.00    -0.008 C 
ATOM     11  H   LIG d   1       3.515  -4.420  -8.781  0.00  0.00     0.087 H 
ATOM     12  H   LIG d   1       5.115  -4.528  -9.550  0.00  0.00     0.087 H 
BRANCH  10  13
ATOM     13  C   LIG d   1       4.713  -2.664  -8.592  0.00  0.00    -0.003 A 
ATOM     14  C   LIG d   1       5.836  -2.047  -9.110  0.00  0.00    -0.050 A 
ATOM     15  C   LIG d   1       5.971  -0.675  -9.029  0.00  0.00    -0.019 A 
ATOM     16  H   LIG d   1       6.610  -2.639  -9.578  0.00  0.00     0.062 H 
ATOM     17  C   LIG d   1       4.976   0.085  -8.428  0.00  0.00     0.121 A 
ATOM     18  H   LIG d   1       6.850  -0.193  -9.430  0.00  0.00     0.065 H 
ATOM     19  C   LIG d   1       3.849  -0.538  -7.910  0.00  0.00    -0.019 A 
ATOM     20  C   LIG d   1       3.721  -1.911  -7.992  0.00  0.00    -0.050 A 
ATOM     21  H   LIG d   1       3.074   0.051  -7.441  0.00  0.00     0.065 H 
ATOM     22  H   LIG d   1       2.844  -2.396  -7.589  0.00  0.00     0.062 H 
BRANCH  17  23
ATOM     23  O   LIG d   1       5.106   1.435  -8.347  0.00  0.00    -0.489 OA
BRANCH  23  24
ATOM     24  C   LIG d   1       4.307   2.218  -9.236  0.00  0.00     0.095 C 
ATOM     25  H   LIG d   1       4.805   3.166  -9.432  0.00  0.00     0.073 H 
BRANCH  24  26
ATOM     26  C   LIG d   1       4.114   1.460 -10.551  0.00  0.00    -0.028 C 
ATOM     27  H   LIG d   1       3.846   0.426 -10.338  0.00  0.00     0.026 H 
ATOM     28  H   LIG d   1       3.318   1.931 -11.129  0.00  0.00     0.026 H 
ATOM     29  H   LIG d   1       5.041   1.484 -11.123  0.00  0.00     0.026 H 
ENDBRANCH  24  26
BRANCH  24  30
ATOM     30  C   LIG d   1       2.942   2.482  -8.594  0.00  0.00    -0.028 C 
ATOM     31  H   LIG d   1       2.201   2.655  -9.375  0.00  0.00     0.026 H 
ATOM     32  H   LIG d   1       2.647   1.617  -8.000  0.00  0.00     0.026 H 
ATOM     33  H   LIG d   1       3.006   3.359  -7.952  0.00  0.00     0.026 H 
ENDBRANCH  24  30
ENDBRANCH  23  24
ENDBRANCH  17  23
ENDBRANCH  10  13
ENDBRANCH   7  10
ENDBRANCH   4   7
ENDBRANCH   1   4
BRANCH   1  34
ATOM     34  C   LIG d   1       4.799  -3.187  -4.719  0.00  0.00    -0.007 C 
ATOM     35  H   LIG d   1       4.138  -2.634  -5.385  0.00  0.00     0.035 H 
BRANCH  34  36
ATOM     36  C   LIG d   1       4.372  -2.956  -3.267  0.00  0.00    -0.021 C 
ATOM     37  H   LIG d   1       3.467  -3.527  -3.060  0.00  0.00     0.032 H 
ATOM     38  H   LIG d   1       5.169  -3.282  -2.599  0.00  0.00     0.032 H 
BRANCH  36  39
ATOM     39  C   LIG d   1       4.102  -1.490  -3.051  0.00  0.00    -0.047 A 
ATOM     40  C   LIG d   1       4.703  -0.824  -1.999  0.00  0.00    -0.059 A 
ATOM     41  C   LIG d   1       4.456   0.521  -1.800  0.00  0.00    -0.061 A 
ATOM     42  H   LIG d   1       5.366  -1.356  -1.331  0.00  0.00     0.062 H 
ATOM     43  C   LIG d   1       3.607   1.201  -2.654  0.00  0.00    -0.062 A 
ATOM     44  H   LIG d   1       4.924   1.041  -0.978  0.00  0.00     0.062 H 
ATOM     45  C   LIG d   1       3.007   0.536  -3.706  0.00  0.00    -0.061 A 
ATOM     46  H   LIG d   1       3.414   2.252  -2.499  0.00  0.00     0.062 H 
ATOM     47  C   LIG d   1       3.258  -0.809  -3.908  0.00  0.00    -0.059 A 
ATOM     48  H   LIG d   1       2.344   1.067  -4.374  0.00  0.00     0.062 H 
ATOM     49  H   LIG d   1       2.792  -1.327  -4.733  0.00  0.00     0.062 H 
ENDBRANCH  36  39
ENDBRANCH  34  36
BRANCH  34  50
ATOM     50  C   LIG d   1       6.216  -2.711  -4.908  0.00  0.00    -0.040 A 
ATOM     51  C   LIG d   1       7.271  -3.544  -4.590  0.00  0.00    -0.013 A 
ATOM     52  C   LIG d   1       8.575  -3.109  -4.763  0.00  0.00     0.167 A 
ATOM     53  H   LIG d   1       7.080  -4.535  -4.205  0.00  0.00     0.066 H 
ATOM     54  C   LIG d   1       8.819  -1.830  -5.258  0.00  0.00     0.166 A 
ATOM     55  O   LIG d   1       9.773  -3.722  -4.530  0.00  0.00    -0.453 OA
ATOM     56  C   LIG d   1       7.756  -1.001  -5.576  0.00  0.00    -0.016 A 
ATOM     57  O   LIG d   1      10.169  -1.642  -5.337  0.00  0.00    -0.453 OA
ATOM     58  C   LIG d   1       6.458  -1.444  -5.405  0.00  0.00    -0.055 A 
ATOM     59  H   LIG d   1       7.942  -0.008  -5.960  0.00  0.00     0.066 H 
ATOM     60  H   LIG d   1       5.631  -0.797  -5.657  0.00  0.00     0.062 H 
ATOM     61  C   LIG d   1      10.748  -2.663  -4.502  0.00  0.00     0.233 C 
ATOM     62  H   LIG d   1      10.883  -2.294  -3.485  0.00  0.00     0.117 H 
ATOM     63  H   LIG d   1      11.696  -3.004  -4.917  0.00  0.00     0.117 H 
ENDBRANCH  34  50
ENDBRANCH   1  34
TORSDOF 12
ENDMDL
MODEL 8
REMARK VINA RESULT:      -6.5      2.212      4.822
REMARK  12 active torsions:
REMARK  status: ('A' for Active; 'I' for Inactive)
REMARK    1  A    between atoms: C_1  and  C_2 
REMARK    2  A    between atoms: C_2  and  C_3 
REMARK    3  A    between atoms: C_2  and  O_4 
REMARK    4  A    between atoms: O_4  and  C_5 
REMARK    5  A    between atoms: C_8  and  C_11 
REMARK    6  A    between atoms: C_11  and  N_61 
REMARK    7  A    between atoms: C_12  and  C_13 
REMARK    8  A    between atoms: C_12  and  N_61 
REMARK    9  A    between atoms: C_13  and  C_14 
REMARK   10  A    between atoms: C_14  and  C_16 
REMARK   11  A    between atoms: C_14  and  C_23 
REMARK   12  A    between atoms: C_16  and  C_17 
ROOT
ATOM      1  C   LIG d   1       7.662  -3.659  -4.464  0.00  0.00    -0.005 C 
ATOM      2  H   LIG d   1       7.632  -4.084  -3.461  0.00  0.00     0.032 H 
ATOM      3  H   LIG d   1       8.696  -3.601  -4.802  0.00  0.00     0.032 H 
ENDROOT
BRANCH   1   4
ATOM      4  C   LIG d   1       6.862  -4.548  -5.418  0.00  0.00    -0.033 C 
ATOM      5  H   LIG d   1       6.998  -5.593  -5.141  0.00  0.00     0.081 H 
ATOM      6  H   LIG d   1       7.214  -4.394  -6.439  0.00  0.00     0.081 H 
BRANCH   4   7
ATOM      7  N   LIG d   1       5.434  -4.191  -5.327  0.00  0.00     0.230 N 
ATOM      8  H   LIG d   1       4.999  -4.725  -4.565  0.00  0.00     0.202 HD
ATOM      9  H   LIG d   1       5.347  -3.187  -5.135  0.00  0.00     0.202 HD
BRANCH   7  10
ATOM     10  C   LIG d   1       4.746  -4.505  -6.594  0.00  0.00    -0.008 C 
ATOM     11  H   LIG d   1       3.888  -5.148  -6.396  0.00  0.00     0.087 H 
ATOM     12  H   LIG d   1       5.434  -5.016  -7.267  0.00  0.00     0.087 H 
BRANCH  10  13
ATOM     13  C   LIG d   1       4.276  -3.224  -7.233  0.00  0.00    -0.003 A 
ATOM     14  C   LIG d   1       4.434  -2.023  -6.567  0.00  0.00    -0.050 A 
ATOM     15  C   LIG d   1       4.004  -0.847  -7.149  0.00  0.00    -0.019 A 
ATOM     16  H   LIG d   1       4.894  -2.004  -5.589  0.00  0.00     0.062 H 
ATOM     17  C   LIG d   1       3.413  -0.872  -8.405  0.00  0.00     0.121 A 
ATOM     18  H   LIG d   1       4.124   0.091  -6.627  0.00  0.00     0.065 H 
ATOM     19  C   LIG d   1       3.256  -2.078  -9.071  0.00  0.00    -0.019 A 
ATOM     20  C   LIG d   1       3.687  -3.252  -8.484  0.00  0.00    -0.050 A 
ATOM     21  H   LIG d   1       2.796  -2.100 -10.048  0.00  0.00     0.065 H 
ATOM     22  H   LIG d   1       3.565  -4.192  -9.002  0.00  0.00     0.062 H 
BRANCH  17  23
ATOM     23  O   LIG d   1       2.989   0.284  -8.980  0.00  0.00    -0.489 OA
BRANCH  23  24
ATOM     24  C   LIG d   1       3.990   1.135  -9.543  0.00  0.00     0.095 C 
ATOM     25  H   LIG d   1       4.970   0.833  -9.177  0.00  0.00     0.073 H 
BRANCH  24  26
ATOM     26  C   LIG d   1       3.957   1.022 -11.069  0.00  0.00    -0.028 C 
ATOM     27  H   LIG d   1       3.532   1.932 -11.491  0.00  0.00     0.026 H 
ATOM     28  H   LIG d   1       4.970   0.885 -11.445  0.00  0.00     0.026 H 
ATOM     29  H   LIG d   1       3.344   0.168 -11.356  0.00  0.00     0.026 H 
ENDBRANCH  24  26
BRANCH  24  30
ATOM     30  C   LIG d   1       3.717   2.584  -9.133  0.00  0.00    -0.028 C 
ATOM     31  H   LIG d   1       2.894   2.610  -8.418  0.00  0.00     0.026 H 
ATOM     32  H   LIG d   1       4.610   3.006  -8.673  0.00  0.00     0.026 H 
ATOM     33  H   LIG d   1       3.453   3.167 -10.014  0.00  0.00     0.026 H 
ENDBRANCH  24  30
ENDBRANCH  23  24
ENDBRANCH  17  23
ENDBRANCH  10  13
ENDBRANCH   7  10
ENDBRANCH   4   7
ENDBRANCH   1   4
BRANCH   1  34
ATOM     34  C   LIG d   1       7.052  -2.256  -4.443  0.00  0.00    -0.007 C 
ATOM     35  H   LIG d   1       6.090  -2.270  -4.952  0.00  0.00     0.035 H 
BRANCH  34  36
ATOM     36  C   LIG d   1       6.856  -1.807  -2.993  0.00  0.00    -0.021 C 
ATOM     37  H   LIG d   1       6.894  -2.676  -2.336  0.00  0.00     0.032 H 
ATOM     38  H   LIG d   1       7.647  -1.109  -2.719  0.00  0.00     0.032 H 
BRANCH  36  39
ATOM     39  C   LIG d   1       5.517  -1.129  -2.854  0.00  0.00    -0.047 A 
ATOM     40  C   LIG d   1       4.355  -1.873  -2.933  0.00  0.00    -0.059 A 
ATOM     41  C   LIG d   1       3.127  -1.252  -2.805  0.00  0.00    -0.061 A 
ATOM     42  H   LIG d   1       4.406  -2.940  -3.096  0.00  0.00     0.062 H 
ATOM     43  C   LIG d   1       3.061   0.113  -2.597  0.00  0.00    -0.062 A 
ATOM     44  H   LIG d   1       2.219  -1.833  -2.868  0.00  0.00     0.062 H 
ATOM     45  C   LIG d   1       4.223   0.856  -2.518  0.00  0.00    -0.061 A 
ATOM     46  H   LIG d   1       2.102   0.598  -2.497  0.00  0.00     0.062 H 
ATOM     47  C   LIG d   1       5.452   0.235  -2.640  0.00  0.00    -0.059 A 
ATOM     48  H   LIG d   1       4.172   1.923  -2.355  0.00  0.00     0.062 H 
ATOM     49  H   LIG d   1       6.360   0.816  -2.573  0.00  0.00     0.062 H 
ENDBRANCH  36  39
ENDBRANCH  34  36
BRANCH  34  50
ATOM     50  C   LIG d   1       7.978  -1.296  -5.145  0.00  0.00    -0.040 A 
ATOM     51  C   LIG d   1       7.472  -0.147  -5.722  0.00  0.00    -0.013 A 
ATOM     52  C   LIG d   1       8.321   0.737  -6.367  0.00  0.00     0.167 A 
ATOM     53  H   LIG d   1       6.413   0.062  -5.671  0.00  0.00     0.066 H 
ATOM     54  C   LIG d   1       9.686   0.465  -6.432  0.00  0.00     0.166 A 
ATOM     55  O   LIG d   1       8.081   1.919  -7.007  0.00  0.00    -0.453 OA
ATOM     56  C   LIG d   1      10.186  -0.688  -5.850  0.00  0.00    -0.016 A 
ATOM     57  O   LIG d   1      10.300   1.477  -7.112  0.00  0.00    -0.453 OA
ATOM     58  C   LIG d   1       9.334  -1.563  -5.204  0.00  0.00    -0.055 A 
ATOM     59  H   LIG d   1      11.244  -0.902  -5.900  0.00  0.00     0.066 H 
ATOM     60  H   LIG d   1       9.727  -2.459  -4.748  0.00  0.00     0.062 H 
ATOM     61  C   LIG d   1       9.247   2.163  -7.815  0.00  0.00     0.233 C 
ATOM     62  H   LIG d   1       9.116   1.743  -8.812  0.00  0.00     0.117 H 
ATOM     63  H   LIG d   1       9.458   3.231  -7.872  0.00  0.00     0.117 H 
ENDBRANCH  34  50
ENDBRANCH   1  34
TORSDOF 12
ENDMDL
MODEL 9
REMARK VINA RESULT:      -6.5      2.735      4.519
REMARK  12 active torsions:
REMARK  status: ('A' for Active; 'I' for Inactive)
REMARK    1  A    between atoms: C_1  and  C_2 
REMARK    2  A    between atoms: C_2  and  C_3 
REMARK    3  A    between atoms: C_2  and  O_4 
REMARK    4  A    between atoms: O_4  and  C_5 
REMARK    5  A    between atoms: C_8  and  C_11 
REMARK    6  A    between atoms: C_11  and  N_61 
REMARK    7  A    between atoms: C_12  and  C_13 
REMARK    8  A    between atoms: C_12  and  N_61 
REMARK    9  A    between atoms: C_13  and  C_14 
REMARK   10  A    between atoms: C_14  and  C_16 
REMARK   11  A    between atoms: C_14  and  C_23 
REMARK   12  A    between atoms: C_16  and  C_17 
ROOT
ATOM      1  C   LIG d   1       4.664  -4.333  -5.209  0.00  0.00    -0.005 C 
ATOM      2  H   LIG d   1       3.836  -4.725  -4.621  0.00  0.00     0.032 H 
ATOM      3  H   LIG d   1       5.532  -4.981  -5.092  0.00  0.00     0.032 H 
ENDROOT
BRANCH   1   4
ATOM      4  C   LIG d   1       4.263  -4.281  -6.685  0.00  0.00    -0.033 C 
ATOM      5  H   LIG d   1       3.417  -4.947  -6.855  0.00  0.00     0.081 H 
ATOM      6  H   LIG d   1       5.104  -4.597  -7.302  0.00  0.00     0.081 H 
BRANCH   4   7
ATOM      7  N   LIG d   1       3.884  -2.899  -7.034  0.00  0.00     0.230 N 
ATOM      8  H   LIG d   1       2.863  -2.804  -6.986  0.00  0.00     0.202 HD
ATOM      9  H   LIG d   1       4.319  -2.250  -6.368  0.00  0.00     0.202 HD
BRANCH   7  10
ATOM     10  C   LIG d   1       4.340  -2.572  -8.399  0.00  0.00    -0.008 C 
ATOM     11  H   LIG d   1       3.531  -2.091  -8.949  0.00  0.00     0.087 H 
ATOM     12  H   LIG d   1       4.635  -3.486  -8.914  0.00  0.00     0.087 H 
BRANCH  10  13
ATOM     13  C   LIG d   1       5.518  -1.637  -8.317  0.00  0.00    -0.003 A 
ATOM     14  C   LIG d   1       5.324  -0.312  -7.973  0.00  0.00    -0.050 A 
ATOM     15  C   LIG d   1       6.402   0.548  -7.897  0.00  0.00    -0.019 A 
ATOM     16  H   LIG d   1       4.328   0.051  -7.763  0.00  0.00     0.062 H 
ATOM     17  C   LIG d   1       7.681   0.081  -8.166  0.00  0.00     0.121 A 
ATOM     18  H   LIG d   1       6.250   1.584  -7.632  0.00  0.00     0.065 H 
ATOM     19  C   LIG d   1       7.873  -1.249  -8.511  0.00  0.00    -0.019 A 
ATOM     20  C   LIG d   1       6.791  -2.105  -8.586  0.00  0.00    -0.050 A 
ATOM     21  H   LIG d   1       8.867  -1.615  -8.721  0.00  0.00     0.065 H 
ATOM     22  H   LIG d   1       6.939  -3.141  -8.854  0.00  0.00     0.062 H 
BRANCH  17  23
ATOM     23  O   LIG d   1       8.744   0.925  -8.092  0.00  0.00    -0.489 OA
BRANCH  23  24
ATOM     24  C   LIG d   1       8.458   2.312  -7.902  0.00  0.00     0.095 C 
ATOM     25  H   LIG d   1       7.399   2.438  -7.680  0.00  0.00     0.073 H 
BRANCH  24  26
ATOM     26  C   LIG d   1       9.291   2.849  -6.735  0.00  0.00    -0.028 C 
ATOM     27  H   LIG d   1      10.294   2.424  -6.780  0.00  0.00     0.026 H 
ATOM     28  H   LIG d   1       9.353   3.935  -6.802  0.00  0.00     0.026 H 
ATOM     29  H   LIG d   1       8.820   2.569  -5.794  0.00  0.00     0.026 H 
ENDBRANCH  24  26
BRANCH  24  30
ATOM     30  C   LIG d   1       8.808   3.084  -9.176  0.00  0.00    -0.028 C 
ATOM     31  H   LIG d   1       9.648   2.601  -9.674  0.00  0.00     0.026 H 
ATOM     32  H   LIG d   1       7.946   3.092  -9.844  0.00  0.00     0.026 H 
ATOM     33  H   LIG d   1       9.077   4.108  -8.918  0.00  0.00     0.026 H 
ENDBRANCH  24  30
ENDBRANCH  23  24
ENDBRANCH  17  23
ENDBRANCH  10  13
ENDBRANCH   7  10
ENDBRANCH   4   7
ENDBRANCH   1   4
BRANCH   1  34
ATOM     34  C   LIG d   1       5.012  -2.923  -4.726  0.00  0.00    -0.007 C 
ATOM     35  H   LIG d   1       4.534  -2.189  -5.374  0.00  0.00     0.035 H 
BRANCH  34  36
ATOM     36  C   LIG d   1       4.514  -2.739  -3.291  0.00  0.00    -0.021 C 
ATOM     37  H   LIG d   1       3.611  -3.332  -3.141  0.00  0.00     0.032 H 
ATOM     38  H   LIG d   1       5.284  -3.067  -2.594  0.00  0.00     0.032 H 
BRANCH  36  39
ATOM     39  C   LIG d   1       4.204  -1.284  -3.050  0.00  0.00    -0.047 A 
ATOM     40  C   LIG d   1       4.698  -0.649  -1.926  0.00  0.00    -0.059 A 
ATOM     41  C   LIG d   1       4.415   0.686  -1.705  0.00  0.00    -0.061 A 
ATOM     42  H   LIG d   1       5.307  -1.196  -1.220  0.00  0.00     0.062 H 
ATOM     43  C   LIG d   1       3.636   1.385  -2.608  0.00  0.00    -0.062 A 
ATOM     44  H   LIG d   1       4.801   1.182  -0.827  0.00  0.00     0.062 H 
ATOM     45  C   LIG d   1       3.142   0.750  -3.732  0.00  0.00    -0.061 A 
ATOM     46  H   LIG d   1       3.414   2.428  -2.435  0.00  0.00     0.062 H 
ATOM     47  C   LIG d   1       3.429  -0.583  -3.956  0.00  0.00    -0.059 A 
ATOM     48  H   LIG d   1       2.533   1.297  -4.437  0.00  0.00     0.062 H 
ATOM     49  H   LIG d   1       3.047  -1.078  -4.836  0.00  0.00     0.062 H 
ENDBRANCH  36  39
ENDBRANCH  34  36
BRANCH  34  50
ATOM     50  C   LIG d   1       6.506  -2.733  -4.767  0.00  0.00    -0.040 A 
ATOM     51  C   LIG d   1       7.038  -1.459  -4.841  0.00  0.00    -0.013 A 
ATOM     52  C   LIG d   1       8.411  -1.282  -4.878  0.00  0.00     0.167 A 
ATOM     53  H   LIG d   1       6.382  -0.601  -4.871  0.00  0.00     0.066 H 
ATOM     54  C   LIG d   1       9.254  -2.390  -4.840  0.00  0.00     0.166 A 
ATOM     55  O   LIG d   1       9.176  -0.153  -4.950  0.00  0.00    -0.453 OA
ATOM     56  C   LIG d   1       8.715  -3.663  -4.765  0.00  0.00    -0.016 A 
ATOM     57  O   LIG d   1      10.548  -1.955  -4.888  0.00  0.00    -0.453 OA
ATOM     58  C   LIG d   1       7.344  -3.832  -4.724  0.00  0.00    -0.055 A 
ATOM     59  H   LIG d   1       9.366  -4.524  -4.736  0.00  0.00     0.066 H 
ATOM     60  H   LIG d   1       6.926  -4.826  -4.661  0.00  0.00     0.062 H 
ATOM     61  C   LIG d   1      10.480  -0.598  -5.366  0.00  0.00     0.233 C 
ATOM     62  H   LIG d   1      10.565  -0.572  -6.452  0.00  0.00     0.117 H 
ATOM     63  H   LIG d   1      11.258   0.009  -4.904  0.00  0.00     0.117 H 
ENDBRANCH  34  50
ENDBRANCH   1  34
TORSDOF 12
ENDMDL
MODEL 10
REMARK VINA RESULT:      -6.5      2.130      4.237
REMARK  12 active torsions:
REMARK  status: ('A' for Active; 'I' for Inactive)
REMARK    1  A    between atoms: C_1  and  C_2 
REMARK    2  A    between atoms: C_2  and  C_3 
REMARK    3  A    between atoms: C_2  and  O_4 
REMARK    4  A    between atoms: O_4  and  C_5 
REMARK    5  A    between atoms: C_8  and  C_11 
REMARK    6  A    between atoms: C_11  and  N_61 
REMARK    7  A    between atoms: C_12  and  C_13 
REMARK    8  A    between atoms: C_12  and  N_61 
REMARK    9  A    between atoms: C_13  and  C_14 
REMARK   10  A    between atoms: C_14  and  C_16 
REMARK   11  A    between atoms: C_14  and  C_23 
REMARK   12  A    between atoms: C_16  and  C_17 
ROOT
ATOM      1  C   LIG d   1       7.548  -3.454  -5.552  0.00  0.00    -0.005 C 
ATOM      2  H   LIG d   1       8.515  -3.289  -5.076  0.00  0.00     0.032 H 
ATOM      3  H   LIG d   1       7.622  -3.223  -6.614  0.00  0.00     0.032 H 
ENDROOT
BRANCH   1   4
ATOM      4  C   LIG d   1       7.137  -4.918  -5.376  0.00  0.00    -0.033 C 
ATOM      5  H   LIG d   1       7.190  -5.185  -4.321  0.00  0.00     0.081 H 
ATOM      6  H   LIG d   1       7.810  -5.556  -5.948  0.00  0.00     0.081 H 
BRANCH   4   7
ATOM      7  N   LIG d   1       5.756  -5.092  -5.864  0.00  0.00     0.230 N 
ATOM      8  H   LIG d   1       5.258  -5.745  -5.247  0.00  0.00     0.202 HD
ATOM      9  H   LIG d   1       5.277  -4.184  -5.859  0.00  0.00     0.202 HD
BRANCH   7  10
ATOM     10  C   LIG d   1       5.762  -5.632  -7.237  0.00  0.00    -0.008 C 
ATOM     11  H   LIG d   1       5.190  -6.559  -7.269  0.00  0.00     0.087 H 
ATOM     12  H   LIG d   1       6.788  -5.827  -7.549  0.00  0.00     0.087 H 
BRANCH  10  13
ATOM     13  C   LIG d   1       5.137  -4.624  -8.167  0.00  0.00    -0.003 A 
ATOM     14  C   LIG d   1       5.941  -3.820  -8.953  0.00  0.00    -0.050 A 
ATOM     15  C   LIG d   1       5.372  -2.895  -9.806  0.00  0.00    -0.019 A 
ATOM     16  H   LIG d   1       7.016  -3.914  -8.900  0.00  0.00     0.062 H 
ATOM     17  C   LIG d   1       3.991  -2.774  -9.875  0.00  0.00     0.121 A 
ATOM     18  H   LIG d   1       6.000  -2.264 -10.417  0.00  0.00     0.065 H 
ATOM     19  C   LIG d   1       3.186  -3.583  -9.085  0.00  0.00    -0.019 A 
ATOM     20  C   LIG d   1       3.761  -4.505  -8.233  0.00  0.00    -0.050 A 
ATOM     21  H   LIG d   1       2.111  -3.491  -9.136  0.00  0.00     0.065 H 
ATOM     22  H   LIG d   1       3.136  -5.136  -7.618  0.00  0.00     0.062 H 
BRANCH  17  23
ATOM     23  O   LIG d   1       3.428  -1.865 -10.714  0.00  0.00    -0.489 OA
BRANCH  23  24
ATOM     24  C   LIG d   1       2.009  -1.710 -10.644  0.00  0.00     0.095 C 
ATOM     25  H   LIG d   1       1.574  -2.571 -10.140  0.00  0.00     0.073 H 
BRANCH  24  26
ATOM     26  C   LIG d   1       1.672  -0.437  -9.864  0.00  0.00    -0.028 C 
ATOM     27  H   LIG d   1       1.863  -0.600  -8.804  0.00  0.00     0.026 H 
ATOM     28  H   LIG d   1       2.293   0.385 -10.223  0.00  0.00     0.026 H 
ATOM     29  H   LIG d   1       0.621  -0.189 -10.010  0.00  0.00     0.026 H 
ENDBRANCH  24  26
BRANCH  24  30
ATOM     30  C   LIG d   1       1.438  -1.605 -12.061  0.00  0.00    -0.028 C 
ATOM     31  H   LIG d   1       2.154  -2.019 -12.772  0.00  0.00     0.026 H 
ATOM     32  H   LIG d   1       0.504  -2.164 -12.118  0.00  0.00     0.026 H 
ATOM     33  H   LIG d   1       1.251  -0.559 -12.300  0.00  0.00     0.026 H 
ENDBRANCH  24  30
ENDBRANCH  23  24
ENDBRANCH  17  23
ENDBRANCH  10  13
ENDBRANCH   7  10
ENDBRANCH   4   7
ENDBRANCH   1   4
BRANCH   1  34
ATOM     34  C   LIG d   1       6.499  -2.548  -4.905  0.00  0.00    -0.007 C 
ATOM     35  H   LIG d   1       5.688  -3.158  -4.509  0.00  0.00     0.035 H 
BRANCH  34  36
ATOM     36  C   LIG d   1       7.143  -1.753  -3.767  0.00  0.00    -0.021 C 
ATOM     37  H   LIG d   1       7.538  -2.443  -3.021  0.00  0.00     0.032 H 
ATOM     38  H   LIG d   1       7.955  -1.143  -4.164  0.00  0.00     0.032 H 
BRANCH  36  39
ATOM     39  C   LIG d   1       6.110  -0.861  -3.130  0.00  0.00    -0.047 A 
ATOM     40  C   LIG d   1       6.222   0.513  -3.236  0.00  0.00    -0.059 A 
ATOM     41  C   LIG d   1       5.274   1.331  -2.652  0.00  0.00    -0.061 A 
ATOM     42  H   LIG d   1       7.052   0.947  -3.775  0.00  0.00     0.062 H 
ATOM     43  C   LIG d   1       4.213   0.776  -1.961  0.00  0.00    -0.062 A 
ATOM     44  H   LIG d   1       5.362   2.404  -2.734  0.00  0.00     0.062 H 
ATOM     45  C   LIG d   1       4.101  -0.597  -1.855  0.00  0.00    -0.061 A 
ATOM     46  H   LIG d   1       3.472   1.415  -1.505  0.00  0.00     0.062 H 
ATOM     47  C   LIG d   1       5.046  -1.417  -2.444  0.00  0.00    -0.059 A 
ATOM     48  H   LIG d   1       3.271  -1.032  -1.316  0.00  0.00     0.062 H 
ATOM     49  H   LIG d   1       4.955  -2.490  -2.365  0.00  0.00     0.062 H 
ENDBRANCH  36  39
ENDBRANCH  34  36
BRANCH  34  50
ATOM     50  C   LIG d   1       5.953  -1.595  -5.937  0.00  0.00    -0.040 A 
ATOM     51  C   LIG d   1       6.820  -0.853  -6.717  0.00  0.00    -0.013 A 
ATOM     52  C   LIG d   1       6.321   0.023  -7.667  0.00  0.00     0.167 A 
ATOM     53  H   LIG d   1       7.887  -0.955  -6.585  0.00  0.00     0.066 H 
ATOM     54  C   LIG d   1       4.944   0.154  -7.834  0.00  0.00     0.166 A 
ATOM     55  O   LIG d   1       6.948   0.856  -8.548  0.00  0.00    -0.453 OA
ATOM     56  C   LIG d   1       4.081  -0.594  -7.049  0.00  0.00    -0.016 A 
ATOM     57  O   LIG d   1       4.709   1.068  -8.820  0.00  0.00    -0.453 OA
ATOM     58  C   LIG d   1       4.587  -1.469  -6.107  0.00  0.00    -0.055 A 
ATOM     59  H   LIG d   1       3.014  -0.494  -7.176  0.00  0.00     0.066 H 
ATOM     60  H   LIG d   1       3.912  -2.054  -5.499  0.00  0.00     0.062 H 
ATOM     61  C   LIG d   1       5.943   1.795  -8.972  0.00  0.00     0.233 C 
ATOM     62  H   LIG d   1       5.949   2.677  -8.331  0.00  0.00     0.117 H 
ATOM     63  H   LIG d   1       6.096   2.076 -10.014  0.00  0.00     0.117 H 
ENDBRANCH  34  50
ENDBRANCH   1  34
TORSDOF 12
ENDMDL
