MODEL 1
REMARK VINA RESULT:      -8.0      0.000      0.000
REMARK  3 active torsions:
REMARK  status: ('A' for Active; 'I' for Inactive)
REMARK    1  A    between atoms: C_3  and  C_11 
REMARK    2  A    between atoms: C_5  and  C_7 
REMARK       I    between atoms: N_25  and  C_27 
REMARK    3  A    between atoms: C_27  and  C_29 
ROOT
ATOM      1  C   LIG d   1       5.090  -1.602  -6.255  0.00  0.00     0.047 A 
ATOM      2  C   LIG d   1       4.100  -1.728  -7.217  0.00  0.00    -0.047 A 
ATOM      3  C   LIG d   1       4.475  -1.802  -8.559  0.00  0.00    -0.041 A 
ATOM      4  C   LIG d   1       5.787  -1.751  -8.920  0.00  0.00     0.027 A 
ATOM      5  N   LIG d   1       6.762  -1.711  -7.981  0.00  0.00    -0.311 N 
ATOM      6  C   LIG d   1       6.439  -1.576  -6.671  0.00  0.00     0.259 A 
ATOM      7  O   LIG d   1       7.323  -1.432  -5.843  0.00  0.00    -0.267 OA
ATOM      8  C   LIG d   1       8.184  -1.844  -8.298  0.00  0.00     0.031 C 
ATOM      9  C   LIG d   1       8.484  -1.544  -9.755  0.00  0.00    -0.006 C 
ATOM     10  H   LIG d   1       9.483  -1.918  -9.979  0.00  0.00     0.033 H 
ATOM     11  C   LIG d   1       7.491  -2.282 -10.654  0.00  0.00    -0.037 C 
ATOM     12  C   LIG d   1       6.094  -1.709 -10.399  0.00  0.00     0.016 C 
ATOM     13  H   LIG d   1       5.350  -2.270 -10.964  0.00  0.00     0.038 H 
ATOM     14  C   LIG d   1       6.088  -0.233 -10.836  0.00  0.00     0.023 C 
ATOM     15  N   LIG d   1       7.106   0.465 -10.035  0.00  0.00    -0.297 N 
ATOM     16  C   LIG d   1       8.480  -0.049 -10.044  0.00  0.00     0.019 C 
ATOM     17  C   LIG d   1       6.783   1.554  -9.310  0.00  0.00     0.247 C 
ATOM     18  O   LIG d   1       5.657   2.009  -9.365  0.00  0.00    -0.270 OA
ATOM     19  H   LIG d   1       3.057  -1.773  -6.933  0.00  0.00     0.063 H 
ATOM     20  H   LIG d   1       3.716  -1.896  -9.322  0.00  0.00     0.064 H 
ATOM     21  H   LIG d   1       8.752  -1.156  -7.672  0.00  0.00     0.050 H 
ATOM     22  H   LIG d   1       8.501  -2.862  -8.076  0.00  0.00     0.050 H 
ATOM     23  H   LIG d   1       7.762  -2.135 -11.699  0.00  0.00     0.028 H 
ATOM     24  H   LIG d   1       7.500  -3.345 -10.416  0.00  0.00     0.028 H 
ATOM     25  H   LIG d   1       6.334  -0.161 -11.895  0.00  0.00     0.047 H 
ATOM     26  H   LIG d   1       5.106   0.203 -10.653  0.00  0.00     0.047 H 
ATOM     27  H   LIG d   1       9.064   0.467  -9.283  0.00  0.00     0.047 H 
ATOM     28  H   LIG d   1       8.927   0.131 -11.022  0.00  0.00     0.047 H 
ENDROOT
BRANCH   1  29
ATOM     29  C   LIG d   1       4.739  -1.498  -4.820  0.00  0.00    -0.012 A 
ATOM     30  C   LIG d   1       4.412  -2.642  -4.094  0.00  0.00    -0.054 A 
ATOM     31  C   LIG d   1       4.087  -2.539  -2.756  0.00  0.00    -0.061 A 
ATOM     32  H   LIG d   1       4.412  -3.608  -4.577  0.00  0.00     0.062 H 
ATOM     33  C   LIG d   1       4.086  -1.302  -2.136  0.00  0.00    -0.050 A 
ATOM     34  H   LIG d   1       3.833  -3.424  -2.193  0.00  0.00     0.062 H 
ATOM     35  C   LIG d   1       4.411  -0.162  -2.851  0.00  0.00     0.055 A 
ATOM     36  H   LIG d   1       3.831  -1.226  -1.090  0.00  0.00     0.062 H 
ATOM     37  C   LIG d   1       4.742  -0.254  -4.187  0.00  0.00    -0.042 A 
ATOM     38  H   LIG d   1       5.000   0.635  -4.743  0.00  0.00     0.063 H 
BRANCH  35  39
ATOM     39  C   LIG d   1       4.408   1.181  -2.167  0.00  0.00     0.417 C 
ATOM     40  F   LIG d   1       3.115   1.714  -2.195  0.00  0.00    -0.166 F 
ATOM     41  F   LIG d   1       4.822   1.029  -0.841  0.00  0.00    -0.166 F 
ATOM     42  F   LIG d   1       5.284   2.045  -2.833  0.00  0.00    -0.166 F 
ENDBRANCH  35  39
ENDBRANCH   1  29
BRANCH  17  43
ATOM     43  C   LIG d   1       7.797   2.194  -8.447  0.00  0.00     0.037 A 
ATOM     44  C   LIG d   1       8.562   3.256  -8.933  0.00  0.00    -0.047 A 
ATOM     45  C   LIG d   1       9.507   3.850  -8.125  0.00  0.00    -0.026 A 
ATOM     46  H   LIG d   1       8.413   3.613  -9.943  0.00  0.00     0.063 H 
ATOM     47  C   LIG d   1       9.699   3.393  -6.830  0.00  0.00     0.123 A 
ATOM     48  H   LIG d   1      10.099   4.671  -8.501  0.00  0.00     0.065 H 
ATOM     49  C   LIG d   1       8.943   2.340  -6.341  0.00  0.00    -0.026 A 
ATOM     50  F   LIG d   1      10.628   3.979  -6.042  0.00  0.00    -0.205 F 
ATOM     51  C   LIG d   1       7.991   1.742  -7.140  0.00  0.00    -0.047 A 
ATOM     52  H   LIG d   1       9.096   1.988  -5.331  0.00  0.00     0.065 H 
ATOM     53  H   LIG d   1       7.399   0.924  -6.757  0.00  0.00     0.063 H 
ENDBRANCH  17  43
TORSDOF 3
ENDMDL
MODEL 2
REMARK VINA RESULT:      -7.5      3.052      4.607
REMARK  3 active torsions:
REMARK  status: ('A' for Active; 'I' for Inactive)
REMARK    1  A    between atoms: C_3  and  C_11 
REMARK    2  A    between atoms: C_5  and  C_7 
REMARK       I    between atoms: N_25  and  C_27 
REMARK    3  A    between atoms: C_27  and  C_29 
ROOT
ATOM      1  C   LIG d   1       3.932  -0.635  -6.910  0.00  0.00     0.047 A 
ATOM      2  C   LIG d   1       3.120   0.370  -7.411  0.00  0.00    -0.047 A 
ATOM      3  C   LIG d   1       2.380   0.118  -8.567  0.00  0.00    -0.041 A 
ATOM      4  C   LIG d   1       2.454  -1.089  -9.194  0.00  0.00     0.027 A 
ATOM      5  N   LIG d   1       3.182  -2.100  -8.664  0.00  0.00    -0.311 N 
ATOM      6  C   LIG d   1       3.962  -1.879  -7.578  0.00  0.00     0.259 A 
ATOM      7  O   LIG d   1       4.697  -2.764  -7.172  0.00  0.00    -0.267 OA
ATOM      8  C   LIG d   1       3.149  -3.467  -9.185  0.00  0.00     0.031 C 
ATOM      9  C   LIG d   1       2.636  -3.533 -10.612  0.00  0.00    -0.006 C 
ATOM     10  H   LIG d   1       2.385  -4.570 -10.833  0.00  0.00     0.033 H 
ATOM     11  C   LIG d   1       1.361  -2.699 -10.744  0.00  0.00    -0.037 C 
ATOM     12  C   LIG d   1       1.719  -1.230 -10.507  0.00  0.00     0.016 C 
ATOM     13  H   LIG d   1       0.817  -0.618 -10.513  0.00  0.00     0.038 H 
ATOM     14  C   LIG d   1       2.673  -0.777 -11.627  0.00  0.00     0.023 C 
ATOM     15  N   LIG d   1       3.867  -1.635 -11.560  0.00  0.00    -0.297 N 
ATOM     16  C   LIG d   1       3.688  -3.090 -11.619  0.00  0.00     0.019 C 
ATOM     17  C   LIG d   1       5.096  -1.095 -11.448  0.00  0.00     0.247 C 
ATOM     18  O   LIG d   1       5.235   0.112 -11.468  0.00  0.00    -0.270 OA
ATOM     19  H   LIG d   1       3.056   1.327  -6.914  0.00  0.00     0.063 H 
ATOM     20  H   LIG d   1       1.744   0.891  -8.973  0.00  0.00     0.064 H 
ATOM     21  H   LIG d   1       4.157  -3.880  -9.154  0.00  0.00     0.050 H 
ATOM     22  H   LIG d   1       2.503  -4.071  -8.550  0.00  0.00     0.050 H 
ATOM     23  H   LIG d   1       0.947  -2.818 -11.745  0.00  0.00     0.028 H 
ATOM     24  H   LIG d   1       0.631  -3.023 -10.003  0.00  0.00     0.028 H 
ATOM     25  H   LIG d   1       2.186  -0.891 -12.595  0.00  0.00     0.047 H 
ATOM     26  H   LIG d   1       2.954   0.265 -11.474  0.00  0.00     0.047 H 
ATOM     27  H   LIG d   1       4.635  -3.580 -11.392  0.00  0.00     0.047 H 
ATOM     28  H   LIG d   1       3.370  -3.374 -12.622  0.00  0.00     0.047 H 
ENDROOT
BRANCH   1  29
ATOM     29  C   LIG d   1       4.754  -0.408  -5.698  0.00  0.00    -0.012 A 
ATOM     30  C   LIG d   1       6.142  -0.334  -5.798  0.00  0.00    -0.054 A 
ATOM     31  C   LIG d   1       6.902  -0.121  -4.665  0.00  0.00    -0.061 A 
ATOM     32  H   LIG d   1       6.623  -0.442  -6.759  0.00  0.00     0.062 H 
ATOM     33  C   LIG d   1       6.289   0.018  -3.433  0.00  0.00    -0.050 A 
ATOM     34  H   LIG d   1       7.978  -0.064  -4.741  0.00  0.00     0.062 H 
ATOM     35  C   LIG d   1       4.910  -0.054  -3.328  0.00  0.00     0.055 A 
ATOM     36  H   LIG d   1       6.887   0.184  -2.551  0.00  0.00     0.062 H 
ATOM     37  C   LIG d   1       4.140  -0.262  -4.454  0.00  0.00    -0.042 A 
ATOM     38  H   LIG d   1       3.065  -0.313  -4.371  0.00  0.00     0.063 H 
BRANCH  35  39
ATOM     39  C   LIG d   1       4.250   0.100  -1.983  0.00  0.00     0.417 C 
ATOM     40  F   LIG d   1       2.881   0.332  -2.159  0.00  0.00    -0.166 F 
ATOM     41  F   LIG d   1       4.431  -1.070  -1.238  0.00  0.00    -0.166 F 
ATOM     42  F   LIG d   1       4.823   1.179  -1.302  0.00  0.00    -0.166 F 
ENDBRANCH  35  39
ENDBRANCH   1  29
BRANCH  17  43
ATOM     43  C   LIG d   1       6.276  -1.973 -11.299  0.00  0.00     0.037 A 
ATOM     44  C   LIG d   1       6.983  -2.393 -12.427  0.00  0.00    -0.047 A 
ATOM     45  C   LIG d   1       8.083  -3.212 -12.284  0.00  0.00    -0.026 A 
ATOM     46  H   LIG d   1       6.670  -2.078 -13.412  0.00  0.00     0.063 H 
ATOM     47  C   LIG d   1       8.487  -3.617 -11.020  0.00  0.00     0.123 A 
ATOM     48  H   LIG d   1       8.631  -3.537 -13.155  0.00  0.00     0.065 H 
ATOM     49  C   LIG d   1       7.789  -3.202  -9.897  0.00  0.00    -0.026 A 
ATOM     50  F   LIG d   1       9.566  -4.420 -10.885  0.00  0.00    -0.205 F 
ATOM     51  C   LIG d   1       6.691  -2.379 -10.029  0.00  0.00    -0.047 A 
ATOM     52  H   LIG d   1       8.108  -3.521  -8.915  0.00  0.00     0.065 H 
ATOM     53  H   LIG d   1       6.151  -2.054  -9.153  0.00  0.00     0.063 H 
ENDBRANCH  17  43
TORSDOF 3
ENDMDL
MODEL 3
REMARK VINA RESULT:      -7.5      3.134      5.532
REMARK  3 active torsions:
REMARK  status: ('A' for Active; 'I' for Inactive)
REMARK    1  A    between atoms: C_3  and  C_11 
REMARK    2  A    between atoms: C_5  and  C_7 
REMARK       I    between atoms: N_25  and  C_27 
REMARK    3  A    between atoms: C_27  and  C_29 
ROOT
ATOM      1  C   LIG d   1       6.861  -2.391  -5.569  0.00  0.00     0.047 A 
ATOM      2  C   LIG d   1       7.071  -3.642  -5.008  0.00  0.00    -0.047 A 
ATOM      3  C   LIG d   1       7.226  -4.739  -5.857  0.00  0.00    -0.041 A 
ATOM      4  C   LIG d   1       7.171  -4.587  -7.209  0.00  0.00     0.027 A 
ATOM      5  N   LIG d   1       7.047  -3.358  -7.764  0.00  0.00    -0.311 N 
ATOM      6  C   LIG d   1       6.833  -2.276  -6.976  0.00  0.00     0.259 A 
ATOM      7  O   LIG d   1       6.615  -1.190  -7.488  0.00  0.00    -0.267 OA
ATOM      8  C   LIG d   1       7.171  -3.113  -9.201  0.00  0.00     0.031 C 
ATOM      9  C   LIG d   1       6.962  -4.371 -10.024  0.00  0.00    -0.006 C 
ATOM     10  H   LIG d   1       7.329  -4.179 -11.032  0.00  0.00     0.033 H 
ATOM     11  C   LIG d   1       7.779  -5.521  -9.434  0.00  0.00    -0.037 C 
ATOM     12  C   LIG d   1       7.221  -5.845  -8.046  0.00  0.00     0.016 C 
ATOM     13  H   LIG d   1       7.834  -6.606  -7.563  0.00  0.00     0.038 H 
ATOM     14  C   LIG d   1       5.778  -6.354  -8.210  0.00  0.00     0.023 C 
ATOM     15  N   LIG d   1       5.006  -5.283  -8.859  0.00  0.00    -0.297 N 
ATOM     16  C   LIG d   1       5.490  -4.743 -10.135  0.00  0.00     0.019 C 
ATOM     17  C   LIG d   1       3.878  -4.808  -8.294  0.00  0.00     0.247 C 
ATOM     18  O   LIG d   1       3.452  -5.309  -7.273  0.00  0.00    -0.270 OA
ATOM     19  H   LIG d   1       7.119  -3.764  -3.935  0.00  0.00     0.063 H 
ATOM     20  H   LIG d   1       7.387  -5.721  -5.437  0.00  0.00     0.064 H 
ATOM     21  H   LIG d   1       6.430  -2.370  -9.497  0.00  0.00     0.050 H 
ATOM     22  H   LIG d   1       8.165  -2.719  -9.407  0.00  0.00     0.050 H 
ATOM     23  H   LIG d   1       7.696  -6.397 -10.076  0.00  0.00     0.028 H 
ATOM     24  H   LIG d   1       8.823  -5.223  -9.349  0.00  0.00     0.028 H 
ATOM     25  H   LIG d   1       5.770  -7.248  -8.834  0.00  0.00     0.047 H 
ATOM     26  H   LIG d   1       5.352  -6.581  -7.233  0.00  0.00     0.047 H 
ATOM     27  H   LIG d   1       4.912  -3.858 -10.396  0.00  0.00     0.047 H 
ATOM     28  H   LIG d   1       5.366  -5.495 -10.915  0.00  0.00     0.047 H 
ENDROOT
BRANCH   1  29
ATOM     29  C   LIG d   1       6.668  -1.201  -4.709  0.00  0.00    -0.012 A 
ATOM     30  C   LIG d   1       7.517  -0.103  -4.834  0.00  0.00    -0.054 A 
ATOM     31  C   LIG d   1       7.333   1.005  -4.030  0.00  0.00    -0.061 A 
ATOM     32  H   LIG d   1       8.319  -0.117  -5.558  0.00  0.00     0.062 H 
ATOM     33  C   LIG d   1       6.308   1.025  -3.102  0.00  0.00    -0.050 A 
ATOM     34  H   LIG d   1       7.991   1.856  -4.126  0.00  0.00     0.062 H 
ATOM     35  C   LIG d   1       5.460  -0.062  -2.974  0.00  0.00     0.055 A 
ATOM     36  H   LIG d   1       6.167   1.893  -2.475  0.00  0.00     0.062 H 
ATOM     37  C   LIG d   1       5.633  -1.172  -3.774  0.00  0.00    -0.042 A 
ATOM     38  H   LIG d   1       4.968  -2.018  -3.676  0.00  0.00     0.063 H 
BRANCH  35  39
ATOM     39  C   LIG d   1       4.345  -0.031  -1.960  0.00  0.00     0.417 C 
ATOM     40  F   LIG d   1       4.352  -1.220  -1.224  0.00  0.00    -0.166 F 
ATOM     41  F   LIG d   1       4.530   1.053  -1.097  0.00  0.00    -0.166 F 
ATOM     42  F   LIG d   1       3.119   0.102  -2.620  0.00  0.00    -0.166 F 
ENDBRANCH  35  39
ENDBRANCH   1  29
BRANCH  17  43
ATOM     43  C   LIG d   1       3.161  -3.676  -8.917  0.00  0.00     0.037 A 
ATOM     44  C   LIG d   1       3.441  -2.366  -8.521  0.00  0.00    -0.047 A 
ATOM     45  C   LIG d   1       2.770  -1.313  -9.104  0.00  0.00    -0.026 A 
ATOM     46  H   LIG d   1       4.183  -2.178  -7.759  0.00  0.00     0.063 H 
ATOM     47  C   LIG d   1       1.817  -1.553 -10.083  0.00  0.00     0.123 A 
ATOM     48  H   LIG d   1       2.986  -0.300  -8.799  0.00  0.00     0.065 H 
ATOM     49  C   LIG d   1       1.535  -2.851 -10.480  0.00  0.00    -0.026 A 
ATOM     50  F   LIG d   1       1.161  -0.518 -10.651  0.00  0.00    -0.205 F 
ATOM     51  C   LIG d   1       2.205  -3.911  -9.906  0.00  0.00    -0.047 A 
ATOM     52  H   LIG d   1       0.792  -3.033 -11.242  0.00  0.00     0.065 H 
ATOM     53  H   LIG d   1       1.988  -4.921 -10.219  0.00  0.00     0.063 H 
ENDBRANCH  17  43
TORSDOF 3
ENDMDL
MODEL 4
REMARK VINA RESULT:      -7.4      3.022      6.208
REMARK  3 active torsions:
REMARK  status: ('A' for Active; 'I' for Inactive)
REMARK    1  A    between atoms: C_3  and  C_11 
REMARK    2  A    between atoms: C_5  and  C_7 
REMARK       I    between atoms: N_25  and  C_27 
REMARK    3  A    between atoms: C_27  and  C_29 
ROOT
ATOM      1  C   LIG d   1       8.011   1.359  -5.063  0.00  0.00     0.047 A 
ATOM      2  C   LIG d   1       7.527   1.168  -3.778  0.00  0.00    -0.047 A 
ATOM      3  C   LIG d   1       6.834  -0.010  -3.492  0.00  0.00    -0.041 A 
ATOM      4  C   LIG d   1       6.636  -0.953  -4.454  0.00  0.00     0.027 A 
ATOM      5  N   LIG d   1       7.177  -0.809  -5.687  0.00  0.00    -0.311 N 
ATOM      6  C   LIG d   1       7.803   0.345  -6.023  0.00  0.00     0.259 A 
ATOM      7  O   LIG d   1       8.192   0.509  -7.168  0.00  0.00    -0.267 OA
ATOM      8  C   LIG d   1       7.158  -1.868  -6.697  0.00  0.00     0.031 C 
ATOM      9  C   LIG d   1       6.090  -2.911  -6.424  0.00  0.00    -0.006 C 
ATOM     10  H   LIG d   1       6.307  -3.785  -7.039  0.00  0.00     0.033 H 
ATOM     11  C   LIG d   1       6.143  -3.340  -4.957  0.00  0.00    -0.037 C 
ATOM     12  C   LIG d   1       5.767  -2.135  -4.090  0.00  0.00     0.016 C 
ATOM     13  H   LIG d   1       5.876  -2.385  -3.035  0.00  0.00     0.038 H 
ATOM     14  C   LIG d   1       4.308  -1.755  -4.397  0.00  0.00     0.023 C 
ATOM     15  N   LIG d   1       4.232  -1.426  -5.829  0.00  0.00    -0.297 N 
ATOM     16  C   LIG d   1       4.700  -2.419  -6.802  0.00  0.00     0.019 C 
ATOM     17  C   LIG d   1       3.742  -0.239  -6.237  0.00  0.00     0.247 C 
ATOM     18  O   LIG d   1       3.295   0.547  -5.425  0.00  0.00    -0.270 OA
ATOM     19  H   LIG d   1       7.686   1.913  -3.012  0.00  0.00     0.063 H 
ATOM     20  H   LIG d   1       6.446  -0.173  -2.497  0.00  0.00     0.064 H 
ATOM     21  H   LIG d   1       6.973  -1.421  -7.673  0.00  0.00     0.050 H 
ATOM     22  H   LIG d   1       8.132  -2.357  -6.713  0.00  0.00     0.050 H 
ATOM     23  H   LIG d   1       5.436  -4.150  -4.786  0.00  0.00     0.028 H 
ATOM     24  H   LIG d   1       7.151  -3.671  -4.708  0.00  0.00     0.028 H 
ATOM     25  H   LIG d   1       3.652  -2.596  -4.173  0.00  0.00     0.047 H 
ATOM     26  H   LIG d   1       4.018  -0.890  -3.800  0.00  0.00     0.047 H 
ATOM     27  H   LIG d   1       4.734  -1.966  -7.793  0.00  0.00     0.047 H 
ATOM     28  H   LIG d   1       4.010  -3.263  -6.818  0.00  0.00     0.047 H 
ENDROOT
BRANCH   1  29
ATOM     29  C   LIG d   1       8.733   2.602  -5.420  0.00  0.00    -0.012 A 
ATOM     30  C   LIG d   1       9.156   2.813  -6.732  0.00  0.00    -0.054 A 
ATOM     31  C   LIG d   1       9.827   3.974  -7.060  0.00  0.00    -0.061 A 
ATOM     32  H   LIG d   1       8.958   2.070  -7.491  0.00  0.00     0.062 H 
ATOM     33  C   LIG d   1      10.080   4.927  -6.089  0.00  0.00    -0.050 A 
ATOM     34  H   LIG d   1      10.155   4.139  -8.076  0.00  0.00     0.062 H 
ATOM     35  C   LIG d   1       9.663   4.723  -4.785  0.00  0.00     0.055 A 
ATOM     36  H   LIG d   1      10.606   5.833  -6.350  0.00  0.00     0.062 H 
ATOM     37  C   LIG d   1       8.987   3.568  -4.447  0.00  0.00    -0.042 A 
ATOM     38  H   LIG d   1       8.658   3.413  -3.431  0.00  0.00     0.063 H 
BRANCH  35  39
ATOM     39  C   LIG d   1       9.942   5.766  -3.734  0.00  0.00     0.417 C 
ATOM     40  F   LIG d   1       9.173   6.906  -3.993  0.00  0.00    -0.166 F 
ATOM     41  F   LIG d   1       9.613   5.258  -2.474  0.00  0.00    -0.166 F 
ATOM     42  F   LIG d   1      11.300   6.103  -3.761  0.00  0.00    -0.166 F 
ENDBRANCH  35  39
ENDBRANCH   1  29
BRANCH  17  43
ATOM     43  C   LIG d   1       3.750   0.108  -7.674  0.00  0.00     0.037 A 
ATOM     44  C   LIG d   1       2.620  -0.134  -8.459  0.00  0.00    -0.047 A 
ATOM     45  C   LIG d   1       2.632   0.191  -9.798  0.00  0.00    -0.026 A 
ATOM     46  H   LIG d   1       1.738  -0.575  -8.017  0.00  0.00     0.063 H 
ATOM     47  C   LIG d   1       3.763   0.757 -10.366  0.00  0.00     0.123 A 
ATOM     48  H   LIG d   1       1.759   0.004 -10.406  0.00  0.00     0.065 H 
ATOM     49  C   LIG d   1       4.887   1.000  -9.592  0.00  0.00    -0.026 A 
ATOM     50  F   LIG d   1       3.769   1.073 -11.680  0.00  0.00    -0.205 F 
ATOM     51  C   LIG d   1       4.884   0.684  -8.250  0.00  0.00    -0.047 A 
ATOM     52  H   LIG d   1       5.766   1.441 -10.039  0.00  0.00     0.065 H 
ATOM     53  H   LIG d   1       5.758   0.877  -7.647  0.00  0.00     0.063 H 
ENDBRANCH  17  43
TORSDOF 3
ENDMDL
MODEL 5
REMARK VINA RESULT:      -7.3      2.463      6.825
REMARK  3 active torsions:
REMARK  status: ('A' for Active; 'I' for Inactive)
REMARK    1  A    between atoms: C_3  and  C_11 
REMARK    2  A    between atoms: C_5  and  C_7 
REMARK       I    between atoms: N_25  and  C_27 
REMARK    3  A    between atoms: C_27  and  C_29 
ROOT
ATOM      1  C   LIG d   1       9.578   1.360  -5.225  0.00  0.00     0.047 A 
ATOM      2  C   LIG d   1      10.622   0.449  -5.209  0.00  0.00    -0.047 A 
ATOM      3  C   LIG d   1      10.418  -0.814  -5.767  0.00  0.00    -0.041 A 
ATOM      4  C   LIG d   1       9.218  -1.148  -6.316  0.00  0.00     0.027 A 
ATOM      5  N   LIG d   1       8.221  -0.236  -6.408  0.00  0.00    -0.311 N 
ATOM      6  C   LIG d   1       8.357   0.980  -5.825  0.00  0.00     0.259 A 
ATOM      7  O   LIG d   1       7.415   1.756  -5.818  0.00  0.00    -0.267 OA
ATOM      8  C   LIG d   1       6.984  -0.476  -7.152  0.00  0.00     0.031 C 
ATOM      9  C   LIG d   1       6.720  -1.953  -7.379  0.00  0.00    -0.006 C 
ATOM     10  H   LIG d   1       5.955  -2.045  -8.150  0.00  0.00     0.033 H 
ATOM     11  C   LIG d   1       7.990  -2.635  -7.888  0.00  0.00    -0.037 C 
ATOM     12  C   LIG d   1       9.046  -2.575  -6.781  0.00  0.00     0.016 C 
ATOM     13  H   LIG d   1       9.991  -2.980  -7.142  0.00  0.00     0.038 H 
ATOM     14  C   LIG d   1       8.540  -3.399  -5.584  0.00  0.00     0.023 C 
ATOM     15  N   LIG d   1       7.271  -2.799  -5.143  0.00  0.00    -0.297 N 
ATOM     16  C   LIG d   1       6.193  -2.639  -6.127  0.00  0.00     0.019 C 
ATOM     17  C   LIG d   1       7.102  -2.406  -3.866  0.00  0.00     0.247 C 
ATOM     18  O   LIG d   1       7.977  -2.606  -3.047  0.00  0.00    -0.270 OA
ATOM     19  H   LIG d   1      11.578   0.713  -4.778  0.00  0.00     0.063 H 
ATOM     20  H   LIG d   1      11.221  -1.537  -5.760  0.00  0.00     0.064 H 
ATOM     21  H   LIG d   1       6.149  -0.050  -6.594  0.00  0.00     0.050 H 
ATOM     22  H   LIG d   1       7.050   0.023  -8.118  0.00  0.00     0.050 H 
ATOM     23  H   LIG d   1       7.775  -3.675  -8.133  0.00  0.00     0.028 H 
ATOM     24  H   LIG d   1       8.356  -2.116  -8.773  0.00  0.00     0.028 H 
ATOM     25  H   LIG d   1       8.377  -4.433  -5.889  0.00  0.00     0.047 H 
ATOM     26  H   LIG d   1       9.270  -3.362  -4.774  0.00  0.00     0.047 H 
ATOM     27  H   LIG d   1       5.395  -2.036  -5.693  0.00  0.00     0.047 H 
ATOM     28  H   LIG d   1       5.797  -3.620  -6.391  0.00  0.00     0.047 H 
ENDROOT
BRANCH   1  29
ATOM     29  C   LIG d   1       9.739   2.705  -4.625  0.00  0.00    -0.012 A 
ATOM     30  C   LIG d   1       9.928   2.840  -3.251  0.00  0.00    -0.054 A 
ATOM     31  C   LIG d   1      10.079   4.095  -2.697  0.00  0.00    -0.061 A 
ATOM     32  H   LIG d   1       9.957   1.964  -2.620  0.00  0.00     0.062 H 
ATOM     33  C   LIG d   1      10.042   5.218  -3.503  0.00  0.00    -0.050 A 
ATOM     34  H   LIG d   1      10.225   4.201  -1.632  0.00  0.00     0.062 H 
ATOM     35  C   LIG d   1       9.856   5.091  -4.869  0.00  0.00     0.055 A 
ATOM     36  H   LIG d   1      10.160   6.198  -3.066  0.00  0.00     0.062 H 
ATOM     37  C   LIG d   1       9.708   3.841  -5.434  0.00  0.00    -0.042 A 
ATOM     38  H   LIG d   1       9.568   3.743  -6.500  0.00  0.00     0.063 H 
BRANCH  35  39
ATOM     39  C   LIG d   1       9.818   6.320  -5.741  0.00  0.00     0.417 C 
ATOM     40  F   LIG d   1       8.833   7.194  -5.271  0.00  0.00    -0.166 F 
ATOM     41  F   LIG d   1      11.063   6.956  -5.704  0.00  0.00    -0.166 F 
ATOM     42  F   LIG d   1       9.524   5.949  -7.057  0.00  0.00    -0.166 F 
ENDBRANCH  35  39
ENDBRANCH   1  29
BRANCH  17  43
ATOM     43  C   LIG d   1       5.852  -1.730  -3.461  0.00  0.00     0.037 A 
ATOM     44  C   LIG d   1       4.724  -2.483  -3.130  0.00  0.00    -0.047 A 
ATOM     45  C   LIG d   1       3.560  -1.849  -2.752  0.00  0.00    -0.026 A 
ATOM     46  H   LIG d   1       4.762  -3.562  -3.169  0.00  0.00     0.063 H 
ATOM     47  C   LIG d   1       3.508  -0.464  -2.701  0.00  0.00     0.123 A 
ATOM     48  H   LIG d   1       2.687  -2.431  -2.496  0.00  0.00     0.065 H 
ATOM     49  C   LIG d   1       4.625   0.289  -3.028  0.00  0.00    -0.026 A 
ATOM     50  F   LIG d   1       2.365   0.153  -2.332  0.00  0.00    -0.205 F 
ATOM     51  C   LIG d   1       5.796  -0.336  -3.402  0.00  0.00    -0.047 A 
ATOM     52  H   LIG d   1       4.580   1.367  -2.987  0.00  0.00     0.065 H 
ATOM     53  H   LIG d   1       6.666   0.251  -3.652  0.00  0.00     0.063 H 
ENDBRANCH  17  43
TORSDOF 3
ENDMDL
MODEL 6
REMARK VINA RESULT:      -7.3      1.711      6.373
REMARK  3 active torsions:
REMARK  status: ('A' for Active; 'I' for Inactive)
REMARK    1  A    between atoms: C_3  and  C_11 
REMARK    2  A    between atoms: C_5  and  C_7 
REMARK       I    between atoms: N_25  and  C_27 
REMARK    3  A    between atoms: C_27  and  C_29 
ROOT
ATOM      1  C   LIG d   1       8.266   0.433  -7.816  0.00  0.00     0.047 A 
ATOM      2  C   LIG d   1       9.136  -0.621  -8.046  0.00  0.00    -0.047 A 
ATOM      3  C   LIG d   1       8.643  -1.925  -7.969  0.00  0.00    -0.041 A 
ATOM      4  C   LIG d   1       7.335  -2.159  -7.674  0.00  0.00     0.027 A 
ATOM      5  N   LIG d   1       6.463  -1.133  -7.529  0.00  0.00    -0.311 N 
ATOM      6  C   LIG d   1       6.912   0.146  -7.535  0.00  0.00     0.259 A 
ATOM      7  O   LIG d   1       6.139   1.059  -7.295  0.00  0.00    -0.267 OA
ATOM      8  C   LIG d   1       5.018  -1.324  -7.398  0.00  0.00     0.031 C 
ATOM      9  C   LIG d   1       4.656  -2.731  -6.959  0.00  0.00    -0.006 C 
ATOM     10  H   LIG d   1       3.592  -2.878  -7.143  0.00  0.00     0.033 H 
ATOM     11  C   LIG d   1       5.427  -3.752  -7.795  0.00  0.00    -0.037 C 
ATOM     12  C   LIG d   1       6.919  -3.600  -7.486  0.00  0.00     0.016 C 
ATOM     13  H   LIG d   1       7.504  -4.258  -8.128  0.00  0.00     0.038 H 
ATOM     14  C   LIG d   1       7.146  -3.963  -6.008  0.00  0.00     0.023 C 
ATOM     15  N   LIG d   1       6.336  -3.039  -5.199  0.00  0.00    -0.297 N 
ATOM     16  C   LIG d   1       4.897  -2.946  -5.471  0.00  0.00     0.019 C 
ATOM     17  C   LIG d   1       6.904  -2.294  -4.229  0.00  0.00     0.247 C 
ATOM     18  O   LIG d   1       8.083  -2.431  -3.970  0.00  0.00    -0.270 OA
ATOM     19  H   LIG d   1      10.174  -0.438  -8.286  0.00  0.00     0.063 H 
ATOM     20  H   LIG d   1       9.308  -2.758  -8.143  0.00  0.00     0.064 H 
ATOM     21  H   LIG d   1       4.634  -0.615  -6.664  0.00  0.00     0.050 H 
ATOM     22  H   LIG d   1       4.548  -1.123  -8.360  0.00  0.00     0.050 H 
ATOM     23  H   LIG d   1       5.100  -4.759  -7.538  0.00  0.00     0.028 H 
ATOM     24  H   LIG d   1       5.252  -3.567  -8.855  0.00  0.00     0.028 H 
ATOM     25  H   LIG d   1       6.830  -4.991  -5.827  0.00  0.00     0.047 H 
ATOM     26  H   LIG d   1       8.201  -3.851  -5.757  0.00  0.00     0.047 H 
ATOM     27  H   LIG d   1       4.478  -2.109  -4.912  0.00  0.00     0.047 H 
ATOM     28  H   LIG d   1       4.410  -3.868  -5.156  0.00  0.00     0.047 H 
ENDROOT
BRANCH   1  29
ATOM     29  C   LIG d   1       8.747   1.833  -7.864  0.00  0.00    -0.012 A 
ATOM     30  C   LIG d   1       8.851   2.496  -9.086  0.00  0.00    -0.054 A 
ATOM     31  C   LIG d   1       9.299   3.801  -9.125  0.00  0.00    -0.061 A 
ATOM     32  H   LIG d   1       8.581   1.990 -10.002  0.00  0.00     0.062 H 
ATOM     33  C   LIG d   1       9.645   4.451  -7.954  0.00  0.00    -0.050 A 
ATOM     34  H   LIG d   1       9.380   4.315 -10.072  0.00  0.00     0.062 H 
ATOM     35  C   LIG d   1       9.543   3.799  -6.738  0.00  0.00     0.055 A 
ATOM     36  H   LIG d   1       9.995   5.472  -7.989  0.00  0.00     0.062 H 
ATOM     37  C   LIG d   1       9.092   2.496  -6.686  0.00  0.00    -0.042 A 
ATOM     38  H   LIG d   1       9.008   1.990  -5.736  0.00  0.00     0.063 H 
BRANCH  35  39
ATOM     39  C   LIG d   1       9.921   4.515  -5.466  0.00  0.00     0.417 C 
ATOM     40  F   LIG d   1      11.231   4.175  -5.112  0.00  0.00    -0.166 F 
ATOM     41  F   LIG d   1       9.835   5.896  -5.666  0.00  0.00    -0.166 F 
ATOM     42  F   LIG d   1       9.047   4.137  -4.441  0.00  0.00    -0.166 F 
ENDBRANCH  35  39
ENDBRANCH   1  29
BRANCH  17  43
ATOM     43  C   LIG d   1       6.092  -1.311  -3.483  0.00  0.00     0.037 A 
ATOM     44  C   LIG d   1       6.294   0.057  -3.678  0.00  0.00    -0.047 A 
ATOM     45  C   LIG d   1       5.535   0.971  -2.980  0.00  0.00    -0.026 A 
ATOM     46  H   LIG d   1       7.045   0.399  -4.376  0.00  0.00     0.063 H 
ATOM     47  C   LIG d   1       4.570   0.533  -2.085  0.00  0.00     0.123 A 
ATOM     48  H   LIG d   1       5.690   2.029  -3.130  0.00  0.00     0.065 H 
ATOM     49  C   LIG d   1       4.365  -0.824  -1.887  0.00  0.00    -0.026 A 
ATOM     50  F   LIG d   1       3.829   1.433  -1.402  0.00  0.00    -0.205 F 
ATOM     51  C   LIG d   1       5.116  -1.746  -2.585  0.00  0.00    -0.047 A 
ATOM     52  H   LIG d   1       3.612  -1.160  -1.189  0.00  0.00     0.065 H 
ATOM     53  H   LIG d   1       4.952  -2.802  -2.433  0.00  0.00     0.063 H 
ENDBRANCH  17  43
TORSDOF 3
ENDMDL
MODEL 7
REMARK VINA RESULT:      -7.2      5.139      7.409
REMARK  3 active torsions:
REMARK  status: ('A' for Active; 'I' for Inactive)
REMARK    1  A    between atoms: C_3  and  C_11 
REMARK    2  A    between atoms: C_5  and  C_7 
REMARK       I    between atoms: N_25  and  C_27 
REMARK    3  A    between atoms: C_27  and  C_29 
ROOT
ATOM      1  C   LIG d   1       6.211  -4.869  -5.406  0.00  0.00     0.047 A 
ATOM      2  C   LIG d   1       7.470  -4.444  -5.009  0.00  0.00    -0.047 A 
ATOM      3  C   LIG d   1       7.582  -3.239  -4.314  0.00  0.00    -0.041 A 
ATOM      4  C   LIG d   1       6.479  -2.492  -4.031  0.00  0.00     0.027 A 
ATOM      5  N   LIG d   1       5.240  -2.941  -4.344  0.00  0.00    -0.311 N 
ATOM      6  C   LIG d   1       5.092  -4.075  -5.072  0.00  0.00     0.259 A 
ATOM      7  O   LIG d   1       3.980  -4.414  -5.442  0.00  0.00    -0.267 OA
ATOM      8  C   LIG d   1       4.014  -2.277  -3.900  0.00  0.00     0.031 C 
ATOM      9  C   LIG d   1       4.248  -0.832  -3.500  0.00  0.00    -0.006 C 
ATOM     10  H   LIG d   1       3.378  -0.493  -2.937  0.00  0.00     0.033 H 
ATOM     11  C   LIG d   1       5.470  -0.738  -2.584  0.00  0.00    -0.037 C 
ATOM     12  C   LIG d   1       6.707  -1.143  -3.389  0.00  0.00     0.016 C 
ATOM     13  H   LIG d   1       7.584  -1.166  -2.743  0.00  0.00     0.038 H 
ATOM     14  C   LIG d   1       6.909  -0.117  -4.518  0.00  0.00     0.023 C 
ATOM     15  N   LIG d   1       5.697  -0.140  -5.354  0.00  0.00    -0.297 N 
ATOM     16  C   LIG d   1       4.397   0.080  -4.709  0.00  0.00     0.019 C 
ATOM     17  C   LIG d   1       5.781  -0.358  -6.681  0.00  0.00     0.247 C 
ATOM     18  O   LIG d   1       6.868  -0.470  -7.211  0.00  0.00    -0.270 OA
ATOM     19  H   LIG d   1       8.347  -5.037  -5.229  0.00  0.00     0.063 H 
ATOM     20  H   LIG d   1       8.556  -2.892  -4.000  0.00  0.00     0.064 H 
ATOM     21  H   LIG d   1       3.285  -2.305  -4.710  0.00  0.00     0.050 H 
ATOM     22  H   LIG d   1       3.610  -2.818  -3.046  0.00  0.00     0.050 H 
ATOM     23  H   LIG d   1       5.583   0.286  -2.228  0.00  0.00     0.028 H 
ATOM     24  H   LIG d   1       5.346  -1.411  -1.737  0.00  0.00     0.028 H 
ATOM     25  H   LIG d   1       7.048   0.877  -4.093  0.00  0.00     0.047 H 
ATOM     26  H   LIG d   1       7.778  -0.390  -5.116  0.00  0.00     0.047 H 
ATOM     27  H   LIG d   1       3.601  -0.132  -5.422  0.00  0.00     0.047 H 
ATOM     28  H   LIG d   1       4.324   1.119  -4.389  0.00  0.00     0.047 H 
ENDROOT
BRANCH   1  29
ATOM     29  C   LIG d   1       6.044  -6.129  -6.165  0.00  0.00    -0.012 A 
ATOM     30  C   LIG d   1       6.338  -6.170  -7.527  0.00  0.00    -0.054 A 
ATOM     31  C   LIG d   1       6.181  -7.348  -8.230  0.00  0.00    -0.061 A 
ATOM     32  H   LIG d   1       6.687  -5.282  -8.033  0.00  0.00     0.062 H 
ATOM     33  C   LIG d   1       5.733  -8.487  -7.585  0.00  0.00    -0.050 A 
ATOM     34  H   LIG d   1       6.408  -7.380  -9.285  0.00  0.00     0.062 H 
ATOM     35  C   LIG d   1       5.441  -8.453  -6.232  0.00  0.00     0.055 A 
ATOM     36  H   LIG d   1       5.612  -9.405  -8.138  0.00  0.00     0.062 H 
ATOM     37  C   LIG d   1       5.598  -7.282  -5.519  0.00  0.00    -0.042 A 
ATOM     38  H   LIG d   1       5.374  -7.259  -4.462  0.00  0.00     0.063 H 
BRANCH  35  39
ATOM     39  C   LIG d   1       4.955  -9.698  -5.536  0.00  0.00     0.417 C 
ATOM     40  F   LIG d   1       6.050 -10.412  -5.038  0.00  0.00    -0.166 F 
ATOM     41  F   LIG d   1       4.111  -9.342  -4.479  0.00  0.00    -0.166 F 
ATOM     42  F   LIG d   1       4.252 -10.496  -6.445  0.00  0.00    -0.166 F 
ENDBRANCH  35  39
ENDBRANCH   1  29
BRANCH  17  43
ATOM     43  C   LIG d   1       4.549  -0.460  -7.491  0.00  0.00     0.037 A 
ATOM     44  C   LIG d   1       4.074  -1.712  -7.889  0.00  0.00    -0.047 A 
ATOM     45  C   LIG d   1       2.925  -1.803  -8.644  0.00  0.00    -0.026 A 
ATOM     46  H   LIG d   1       4.607  -2.608  -7.605  0.00  0.00     0.063 H 
ATOM     47  C   LIG d   1       2.240  -0.653  -9.009  0.00  0.00     0.123 A 
ATOM     48  H   LIG d   1       2.557  -2.770  -8.952  0.00  0.00     0.065 H 
ATOM     49  C   LIG d   1       2.706   0.592  -8.616  0.00  0.00    -0.026 A 
ATOM     50  F   LIG d   1       1.115  -0.748  -9.750  0.00  0.00    -0.205 F 
ATOM     51  C   LIG d   1       3.852   0.693  -7.855  0.00  0.00    -0.047 A 
ATOM     52  H   LIG d   1       2.170   1.484  -8.902  0.00  0.00     0.065 H 
ATOM     53  H   LIG d   1       4.212   1.663  -7.547  0.00  0.00     0.063 H 
ENDBRANCH  17  43
TORSDOF 3
ENDMDL
MODEL 8
REMARK VINA RESULT:      -6.9      2.154      6.480
REMARK  3 active torsions:
REMARK  status: ('A' for Active; 'I' for Inactive)
REMARK    1  A    between atoms: C_3  and  C_11 
REMARK    2  A    between atoms: C_5  and  C_7 
REMARK       I    between atoms: N_25  and  C_27 
REMARK    3  A    between atoms: C_27  and  C_29 
ROOT
ATOM      1  C   LIG d   1       9.255   0.117  -7.087  0.00  0.00     0.047 A 
ATOM      2  C   LIG d   1       9.709  -1.115  -7.531  0.00  0.00    -0.047 A 
ATOM      3  C   LIG d   1       8.770  -2.085  -7.888  0.00  0.00    -0.041 A 
ATOM      4  C   LIG d   1       7.436  -1.829  -7.801  0.00  0.00     0.027 A 
ATOM      5  N   LIG d   1       6.988  -0.601  -7.447  0.00  0.00    -0.311 N 
ATOM      6  C   LIG d   1       7.863   0.349  -7.034  0.00  0.00     0.259 A 
ATOM      7  O   LIG d   1       7.444   1.414  -6.613  0.00  0.00    -0.267 OA
ATOM      8  C   LIG d   1       5.579  -0.212  -7.518  0.00  0.00     0.031 C 
ATOM      9  C   LIG d   1       4.647  -1.410  -7.548  0.00  0.00    -0.006 C 
ATOM     10  H   LIG d   1       3.664  -1.065  -7.869  0.00  0.00     0.033 H 
ATOM     11  C   LIG d   1       5.147  -2.432  -8.569  0.00  0.00    -0.037 C 
ATOM     12  C   LIG d   1       6.494  -2.976  -8.086  0.00  0.00     0.016 C 
ATOM     13  H   LIG d   1       6.917  -3.647  -8.833  0.00  0.00     0.038 H 
ATOM     14  C   LIG d   1       6.266  -3.732  -6.764  0.00  0.00     0.023 C 
ATOM     15  N   LIG d   1       5.702  -2.772  -5.802  0.00  0.00    -0.297 N 
ATOM     16  C   LIG d   1       4.484  -2.042  -6.173  0.00  0.00     0.019 C 
ATOM     17  C   LIG d   1       6.290  -2.569  -4.607  0.00  0.00     0.247 C 
ATOM     18  O   LIG d   1       7.258  -3.230  -4.286  0.00  0.00    -0.270 OA
ATOM     19  H   LIG d   1      10.767  -1.320  -7.604  0.00  0.00     0.063 H 
ATOM     20  H   LIG d   1       9.106  -3.052  -8.232  0.00  0.00     0.064 H 
ATOM     21  H   LIG d   1       5.338   0.401  -6.650  0.00  0.00     0.050 H 
ATOM     22  H   LIG d   1       5.422   0.379  -8.419  0.00  0.00     0.050 H 
ATOM     23  H   LIG d   1       4.430  -3.249  -8.651  0.00  0.00     0.028 H 
ATOM     24  H   LIG d   1       5.272  -1.952  -9.539  0.00  0.00     0.028 H 
ATOM     25  H   LIG d   1       5.567  -4.553  -6.924  0.00  0.00     0.047 H 
ATOM     26  H   LIG d   1       7.214  -4.119  -6.391  0.00  0.00     0.047 H 
ATOM     27  H   LIG d   1       4.293  -1.261  -5.436  0.00  0.00     0.047 H 
ATOM     28  H   LIG d   1       3.640  -2.732  -6.190  0.00  0.00     0.047 H 
ENDROOT
BRANCH   1  29
ATOM     29  C   LIG d   1      10.212   1.170  -6.675  0.00  0.00    -0.012 A 
ATOM     30  C   LIG d   1      10.676   2.098  -7.607  0.00  0.00    -0.054 A 
ATOM     31  C   LIG d   1      11.567   3.078  -7.218  0.00  0.00    -0.061 A 
ATOM     32  H   LIG d   1      10.338   2.050  -8.632  0.00  0.00     0.062 H 
ATOM     33  C   LIG d   1      12.000   3.140  -5.906  0.00  0.00    -0.050 A 
ATOM     34  H   LIG d   1      11.927   3.796  -7.939  0.00  0.00     0.062 H 
ATOM     35  C   LIG d   1      11.543   2.223  -4.976  0.00  0.00     0.055 A 
ATOM     36  H   LIG d   1      12.698   3.907  -5.606  0.00  0.00     0.062 H 
ATOM     37  C   LIG d   1      10.649   1.242  -5.352  0.00  0.00    -0.042 A 
ATOM     38  H   LIG d   1      10.290   0.530  -4.624  0.00  0.00     0.063 H 
BRANCH  35  39
ATOM     39  C   LIG d   1      12.020   2.298  -3.548  0.00  0.00     0.417 C 
ATOM     40  F   LIG d   1      12.826   3.430  -3.385  0.00  0.00    -0.166 F 
ATOM     41  F   LIG d   1      10.917   2.384  -2.693  0.00  0.00    -0.166 F 
ATOM     42  F   LIG d   1      12.758   1.151  -3.242  0.00  0.00    -0.166 F 
ENDBRANCH  35  39
ENDBRANCH   1  29
BRANCH  17  43
ATOM     43  C   LIG d   1       5.758  -1.543  -3.687  0.00  0.00     0.037 A 
ATOM     44  C   LIG d   1       4.762  -1.875  -2.766  0.00  0.00    -0.047 A 
ATOM     45  C   LIG d   1       4.269  -0.915  -1.910  0.00  0.00    -0.026 A 
ATOM     46  H   LIG d   1       4.379  -2.885  -2.724  0.00  0.00     0.063 H 
ATOM     47  C   LIG d   1       4.759   0.381  -1.963  0.00  0.00     0.123 A 
ATOM     48  H   LIG d   1       3.499  -1.171  -1.197  0.00  0.00     0.065 H 
ATOM     49  C   LIG d   1       5.748   0.717  -2.874  0.00  0.00    -0.026 A 
ATOM     50  F   LIG d   1       4.272   1.320  -1.122  0.00  0.00    -0.205 F 
ATOM     51  C   LIG d   1       6.252  -0.238  -3.732  0.00  0.00    -0.047 A 
ATOM     52  H   LIG d   1       6.127   1.728  -2.912  0.00  0.00     0.065 H 
ATOM     53  H   LIG d   1       7.025   0.024  -4.439  0.00  0.00     0.063 H 
ENDBRANCH  17  43
TORSDOF 3
ENDMDL
MODEL 9
REMARK VINA RESULT:      -6.8      3.021      4.190
REMARK  3 active torsions:
REMARK  status: ('A' for Active; 'I' for Inactive)
REMARK    1  A    between atoms: C_3  and  C_11 
REMARK    2  A    between atoms: C_5  and  C_7 
REMARK       I    between atoms: N_25  and  C_27 
REMARK    3  A    between atoms: C_27  and  C_29 
ROOT
ATOM      1  C   LIG d   1       5.747  -2.964  -4.317  0.00  0.00     0.047 A 
ATOM      2  C   LIG d   1       5.192  -4.064  -4.952  0.00  0.00    -0.047 A 
ATOM      3  C   LIG d   1       6.046  -5.035  -5.476  0.00  0.00    -0.041 A 
ATOM      4  C   LIG d   1       7.398  -4.907  -5.369  0.00  0.00     0.027 A 
ATOM      5  N   LIG d   1       7.943  -3.878  -4.679  0.00  0.00    -0.311 N 
ATOM      6  C   LIG d   1       7.153  -2.882  -4.208  0.00  0.00     0.259 A 
ATOM      7  O   LIG d   1       7.662  -1.904  -3.683  0.00  0.00    -0.267 OA
ATOM      8  C   LIG d   1       9.370  -3.789  -4.371  0.00  0.00     0.031 C 
ATOM      9  C   LIG d   1      10.216  -4.660  -5.281  0.00  0.00    -0.006 C 
ATOM     10  H   LIG d   1      11.205  -4.756  -4.833  0.00  0.00     0.033 H 
ATOM     11  C   LIG d   1       9.604  -6.057  -5.380  0.00  0.00    -0.037 C 
ATOM     12  C   LIG d   1       8.246  -5.940  -6.076  0.00  0.00     0.016 C 
ATOM     13  H   LIG d   1       7.746  -6.908  -6.088  0.00  0.00     0.038 H 
ATOM     14  C   LIG d   1       8.479  -5.446  -7.515  0.00  0.00     0.023 C 
ATOM     15  N   LIG d   1       9.149  -4.139  -7.427  0.00  0.00    -0.297 N 
ATOM     16  C   LIG d   1      10.397  -4.040  -6.660  0.00  0.00     0.019 C 
ATOM     17  C   LIG d   1       8.629  -3.056  -8.038  0.00  0.00     0.247 C 
ATOM     18  O   LIG d   1       7.633  -3.166  -8.726  0.00  0.00    -0.270 OA
ATOM     19  H   LIG d   1       4.120  -4.170  -5.034  0.00  0.00     0.063 H 
ATOM     20  H   LIG d   1       5.631  -5.897  -5.977  0.00  0.00     0.064 H 
ATOM     21  H   LIG d   1       9.690  -2.752  -4.477  0.00  0.00     0.050 H 
ATOM     22  H   LIG d   1       9.528  -4.100  -3.339  0.00  0.00     0.050 H 
ATOM     23  H   LIG d   1      10.259  -6.705  -5.962  0.00  0.00     0.028 H 
ATOM     24  H   LIG d   1       9.470  -6.471  -4.381  0.00  0.00     0.028 H 
ATOM     25  H   LIG d   1       9.113  -6.154  -8.050  0.00  0.00     0.047 H 
ATOM     26  H   LIG d   1       7.525  -5.341  -8.030  0.00  0.00     0.047 H 
ATOM     27  H   LIG d   1      10.672  -2.992  -6.552  0.00  0.00     0.047 H 
ATOM     28  H   LIG d   1      11.190  -4.566  -7.191  0.00  0.00     0.047 H 
ENDROOT
BRANCH   1  29
ATOM     29  C   LIG d   1       4.883  -1.895  -3.764  0.00  0.00    -0.012 A 
ATOM     30  C   LIG d   1       4.916  -1.603  -2.401  0.00  0.00    -0.054 A 
ATOM     31  C   LIG d   1       4.109  -0.606  -1.892  0.00  0.00    -0.061 A 
ATOM     32  H   LIG d   1       5.572  -2.156  -1.745  0.00  0.00     0.062 H 
ATOM     33  C   LIG d   1       3.269   0.103  -2.731  0.00  0.00    -0.050 A 
ATOM     34  H   LIG d   1       4.133  -0.379  -0.836  0.00  0.00     0.062 H 
ATOM     35  C   LIG d   1       3.232  -0.181  -4.085  0.00  0.00     0.055 A 
ATOM     36  H   LIG d   1       2.639   0.882  -2.328  0.00  0.00     0.062 H 
ATOM     37  C   LIG d   1       4.037  -1.173  -4.606  0.00  0.00    -0.042 A 
ATOM     38  H   LIG d   1       4.011  -1.391  -5.664  0.00  0.00     0.063 H 
BRANCH  35  39
ATOM     39  C   LIG d   1       2.314   0.597  -4.993  0.00  0.00     0.417 C 
ATOM     40  F   LIG d   1       2.735   0.448  -6.319  0.00  0.00    -0.166 F 
ATOM     41  F   LIG d   1       1.009   0.113  -4.861  0.00  0.00    -0.166 F 
ATOM     42  F   LIG d   1       2.348   1.950  -4.641  0.00  0.00    -0.166 F 
ENDBRANCH  35  39
ENDBRANCH   1  29
BRANCH  17  43
ATOM     43  C   LIG d   1       9.269  -1.735  -7.871  0.00  0.00     0.037 A 
ATOM     44  C   LIG d   1      10.233  -1.303  -8.785  0.00  0.00    -0.047 A 
ATOM     45  C   LIG d   1      10.828  -0.071  -8.625  0.00  0.00    -0.026 A 
ATOM     46  H   LIG d   1      10.512  -1.934  -9.617  0.00  0.00     0.063 H 
ATOM     47  C   LIG d   1      10.471   0.741  -7.558  0.00  0.00     0.123 A 
ATOM     48  H   LIG d   1      11.573   0.265  -9.331  0.00  0.00     0.065 H 
ATOM     49  C   LIG d   1       9.515   0.317  -6.648  0.00  0.00    -0.026 A 
ATOM     50  F   LIG d   1      11.058   1.948  -7.406  0.00  0.00    -0.205 F 
ATOM     51  C   LIG d   1       8.910  -0.912  -6.802  0.00  0.00    -0.047 A 
ATOM     52  H   LIG d   1       9.240   0.952  -5.819  0.00  0.00     0.065 H 
ATOM     53  H   LIG d   1       8.162  -1.240  -6.095  0.00  0.00     0.063 H 
ENDBRANCH  17  43
TORSDOF 3
ENDMDL
