MODEL 1
REMARK VINA RESULT:      -5.7      0.000      0.000
REMARK  6 active torsions:
REMARK  status: ('A' for Active; 'I' for Inactive)
REMARK    1  A    between atoms: C_1  and  C_2 
REMARK    2  A    between atoms: C_2  and  C_3 
REMARK    3  A    between atoms: C_3  and  O_5 
REMARK    4  A    between atoms: O_5  and  C_6 
REMARK    5  A    between atoms: C_10  and  C_18 
REMARK    6  A    between atoms: C_11  and  C_17 
ROOT
ATOM      1  C   LIG d   1       3.053   0.168  -8.027  0.00  0.00     0.135 A 
ATOM      2  C   LIG d   1       3.752  -1.037  -8.056  0.00  0.00    -0.018 A 
ATOM      3  C   LIG d   1       4.177  -1.618  -6.896  0.00  0.00    -0.047 A 
ATOM      4  C   LIG d   1       3.912  -0.997  -5.670  0.00  0.00     0.021 A 
ATOM      5  C   LIG d   1       4.357  -1.596  -4.410  0.00  0.00    -0.030 A 
ATOM      6  C   LIG d   1       4.068  -0.945  -3.252  0.00  0.00     0.037 A 
ATOM      7  C   LIG d   1       3.353   0.270  -3.291  0.00  0.00     0.340 A 
ATOM      8  O   LIG d   1       3.098   0.841  -2.246  0.00  0.00    -0.245 OA
ATOM      9  O   LIG d   1       2.953   0.816  -4.450  0.00  0.00    -0.422 OA
ATOM     10  C   LIG d   1       3.208   0.221  -5.635  0.00  0.00     0.143 A 
ATOM     11  C   LIG d   1       2.783   0.796  -6.824  0.00  0.00     0.024 A 
ATOM     12  H   LIG d   1       3.957  -1.517  -9.001  0.00  0.00     0.065 H 
ATOM     13  H   LIG d   1       4.717  -2.553  -6.924  0.00  0.00     0.063 H 
ATOM     14  H   LIG d   1       2.240   1.730  -6.809  0.00  0.00     0.069 H 
ENDROOT
BRANCH   1  15
ATOM     15  O   LIG d   1       2.636   0.731  -9.190  0.00  0.00    -0.426 OA
BRANCH  15  16
ATOM     16  C   LIG d   1       3.561   1.370  -9.925  0.00  0.00     0.312 C 
ATOM     17  O   LIG d   1       3.786   1.012 -11.057  0.00  0.00    -0.250 OA
BRANCH  16  18
ATOM     18  C   LIG d   1       4.317   2.533  -9.338  0.00  0.00     0.043 C 
ATOM     19  H   LIG d   1       4.296   3.370 -10.035  0.00  0.00     0.037 H 
ATOM     20  H   LIG d   1       3.852   2.831  -8.398  0.00  0.00     0.037 H 
BRANCH  18  21
ATOM     21  C   LIG d   1       5.769   2.120  -9.080  0.00  0.00    -0.055 C 
ATOM     22  H   LIG d   1       5.809   1.450  -8.221  0.00  0.00     0.024 H 
ATOM     23  H   LIG d   1       6.161   1.608  -9.958  0.00  0.00     0.024 H 
ATOM     24  H   LIG d   1       6.368   3.007  -8.878  0.00  0.00     0.024 H 
ENDBRANCH  18  21
ENDBRANCH  16  18
ENDBRANCH  15  16
ENDBRANCH   1  15
BRANCH   5  25
ATOM     25  C   LIG d   1       5.114  -2.899  -4.396  0.00  0.00    -0.039 C 
ATOM     26  H   LIG d   1       5.790  -2.935  -5.250  0.00  0.00     0.028 H 
ATOM     27  H   LIG d   1       5.689  -2.976  -3.473  0.00  0.00     0.028 H 
ATOM     28  H   LIG d   1       4.410  -3.729  -4.456  0.00  0.00     0.028 H 
ENDBRANCH   5  25
BRANCH   6  29
ATOM     29  C   LIG d   1       4.505  -1.523  -1.932  0.00  0.00    -0.033 C 
ATOM     30  H   LIG d   1       3.878  -2.379  -1.683  0.00  0.00     0.028 H 
ATOM     31  H   LIG d   1       4.410  -0.765  -1.154  0.00  0.00     0.028 H 
ATOM     32  H   LIG d   1       5.545  -1.841  -2.001  0.00  0.00     0.028 H 
ENDBRANCH   6  29
TORSDOF 6
ENDMDL
MODEL 2
REMARK VINA RESULT:      -5.5      1.921      6.262
REMARK  6 active torsions:
REMARK  status: ('A' for Active; 'I' for Inactive)
REMARK    1  A    between atoms: C_1  and  C_2 
REMARK    2  A    between atoms: C_2  and  C_3 
REMARK    3  A    between atoms: C_3  and  O_5 
REMARK    4  A    between atoms: O_5  and  C_6 
REMARK    5  A    between atoms: C_10  and  C_18 
REMARK    6  A    between atoms: C_11  and  C_17 
ROOT
ATOM      1  C   LIG d   1       4.053  -1.248  -4.996  0.00  0.00     0.135 A 
ATOM      2  C   LIG d   1       3.220  -0.132  -5.057  0.00  0.00    -0.018 A 
ATOM      3  C   LIG d   1       3.034   0.529  -6.237  0.00  0.00    -0.047 A 
ATOM      4  C   LIG d   1       3.686   0.084  -7.393  0.00  0.00     0.021 A 
ATOM      5  C   LIG d   1       3.507   0.773  -8.672  0.00  0.00    -0.030 A 
ATOM      6  C   LIG d   1       4.168   0.292  -9.758  0.00  0.00     0.037 A 
ATOM      7  C   LIG d   1       4.993  -0.844  -9.631  0.00  0.00     0.340 A 
ATOM      8  O   LIG d   1       5.576  -1.267 -10.613  0.00  0.00    -0.245 OA
ATOM      9  O   LIG d   1       5.156  -1.468  -8.454  0.00  0.00    -0.422 OA
ATOM     10  C   LIG d   1       4.530  -1.042  -7.337  0.00  0.00     0.143 A 
ATOM     11  C   LIG d   1       4.706  -1.701  -6.129  0.00  0.00     0.024 A 
ATOM     12  H   LIG d   1       2.716   0.212  -4.166  0.00  0.00     0.065 H 
ATOM     13  H   LIG d   1       2.387   1.392  -6.279  0.00  0.00     0.063 H 
ATOM     14  H   LIG d   1       5.350  -2.567  -6.074  0.00  0.00     0.069 H 
ENDROOT
BRANCH   1  15
ATOM     15  O   LIG d   1       4.225  -1.894  -3.814  0.00  0.00    -0.426 OA
BRANCH  15  16
ATOM     16  C   LIG d   1       5.024  -1.307  -2.908  0.00  0.00     0.312 C 
ATOM     17  O   LIG d   1       6.219  -1.279  -3.084  0.00  0.00    -0.250 OA
BRANCH  16  18
ATOM     18  C   LIG d   1       4.429  -0.681  -1.673  0.00  0.00     0.043 C 
ATOM     19  H   LIG d   1       3.371  -0.936  -1.609  0.00  0.00     0.037 H 
ATOM     20  H   LIG d   1       4.947  -1.055  -0.791  0.00  0.00     0.037 H 
BRANCH  18  21
ATOM     21  C   LIG d   1       4.584   0.841  -1.748  0.00  0.00    -0.055 C 
ATOM     22  H   LIG d   1       5.453   1.088  -2.358  0.00  0.00     0.024 H 
ATOM     23  H   LIG d   1       3.690   1.274  -2.196  0.00  0.00     0.024 H 
ATOM     24  H   LIG d   1       4.718   1.241  -0.743  0.00  0.00     0.024 H 
ENDBRANCH  18  21
ENDBRANCH  16  18
ENDBRANCH  15  16
ENDBRANCH   1  15
BRANCH   5  25
ATOM     25  C   LIG d   1       2.614   1.982  -8.782  0.00  0.00    -0.039 C 
ATOM     26  H   LIG d   1       2.547   2.291  -9.825  0.00  0.00     0.028 H 
ATOM     27  H   LIG d   1       1.619   1.734  -8.412  0.00  0.00     0.028 H 
ATOM     28  H   LIG d   1       3.030   2.796  -8.188  0.00  0.00     0.028 H 
ENDBRANCH   5  25
BRANCH   6  29
ATOM     29  C   LIG d   1       4.014   0.968 -11.096  0.00  0.00    -0.033 C 
ATOM     30  H   LIG d   1       3.492   1.917 -10.966  0.00  0.00     0.028 H 
ATOM     31  H   LIG d   1       3.440   0.326 -11.764  0.00  0.00     0.028 H 
ATOM     32  H   LIG d   1       4.999   1.151 -11.526  0.00  0.00     0.028 H 
ENDBRANCH   6  29
TORSDOF 6
ENDMDL
MODEL 3
REMARK VINA RESULT:      -5.5      4.030      5.894
REMARK  6 active torsions:
REMARK  status: ('A' for Active; 'I' for Inactive)
REMARK    1  A    between atoms: C_1  and  C_2 
REMARK    2  A    between atoms: C_2  and  C_3 
REMARK    3  A    between atoms: C_3  and  O_5 
REMARK    4  A    between atoms: O_5  and  C_6 
REMARK    5  A    between atoms: C_10  and  C_18 
REMARK    6  A    between atoms: C_11  and  C_17 
ROOT
ATOM      1  C   LIG d   1       5.737  -1.322  -3.034  0.00  0.00     0.135 A 
ATOM      2  C   LIG d   1       7.083  -1.584  -3.282  0.00  0.00    -0.018 A 
ATOM      3  C   LIG d   1       7.448  -2.636  -4.072  0.00  0.00    -0.047 A 
ATOM      4  C   LIG d   1       6.465  -3.457  -4.634  0.00  0.00     0.021 A 
ATOM      5  C   LIG d   1       6.827  -4.594  -5.485  0.00  0.00    -0.030 A 
ATOM      6  C   LIG d   1       5.825  -5.353  -6.001  0.00  0.00     0.037 A 
ATOM      7  C   LIG d   1       4.482  -5.032  -5.715  0.00  0.00     0.340 A 
ATOM      8  O   LIG d   1       3.595  -5.719  -6.188  0.00  0.00    -0.245 OA
ATOM      9  O   LIG d   1       4.158  -3.992  -4.931  0.00  0.00    -0.422 OA
ATOM     10  C   LIG d   1       5.103  -3.198  -4.386  0.00  0.00     0.143 A 
ATOM     11  C   LIG d   1       4.751  -2.124  -3.582  0.00  0.00     0.024 A 
ATOM     12  H   LIG d   1       7.843  -0.951  -2.849  0.00  0.00     0.065 H 
ATOM     13  H   LIG d   1       8.493  -2.834  -4.262  0.00  0.00     0.063 H 
ATOM     14  H   LIG d   1       3.710  -1.915  -3.385  0.00  0.00     0.069 H 
ENDROOT
BRANCH   1  15
ATOM     15  O   LIG d   1       5.391  -0.270  -2.247  0.00  0.00    -0.426 OA
BRANCH  15  16
ATOM     16  C   LIG d   1       5.035   0.866  -2.868  0.00  0.00     0.312 C 
ATOM     17  O   LIG d   1       5.863   1.513  -3.465  0.00  0.00    -0.250 OA
BRANCH  16  18
ATOM     18  C   LIG d   1       3.603   1.332  -2.821  0.00  0.00     0.043 C 
ATOM     19  H   LIG d   1       3.106   0.894  -1.956  0.00  0.00     0.037 H 
ATOM     20  H   LIG d   1       3.578   2.419  -2.744  0.00  0.00     0.037 H 
BRANCH  18  21
ATOM     21  C   LIG d   1       2.883   0.896  -4.100  0.00  0.00    -0.055 C 
ATOM     22  H   LIG d   1       3.343  -0.014  -4.484  0.00  0.00     0.024 H 
ATOM     23  H   LIG d   1       1.834   0.707  -3.878  0.00  0.00     0.024 H 
ATOM     24  H   LIG d   1       2.960   1.686  -4.848  0.00  0.00     0.024 H 
ENDBRANCH  18  21
ENDBRANCH  16  18
ENDBRANCH  15  16
ENDBRANCH   1  15
BRANCH   5  25
ATOM     25  C   LIG d   1       8.270  -4.911  -5.779  0.00  0.00    -0.039 C 
ATOM     26  H   LIG d   1       8.879  -4.022  -5.614  0.00  0.00     0.028 H 
ATOM     27  H   LIG d   1       8.609  -5.710  -5.120  0.00  0.00     0.028 H 
ATOM     28  H   LIG d   1       8.367  -5.231  -6.817  0.00  0.00     0.028 H 
ENDBRANCH   5  25
BRANCH   6  29
ATOM     29  C   LIG d   1       6.149  -6.532  -6.881  0.00  0.00    -0.033 C 
ATOM     30  H   LIG d   1       7.172  -6.443  -7.247  0.00  0.00     0.028 H 
ATOM     31  H   LIG d   1       5.462  -6.554  -7.727  0.00  0.00     0.028 H 
ATOM     32  H   LIG d   1       6.047  -7.453  -6.307  0.00  0.00     0.028 H 
ENDBRANCH   6  29
TORSDOF 6
ENDMDL
MODEL 4
REMARK VINA RESULT:      -5.5      4.859      5.864
REMARK  6 active torsions:
REMARK  status: ('A' for Active; 'I' for Inactive)
REMARK    1  A    between atoms: C_1  and  C_2 
REMARK    2  A    between atoms: C_2  and  C_3 
REMARK    3  A    between atoms: C_3  and  O_5 
REMARK    4  A    between atoms: O_5  and  C_6 
REMARK    5  A    between atoms: C_10  and  C_18 
REMARK    6  A    between atoms: C_11  and  C_17 
ROOT
ATOM      1  C   LIG d   1       8.873   1.543  -4.624  0.00  0.00     0.135 A 
ATOM      2  C   LIG d   1       8.946   0.229  -5.083  0.00  0.00    -0.018 A 
ATOM      3  C   LIG d   1       7.985  -0.677  -4.739  0.00  0.00    -0.047 A 
ATOM      4  C   LIG d   1       6.921  -0.285  -3.919  0.00  0.00     0.021 A 
ATOM      5  C   LIG d   1       5.876  -1.236  -3.533  0.00  0.00    -0.030 A 
ATOM      6  C   LIG d   1       4.869  -0.794  -2.735  0.00  0.00     0.037 A 
ATOM      7  C   LIG d   1       4.850   0.550  -2.308  0.00  0.00     0.340 A 
ATOM      8  O   LIG d   1       3.940   0.934  -1.597  0.00  0.00    -0.245 OA
ATOM      9  O   LIG d   1       5.814   1.415  -2.662  0.00  0.00    -0.422 OA
ATOM     10  C   LIG d   1       6.842   1.040  -3.452  0.00  0.00     0.143 A 
ATOM     11  C   LIG d   1       7.828   1.948  -3.812  0.00  0.00     0.024 A 
ATOM     12  H   LIG d   1       9.767  -0.074  -5.715  0.00  0.00     0.065 H 
ATOM     13  H   LIG d   1       8.046  -1.694  -5.098  0.00  0.00     0.063 H 
ATOM     14  H   LIG d   1       7.778   2.969  -3.461  0.00  0.00     0.069 H 
ENDROOT
BRANCH   1  15
ATOM     15  O   LIG d   1       9.837   2.433  -4.977  0.00  0.00    -0.426 OA
BRANCH  15  16
ATOM     16  C   LIG d   1      10.608   2.919  -3.991  0.00  0.00     0.312 C 
ATOM     17  O   LIG d   1      11.241   2.165  -3.292  0.00  0.00    -0.250 OA
BRANCH  16  18
ATOM     18  C   LIG d   1      10.684   4.406  -3.759  0.00  0.00     0.043 C 
ATOM     19  H   LIG d   1      11.702   4.751  -3.943  0.00  0.00     0.037 H 
ATOM     20  H   LIG d   1      10.000   4.915  -4.438  0.00  0.00     0.037 H 
BRANCH  18  21
ATOM     21  C   LIG d   1      10.293   4.717  -2.312  0.00  0.00    -0.055 C 
ATOM     22  H   LIG d   1       9.207   4.726  -2.223  0.00  0.00     0.024 H 
ATOM     23  H   LIG d   1      10.705   3.953  -1.654  0.00  0.00     0.024 H 
ATOM     24  H   LIG d   1      10.689   5.692  -2.030  0.00  0.00     0.024 H 
ENDBRANCH  18  21
ENDBRANCH  16  18
ENDBRANCH  15  16
ENDBRANCH   1  15
BRANCH   5  25
ATOM     25  C   LIG d   1       5.916  -2.666  -4.008  0.00  0.00    -0.039 C 
ATOM     26  H   LIG d   1       6.833  -2.835  -4.572  0.00  0.00     0.028 H 
ATOM     27  H   LIG d   1       5.890  -3.336  -3.148  0.00  0.00     0.028 H 
ATOM     28  H   LIG d   1       5.055  -2.861  -4.647  0.00  0.00     0.028 H 
ENDBRANCH   5  25
BRANCH   6  29
ATOM     29  C   LIG d   1       3.772  -1.736  -2.312  0.00  0.00    -0.033 C 
ATOM     30  H   LIG d   1       4.206  -2.590  -1.792  0.00  0.00     0.028 H 
ATOM     31  H   LIG d   1       3.232  -2.084  -3.193  0.00  0.00     0.028 H 
ATOM     32  H   LIG d   1       3.083  -1.216  -1.647  0.00  0.00     0.028 H 
ENDBRANCH   6  29
TORSDOF 6
ENDMDL
MODEL 5
REMARK VINA RESULT:      -5.5      1.735      5.763
REMARK  6 active torsions:
REMARK  status: ('A' for Active; 'I' for Inactive)
REMARK    1  A    between atoms: C_1  and  C_2 
REMARK    2  A    between atoms: C_2  and  C_3 
REMARK    3  A    between atoms: C_3  and  O_5 
REMARK    4  A    between atoms: O_5  and  C_6 
REMARK    5  A    between atoms: C_10  and  C_18 
REMARK    6  A    between atoms: C_11  and  C_17 
ROOT
ATOM      1  C   LIG d   1       4.877  -1.481  -4.799  0.00  0.00     0.135 A 
ATOM      2  C   LIG d   1       4.937  -2.658  -5.543  0.00  0.00    -0.018 A 
ATOM      3  C   LIG d   1       4.484  -2.686  -6.830  0.00  0.00    -0.047 A 
ATOM      4  C   LIG d   1       3.953  -1.527  -7.406  0.00  0.00     0.021 A 
ATOM      5  C   LIG d   1       3.459  -1.528  -8.785  0.00  0.00    -0.030 A 
ATOM      6  C   LIG d   1       2.956  -0.370  -9.287  0.00  0.00     0.037 A 
ATOM      7  C   LIG d   1       2.926   0.789  -8.484  0.00  0.00     0.340 A 
ATOM      8  O   LIG d   1       2.477   1.821  -8.948  0.00  0.00    -0.245 OA
ATOM      9  O   LIG d   1       3.377   0.781  -7.219  0.00  0.00    -0.422 OA
ATOM     10  C   LIG d   1       3.888  -0.335  -6.660  0.00  0.00     0.143 A 
ATOM     11  C   LIG d   1       4.354  -0.325  -5.353  0.00  0.00     0.024 A 
ATOM     12  H   LIG d   1       5.346  -3.553  -5.099  0.00  0.00     0.065 H 
ATOM     13  H   LIG d   1       4.534  -3.601  -7.402  0.00  0.00     0.063 H 
ATOM     14  H   LIG d   1       4.311   0.584  -4.770  0.00  0.00     0.069 H 
ENDROOT
BRANCH   1  15
ATOM     15  O   LIG d   1       5.333  -1.469  -3.520  0.00  0.00    -0.426 OA
BRANCH  15  16
ATOM     16  C   LIG d   1       4.439  -1.198  -2.556  0.00  0.00     0.312 C 
ATOM     17  O   LIG d   1       3.510  -1.946  -2.365  0.00  0.00    -0.250 OA
BRANCH  16  18
ATOM     18  C   LIG d   1       4.596   0.039  -1.710  0.00  0.00     0.043 C 
ATOM     19  H   LIG d   1       4.321  -0.186  -0.680  0.00  0.00     0.037 H 
ATOM     20  H   LIG d   1       5.633   0.374  -1.745  0.00  0.00     0.037 H 
BRANCH  18  21
ATOM     21  C   LIG d   1       3.685   1.145  -2.251  0.00  0.00    -0.055 C 
ATOM     22  H   LIG d   1       3.844   2.059  -1.679  0.00  0.00     0.024 H 
ATOM     23  H   LIG d   1       3.919   1.326  -3.300  0.00  0.00     0.024 H 
ATOM     24  H   LIG d   1       2.644   0.834  -2.160  0.00  0.00     0.024 H 
ENDBRANCH  18  21
ENDBRANCH  16  18
ENDBRANCH  15  16
ENDBRANCH   1  15
BRANCH   5  25
ATOM     25  C   LIG d   1       3.507  -2.779  -9.624  0.00  0.00    -0.039 C 
ATOM     26  H   LIG d   1       4.329  -3.410  -9.287  0.00  0.00     0.028 H 
ATOM     27  H   LIG d   1       2.567  -3.322  -9.522  0.00  0.00     0.028 H 
ATOM     28  H   LIG d   1       3.660  -2.510 -10.669  0.00  0.00     0.028 H 
ENDBRANCH   5  25
BRANCH   6  29
ATOM     29  C   LIG d   1       2.435  -0.323 -10.700  0.00  0.00    -0.033 C 
ATOM     30  H   LIG d   1       1.360  -0.146 -10.686  0.00  0.00     0.028 H 
ATOM     31  H   LIG d   1       2.640  -1.272 -11.195  0.00  0.00     0.028 H 
ATOM     32  H   LIG d   1       2.930   0.482 -11.243  0.00  0.00     0.028 H 
ENDBRANCH   6  29
TORSDOF 6
ENDMDL
MODEL 6
REMARK VINA RESULT:      -5.3      2.505      6.209
REMARK  6 active torsions:
REMARK  status: ('A' for Active; 'I' for Inactive)
REMARK    1  A    between atoms: C_1  and  C_2 
REMARK    2  A    between atoms: C_2  and  C_3 
REMARK    3  A    between atoms: C_3  and  O_5 
REMARK    4  A    between atoms: O_5  and  C_6 
REMARK    5  A    between atoms: C_10  and  C_18 
REMARK    6  A    between atoms: C_11  and  C_17 
ROOT
ATOM      1  C   LIG d   1       3.993  -0.389  -6.019  0.00  0.00     0.135 A 
ATOM      2  C   LIG d   1       3.013   0.360  -6.668  0.00  0.00    -0.018 A 
ATOM      3  C   LIG d   1       2.517  -0.047  -7.873  0.00  0.00    -0.047 A 
ATOM      4  C   LIG d   1       2.997  -1.222  -8.462  0.00  0.00     0.021 A 
ATOM      5  C   LIG d   1       2.485  -1.682  -9.754  0.00  0.00    -0.030 A 
ATOM      6  C   LIG d   1       2.991  -2.832 -10.273  0.00  0.00     0.037 A 
ATOM      7  C   LIG d   1       3.979  -3.546  -9.564  0.00  0.00     0.340 A 
ATOM      8  O   LIG d   1       4.421  -4.577 -10.038  0.00  0.00    -0.245 OA
ATOM      9  O   LIG d   1       4.448  -3.115  -8.382  0.00  0.00    -0.422 OA
ATOM     10  C   LIG d   1       3.988  -1.982  -7.811  0.00  0.00     0.143 A 
ATOM     11  C   LIG d   1       4.480  -1.554  -6.587  0.00  0.00     0.024 A 
ATOM     12  H   LIG d   1       2.643   1.267  -6.215  0.00  0.00     0.065 H 
ATOM     13  H   LIG d   1       1.757   0.537  -8.371  0.00  0.00     0.063 H 
ATOM     14  H   LIG d   1       5.239  -2.129  -6.078  0.00  0.00     0.069 H 
ENDROOT
BRANCH   1  15
ATOM     15  O   LIG d   1       4.475   0.029  -4.820  0.00  0.00    -0.426 OA
BRANCH  15  16
ATOM     16  C   LIG d   1       3.573   0.339  -3.875  0.00  0.00     0.312 C 
ATOM     17  O   LIG d   1       3.424   1.489  -3.535  0.00  0.00    -0.250 OA
BRANCH  16  18
ATOM     18  C   LIG d   1       2.747  -0.748  -3.238  0.00  0.00     0.043 C 
ATOM     19  H   LIG d   1       2.081  -0.311  -2.493  0.00  0.00     0.037 H 
ATOM     20  H   LIG d   1       2.155  -1.250  -4.004  0.00  0.00     0.037 H 
BRANCH  18  21
ATOM     21  C   LIG d   1       3.673  -1.763  -2.562  0.00  0.00    -0.055 C 
ATOM     22  H   LIG d   1       4.085  -2.436  -3.314  0.00  0.00     0.024 H 
ATOM     23  H   LIG d   1       4.485  -1.235  -2.063  0.00  0.00     0.024 H 
ATOM     24  H   LIG d   1       3.107  -2.338  -1.829  0.00  0.00     0.024 H 
ENDBRANCH  18  21
ENDBRANCH  16  18
ENDBRANCH  15  16
ENDBRANCH   1  15
BRANCH   5  25
ATOM     25  C   LIG d   1       1.424  -0.903 -10.488  0.00  0.00    -0.039 C 
ATOM     26  H   LIG d   1       0.761  -0.424  -9.768  0.00  0.00     0.028 H 
ATOM     27  H   LIG d   1       1.897  -0.141 -11.109  0.00  0.00     0.028 H 
ATOM     28  H   LIG d   1       0.848  -1.579 -11.119  0.00  0.00     0.028 H 
ENDBRANCH   5  25
BRANCH   6  29
ATOM     29  C   LIG d   1       2.494  -3.344 -11.599  0.00  0.00    -0.033 C 
ATOM     30  H   LIG d   1       1.611  -3.964 -11.443  0.00  0.00     0.028 H 
ATOM     31  H   LIG d   1       3.275  -3.938 -12.075  0.00  0.00     0.028 H 
ATOM     32  H   LIG d   1       2.238  -2.502 -12.242  0.00  0.00     0.028 H 
ENDBRANCH   6  29
TORSDOF 6
ENDMDL
MODEL 7
REMARK VINA RESULT:      -5.2      1.842      2.166
REMARK  6 active torsions:
REMARK  status: ('A' for Active; 'I' for Inactive)
REMARK    1  A    between atoms: C_1  and  C_2 
REMARK    2  A    between atoms: C_2  and  C_3 
REMARK    3  A    between atoms: C_3  and  O_5 
REMARK    4  A    between atoms: O_5  and  C_6 
REMARK    5  A    between atoms: C_10  and  C_18 
REMARK    6  A    between atoms: C_11  and  C_17 
ROOT
ATOM      1  C   LIG d   1       5.599  -0.194  -8.089  0.00  0.00     0.135 A 
ATOM      2  C   LIG d   1       6.783  -0.638  -7.503  0.00  0.00    -0.018 A 
ATOM      3  C   LIG d   1       6.813  -0.990  -6.184  0.00  0.00    -0.047 A 
ATOM      4  C   LIG d   1       5.646  -0.903  -5.415  0.00  0.00     0.021 A 
ATOM      5  C   LIG d   1       5.648  -1.273  -3.998  0.00  0.00    -0.030 A 
ATOM      6  C   LIG d   1       4.484  -1.166  -3.305  0.00  0.00     0.037 A 
ATOM      7  C   LIG d   1       3.319  -0.714  -3.958  0.00  0.00     0.340 A 
ATOM      8  O   LIG d   1       2.281  -0.626  -3.326  0.00  0.00    -0.245 OA
ATOM      9  O   LIG d   1       3.326  -0.371  -5.256  0.00  0.00    -0.422 OA
ATOM     10  C   LIG d   1       4.448  -0.453  -6.001  0.00  0.00     0.143 A 
ATOM     11  C   LIG d   1       4.437  -0.101  -7.342  0.00  0.00     0.024 A 
ATOM     12  H   LIG d   1       7.683  -0.706  -8.095  0.00  0.00     0.065 H 
ATOM     13  H   LIG d   1       7.732  -1.335  -5.736  0.00  0.00     0.063 H 
ATOM     14  H   LIG d   1       3.522   0.244  -7.803  0.00  0.00     0.069 H 
ENDROOT
BRANCH   1  15
ATOM     15  O   LIG d   1       5.587   0.151  -9.402  0.00  0.00    -0.426 OA
BRANCH  15  16
ATOM     16  C   LIG d   1       5.168   1.391  -9.703  0.00  0.00     0.312 C 
ATOM     17  O   LIG d   1       5.795   2.350  -9.321  0.00  0.00    -0.250 OA
BRANCH  16  18
ATOM     18  C   LIG d   1       3.916   1.584 -10.519  0.00  0.00     0.043 C 
ATOM     19  H   LIG d   1       3.079   1.805  -9.855  0.00  0.00     0.037 H 
ATOM     20  H   LIG d   1       4.058   2.413 -11.212  0.00  0.00     0.037 H 
BRANCH  18  21
ATOM     21  C   LIG d   1       3.618   0.306 -11.307  0.00  0.00    -0.055 C 
ATOM     22  H   LIG d   1       3.866  -0.563 -10.697  0.00  0.00     0.024 H 
ATOM     23  H   LIG d   1       2.560   0.278 -11.566  0.00  0.00     0.024 H 
ATOM     24  H   LIG d   1       4.217   0.294 -12.218  0.00  0.00     0.024 H 
ENDBRANCH  18  21
ENDBRANCH  16  18
ENDBRANCH  15  16
ENDBRANCH   1  15
BRANCH   5  25
ATOM     25  C   LIG d   1       6.907  -1.759  -3.326  0.00  0.00    -0.039 C 
ATOM     26  H   LIG d   1       7.196  -2.721  -3.749  0.00  0.00     0.028 H 
ATOM     27  H   LIG d   1       7.707  -1.036  -3.488  0.00  0.00     0.028 H 
ATOM     28  H   LIG d   1       6.729  -1.870  -2.257  0.00  0.00     0.028 H 
ENDBRANCH   5  25
BRANCH   6  29
ATOM     29  C   LIG d   1       4.438  -1.535  -1.846  0.00  0.00    -0.033 C 
ATOM     30  H   LIG d   1       3.576  -1.060  -1.377  0.00  0.00     0.028 H 
ATOM     31  H   LIG d   1       5.350  -1.195  -1.355  0.00  0.00     0.028 H 
ATOM     32  H   LIG d   1       4.355  -2.617  -1.747  0.00  0.00     0.028 H 
ENDBRANCH   6  29
TORSDOF 6
ENDMDL
MODEL 8
REMARK VINA RESULT:      -5.1      4.166      4.968
REMARK  6 active torsions:
REMARK  status: ('A' for Active; 'I' for Inactive)
REMARK    1  A    between atoms: C_1  and  C_2 
REMARK    2  A    between atoms: C_2  and  C_3 
REMARK    3  A    between atoms: C_3  and  O_5 
REMARK    4  A    between atoms: O_5  and  C_6 
REMARK    5  A    between atoms: C_10  and  C_18 
REMARK    6  A    between atoms: C_11  and  C_17 
ROOT
ATOM      1  C   LIG d   1       9.007   1.338  -4.627  0.00  0.00     0.135 A 
ATOM      2  C   LIG d   1       8.992   0.026  -5.094  0.00  0.00    -0.018 A 
ATOM      3  C   LIG d   1       7.964  -0.812  -4.770  0.00  0.00    -0.047 A 
ATOM      4  C   LIG d   1       6.919  -0.350  -3.962  0.00  0.00     0.021 A 
ATOM      5  C   LIG d   1       5.803  -1.226  -3.597  0.00  0.00    -0.030 A 
ATOM      6  C   LIG d   1       4.819  -0.718  -2.811  0.00  0.00     0.037 A 
ATOM      7  C   LIG d   1       4.890   0.622  -2.375  0.00  0.00     0.340 A 
ATOM      8  O   LIG d   1       3.999   1.066  -1.673  0.00  0.00    -0.245 OA
ATOM      9  O   LIG d   1       5.919   1.417  -2.709  0.00  0.00    -0.422 OA
ATOM     10  C   LIG d   1       6.929   0.975  -3.487  0.00  0.00     0.143 A 
ATOM     11  C   LIG d   1       7.982   1.812  -3.827  0.00  0.00     0.024 A 
ATOM     12  H   LIG d   1       9.799  -0.332  -5.717  0.00  0.00     0.065 H 
ATOM     13  H   LIG d   1       7.958  -1.828  -5.135  0.00  0.00     0.063 H 
ATOM     14  H   LIG d   1       8.000   2.832  -3.469  0.00  0.00     0.069 H 
ENDROOT
BRANCH   1  15
ATOM     15  O   LIG d   1      10.037   2.159  -4.960  0.00  0.00    -0.426 OA
BRANCH  15  16
ATOM     16  C   LIG d   1      10.265   2.352  -6.269  0.00  0.00     0.312 C 
ATOM     17  O   LIG d   1      11.274   1.923  -6.776  0.00  0.00    -0.250 OA
BRANCH  16  18
ATOM     18  C   LIG d   1       9.261   3.102  -7.105  0.00  0.00     0.043 C 
ATOM     19  H   LIG d   1       8.422   3.408  -6.479  0.00  0.00     0.037 H 
ATOM     20  H   LIG d   1       9.734   3.985  -7.536  0.00  0.00     0.037 H 
BRANCH  18  21
ATOM     21  C   LIG d   1       8.755   2.195  -8.229  0.00  0.00    -0.055 C 
ATOM     22  H   LIG d   1       8.277   2.802  -8.999  0.00  0.00     0.024 H 
ATOM     23  H   LIG d   1       9.594   1.653  -8.663  0.00  0.00     0.024 H 
ATOM     24  H   LIG d   1       8.033   1.485  -7.826  0.00  0.00     0.024 H 
ENDBRANCH  18  21
ENDBRANCH  16  18
ENDBRANCH  15  16
ENDBRANCH   1  15
BRANCH   5  25
ATOM     25  C   LIG d   1       5.749  -2.652  -4.082  0.00  0.00    -0.039 C 
ATOM     26  H   LIG d   1       6.561  -3.221  -3.630  0.00  0.00     0.028 H 
ATOM     27  H   LIG d   1       4.793  -3.095  -3.800  0.00  0.00     0.028 H 
ATOM     28  H   LIG d   1       5.851  -2.671  -5.167  0.00  0.00     0.028 H 
ENDBRANCH   5  25
BRANCH   6  29
ATOM     29  C   LIG d   1       3.652  -1.581  -2.410  0.00  0.00    -0.033 C 
ATOM     30  H   LIG d   1       3.110  -1.898  -3.301  0.00  0.00     0.028 H 
ATOM     31  H   LIG d   1       2.984  -1.012  -1.763  0.00  0.00     0.028 H 
ATOM     32  H   LIG d   1       4.015  -2.458  -1.874  0.00  0.00     0.028 H 
ENDBRANCH   6  29
TORSDOF 6
ENDMDL
MODEL 9
REMARK VINA RESULT:      -5.1      4.246      5.094
REMARK  6 active torsions:
REMARK  status: ('A' for Active; 'I' for Inactive)
REMARK    1  A    between atoms: C_1  and  C_2 
REMARK    2  A    between atoms: C_2  and  C_3 
REMARK    3  A    between atoms: C_3  and  O_5 
REMARK    4  A    between atoms: O_5  and  C_6 
REMARK    5  A    between atoms: C_10  and  C_18 
REMARK    6  A    between atoms: C_11  and  C_17 
ROOT
ATOM      1  C   LIG d   1       8.507   0.770  -5.233  0.00  0.00     0.135 A 
ATOM      2  C   LIG d   1       8.033   1.638  -4.252  0.00  0.00    -0.018 A 
ATOM      3  C   LIG d   1       6.974   1.282  -3.466  0.00  0.00    -0.047 A 
ATOM      4  C   LIG d   1       6.361   0.038  -3.649  0.00  0.00     0.021 A 
ATOM      5  C   LIG d   1       5.223  -0.371  -2.822  0.00  0.00    -0.030 A 
ATOM      6  C   LIG d   1       4.671  -1.592  -3.048  0.00  0.00     0.037 A 
ATOM      7  C   LIG d   1       5.201  -2.426  -4.054  0.00  0.00     0.340 A 
ATOM      8  O   LIG d   1       4.700  -3.519  -4.243  0.00  0.00    -0.245 OA
ATOM      9  O   LIG d   1       6.241  -2.043  -4.812  0.00  0.00    -0.422 OA
ATOM     10  C   LIG d   1       6.835  -0.843  -4.639  0.00  0.00     0.143 A 
ATOM     11  C   LIG d   1       7.912  -0.465  -5.428  0.00  0.00     0.024 A 
ATOM     12  H   LIG d   1       8.505   2.599  -4.110  0.00  0.00     0.065 H 
ATOM     13  H   LIG d   1       6.612   1.959  -2.707  0.00  0.00     0.063 H 
ATOM     14  H   LIG d   1       8.286  -1.133  -6.190  0.00  0.00     0.069 H 
ENDROOT
BRANCH   1  15
ATOM     15  O   LIG d   1       9.562   1.139  -6.005  0.00  0.00    -0.426 OA
BRANCH  15  16
ATOM     16  C   LIG d   1       9.468   2.317  -6.643  0.00  0.00     0.312 C 
ATOM     17  O   LIG d   1       8.605   2.489  -7.471  0.00  0.00    -0.250 OA
BRANCH  16  18
ATOM     18  C   LIG d   1      10.438   3.425  -6.325  0.00  0.00     0.043 C 
ATOM     19  H   LIG d   1      11.163   3.074  -5.590  0.00  0.00     0.037 H 
ATOM     20  H   LIG d   1      10.959   3.724  -7.234  0.00  0.00     0.037 H 
BRANCH  18  21
ATOM     21  C   LIG d   1       9.675   4.624  -5.757  0.00  0.00    -0.055 C 
ATOM     22  H   LIG d   1       8.675   4.656  -6.190  0.00  0.00     0.024 H 
ATOM     23  H   LIG d   1       9.599   4.526  -4.675  0.00  0.00     0.024 H 
ATOM     24  H   LIG d   1      10.207   5.543  -6.003  0.00  0.00     0.024 H 
ENDBRANCH  18  21
ENDBRANCH  16  18
ENDBRANCH  15  16
ENDBRANCH   1  15
BRANCH   5  25
ATOM     25  C   LIG d   1       4.680   0.538  -1.749  0.00  0.00    -0.039 C 
ATOM     26  H   LIG d   1       4.998   0.176  -0.772  0.00  0.00     0.028 H 
ATOM     27  H   LIG d   1       5.059   1.549  -1.903  0.00  0.00     0.028 H 
ATOM     28  H   LIG d   1       3.592   0.546  -1.797  0.00  0.00     0.028 H 
ENDBRANCH   5  25
BRANCH   6  29
ATOM     29  C   LIG d   1       3.500  -2.055  -2.222  0.00  0.00    -0.033 C 
ATOM     30  H   LIG d   1       2.571  -1.798  -2.732  0.00  0.00     0.028 H 
ATOM     31  H   LIG d   1       3.526  -1.567  -1.248  0.00  0.00     0.028 H 
ATOM     32  H   LIG d   1       3.554  -3.135  -2.088  0.00  0.00     0.028 H 
ENDBRANCH   6  29
TORSDOF 6
ENDMDL
MODEL 10
REMARK VINA RESULT:      -5.0      4.167      6.080
REMARK  6 active torsions:
REMARK  status: ('A' for Active; 'I' for Inactive)
REMARK    1  A    between atoms: C_1  and  C_2 
REMARK    2  A    between atoms: C_2  and  C_3 
REMARK    3  A    between atoms: C_3  and  O_5 
REMARK    4  A    between atoms: O_5  and  C_6 
REMARK    5  A    between atoms: C_10  and  C_18 
REMARK    6  A    between atoms: C_11  and  C_17 
ROOT
ATOM      1  C   LIG d   1       5.358  -1.259  -2.827  0.00  0.00     0.135 A 
ATOM      2  C   LIG d   1       4.266  -2.086  -3.083  0.00  0.00    -0.018 A 
ATOM      3  C   LIG d   1       4.393  -3.162  -3.914  0.00  0.00    -0.047 A 
ATOM      4  C   LIG d   1       5.628  -3.436  -4.513  0.00  0.00     0.021 A 
ATOM      5  C   LIG d   1       5.794  -4.583  -5.408  0.00  0.00    -0.030 A 
ATOM      6  C   LIG d   1       7.018  -4.795  -5.959  0.00  0.00     0.037 A 
ATOM      7  C   LIG d   1       8.084  -3.924  -5.656  0.00  0.00     0.340 A 
ATOM      8  O   LIG d   1       9.177  -4.128  -6.153  0.00  0.00    -0.245 OA
ATOM      9  O   LIG d   1       7.924  -2.871  -4.838  0.00  0.00    -0.422 OA
ATOM     10  C   LIG d   1       6.734  -2.603  -4.259  0.00  0.00     0.143 A 
ATOM     11  C   LIG d   1       6.587  -1.515  -3.412  0.00  0.00     0.024 A 
ATOM     12  H   LIG d   1       3.313  -1.876  -2.622  0.00  0.00     0.065 H 
ATOM     13  H   LIG d   1       3.544  -3.800  -4.108  0.00  0.00     0.063 H 
ATOM     14  H   LIG d   1       7.429  -0.869  -3.208  0.00  0.00     0.069 H 
ENDROOT
BRANCH   1  15
ATOM     15  O   LIG d   1       5.214  -0.193  -1.998  0.00  0.00    -0.426 OA
BRANCH  15  16
ATOM     16  C   LIG d   1       4.949   0.993  -2.569  0.00  0.00     0.312 C 
ATOM     17  O   LIG d   1       5.849   1.664  -3.014  0.00  0.00    -0.250 OA
BRANCH  16  18
ATOM     18  C   LIG d   1       3.527   1.485  -2.655  0.00  0.00     0.043 C 
ATOM     19  H   LIG d   1       2.925   0.992  -1.892  0.00  0.00     0.037 H 
ATOM     20  H   LIG d   1       3.506   2.563  -2.495  0.00  0.00     0.037 H 
BRANCH  18  21
ATOM     21  C   LIG d   1       2.960   1.164  -4.040  0.00  0.00    -0.055 C 
ATOM     22  H   LIG d   1       1.912   1.462  -4.082  0.00  0.00     0.024 H 
ATOM     23  H   LIG d   1       3.523   1.710  -4.797  0.00  0.00     0.024 H 
ATOM     24  H   LIG d   1       3.042   0.093  -4.227  0.00  0.00     0.024 H 
ENDBRANCH  18  21
ENDBRANCH  16  18
ENDBRANCH  15  16
ENDBRANCH   1  15
BRANCH   5  25
ATOM     25  C   LIG d   1       4.639  -5.502  -5.711  0.00  0.00    -0.039 C 
ATOM     26  H   LIG d   1       4.235  -5.897  -4.779  0.00  0.00     0.028 H 
ATOM     27  H   LIG d   1       3.862  -4.948  -6.238  0.00  0.00     0.028 H 
ATOM     28  H   LIG d   1       4.984  -6.326  -6.335  0.00  0.00     0.028 H 
ENDBRANCH   5  25
BRANCH   6  29
ATOM     29  C   LIG d   1       7.237  -5.962  -6.886  0.00  0.00    -0.033 C 
ATOM     30  H   LIG d   1       7.066  -6.893  -6.346  0.00  0.00     0.028 H 
ATOM     31  H   LIG d   1       8.260  -5.942  -7.260  0.00  0.00     0.028 H 
ATOM     32  H   LIG d   1       6.543  -5.895  -7.724  0.00  0.00     0.028 H 
ENDBRANCH   6  29
TORSDOF 6
ENDMDL
