MODEL 1
REMARK VINA RESULT:      -6.2      0.000      0.000
REMARK  7 active torsions:
REMARK  status: ('A' for Active; 'I' for Inactive)
REMARK    1  A    between atoms: C_1  and  N_2 
REMARK    2  A    between atoms: N_2  and  C_3 
REMARK    3  A    between atoms: N_2  and  C_4 
REMARK    4  A    between atoms: C_11  and  O_36 
REMARK    5  A    between atoms: C_17  and  O_34 
REMARK    6  A    between atoms: C_23  and  O_32 
REMARK    7  A    between atoms: C_25  and  C_28 
REMARK       I    between atoms: C_28  and  N_30 
ROOT
ATOM      1  C   LIG d   1       4.409  -0.598  -8.509  0.00  0.00     0.079 C 
ATOM      2  H   LIG d   1       3.933  -0.922  -9.434  0.00  0.00     0.055 H 
ATOM      3  C   LIG d   1       5.147  -1.771  -7.894  0.00  0.00     0.017 C 
ATOM      4  H   LIG d   1       6.017  -1.977  -8.516  0.00  0.00     0.035 H 
ATOM      5  C   LIG d   1       4.270  -3.024  -7.898  0.00  0.00    -0.036 C 
ATOM      6  C   LIG d   1       5.152  -4.237  -7.583  0.00  0.00     0.018 C 
ATOM      7  H   LIG d   1       5.855  -4.393  -8.401  0.00  0.00     0.038 H 
ATOM      8  C   LIG d   1       4.268  -5.473  -7.432  0.00  0.00     0.089 C 
ATOM      9  H   LIG d   1       3.810  -5.708  -8.393  0.00  0.00     0.065 H 
ATOM     10  C   LIG d   1       5.083  -6.652  -6.970  0.00  0.00     0.014 A 
ATOM     11  C   LIG d   1       4.797  -7.918  -7.434  0.00  0.00     0.048 A 
ATOM     12  C   LIG d   1       5.537  -9.006  -6.997  0.00  0.00    -0.040 A 
ATOM     13  C   LIG d   1       6.566  -8.834  -6.092  0.00  0.00    -0.018 A 
ATOM     14  C   LIG d   1       6.871  -7.566  -5.621  0.00  0.00     0.128 A 
ATOM     15  C   LIG d   1       6.132  -6.466  -6.068  0.00  0.00     0.070 A 
ATOM     16  C   LIG d   1       6.470  -5.102  -5.614  0.00  0.00     0.193 C 
ATOM     17  C   LIG d   1       5.915  -3.993  -6.309  0.00  0.00    -0.003 C 
ATOM     18  C   LIG d   1       6.117  -2.766  -5.819  0.00  0.00    -0.089 C 
ATOM     19  O   LIG d   1       6.787  -2.656  -4.654  0.00  0.00    -0.874 OA
ATOM     20  C   LIG d   1       5.642  -1.507  -6.490  0.00  0.00     0.094 C 
ATOM     21  C   LIG d   1       4.620  -0.832  -5.625  0.00  0.00    -0.081 C 
ATOM     22  C   LIG d   1       3.545  -0.154  -6.139  0.00  0.00     0.072 C 
ATOM     23  C   LIG d   1       3.362  -0.066  -7.574  0.00  0.00     0.185 C 
ATOM     24  O   LIG d   1       2.337   0.413  -8.014  0.00  0.00    -0.290 OA
ATOM     25  O   LIG d   1       4.764  -0.896  -4.294  0.00  0.00    -0.874 OA
ATOM     26  O   LIG d   1       7.200  -4.932  -4.655  0.00  0.00    -0.287 OA
ATOM     27 CL   LIG d   1       3.504  -8.152  -8.570  0.00  0.00    -0.083 Cl
ATOM     28  H   LIG d   1       3.493  -2.929  -7.140  0.00  0.00     0.028 H 
ATOM     29  H   LIG d   1       3.815  -3.148  -8.880  0.00  0.00     0.028 H 
ATOM     30  H   LIG d   1       5.307  -9.995  -7.367  0.00  0.00     0.063 H 
ATOM     31  H   LIG d   1       7.133  -9.688  -5.751  0.00  0.00     0.066 H 
ENDROOT
BRANCH   1  32
ATOM     32  N   LIG d   1       5.372   0.470  -8.812  0.00  0.00    -0.298 N 
BRANCH  32  33
ATOM     33  C   LIG d   1       6.284   0.067  -9.891  0.00  0.00    -0.012 C 
ATOM     34  H   LIG d   1       6.467   0.917 -10.548  0.00  0.00     0.039 H 
ATOM     35  H   LIG d   1       7.227  -0.271  -9.464  0.00  0.00     0.039 H 
ATOM     36  H   LIG d   1       5.833  -0.744 -10.464  0.00  0.00     0.039 H 
ENDBRANCH  32  33
BRANCH  32  37
ATOM     37  C   LIG d   1       4.681   1.722  -9.147  0.00  0.00    -0.012 C 
ATOM     38  H   LIG d   1       3.640   1.509  -9.390  0.00  0.00     0.039 H 
ATOM     39  H   LIG d   1       4.722   2.400  -8.293  0.00  0.00     0.039 H 
ATOM     40  H   LIG d   1       5.167   2.188 -10.004  0.00  0.00     0.039 H 
ENDBRANCH  32  37
ENDBRANCH   1  32
BRANCH  22  41
ATOM     41  C   LIG d   1       2.589   0.501  -5.231  0.00  0.00     0.244 C 
ATOM     42  O   LIG d   1       2.612   1.710  -5.093  0.00  0.00    -0.270 OA
ATOM     43  N   LIG d   1       1.687  -0.237  -4.555  0.00  0.00    -0.325 N 
ATOM     44  H   LIG d   1       1.720  -1.206  -4.601  0.00  0.00     0.145 HD
ATOM     45  H   LIG d   1       1.005   0.199  -4.022  0.00  0.00     0.145 HD
ENDBRANCH  22  41
BRANCH  20  46
ATOM     46  O   LIG d   1       6.759  -0.622  -6.581  0.00  0.00    -0.381 OA
ATOM     47  H   LIG d   1       6.847  -0.185  -7.439  0.00  0.00     0.211 HD
ENDBRANCH  20  46
BRANCH   8  48
ATOM     48  O   LIG d   1       3.242  -5.206  -6.474  0.00  0.00    -0.387 OA
ATOM     49  H   LIG d   1       2.466  -4.762  -6.842  0.00  0.00     0.210 HD
ENDBRANCH   8  48
BRANCH  14  50
ATOM     50  O   LIG d   1       7.882  -7.394  -4.731  0.00  0.00    -0.506 OA
ATOM     51  H   LIG d   1       8.577  -8.065  -4.789  0.00  0.00     0.292 HD
ENDBRANCH  14  50
TORSDOF 7
ENDMDL
MODEL 2
REMARK VINA RESULT:      -6.2      2.264      4.318
REMARK  7 active torsions:
REMARK  status: ('A' for Active; 'I' for Inactive)
REMARK    1  A    between atoms: C_1  and  N_2 
REMARK    2  A    between atoms: N_2  and  C_3 
REMARK    3  A    between atoms: N_2  and  C_4 
REMARK    4  A    between atoms: C_11  and  O_36 
REMARK    5  A    between atoms: C_17  and  O_34 
REMARK    6  A    between atoms: C_23  and  O_32 
REMARK    7  A    between atoms: C_25  and  C_28 
REMARK       I    between atoms: C_28  and  N_30 
ROOT
ATOM      1  C   LIG d   1       5.033  -1.052  -3.541  0.00  0.00     0.079 C 
ATOM      2  H   LIG d   1       5.198  -1.567  -2.595  0.00  0.00     0.055 H 
ATOM      3  C   LIG d   1       4.583  -2.059  -4.582  0.00  0.00     0.017 C 
ATOM      4  H   LIG d   1       3.567  -2.363  -4.330  0.00  0.00     0.035 H 
ATOM      5  C   LIG d   1       5.461  -3.309  -4.542  0.00  0.00    -0.036 C 
ATOM      6  C   LIG d   1       4.779  -4.412  -5.359  0.00  0.00     0.018 C 
ATOM      7  H   LIG d   1       3.857  -4.710  -4.861  0.00  0.00     0.038 H 
ATOM      8  C   LIG d   1       5.714  -5.615  -5.456  0.00  0.00     0.089 C 
ATOM      9  H   LIG d   1       5.846  -6.049  -4.465  0.00  0.00     0.065 H 
ATOM     10  C   LIG d   1       5.141  -6.655  -6.381  0.00  0.00     0.014 A 
ATOM     11  C   LIG d   1       5.313  -7.996  -6.110  0.00  0.00     0.048 A 
ATOM     12  C   LIG d   1       4.800  -8.954  -6.969  0.00  0.00    -0.040 A 
ATOM     13  C   LIG d   1       4.112  -8.578  -8.106  0.00  0.00    -0.018 A 
ATOM     14  C   LIG d   1       3.923  -7.234  -8.391  0.00  0.00     0.128 A 
ATOM     15  C   LIG d   1       4.433  -6.265  -7.519  0.00  0.00     0.070 A 
ATOM     16  C   LIG d   1       4.204  -4.829  -7.779  0.00  0.00     0.193 C 
ATOM     17  C   LIG d   1       4.459  -3.897  -6.737  0.00  0.00    -0.003 C 
ATOM     18  C   LIG d   1       4.376  -2.592  -7.012  0.00  0.00    -0.089 C 
ATOM     19  O   LIG d   1       4.115  -2.233  -8.285  0.00  0.00    -0.874 OA
ATOM     20  C   LIG d   1       4.557  -1.506  -5.989  0.00  0.00     0.094 C 
ATOM     21  C   LIG d   1       5.775  -0.699  -6.323  0.00  0.00    -0.081 C 
ATOM     22  C   LIG d   1       6.598  -0.166  -5.365  0.00  0.00     0.072 C 
ATOM     23  C   LIG d   1       6.304  -0.371  -3.961  0.00  0.00     0.185 C 
ATOM     24  O   LIG d   1       7.111  -0.017  -3.126  0.00  0.00    -0.290 OA
ATOM     25  O   LIG d   1       6.072  -0.491  -7.614  0.00  0.00    -0.874 OA
ATOM     26  O   LIG d   1       3.816  -4.452  -8.869  0.00  0.00    -0.287 OA
ATOM     27 CL   LIG d   1       6.179  -8.487  -4.686  0.00  0.00    -0.083 Cl
ATOM     28  H   LIG d   1       6.437  -3.085  -4.972  0.00  0.00     0.028 H 
ATOM     29  H   LIG d   1       5.580  -3.640  -3.509  0.00  0.00     0.028 H 
ATOM     30  H   LIG d   1       4.938 -10.003  -6.749  0.00  0.00     0.063 H 
ATOM     31  H   LIG d   1       3.721  -9.331  -8.775  0.00  0.00     0.066 H 
ENDROOT
BRANCH   1  32
ATOM     32  N   LIG d   1       3.981  -0.042  -3.362  0.00  0.00    -0.298 N 
BRANCH  32  33
ATOM     33  C   LIG d   1       2.731  -0.659  -2.901  0.00  0.00    -0.012 C 
ATOM     34  H   LIG d   1       2.655  -1.670  -3.303  0.00  0.00     0.039 H 
ATOM     35  H   LIG d   1       2.725  -0.700  -1.812  0.00  0.00     0.039 H 
ATOM     36  H   LIG d   1       1.884  -0.067  -3.247  0.00  0.00     0.039 H 
ENDBRANCH  32  33
BRANCH  32  37
ATOM     37  C   LIG d   1       4.418   1.015  -2.440  0.00  0.00    -0.012 C 
ATOM     38  H   LIG d   1       5.452   1.284  -2.658  0.00  0.00     0.039 H 
ATOM     39  H   LIG d   1       3.781   1.891  -2.563  0.00  0.00     0.039 H 
ATOM     40  H   LIG d   1       4.346   0.654  -1.414  0.00  0.00     0.039 H 
ENDBRANCH  32  37
ENDBRANCH   1  32
BRANCH  22  41
ATOM     41  C   LIG d   1       7.768   0.633  -5.765  0.00  0.00     0.244 C 
ATOM     42  O   LIG d   1       7.671   1.841  -5.876  0.00  0.00    -0.270 OA
ATOM     43  N   LIG d   1       8.947   0.027  -6.006  0.00  0.00    -0.325 N 
ATOM     44  H   LIG d   1       9.006  -0.942  -5.997  0.00  0.00     0.145 HD
ATOM     45  H   LIG d   1       9.738   0.558  -6.188  0.00  0.00     0.145 HD
ENDBRANCH  22  41
BRANCH  20  46
ATOM     46  O   LIG d   1       3.435  -0.628  -6.092  0.00  0.00    -0.381 OA
ATOM     47  H   LIG d   1       2.851  -0.643  -5.321  0.00  0.00     0.211 HD
ENDBRANCH  20  46
BRANCH   8  48
ATOM     48  O   LIG d   1       6.983  -5.188  -5.957  0.00  0.00    -0.387 OA
ATOM     49  H   LIG d   1       7.301  -4.362  -5.568  0.00  0.00     0.210 HD
ENDBRANCH   8  48
BRANCH  14  50
ATOM     50  O   LIG d   1       3.248  -6.861  -9.507  0.00  0.00    -0.506 OA
ATOM     51  H   LIG d   1       3.641  -6.109  -9.973  0.00  0.00     0.292 HD
ENDBRANCH  14  50
TORSDOF 7
ENDMDL
MODEL 3
REMARK VINA RESULT:      -6.1      3.844      5.090
REMARK  7 active torsions:
REMARK  status: ('A' for Active; 'I' for Inactive)
REMARK    1  A    between atoms: C_1  and  N_2 
REMARK    2  A    between atoms: N_2  and  C_3 
REMARK    3  A    between atoms: N_2  and  C_4 
REMARK    4  A    between atoms: C_11  and  O_36 
REMARK    5  A    between atoms: C_17  and  O_34 
REMARK    6  A    between atoms: C_23  and  O_32 
REMARK    7  A    between atoms: C_25  and  C_28 
REMARK       I    between atoms: C_28  and  N_30 
ROOT
ATOM      1  C   LIG d   1       4.625  -1.502  -5.640  0.00  0.00     0.079 C 
ATOM      2  H   LIG d   1       4.223  -2.513  -5.591  0.00  0.00     0.055 H 
ATOM      3  C   LIG d   1       6.140  -1.570  -5.667  0.00  0.00     0.017 C 
ATOM      4  H   LIG d   1       6.436  -1.960  -6.640  0.00  0.00     0.035 H 
ATOM      5  C   LIG d   1       6.657  -2.541  -4.605  0.00  0.00    -0.036 C 
ATOM      6  C   LIG d   1       8.136  -2.828  -4.884  0.00  0.00     0.018 C 
ATOM      7  H   LIG d   1       8.226  -3.376  -5.821  0.00  0.00     0.038 H 
ATOM      8  C   LIG d   1       8.706  -3.673  -3.747  0.00  0.00     0.089 C 
ATOM      9  H   LIG d   1       8.230  -4.653  -3.754  0.00  0.00     0.065 H 
ATOM     10  C   LIG d   1      10.193  -3.843  -3.910  0.00  0.00     0.014 A 
ATOM     11  C   LIG d   1      10.799  -5.031  -3.559  0.00  0.00     0.048 A 
ATOM     12  C   LIG d   1      12.170  -5.182  -3.694  0.00  0.00    -0.040 A 
ATOM     13  C   LIG d   1      12.944  -4.146  -4.179  0.00  0.00    -0.018 A 
ATOM     14  C   LIG d   1      12.350  -2.947  -4.543  0.00  0.00     0.128 A 
ATOM     15  C   LIG d   1      10.964  -2.796  -4.417  0.00  0.00     0.070 A 
ATOM     16  C   LIG d   1      10.306  -1.543  -4.841  0.00  0.00     0.193 C 
ATOM     17  C   LIG d   1       8.893  -1.531  -4.990  0.00  0.00    -0.003 C 
ATOM     18  C   LIG d   1       8.288  -0.368  -5.247  0.00  0.00    -0.089 C 
ATOM     19  O   LIG d   1       9.051   0.742  -5.290  0.00  0.00    -0.874 OA
ATOM     20  C   LIG d   1       6.811  -0.227  -5.490  0.00  0.00     0.094 C 
ATOM     21  C   LIG d   1       6.198   0.595  -4.397  0.00  0.00    -0.081 C 
ATOM     22  C   LIG d   1       4.938   0.360  -3.908  0.00  0.00     0.072 C 
ATOM     23  C   LIG d   1       4.140  -0.719  -4.454  0.00  0.00     0.185 C 
ATOM     24  O   LIG d   1       3.087  -1.007  -3.923  0.00  0.00    -0.290 OA
ATOM     25  O   LIG d   1       6.913   1.601  -3.873  0.00  0.00    -0.874 OA
ATOM     26  O   LIG d   1      10.962  -0.540  -5.049  0.00  0.00    -0.287 OA
ATOM     27 CL   LIG d   1       9.840  -6.342  -2.945  0.00  0.00    -0.083 Cl
ATOM     28  H   LIG d   1       6.551  -2.094  -3.617  0.00  0.00     0.028 H 
ATOM     29  H   LIG d   1       6.089  -3.471  -4.652  0.00  0.00     0.028 H 
ATOM     30  H   LIG d   1      12.637  -6.117  -3.418  0.00  0.00     0.063 H 
ATOM     31  H   LIG d   1      14.013  -4.270  -4.274  0.00  0.00     0.066 H 
ENDROOT
BRANCH   1  32
ATOM     32  N   LIG d   1       4.151  -0.855  -6.872  0.00  0.00    -0.298 N 
BRANCH  32  33
ATOM     33  C   LIG d   1       3.952  -1.841  -7.941  0.00  0.00    -0.012 C 
ATOM     34  H   LIG d   1       3.575  -2.770  -7.513  0.00  0.00     0.039 H 
ATOM     35  H   LIG d   1       3.232  -1.456  -8.663  0.00  0.00     0.039 H 
ATOM     36  H   LIG d   1       4.901  -2.032  -8.442  0.00  0.00     0.039 H 
ENDBRANCH  32  33
BRANCH  32  37
ATOM     37  C   LIG d   1       2.922  -0.090  -6.625  0.00  0.00    -0.012 C 
ATOM     38  H   LIG d   1       2.757  -0.003  -5.551  0.00  0.00     0.039 H 
ATOM     39  H   LIG d   1       3.020   0.906  -7.058  0.00  0.00     0.039 H 
ATOM     40  H   LIG d   1       2.076  -0.604  -7.081  0.00  0.00     0.039 H 
ENDBRANCH  32  37
ENDBRANCH   1  32
BRANCH  22  41
ATOM     41  C   LIG d   1       4.391   1.218  -2.845  0.00  0.00     0.244 C 
ATOM     42  O   LIG d   1       3.738   2.203  -3.134  0.00  0.00    -0.270 OA
ATOM     43  N   LIG d   1       4.613   0.913  -1.552  0.00  0.00    -0.325 N 
ATOM     44  H   LIG d   1       5.201   0.176  -1.321  0.00  0.00     0.145 HD
ATOM     45  H   LIG d   1       4.185   1.428  -0.851  0.00  0.00     0.145 HD
ENDBRANCH  22  41
BRANCH  20  46
ATOM     46  O   LIG d   1       6.644   0.507  -6.705  0.00  0.00    -0.381 OA
ATOM     47  H   LIG d   1       5.831   0.296  -7.184  0.00  0.00     0.211 HD
ENDBRANCH  20  46
BRANCH   8  48
ATOM     48  O   LIG d   1       8.440  -3.029  -2.500  0.00  0.00    -0.387 OA
ATOM     49  H   LIG d   1       8.860  -2.163  -2.407  0.00  0.00     0.210 HD
ENDBRANCH   8  48
BRANCH  14  50
ATOM     50  O   LIG d   1      13.108  -1.927  -5.020  0.00  0.00    -0.506 OA
ATOM     51  H   LIG d   1      12.650  -1.359  -5.655  0.00  0.00     0.292 HD
ENDBRANCH  14  50
TORSDOF 7
ENDMDL
MODEL 4
REMARK VINA RESULT:      -6.0      4.832      7.317
REMARK  7 active torsions:
REMARK  status: ('A' for Active; 'I' for Inactive)
REMARK    1  A    between atoms: C_1  and  N_2 
REMARK    2  A    between atoms: N_2  and  C_3 
REMARK    3  A    between atoms: N_2  and  C_4 
REMARK    4  A    between atoms: C_11  and  O_36 
REMARK    5  A    between atoms: C_17  and  O_34 
REMARK    6  A    between atoms: C_23  and  O_32 
REMARK    7  A    between atoms: C_25  and  C_28 
REMARK       I    between atoms: C_28  and  N_30 
ROOT
ATOM      1  C   LIG d   1      11.545  -0.448  -6.502  0.00  0.00     0.079 C 
ATOM      2  H   LIG d   1      11.623  -1.526  -6.641  0.00  0.00     0.055 H 
ATOM      3  C   LIG d   1      10.423  -0.153  -5.525  0.00  0.00     0.017 C 
ATOM      4  H   LIG d   1      10.755  -0.466  -4.536  0.00  0.00     0.035 H 
ATOM      5  C   LIG d   1       9.176  -0.967  -5.871  0.00  0.00    -0.036 C 
ATOM      6  C   LIG d   1       8.202  -0.894  -4.690  0.00  0.00     0.018 C 
ATOM      7  H   LIG d   1       8.636  -1.410  -3.834  0.00  0.00     0.038 H 
ATOM      8  C   LIG d   1       6.891  -1.573  -5.079  0.00  0.00     0.089 C 
ATOM      9  H   LIG d   1       7.066  -2.638  -5.225  0.00  0.00     0.065 H 
ATOM     10  C   LIG d   1       5.859  -1.383  -3.999  0.00  0.00     0.014 A 
ATOM     11  C   LIG d   1       4.961  -2.391  -3.713  0.00  0.00     0.048 A 
ATOM     12  C   LIG d   1       4.001  -2.211  -2.730  0.00  0.00    -0.040 A 
ATOM     13  C   LIG d   1       3.929  -1.023  -2.029  0.00  0.00    -0.018 A 
ATOM     14  C   LIG d   1       4.828  -0.003  -2.300  0.00  0.00     0.128 A 
ATOM     15  C   LIG d   1       5.805  -0.186  -3.285  0.00  0.00     0.070 A 
ATOM     16  C   LIG d   1       6.801   0.871  -3.558  0.00  0.00     0.193 C 
ATOM     17  C   LIG d   1       7.949   0.545  -4.330  0.00  0.00    -0.003 C 
ATOM     18  C   LIG d   1       8.781   1.529  -4.684  0.00  0.00    -0.089 C 
ATOM     19  O   LIG d   1       8.448   2.789  -4.339  0.00  0.00    -0.874 OA
ATOM     20  C   LIG d   1      10.061   1.312  -5.441  0.00  0.00     0.094 C 
ATOM     21  C   LIG d   1       9.967   1.970  -6.785  0.00  0.00    -0.081 C 
ATOM     22  C   LIG d   1      10.546   1.444  -7.911  0.00  0.00     0.072 C 
ATOM     23  C   LIG d   1      11.289   0.203  -7.831  0.00  0.00     0.185 C 
ATOM     24  O   LIG d   1      11.677  -0.324  -8.853  0.00  0.00    -0.290 OA
ATOM     25  O   LIG d   1       9.286   3.121  -6.889  0.00  0.00    -0.874 OA
ATOM     26  O   LIG d   1       6.633   2.001  -3.139  0.00  0.00    -0.287 OA
ATOM     27 CL   LIG d   1       5.035  -3.890  -4.587  0.00  0.00    -0.083 Cl
ATOM     28  H   LIG d   1       8.703  -0.552  -6.761  0.00  0.00     0.028 H 
ATOM     29  H   LIG d   1       9.455  -2.006  -6.051  0.00  0.00     0.028 H 
ATOM     30  H   LIG d   1       3.302  -3.006  -2.511  0.00  0.00     0.063 H 
ATOM     31  H   LIG d   1       3.173  -0.889  -1.270  0.00  0.00     0.066 H 
ENDROOT
BRANCH   1  32
ATOM     32  N   LIG d   1      12.809   0.060  -5.951  0.00  0.00    -0.298 N 
BRANCH  32  33
ATOM     33  C   LIG d   1      13.188  -0.675  -4.738  0.00  0.00    -0.012 C 
ATOM     34  H   LIG d   1      12.967  -1.734  -4.872  0.00  0.00     0.039 H 
ATOM     35  H   LIG d   1      14.253  -0.547  -4.552  0.00  0.00     0.039 H 
ATOM     36  H   LIG d   1      12.622  -0.292  -3.889  0.00  0.00     0.039 H 
ENDBRANCH  32  33
BRANCH  32  37
ATOM     37  C   LIG d   1      13.879   0.008  -6.955  0.00  0.00    -0.012 C 
ATOM     38  H   LIG d   1      13.851  -0.955  -7.466  0.00  0.00     0.039 H 
ATOM     39  H   LIG d   1      13.736   0.808  -7.682  0.00  0.00     0.039 H 
ATOM     40  H   LIG d   1      14.844   0.131  -6.465  0.00  0.00     0.039 H 
ENDBRANCH  32  37
ENDBRANCH   1  32
BRANCH  22  41
ATOM     41  C   LIG d   1      10.429   2.154  -9.196  0.00  0.00     0.244 C 
ATOM     42  O   LIG d   1      11.288   2.947  -9.533  0.00  0.00    -0.270 OA
ATOM     43  N   LIG d   1       9.373   1.922 -10.000  0.00  0.00    -0.325 N 
ATOM     44  H   LIG d   1       8.648   1.353  -9.697  0.00  0.00     0.145 HD
ATOM     45  H   LIG d   1       9.336   2.325 -10.881  0.00  0.00     0.145 HD
ENDBRANCH  22  41
BRANCH  20  46
ATOM     46  O   LIG d   1      11.102   1.978  -4.725  0.00  0.00    -0.381 OA
ATOM     47  H   LIG d   1      10.863   2.861  -4.411  0.00  0.00     0.211 HD
ENDBRANCH  20  46
BRANCH   8  48
ATOM     48  O   LIG d   1       6.407  -1.003  -6.297  0.00  0.00    -0.387 OA
ATOM     49  H   LIG d   1       5.717  -1.525  -6.729  0.00  0.00     0.210 HD
ENDBRANCH   8  48
BRANCH  14  50
ATOM     50  O   LIG d   1       4.761   1.166  -1.613  0.00  0.00    -0.506 OA
ATOM     51  H   LIG d   1       5.576   1.687  -1.642  0.00  0.00     0.292 HD
ENDBRANCH  14  50
TORSDOF 7
ENDMDL
MODEL 5
REMARK VINA RESULT:      -6.0      3.624      5.937
REMARK  7 active torsions:
REMARK  status: ('A' for Active; 'I' for Inactive)
REMARK    1  A    between atoms: C_1  and  N_2 
REMARK    2  A    between atoms: N_2  and  C_3 
REMARK    3  A    between atoms: N_2  and  C_4 
REMARK    4  A    between atoms: C_11  and  O_36 
REMARK    5  A    between atoms: C_17  and  O_34 
REMARK    6  A    between atoms: C_23  and  O_32 
REMARK    7  A    between atoms: C_25  and  C_28 
REMARK       I    between atoms: C_28  and  N_30 
ROOT
ATOM      1  C   LIG d   1       4.629  -1.831 -11.901  0.00  0.00     0.079 C 
ATOM      2  H   LIG d   1       5.411  -2.588 -11.953  0.00  0.00     0.055 H 
ATOM      3  C   LIG d   1       4.617  -1.223 -10.512  0.00  0.00     0.017 C 
ATOM      4  H   LIG d   1       5.510  -0.607 -10.414  0.00  0.00     0.035 H 
ATOM      5  C   LIG d   1       4.690  -2.314  -9.443  0.00  0.00    -0.036 C 
ATOM      6  C   LIG d   1       5.008  -1.656  -8.096  0.00  0.00     0.018 C 
ATOM      7  H   LIG d   1       6.013  -1.238  -8.128  0.00  0.00     0.038 H 
ATOM      8  C   LIG d   1       4.933  -2.710  -6.993  0.00  0.00     0.089 C 
ATOM      9  H   LIG d   1       5.729  -3.440  -7.138  0.00  0.00     0.065 H 
ATOM     10  C   LIG d   1       5.087  -2.070  -5.640  0.00  0.00     0.014 A 
ATOM     11  C   LIG d   1       5.765  -2.726  -4.634  0.00  0.00     0.048 A 
ATOM     12  C   LIG d   1       5.893  -2.144  -3.383  0.00  0.00    -0.040 A 
ATOM     13  C   LIG d   1       5.342  -0.903  -3.128  0.00  0.00    -0.018 A 
ATOM     14  C   LIG d   1       4.662  -0.227  -4.130  0.00  0.00     0.128 A 
ATOM     15  C   LIG d   1       4.540  -0.809  -5.397  0.00  0.00     0.070 A 
ATOM     16  C   LIG d   1       3.860  -0.085  -6.490  0.00  0.00     0.193 C 
ATOM     17  C   LIG d   1       4.018  -0.555  -7.823  0.00  0.00    -0.003 C 
ATOM     18  C   LIG d   1       3.300   0.019  -8.792  0.00  0.00    -0.089 C 
ATOM     19  O   LIG d   1       2.418   0.975  -8.440  0.00  0.00    -0.874 OA
ATOM     20  C   LIG d   1       3.421  -0.338 -10.247  0.00  0.00     0.094 C 
ATOM     21  C   LIG d   1       2.132  -0.935 -10.726  0.00  0.00    -0.081 C 
ATOM     22  C   LIG d   1       2.081  -1.940 -11.658  0.00  0.00     0.072 C 
ATOM     23  C   LIG d   1       3.306  -2.465 -12.225  0.00  0.00     0.185 C 
ATOM     24  O   LIG d   1       3.258  -3.444 -12.941  0.00  0.00    -0.290 OA
ATOM     25  O   LIG d   1       0.982  -0.469 -10.220  0.00  0.00    -0.874 OA
ATOM     26  O   LIG d   1       3.168   0.887  -6.252  0.00  0.00    -0.287 OA
ATOM     27 CL   LIG d   1       6.461  -4.288  -4.937  0.00  0.00    -0.083 Cl
ATOM     28  H   LIG d   1       3.732  -2.831  -9.381  0.00  0.00     0.028 H 
ATOM     29  H   LIG d   1       5.477  -3.024  -9.698  0.00  0.00     0.028 H 
ATOM     30  H   LIG d   1       6.428  -2.664  -2.601  0.00  0.00     0.063 H 
ATOM     31  H   LIG d   1       5.441  -0.460  -2.148  0.00  0.00     0.066 H 
ENDROOT
BRANCH   1  32
ATOM     32  N   LIG d   1       4.912  -0.778 -12.885  0.00  0.00    -0.298 N 
BRANCH  32  33
ATOM     33  C   LIG d   1       6.311  -0.835 -13.329  0.00  0.00    -0.012 C 
ATOM     34  H   LIG d   1       6.708  -1.835 -13.152  0.00  0.00     0.039 H 
ATOM     35  H   LIG d   1       6.365  -0.607 -14.393  0.00  0.00     0.039 H 
ATOM     36  H   LIG d   1       6.900  -0.107 -12.771  0.00  0.00     0.039 H 
ENDBRANCH  32  33
BRANCH  32  37
ATOM     37  C   LIG d   1       3.993  -0.863 -14.028  0.00  0.00    -0.012 C 
ATOM     38  H   LIG d   1       4.522  -1.267 -14.891  0.00  0.00     0.039 H 
ATOM     39  H   LIG d   1       3.159  -1.519 -13.774  0.00  0.00     0.039 H 
ATOM     40  H   LIG d   1       3.615   0.131 -14.265  0.00  0.00     0.039 H 
ENDBRANCH  32  37
ENDBRANCH   1  32
BRANCH  22  41
ATOM     41  C   LIG d   1       0.779  -2.468 -12.096  0.00  0.00     0.244 C 
ATOM     42  O   LIG d   1       0.312  -2.126 -13.167  0.00  0.00    -0.270 OA
ATOM     43  N   LIG d   1       0.104  -3.332 -11.313  0.00  0.00    -0.325 N 
ATOM     44  H   LIG d   1       0.434  -3.543 -10.425  0.00  0.00     0.145 HD
ATOM     45  H   LIG d   1      -0.712  -3.745 -11.636  0.00  0.00     0.145 HD
ENDBRANCH  22  41
BRANCH  20  46
ATOM     46  O   LIG d   1       3.610   0.878 -10.974  0.00  0.00    -0.381 OA
ATOM     47  H   LIG d   1       3.157   0.902 -11.828  0.00  0.00     0.211 HD
ENDBRANCH  20  46
BRANCH   8  48
ATOM     48  O   LIG d   1       3.669  -3.373  -7.059  0.00  0.00    -0.387 OA
ATOM     49  H   LIG d   1       3.594  -4.007  -7.786  0.00  0.00     0.210 HD
ENDBRANCH   8  48
BRANCH  14  50
ATOM     50  O   LIG d   1       4.120   0.993  -3.883  0.00  0.00    -0.506 OA
ATOM     51  H   LIG d   1       3.158   1.023  -3.979  0.00  0.00     0.292 HD
ENDBRANCH  14  50
TORSDOF 7
ENDMDL
MODEL 6
REMARK VINA RESULT:      -6.0      2.879      7.140
REMARK  7 active torsions:
REMARK  status: ('A' for Active; 'I' for Inactive)
REMARK    1  A    between atoms: C_1  and  N_2 
REMARK    2  A    between atoms: N_2  and  C_3 
REMARK    3  A    between atoms: N_2  and  C_4 
REMARK    4  A    between atoms: C_11  and  O_36 
REMARK    5  A    between atoms: C_17  and  O_34 
REMARK    6  A    between atoms: C_23  and  O_32 
REMARK    7  A    between atoms: C_25  and  C_28 
REMARK       I    between atoms: C_28  and  N_30 
ROOT
ATOM      1  C   LIG d   1       6.597  -5.354  -6.183  0.00  0.00     0.079 C 
ATOM      2  H   LIG d   1       6.829  -5.793  -7.153  0.00  0.00     0.055 H 
ATOM      3  C   LIG d   1       5.754  -4.110  -6.390  0.00  0.00     0.017 C 
ATOM      4  H   LIG d   1       4.765  -4.432  -6.716  0.00  0.00     0.035 H 
ATOM      5  C   LIG d   1       6.342  -3.237  -7.498  0.00  0.00    -0.036 C 
ATOM      6  C   LIG d   1       5.300  -2.186  -7.896  0.00  0.00     0.018 C 
ATOM      7  H   LIG d   1       4.449  -2.681  -8.362  0.00  0.00     0.038 H 
ATOM      8  C   LIG d   1       5.926  -1.211  -8.891  0.00  0.00     0.089 C 
ATOM      9  H   LIG d   1       6.152  -1.738  -9.817  0.00  0.00     0.065 H 
ATOM     10  C   LIG d   1       4.981  -0.076  -9.183  0.00  0.00     0.014 A 
ATOM     11  C   LIG d   1       4.918   0.465 -10.450  0.00  0.00     0.048 A 
ATOM     12  C   LIG d   1       4.059   1.520 -10.716  0.00  0.00    -0.040 A 
ATOM     13  C   LIG d   1       3.260   2.042  -9.718  0.00  0.00    -0.018 A 
ATOM     14  C   LIG d   1       3.306   1.505  -8.440  0.00  0.00     0.128 A 
ATOM     15  C   LIG d   1       4.165   0.433  -8.172  0.00  0.00     0.070 A 
ATOM     16  C   LIG d   1       4.196  -0.184  -6.830  0.00  0.00     0.193 C 
ATOM     17  C   LIG d   1       4.836  -1.443  -6.671  0.00  0.00    -0.003 C 
ATOM     18  C   LIG d   1       4.977  -1.937  -5.438  0.00  0.00    -0.089 C 
ATOM     19  O   LIG d   1       4.557  -1.180  -4.405  0.00  0.00    -0.874 OA
ATOM     20  C   LIG d   1       5.575  -3.283  -5.137  0.00  0.00     0.094 C 
ATOM     21  C   LIG d   1       6.847  -3.107  -4.365  0.00  0.00    -0.081 C 
ATOM     22  C   LIG d   1       7.932  -3.930  -4.524  0.00  0.00     0.072 C 
ATOM     23  C   LIG d   1       7.877  -5.027  -5.469  0.00  0.00     0.185 C 
ATOM     24  O   LIG d   1       8.885  -5.661  -5.704  0.00  0.00    -0.290 OA
ATOM     25  O   LIG d   1       6.927  -2.101  -3.482  0.00  0.00    -0.874 OA
ATOM     26  O   LIG d   1       3.694   0.382  -5.877  0.00  0.00    -0.287 OA
ATOM     27 CL   LIG d   1       5.919  -0.176 -11.716  0.00  0.00    -0.083 Cl
ATOM     28  H   LIG d   1       7.242  -2.741  -7.135  0.00  0.00     0.028 H 
ATOM     29  H   LIG d   1       6.585  -3.855  -8.362  0.00  0.00     0.028 H 
ATOM     30  H   LIG d   1       4.015   1.938 -11.712  0.00  0.00     0.063 H 
ATOM     31  H   LIG d   1       2.599   2.869  -9.932  0.00  0.00     0.066 H 
ENDROOT
BRANCH   1  32
ATOM     32  N   LIG d   1       5.834  -6.325  -5.385  0.00  0.00    -0.298 N 
BRANCH  32  33
ATOM     33  C   LIG d   1       4.636  -6.774  -6.106  0.00  0.00    -0.012 C 
ATOM     34  H   LIG d   1       4.704  -7.846  -6.289  0.00  0.00     0.039 H 
ATOM     35  H   LIG d   1       3.751  -6.562  -5.509  0.00  0.00     0.039 H 
ATOM     36  H   LIG d   1       4.567  -6.247  -7.058  0.00  0.00     0.039 H 
ENDBRANCH  32  33
BRANCH  32  37
ATOM     37  C   LIG d   1       6.675  -7.465  -4.999  0.00  0.00    -0.012 C 
ATOM     38  H   LIG d   1       6.108  -8.134  -4.353  0.00  0.00     0.039 H 
ATOM     39  H   LIG d   1       6.988  -8.005  -5.894  0.00  0.00     0.039 H 
ATOM     40  H   LIG d   1       7.555  -7.104  -4.466  0.00  0.00     0.039 H 
ENDBRANCH  32  37
ENDBRANCH   1  32
BRANCH  22  41
ATOM     41  C   LIG d   1       9.144  -3.710  -3.718  0.00  0.00     0.244 C 
ATOM     42  O   LIG d   1       9.291  -4.302  -2.666  0.00  0.00    -0.270 OA
ATOM     43  N   LIG d   1      10.092  -2.854  -4.147  0.00  0.00    -0.325 N 
ATOM     44  H   LIG d   1       9.941  -2.321  -4.944  0.00  0.00     0.145 HD
ATOM     45  H   LIG d   1      10.927  -2.770  -3.661  0.00  0.00     0.145 HD
ENDBRANCH  22  41
BRANCH  20  46
ATOM     46  O   LIG d   1       4.663  -3.977  -4.284  0.00  0.00    -0.381 OA
ATOM     47  H   LIG d   1       4.133  -4.648  -4.736  0.00  0.00     0.211 HD
ENDBRANCH  20  46
BRANCH   8  48
ATOM     48  O   LIG d   1       7.135  -0.685  -8.340  0.00  0.00    -0.387 OA
ATOM     49  H   LIG d   1       7.197   0.279  -8.373  0.00  0.00     0.210 HD
ENDBRANCH   8  48
BRANCH  14  50
ATOM     50  O   LIG d   1       2.522   2.014  -7.457  0.00  0.00    -0.506 OA
ATOM     51  H   LIG d   1       2.719   2.935  -7.233  0.00  0.00     0.292 HD
ENDBRANCH  14  50
TORSDOF 7
ENDMDL
MODEL 7
REMARK VINA RESULT:      -5.9      9.350     11.565
REMARK  7 active torsions:
REMARK  status: ('A' for Active; 'I' for Inactive)
REMARK    1  A    between atoms: C_1  and  N_2 
REMARK    2  A    between atoms: N_2  and  C_3 
REMARK    3  A    between atoms: N_2  and  C_4 
REMARK    4  A    between atoms: C_11  and  O_36 
REMARK    5  A    between atoms: C_17  and  O_34 
REMARK    6  A    between atoms: C_23  and  O_32 
REMARK    7  A    between atoms: C_25  and  C_28 
REMARK       I    between atoms: C_28  and  N_30 
ROOT
ATOM      1  C   LIG d   1      10.597   6.775  -0.787  0.00  0.00     0.079 C 
ATOM      2  H   LIG d   1       9.820   6.375  -0.136  0.00  0.00     0.055 H 
ATOM      3  C   LIG d   1      10.354   6.293  -2.204  0.00  0.00     0.017 C 
ATOM      4  H   LIG d   1       9.476   6.814  -2.584  0.00  0.00     0.035 H 
ATOM      5  C   LIG d   1      10.046   4.795  -2.222  0.00  0.00    -0.036 C 
ATOM      6  C   LIG d   1       9.489   4.428  -3.601  0.00  0.00     0.018 C 
ATOM      7  H   LIG d   1       8.521   4.907  -3.738  0.00  0.00     0.038 H 
ATOM      8  C   LIG d   1       9.320   2.913  -3.686  0.00  0.00     0.089 C 
ATOM      9  H   LIG d   1       8.548   2.597  -2.985  0.00  0.00     0.065 H 
ATOM     10  C   LIG d   1       8.923   2.503  -5.079  0.00  0.00     0.014 A 
ATOM     11  C   LIG d   1       8.044   1.458  -5.271  0.00  0.00     0.048 A 
ATOM     12  C   LIG d   1       7.691   1.070  -6.554  0.00  0.00    -0.040 A 
ATOM     13  C   LIG d   1       8.214   1.723  -7.652  0.00  0.00    -0.018 A 
ATOM     14  C   LIG d   1       9.094   2.781  -7.477  0.00  0.00     0.128 A 
ATOM     15  C   LIG d   1       9.445   3.180  -6.182  0.00  0.00     0.070 A 
ATOM     16  C   LIG d   1      10.344   4.333  -5.973  0.00  0.00     0.193 C 
ATOM     17  C   LIG d   1      10.436   4.900  -4.672  0.00  0.00    -0.003 C 
ATOM     18  C   LIG d   1      11.344   5.856  -4.455  0.00  0.00    -0.089 C 
ATOM     19  O   LIG d   1      12.166   6.186  -5.471  0.00  0.00    -0.874 OA
ATOM     20  C   LIG d   1      11.500   6.582  -3.148  0.00  0.00     0.094 C 
ATOM     21  C   LIG d   1      12.840   6.268  -2.556  0.00  0.00    -0.081 C 
ATOM     22  C   LIG d   1      13.045   6.146  -1.205  0.00  0.00     0.072 C 
ATOM     23  C   LIG d   1      11.940   6.326  -0.286  0.00  0.00     0.185 C 
ATOM     24  O   LIG d   1      12.100   6.080   0.892  0.00  0.00    -0.290 OA
ATOM     25  O   LIG d   1      13.882   6.097  -3.382  0.00  0.00    -0.874 OA
ATOM     26  O   LIG d   1      11.002   4.780  -6.893  0.00  0.00    -0.287 OA
ATOM     27 CL   LIG d   1       7.379   0.623  -3.901  0.00  0.00    -0.083 Cl
ATOM     28  H   LIG d   1      10.959   4.231  -2.033  0.00  0.00     0.028 H 
ATOM     29  H   LIG d   1       9.305   4.566  -1.456  0.00  0.00     0.028 H 
ATOM     30  H   LIG d   1       7.000   0.251  -6.696  0.00  0.00     0.063 H 
ATOM     31  H   LIG d   1       7.939   1.410  -8.649  0.00  0.00     0.066 H 
ENDROOT
BRANCH   1  32
ATOM     32  N   LIG d   1      10.539   8.243  -0.761  0.00  0.00    -0.298 N 
BRANCH  32  33
ATOM     33  C   LIG d   1       9.162   8.718  -0.952  0.00  0.00    -0.012 C 
ATOM     34  H   LIG d   1       8.593   8.559  -0.036  0.00  0.00     0.039 H 
ATOM     35  H   LIG d   1       9.174   9.780  -1.193  0.00  0.00     0.039 H 
ATOM     36  H   LIG d   1       8.697   8.166  -1.769  0.00  0.00     0.039 H 
ENDBRANCH  32  33
BRANCH  32  37
ATOM     37  C   LIG d   1      11.110   8.770   0.485  0.00  0.00    -0.012 C 
ATOM     38  H   LIG d   1      12.198   8.726   0.434  0.00  0.00     0.039 H 
ATOM     39  H   LIG d   1      10.795   9.806   0.619  0.00  0.00     0.039 H 
ATOM     40  H   LIG d   1      10.761   8.172   1.326  0.00  0.00     0.039 H 
ENDBRANCH  32  37
ENDBRANCH   1  32
BRANCH  22  41
ATOM     41  C   LIG d   1      14.393   5.854  -0.691  0.00  0.00     0.244 C 
ATOM     42  O   LIG d   1      15.000   6.699  -0.060  0.00  0.00    -0.270 OA
ATOM     43  N   LIG d   1      14.955   4.650  -0.918  0.00  0.00    -0.325 N 
ATOM     44  H   LIG d   1      14.507   4.006  -1.490  0.00  0.00     0.145 HD
ATOM     45  H   LIG d   1      15.806   4.427  -0.511  0.00  0.00     0.145 HD
ENDBRANCH  22  41
BRANCH  20  46
ATOM     46  O   LIG d   1      11.488   7.983  -3.430  0.00  0.00    -0.381 OA
ATOM     47  H   LIG d   1      10.612   8.388  -3.380  0.00  0.00     0.211 HD
ENDBRANCH  20  46
BRANCH   8  48
ATOM     48  O   LIG d   1      10.555   2.280  -3.344  0.00  0.00    -0.387 OA
ATOM     49  H   LIG d   1      10.650   2.087  -2.401  0.00  0.00     0.210 HD
ENDBRANCH   8  48
BRANCH  14  50
ATOM     50  O   LIG d   1       9.610   3.425  -8.554  0.00  0.00    -0.506 OA
ATOM     51  H   LIG d   1       9.682   2.874  -9.346  0.00  0.00     0.292 HD
ENDBRANCH  14  50
TORSDOF 7
ENDMDL
MODEL 8
REMARK VINA RESULT:      -5.8     10.469     13.457
REMARK  7 active torsions:
REMARK  status: ('A' for Active; 'I' for Inactive)
REMARK    1  A    between atoms: C_1  and  N_2 
REMARK    2  A    between atoms: N_2  and  C_3 
REMARK    3  A    between atoms: N_2  and  C_4 
REMARK    4  A    between atoms: C_11  and  O_36 
REMARK    5  A    between atoms: C_17  and  O_34 
REMARK    6  A    between atoms: C_23  and  O_32 
REMARK    7  A    between atoms: C_25  and  C_28 
REMARK       I    between atoms: C_28  and  N_30 
ROOT
ATOM      1  C   LIG d   1       9.405   3.646  -4.345  0.00  0.00     0.079 C 
ATOM      2  H   LIG d   1       8.521   4.095  -4.800  0.00  0.00     0.055 H 
ATOM      3  C   LIG d   1       9.825   4.480  -3.150  0.00  0.00     0.017 C 
ATOM      4  H   LIG d   1       9.085   4.326  -2.364  0.00  0.00     0.035 H 
ATOM      5  C   LIG d   1       9.824   5.968  -3.500  0.00  0.00    -0.036 C 
ATOM      6  C   LIG d   1       9.926   6.775  -2.201  0.00  0.00     0.018 C 
ATOM      7  H   LIG d   1       9.018   6.631  -1.616  0.00  0.00     0.038 H 
ATOM      8  C   LIG d   1      10.080   8.255  -2.541  0.00  0.00     0.089 C 
ATOM      9  H   LIG d   1       9.167   8.612  -3.016  0.00  0.00     0.065 H 
ATOM     10  C   LIG d   1      10.338   9.059  -1.295  0.00  0.00     0.014 A 
ATOM     11  C   LIG d   1       9.809  10.326  -1.164  0.00  0.00     0.048 A 
ATOM     12  C   LIG d   1      10.060  11.072  -0.023  0.00  0.00    -0.040 A 
ATOM     13  C   LIG d   1      10.843  10.559   0.992  0.00  0.00    -0.018 A 
ATOM     14  C   LIG d   1      11.377   9.284   0.879  0.00  0.00     0.128 A 
ATOM     15  C   LIG d   1      11.117   8.524  -0.267  0.00  0.00     0.070 A 
ATOM     16  C   LIG d   1      11.639   7.148  -0.387  0.00  0.00     0.193 C 
ATOM     17  C   LIG d   1      11.112   6.304  -1.403  0.00  0.00    -0.003 C 
ATOM     18  C   LIG d   1      11.674   5.107  -1.594  0.00  0.00    -0.089 C 
ATOM     19  O   LIG d   1      12.753   4.792  -0.849  0.00  0.00    -0.874 OA
ATOM     20  C   LIG d   1      11.174   4.095  -2.587  0.00  0.00     0.094 C 
ATOM     21  C   LIG d   1      12.211   3.877  -3.647  0.00  0.00    -0.081 C 
ATOM     22  C   LIG d   1      11.892   3.633  -4.958  0.00  0.00     0.072 C 
ATOM     23  C   LIG d   1      10.503   3.573  -5.367  0.00  0.00     0.185 C 
ATOM     24  O   LIG d   1      10.233   3.497  -6.548  0.00  0.00    -0.290 OA
ATOM     25  O   LIG d   1      13.504   3.926  -3.299  0.00  0.00    -0.874 OA
ATOM     26  O   LIG d   1      12.511   6.749   0.361  0.00  0.00    -0.287 OA
ATOM     27 CL   LIG d   1       8.825  10.988  -2.432  0.00  0.00    -0.083 Cl
ATOM     28  H   LIG d   1      10.677   6.194  -4.139  0.00  0.00     0.028 H 
ATOM     29  H   LIG d   1       8.898   6.222  -4.016  0.00  0.00     0.028 H 
ATOM     30  H   LIG d   1       9.640  12.063   0.072  0.00  0.00     0.063 H 
ATOM     31  H   LIG d   1      11.039  11.150   1.874  0.00  0.00     0.066 H 
ENDROOT
BRANCH   1  32
ATOM     32  N   LIG d   1       9.076   2.287  -3.893  0.00  0.00    -0.298 N 
BRANCH  32  33
ATOM     33  C   LIG d   1       7.622   2.078  -3.868  0.00  0.00    -0.012 C 
ATOM     34  H   LIG d   1       7.384   1.129  -4.348  0.00  0.00     0.039 H 
ATOM     35  H   LIG d   1       7.275   2.060  -2.835  0.00  0.00     0.039 H 
ATOM     36  H   LIG d   1       7.129   2.890  -4.403  0.00  0.00     0.039 H 
ENDBRANCH  32  33
BRANCH  32  37
ATOM     37  C   LIG d   1       9.739   1.279  -4.731  0.00  0.00    -0.012 C 
ATOM     38  H   LIG d   1       9.002   0.557  -5.083  0.00  0.00     0.039 H 
ATOM     39  H   LIG d   1      10.205   1.768  -5.587  0.00  0.00     0.039 H 
ATOM     40  H   LIG d   1      10.501   0.765  -4.146  0.00  0.00     0.039 H 
ENDBRANCH  32  37
ENDBRANCH   1  32
BRANCH  22  41
ATOM     41  C   LIG d   1      12.961   3.410  -5.945  0.00  0.00     0.244 C 
ATOM     42  O   LIG d   1      13.352   2.281  -6.174  0.00  0.00    -0.270 OA
ATOM     43  N   LIG d   1      13.507   4.457  -6.595  0.00  0.00    -0.325 N 
ATOM     44  H   LIG d   1      13.255   5.363  -6.354  0.00  0.00     0.145 HD
ATOM     45  H   LIG d   1      14.152   4.306  -7.303  0.00  0.00     0.145 HD
ENDBRANCH  22  41
BRANCH  20  46
ATOM     46  O   LIG d   1      11.020   2.854  -1.895  0.00  0.00    -0.381 OA
ATOM     47  H   LIG d   1      11.652   2.173  -2.162  0.00  0.00     0.211 HD
ENDBRANCH  20  46
BRANCH   8  48
ATOM     48  O   LIG d   1      11.176   8.420  -3.443  0.00  0.00    -0.387 OA
ATOM     49  H   LIG d   1      11.140   7.841  -4.217  0.00  0.00     0.210 HD
ENDBRANCH   8  48
BRANCH  14  50
ATOM     50  O   LIG d   1      12.147   8.776   1.875  0.00  0.00    -0.506 OA
ATOM     51  H   LIG d   1      12.782   9.406   2.243  0.00  0.00     0.292 HD
ENDBRANCH  14  50
TORSDOF 7
ENDMDL
MODEL 9
REMARK VINA RESULT:      -5.7     10.936     14.266
REMARK  7 active torsions:
REMARK  status: ('A' for Active; 'I' for Inactive)
REMARK    1  A    between atoms: C_1  and  N_2 
REMARK    2  A    between atoms: N_2  and  C_3 
REMARK    3  A    between atoms: N_2  and  C_4 
REMARK    4  A    between atoms: C_11  and  O_36 
REMARK    5  A    between atoms: C_17  and  O_34 
REMARK    6  A    between atoms: C_23  and  O_32 
REMARK    7  A    between atoms: C_25  and  C_28 
REMARK       I    between atoms: C_28  and  N_30 
ROOT
ATOM      1  C   LIG d   1      11.964   3.555  -4.051  0.00  0.00     0.079 C 
ATOM      2  H   LIG d   1      11.749   3.519  -5.119  0.00  0.00     0.055 H 
ATOM      3  C   LIG d   1      11.312   4.787  -3.455  0.00  0.00     0.017 C 
ATOM      4  H   LIG d   1      10.235   4.619  -3.445  0.00  0.00     0.035 H 
ATOM      5  C   LIG d   1      11.578   6.016  -4.324  0.00  0.00    -0.036 C 
ATOM      6  C   LIG d   1      10.643   7.143  -3.875  0.00  0.00     0.018 C 
ATOM      7  H   LIG d   1       9.613   6.868  -4.100  0.00  0.00     0.038 H 
ATOM      8  C   LIG d   1      11.001   8.422  -4.629  0.00  0.00     0.089 C 
ATOM      9  H   LIG d   1      10.782   8.289  -5.688  0.00  0.00     0.065 H 
ATOM     10  C   LIG d   1      10.206   9.586  -4.101  0.00  0.00     0.014 A 
ATOM     11  C   LIG d   1       9.765  10.572  -4.959  0.00  0.00     0.048 A 
ATOM     12  C   LIG d   1       9.047  11.652  -4.471  0.00  0.00    -0.040 A 
ATOM     13  C   LIG d   1       8.767  11.755  -3.123  0.00  0.00    -0.018 A 
ATOM     14  C   LIG d   1       9.197  10.770  -2.247  0.00  0.00     0.128 A 
ATOM     15  C   LIG d   1       9.914   9.673  -2.739  0.00  0.00     0.070 A 
ATOM     16  C   LIG d   1      10.342   8.590  -1.830  0.00  0.00     0.193 C 
ATOM     17  C   LIG d   1      10.788   7.363  -2.393  0.00  0.00    -0.003 C 
ATOM     18  C   LIG d   1      11.296   6.434  -1.578  0.00  0.00    -0.089 C 
ATOM     19  O   LIG d   1      11.412   6.740  -0.270  0.00  0.00    -0.874 OA
ATOM     20  C   LIG d   1      11.741   5.072  -2.033  0.00  0.00     0.094 C 
ATOM     21  C   LIG d   1      13.220   4.934  -1.830  0.00  0.00    -0.081 C 
ATOM     22  C   LIG d   1      14.025   4.230  -2.688  0.00  0.00     0.072 C 
ATOM     23  C   LIG d   1      13.452   3.578  -3.848  0.00  0.00     0.185 C 
ATOM     24  O   LIG d   1      14.188   3.078  -4.674  0.00  0.00    -0.290 OA
ATOM     25  O   LIG d   1      13.778   5.525  -0.764  0.00  0.00    -0.874 OA
ATOM     26  O   LIG d   1      10.324   8.750  -0.625  0.00  0.00    -0.287 OA
ATOM     27 CL   LIG d   1      10.112  10.459  -6.657  0.00  0.00    -0.083 Cl
ATOM     28  H   LIG d   1      12.615   6.330  -4.205  0.00  0.00     0.028 H 
ATOM     29  H   LIG d   1      11.383   5.774  -5.369  0.00  0.00     0.028 H 
ATOM     30  H   LIG d   1       8.704  12.419  -5.150  0.00  0.00     0.063 H 
ATOM     31  H   LIG d   1       8.213  12.604  -2.750  0.00  0.00     0.066 H 
ENDROOT
BRANCH   1  32
ATOM     32  N   LIG d   1      11.408   2.356  -3.408  0.00  0.00    -0.298 N 
BRANCH  32  33
ATOM     33  C   LIG d   1       9.983   2.200  -3.727  0.00  0.00    -0.012 C 
ATOM     34  H   LIG d   1       9.539   3.182  -3.893  0.00  0.00     0.039 H 
ATOM     35  H   LIG d   1       9.875   1.596  -4.626  0.00  0.00     0.039 H 
ATOM     36  H   LIG d   1       9.476   1.709  -2.896  0.00  0.00     0.039 H 
ENDBRANCH  32  33
BRANCH  32  37
ATOM     37  C   LIG d   1      12.166   1.157  -3.786  0.00  0.00    -0.012 C 
ATOM     38  H   LIG d   1      13.153   1.448  -4.147  0.00  0.00     0.039 H 
ATOM     39  H   LIG d   1      12.276   0.507  -2.916  0.00  0.00     0.039 H 
ATOM     40  H   LIG d   1      11.634   0.623  -4.573  0.00  0.00     0.039 H 
ENDBRANCH  32  37
ENDBRANCH   1  32
BRANCH  22  41
ATOM     41  C   LIG d   1      15.467   4.119  -2.417  0.00  0.00     0.244 C 
ATOM     42  O   LIG d   1      16.253   4.847  -2.994  0.00  0.00    -0.270 OA
ATOM     43  N   LIG d   1      15.918   3.213  -1.527  0.00  0.00    -0.325 N 
ATOM     44  H   LIG d   1      15.303   2.577  -1.127  0.00  0.00     0.145 HD
ATOM     45  H   LIG d   1      16.857   3.195  -1.286  0.00  0.00     0.145 HD
ENDBRANCH  22  41
BRANCH  20  46
ATOM     46  O   LIG d   1      11.113   4.109  -1.186  0.00  0.00    -0.381 OA
ATOM     47  H   LIG d   1      10.623   4.493  -0.447  0.00  0.00     0.211 HD
ENDBRANCH  20  46
BRANCH   8  48
ATOM     48  O   LIG d   1      12.395   8.691  -4.466  0.00  0.00    -0.387 OA
ATOM     49  H   LIG d   1      12.934   8.454  -5.233  0.00  0.00     0.210 HD
ENDBRANCH   8  48
BRANCH  14  50
ATOM     50  O   LIG d   1       8.924  10.868  -0.921  0.00  0.00    -0.506 OA
ATOM     51  H   LIG d   1       9.698  10.766  -0.350  0.00  0.00     0.292 HD
ENDBRANCH  14  50
TORSDOF 7
ENDMDL
MODEL 10
REMARK VINA RESULT:      -5.6     10.361     12.524
REMARK  7 active torsions:
REMARK  status: ('A' for Active; 'I' for Inactive)
REMARK    1  A    between atoms: C_1  and  N_2 
REMARK    2  A    between atoms: N_2  and  C_3 
REMARK    3  A    between atoms: N_2  and  C_4 
REMARK    4  A    between atoms: C_11  and  O_36 
REMARK    5  A    between atoms: C_17  and  O_34 
REMARK    6  A    between atoms: C_23  and  O_32 
REMARK    7  A    between atoms: C_25  and  C_28 
REMARK       I    between atoms: C_28  and  N_30 
ROOT
ATOM      1  C   LIG d   1      12.743   9.034  -2.635  0.00  0.00     0.079 C 
ATOM      2  H   LIG d   1      13.187   9.597  -3.456  0.00  0.00     0.055 H 
ATOM      3  C   LIG d   1      12.210   7.717  -3.168  0.00  0.00     0.017 C 
ATOM      4  H   LIG d   1      13.067   7.089  -3.412  0.00  0.00     0.035 H 
ATOM      5  C   LIG d   1      11.416   7.935  -4.456  0.00  0.00    -0.036 C 
ATOM      6  C   LIG d   1      11.188   6.575  -5.124  0.00  0.00     0.018 C 
ATOM      7  H   LIG d   1      12.144   6.173  -5.458  0.00  0.00     0.038 H 
ATOM      8  C   LIG d   1      10.267   6.757  -6.329  0.00  0.00     0.089 C 
ATOM      9  H   LIG d   1      10.777   7.353  -7.085  0.00  0.00     0.065 H 
ATOM     10  C   LIG d   1       9.897   5.421  -6.916  0.00  0.00     0.014 A 
ATOM     11  C   LIG d   1       9.754   5.279  -8.280  0.00  0.00     0.048 A 
ATOM     12  C   LIG d   1       9.397   4.053  -8.821  0.00  0.00    -0.040 A 
ATOM     13  C   LIG d   1       9.179   2.964  -8.001  0.00  0.00    -0.018 A 
ATOM     14  C   LIG d   1       9.325   3.088  -6.627  0.00  0.00     0.128 A 
ATOM     15  C   LIG d   1       9.695   4.322  -6.081  0.00  0.00     0.070 A 
ATOM     16  C   LIG d   1       9.900   4.465  -4.625  0.00  0.00     0.193 C 
ATOM     17  C   LIG d   1      10.563   5.624  -4.139  0.00  0.00    -0.003 C 
ATOM     18  C   LIG d   1      10.633   5.814  -2.818  0.00  0.00    -0.089 C 
ATOM     19  O   LIG d   1      10.013   4.921  -2.021  0.00  0.00    -0.874 OA
ATOM     20  C   LIG d   1      11.359   6.961  -2.173  0.00  0.00     0.094 C 
ATOM     21  C   LIG d   1      10.378   7.838  -1.456  0.00  0.00    -0.081 C 
ATOM     22  C   LIG d   1      10.514   9.200  -1.383  0.00  0.00     0.072 C 
ATOM     23  C   LIG d   1      11.646   9.849  -2.014  0.00  0.00     0.185 C 
ATOM     24  O   LIG d   1      11.683  11.062  -2.065  0.00  0.00    -0.290 OA
ATOM     25  O   LIG d   1       9.321   7.265  -0.861  0.00  0.00    -0.874 OA
ATOM     26  O   LIG d   1       9.498   3.611  -3.857  0.00  0.00    -0.287 OA
ATOM     27 CL   LIG d   1      10.021   6.640  -9.326  0.00  0.00    -0.083 Cl
ATOM     28  H   LIG d   1      10.456   8.394  -4.221  0.00  0.00     0.028 H 
ATOM     29  H   LIG d   1      11.980   8.583  -5.128  0.00  0.00     0.028 H 
ATOM     30  H   LIG d   1       9.289   3.950  -9.891  0.00  0.00     0.063 H 
ATOM     31  H   LIG d   1       8.895   2.014  -8.429  0.00  0.00     0.066 H 
ENDROOT
BRANCH   1  32
ATOM     32  N   LIG d   1      13.774   8.763  -1.624  0.00  0.00    -0.298 N 
BRANCH  32  33
ATOM     33  C   LIG d   1      14.965   8.159  -2.236  0.00  0.00    -0.012 C 
ATOM     34  H   LIG d   1      15.739   8.919  -2.350  0.00  0.00     0.039 H 
ATOM     35  H   LIG d   1      15.336   7.358  -1.599  0.00  0.00     0.039 H 
ATOM     36  H   LIG d   1      14.706   7.755  -3.215  0.00  0.00     0.039 H 
ENDBRANCH  32  33
BRANCH  32  37
ATOM     37  C   LIG d   1      14.122   9.984  -0.887  0.00  0.00    -0.012 C 
ATOM     38  H   LIG d   1      14.610   9.717   0.050  0.00  0.00     0.039 H 
ATOM     39  H   LIG d   1      14.799  10.591  -1.488  0.00  0.00     0.039 H 
ATOM     40  H   LIG d   1      13.216  10.552  -0.676  0.00  0.00     0.039 H 
ENDBRANCH  32  37
ENDBRANCH   1  32
BRANCH  22  41
ATOM     41  C   LIG d   1       9.522   9.999  -0.646  0.00  0.00     0.244 C 
ATOM     42  O   LIG d   1       9.803  10.466   0.442  0.00  0.00    -0.270 OA
ATOM     43  N   LIG d   1       8.302  10.214  -1.177  0.00  0.00    -0.325 N 
ATOM     44  H   LIG d   1       8.048   9.776  -2.005  0.00  0.00     0.145 HD
ATOM     45  H   LIG d   1       7.677  10.807  -0.732  0.00  0.00     0.145 HD
ENDBRANCH  22  41
BRANCH  20  46
ATOM     46  O   LIG d   1      12.230   6.414  -1.181  0.00  0.00    -0.381 OA
ATOM     47  H   LIG d   1      12.827   5.730  -1.514  0.00  0.00     0.211 HD
ENDBRANCH  20  46
BRANCH   8  48
ATOM     48  O   LIG d   1       9.079   7.436  -5.917  0.00  0.00    -0.387 OA
ATOM     49  H   LIG d   1       9.082   7.707  -4.989  0.00  0.00     0.210 HD
ENDBRANCH   8  48
BRANCH  14  50
ATOM     50  O   LIG d   1       9.112   2.019  -5.819  0.00  0.00    -0.506 OA
ATOM     51  H   LIG d   1       8.253   2.027  -5.373  0.00  0.00     0.292 HD
ENDBRANCH  14  50
TORSDOF 7
ENDMDL
