MODEL 1
REMARK VINA RESULT:      -7.9      0.000      0.000
REMARK  6 active torsions:
REMARK  status: ('A' for Active; 'I' for Inactive)
REMARK    1  A    between atoms: C_1  and  C_2 
REMARK    2  A    between atoms: C_10  and  C_14 
REMARK    3  A    between atoms: C_18  and  C_20 
REMARK    4  A    between atoms: C_20  and  N_21 
REMARK    5  A    between atoms: N_24  and  C_27 
REMARK    6  A    between atoms: C_27  and  C_28 
ROOT
ATOM      1  C   LIG d   1       3.234   0.653  -3.799  0.00  0.00    -0.073 C 
ATOM      2  C   LIG d   1       3.712  -0.551  -3.891  0.00  0.00    -0.064 C 
ATOM      3  C   LIG d   1       3.487  -1.338  -5.165  0.00  0.00    -0.024 C 
ATOM      4  C   LIG d   1       4.833  -1.799  -5.735  0.00  0.00     0.018 C 
ATOM      5  H   LIG d   1       5.301  -0.928  -6.217  0.00  0.00     0.035 H 
ATOM      6  C   LIG d   1       5.710  -2.441  -4.644  0.00  0.00     0.108 C 
ATOM      7  H   LIG d   1       6.760  -2.577  -4.941  0.00  0.00     0.074 H 
ATOM      8  C   LIG d   1       5.862  -1.612  -3.395  0.00  0.00    -0.006 C 
ATOM      9  C   LIG d   1       4.501  -1.232  -2.809  0.00  0.00    -0.007 C 
ATOM     10  C   LIG d   1       4.673  -0.384  -1.564  0.00  0.00    -0.043 C 
ATOM     11  C   LIG d   1       4.758   1.102  -1.914  0.00  0.00    -0.049 C 
ATOM     12  C   LIG d   1       3.442   1.515  -2.584  0.00  0.00    -0.032 C 
ATOM     13  O   LIG d   1       5.087  -3.736  -4.422  0.00  0.00    -0.461 OA
ATOM     14  C   LIG d   1       4.745  -4.222  -5.638  0.00  0.00     0.316 C 
ATOM     15  O   LIG d   1       4.633  -5.393  -5.917  0.00  0.00    -0.250 OA
ATOM     16  C   LIG d   1       4.526  -3.065  -6.594  0.00  0.00     0.102 C 
ATOM     17  H   LIG d   1       3.512  -3.076  -7.021  0.00  0.00     0.047 H 
ATOM     18  H   LIG d   1       2.863  -2.217  -4.949  0.00  0.00     0.031 H 
ATOM     19  H   LIG d   1       2.979  -0.702  -5.905  0.00  0.00     0.031 H 
ATOM     20  H   LIG d   1       6.420  -2.186  -2.641  0.00  0.00     0.031 H 
ATOM     21  H   LIG d   1       6.411  -0.688  -3.633  0.00  0.00     0.031 H 
ATOM     22  H   LIG d   1       3.815  -0.537  -0.893  0.00  0.00     0.027 H 
ATOM     23  H   LIG d   1       5.600  -0.675  -1.047  0.00  0.00     0.027 H 
ATOM     24  H   LIG d   1       4.913   1.686  -0.996  0.00  0.00     0.027 H 
ATOM     25  H   LIG d   1       5.600   1.269  -2.603  0.00  0.00     0.027 H 
ATOM     26  H   LIG d   1       3.490   2.571  -2.886  0.00  0.00     0.031 H 
ATOM     27  H   LIG d   1       2.604   1.371  -1.885  0.00  0.00     0.031 H 
ENDROOT
BRANCH  16  28
ATOM     28  C   LIG d   1       5.489  -3.156  -7.777  0.00  0.00    -0.018 C 
ATOM     29  H   LIG d   1       6.111  -2.250  -7.815  0.00  0.00     0.082 H 
ATOM     30  H   LIG d   1       6.135  -4.039  -7.657  0.00  0.00     0.082 H 
BRANCH  28  31
ATOM     31  N   LIG d   1       4.723  -3.278  -9.025  0.00  0.00     0.238 N 
ATOM     32  C   LIG d   1       3.471  -2.511  -8.950  0.00  0.00    -0.019 C 
ATOM     33  C   LIG d   1       2.742  -2.598 -10.293  0.00  0.00     0.040 C 
ATOM     34  H   LIG d   1       2.832  -2.928  -8.157  0.00  0.00     0.083 H 
ATOM     35  H   LIG d   1       3.698  -1.459  -8.722  0.00  0.00     0.083 H 
ATOM     36  N   LIG d   1       2.475  -4.008 -10.612  0.00  0.00    -0.288 N 
ATOM     37  H   LIG d   1       3.369  -2.156 -11.081  0.00  0.00     0.048 H 
ATOM     38  H   LIG d   1       1.791  -2.051 -10.231  0.00  0.00     0.048 H 
ATOM     39  C   LIG d   1       3.727  -4.775 -10.686  0.00  0.00     0.040 C 
ATOM     40  C   LIG d   1       4.456  -4.687  -9.343  0.00  0.00    -0.019 C 
ATOM     41  H   LIG d   1       4.367  -4.357 -11.479  0.00  0.00     0.048 H 
ATOM     42  H   LIG d   1       3.501  -5.826 -10.913  0.00  0.00     0.048 H 
ATOM     43  H   LIG d   1       5.407  -5.235  -9.406  0.00  0.00     0.083 H 
ATOM     44  H   LIG d   1       3.829  -5.129  -8.556  0.00  0.00     0.083 H 
ATOM     45  H   LIG d   1       5.332  -2.855  -9.837  0.00  0.00     0.203 HD
BRANCH  36  46
ATOM     46  C   LIG d   1       1.708  -4.129 -11.859  0.00  0.00     0.025 C 
ATOM     47  H   LIG d   1       1.780  -3.190 -12.427  0.00  0.00     0.048 H 
ATOM     48  H   LIG d   1       2.117  -4.954 -12.462  0.00  0.00     0.048 H 
BRANCH  46  49
ATOM     49  C   LIG d   1       0.264  -4.412 -11.536  0.00  0.00    -0.030 A 
ATOM     50  C   LIG d   1      -0.068  -5.012 -10.335  0.00  0.00    -0.012 A 
ATOM     51  C   LIG d   1      -1.395  -5.273 -10.035  0.00  0.00     0.167 A 
ATOM     52  H   LIG d   1       0.706  -5.278  -9.631  0.00  0.00     0.066 H 
ATOM     53  C   LIG d   1      -2.392  -4.929 -10.944  0.00  0.00     0.166 A 
ATOM     54  O   LIG d   1      -1.980  -5.845  -8.941  0.00  0.00    -0.453 OA
ATOM     55  C   LIG d   1      -2.051  -4.328 -12.145  0.00  0.00    -0.016 A 
ATOM     56  O   LIG d   1      -3.602  -5.285 -10.421  0.00  0.00    -0.453 OA
ATOM     57  C   LIG d   1      -0.726  -4.071 -12.438  0.00  0.00    -0.054 A 
ATOM     58  H   LIG d   1      -2.822  -4.060 -12.853  0.00  0.00     0.066 H 
ATOM     59  H   LIG d   1      -0.462  -3.598 -13.373  0.00  0.00     0.062 H 
ATOM     60  C   LIG d   1      -3.305  -6.218  -9.365  0.00  0.00     0.233 C 
ATOM     61  H   LIG d   1      -3.296  -7.259  -9.720  0.00  0.00     0.117 H 
ATOM     62  H   LIG d   1      -4.000  -6.125  -8.519  0.00  0.00     0.117 H 
ENDBRANCH  46  49
ENDBRANCH  36  46
ENDBRANCH  28  31
ENDBRANCH  16  28
BRANCH   1  63
ATOM     63  C   LIG d   1       2.443   1.210  -4.954  0.00  0.00    -0.043 C 
ATOM     64  H   LIG d   1       2.919   0.915  -5.900  0.00  0.00     0.027 H 
ATOM     65  H   LIG d   1       2.413   2.307  -4.884  0.00  0.00     0.027 H 
ATOM     66  H   LIG d   1       1.417   0.812  -4.921  0.00  0.00     0.027 H 
ENDBRANCH   1  63
BRANCH   9  67
ATOM     67  C   LIG d   1       3.771  -2.516  -2.410  0.00  0.00    -0.056 C 
ATOM     68  H   LIG d   1       3.851  -2.661  -1.323  0.00  0.00     0.024 H 
ATOM     69  H   LIG d   1       4.226  -3.373  -2.929  0.00  0.00     0.024 H 
ATOM     70  H   LIG d   1       2.711  -2.437  -2.692  0.00  0.00     0.024 H 
ENDBRANCH   9  67
TORSDOF 6
ENDMDL
MODEL 2
REMARK VINA RESULT:      -7.6      7.566     13.527
REMARK  6 active torsions:
REMARK  status: ('A' for Active; 'I' for Inactive)
REMARK    1  A    between atoms: C_1  and  C_2 
REMARK    2  A    between atoms: C_10  and  C_14 
REMARK    3  A    between atoms: C_18  and  C_20 
REMARK    4  A    between atoms: C_20  and  N_21 
REMARK    5  A    between atoms: N_24  and  C_27 
REMARK    6  A    between atoms: C_27  and  C_28 
ROOT
ATOM      1  C   LIG d   1       4.597  -0.199  -2.570  0.00  0.00    -0.073 C 
ATOM      2  C   LIG d   1       5.349  -0.133  -3.627  0.00  0.00    -0.064 C 
ATOM      3  C   LIG d   1       6.290   1.041  -3.791  0.00  0.00    -0.024 C 
ATOM      4  C   LIG d   1       7.723   0.533  -3.988  0.00  0.00     0.018 C 
ATOM      5  H   LIG d   1       8.098   0.220  -3.002  0.00  0.00     0.035 H 
ATOM      6  C   LIG d   1       7.780  -0.581  -5.048  0.00  0.00     0.108 C 
ATOM      7  H   LIG d   1       8.731  -1.133  -5.062  0.00  0.00     0.074 H 
ATOM      8  C   LIG d   1       6.793  -1.700  -4.834  0.00  0.00    -0.006 C 
ATOM      9  C   LIG d   1       5.364  -1.168  -4.718  0.00  0.00    -0.007 C 
ATOM     10  C   LIG d   1       4.387  -2.304  -4.485  0.00  0.00    -0.043 C 
ATOM     11  C   LIG d   1       4.228  -2.599  -2.994  0.00  0.00    -0.049 C 
ATOM     12  C   LIG d   1       3.661  -1.348  -2.312  0.00  0.00    -0.032 C 
ATOM     13  O   LIG d   1       7.604   0.131  -6.304  0.00  0.00    -0.461 OA
ATOM     14  C   LIG d   1       8.335   1.266  -6.219  0.00  0.00     0.316 C 
ATOM     15  O   LIG d   1       8.803   1.868  -7.156  0.00  0.00    -0.250 OA
ATOM     16  C   LIG d   1       8.476   1.660  -4.761  0.00  0.00     0.102 C 
ATOM     17  H   LIG d   1       8.081   2.669  -4.572  0.00  0.00     0.047 H 
ATOM     18  H   LIG d   1       5.990   1.632  -4.669  0.00  0.00     0.031 H 
ATOM     19  H   LIG d   1       6.249   1.673  -2.892  0.00  0.00     0.031 H 
ATOM     20  H   LIG d   1       6.839  -2.396  -5.684  0.00  0.00     0.031 H 
ATOM     21  H   LIG d   1       7.043  -2.236  -3.906  0.00  0.00     0.031 H 
ATOM     22  H   LIG d   1       3.404  -2.033  -4.895  0.00  0.00     0.027 H 
ATOM     23  H   LIG d   1       4.757  -3.212  -4.984  0.00  0.00     0.027 H 
ATOM     24  H   LIG d   1       3.539  -3.446  -2.859  0.00  0.00     0.027 H 
ATOM     25  H   LIG d   1       5.208  -2.851  -2.563  0.00  0.00     0.027 H 
ATOM     26  H   LIG d   1       3.575  -1.516  -1.229  0.00  0.00     0.031 H 
ATOM     27  H   LIG d   1       2.669  -1.111  -2.727  0.00  0.00     0.031 H 
ENDROOT
BRANCH  16  28
ATOM     28  C   LIG d   1       9.950   1.697  -4.355  0.00  0.00    -0.018 C 
ATOM     29  H   LIG d   1      10.091   1.113  -3.433  0.00  0.00     0.082 H 
ATOM     30  H   LIG d   1      10.562   1.265  -5.160  0.00  0.00     0.082 H 
BRANCH  28  31
ATOM     31  N   LIG d   1      10.360   3.088  -4.121  0.00  0.00     0.238 N 
ATOM     32  C   LIG d   1      11.554   3.148  -3.266  0.00  0.00    -0.019 C 
ATOM     33  C   LIG d   1      11.994   4.606  -3.112  0.00  0.00     0.040 C 
ATOM     34  H   LIG d   1      11.318   2.729  -2.277  0.00  0.00     0.083 H 
ATOM     35  H   LIG d   1      12.365   2.566  -3.728  0.00  0.00     0.083 H 
ATOM     36  N   LIG d   1      10.893   5.388  -2.531  0.00  0.00    -0.288 N 
ATOM     37  H   LIG d   1      12.255   5.017  -4.098  0.00  0.00     0.048 H 
ATOM     38  H   LIG d   1      12.869   4.658  -2.449  0.00  0.00     0.048 H 
ATOM     39  C   LIG d   1       9.699   5.327  -3.386  0.00  0.00     0.040 C 
ATOM     40  C   LIG d   1       9.259   3.869  -3.540  0.00  0.00    -0.019 C 
ATOM     41  H   LIG d   1       9.934   5.746  -4.376  0.00  0.00     0.048 H 
ATOM     42  H   LIG d   1       8.887   5.909  -2.925  0.00  0.00     0.048 H 
ATOM     43  H   LIG d   1       8.384   3.818  -4.203  0.00  0.00     0.083 H 
ATOM     44  H   LIG d   1       8.997   3.459  -2.554  0.00  0.00     0.083 H 
ATOM     45  H   LIG d   1      10.615   3.532  -5.094  0.00  0.00     0.203 HD
BRANCH  36  46
ATOM     46  C   LIG d   1      11.303   6.780  -2.297  0.00  0.00     0.025 C 
ATOM     47  H   LIG d   1      12.309   6.941  -2.711  0.00  0.00     0.048 H 
ATOM     48  H   LIG d   1      10.591   7.459  -2.789  0.00  0.00     0.048 H 
BRANCH  46  49
ATOM     49  C   LIG d   1      11.319   7.056  -0.816  0.00  0.00    -0.030 A 
ATOM     50  C   LIG d   1      11.624   8.324  -0.355  0.00  0.00    -0.012 A 
ATOM     51  C   LIG d   1      11.639   8.580   1.007  0.00  0.00     0.167 A 
ATOM     52  H   LIG d   1      11.849   9.113  -1.055  0.00  0.00     0.066 H 
ATOM     53  C   LIG d   1      11.347   7.559   1.908  0.00  0.00     0.166 A 
ATOM     54  O   LIG d   1      11.902   9.720   1.710  0.00  0.00    -0.453 OA
ATOM     55  C   LIG d   1      11.043   6.292   1.438  0.00  0.00    -0.016 A 
ATOM     56  O   LIG d   1      11.427   8.060   3.175  0.00  0.00    -0.453 OA
ATOM     57  C   LIG d   1      11.030   6.043   0.079  0.00  0.00    -0.054 A 
ATOM     58  H   LIG d   1      10.817   5.497   2.134  0.00  0.00     0.066 H 
ATOM     59  H   LIG d   1      10.788   5.055  -0.286  0.00  0.00     0.062 H 
ATOM     60  C   LIG d   1      12.169   9.288   3.058  0.00  0.00     0.233 C 
ATOM     61  H   LIG d   1      13.250   9.136   3.186  0.00  0.00     0.117 H 
ATOM     62  H   LIG d   1      11.819  10.055   3.764  0.00  0.00     0.117 H 
ENDBRANCH  46  49
ENDBRANCH  36  46
ENDBRANCH  28  31
ENDBRANCH  16  28
BRANCH   1  63
ATOM     63  C   LIG d   1       4.668   0.918  -1.561  0.00  0.00    -0.043 C 
ATOM     64  H   LIG d   1       4.303   0.556  -0.588  0.00  0.00     0.027 H 
ATOM     65  H   LIG d   1       4.043   1.757  -1.898  0.00  0.00     0.027 H 
ATOM     66  H   LIG d   1       5.710   1.255  -1.459  0.00  0.00     0.027 H 
ENDBRANCH   1  63
BRANCH   9  67
ATOM     67  C   LIG d   1       4.993  -0.487  -6.037  0.00  0.00    -0.056 C 
ATOM     68  H   LIG d   1       4.316   0.356  -5.836  0.00  0.00     0.024 H 
ATOM     69  H   LIG d   1       4.490  -1.211  -6.695  0.00  0.00     0.024 H 
ATOM     70  H   LIG d   1       5.905  -0.117  -6.527  0.00  0.00     0.024 H 
ENDBRANCH   9  67
TORSDOF 6
ENDMDL
MODEL 3
REMARK VINA RESULT:      -7.4      8.057     13.172
REMARK  6 active torsions:
REMARK  status: ('A' for Active; 'I' for Inactive)
REMARK    1  A    between atoms: C_1  and  C_2 
REMARK    2  A    between atoms: C_10  and  C_14 
REMARK    3  A    between atoms: C_18  and  C_20 
REMARK    4  A    between atoms: C_20  and  N_21 
REMARK    5  A    between atoms: N_24  and  C_27 
REMARK    6  A    between atoms: C_27  and  C_28 
ROOT
ATOM      1  C   LIG d   1       4.480  -0.110  -2.518  0.00  0.00    -0.073 C 
ATOM      2  C   LIG d   1       5.341   0.014  -3.483  0.00  0.00    -0.064 C 
ATOM      3  C   LIG d   1       6.149   1.290  -3.591  0.00  0.00    -0.024 C 
ATOM      4  C   LIG d   1       7.645   0.958  -3.595  0.00  0.00     0.018 C 
ATOM      5  H   LIG d   1       7.932   0.727  -2.558  0.00  0.00     0.035 H 
ATOM      6  C   LIG d   1       7.963  -0.175  -4.587  0.00  0.00     0.108 C 
ATOM      7  H   LIG d   1       8.968  -0.605  -4.464  0.00  0.00     0.074 H 
ATOM      8  C   LIG d   1       7.098  -1.400  -4.436  0.00  0.00    -0.006 C 
ATOM      9  C   LIG d   1       5.612  -1.046  -4.514  0.00  0.00    -0.007 C 
ATOM     10  C   LIG d   1       4.757  -2.286  -4.342  0.00  0.00    -0.043 C 
ATOM     11  C   LIG d   1       4.454  -2.550  -2.868  0.00  0.00    -0.049 C 
ATOM     12  C   LIG d   1       3.663  -1.357  -2.317  0.00  0.00    -0.032 C 
ATOM     13  O   LIG d   1       7.857   0.468  -5.888  0.00  0.00    -0.461 OA
ATOM     14  C   LIG d   1       8.432   1.687  -5.772  0.00  0.00     0.316 C 
ATOM     15  O   LIG d   1       8.935   2.312  -6.676  0.00  0.00    -0.250 OA
ATOM     16  C   LIG d   1       8.346   2.144  -4.328  0.00  0.00     0.102 C 
ATOM     17  H   LIG d   1       7.813   3.102  -4.234  0.00  0.00     0.047 H 
ATOM     18  H   LIG d   1       5.889   1.810  -4.525  0.00  0.00     0.031 H 
ATOM     19  H   LIG d   1       5.923   1.941  -2.734  0.00  0.00     0.031 H 
ATOM     20  H   LIG d   1       7.330  -2.113  -5.242  0.00  0.00     0.031 H 
ATOM     21  H   LIG d   1       7.296  -1.870  -3.462  0.00  0.00     0.031 H 
ATOM     22  H   LIG d   1       3.805  -2.154  -4.877  0.00  0.00     0.027 H 
ATOM     23  H   LIG d   1       5.290  -3.158  -4.751  0.00  0.00     0.027 H 
ATOM     24  H   LIG d   1       3.860  -3.470  -2.774  0.00  0.00     0.027 H 
ATOM     25  H   LIG d   1       5.397  -2.663  -2.314  0.00  0.00     0.027 H 
ATOM     26  H   LIG d   1       3.467  -1.498  -1.245  0.00  0.00     0.031 H 
ATOM     27  H   LIG d   1       2.708  -1.259  -2.856  0.00  0.00     0.031 H 
ENDROOT
BRANCH  16  28
ATOM     28  C   LIG d   1       9.745   2.376  -3.755  0.00  0.00    -0.018 C 
ATOM     29  H   LIG d   1       9.987   1.574  -3.042  0.00  0.00     0.082 H 
ATOM     30  H   LIG d   1      10.481   2.375  -4.572  0.00  0.00     0.082 H 
BRANCH  28  31
ATOM     31  N   LIG d   1       9.782   3.673  -3.065  0.00  0.00     0.238 N 
ATOM     32  C   LIG d   1       9.576   4.778  -4.011  0.00  0.00    -0.019 C 
ATOM     33  C   LIG d   1       9.543   6.103  -3.244  0.00  0.00     0.040 C 
ATOM     34  H   LIG d   1      10.400   4.796  -4.740  0.00  0.00     0.083 H 
ATOM     35  H   LIG d   1       8.622   4.636  -4.540  0.00  0.00     0.083 H 
ATOM     36  N   LIG d   1      10.804   6.271  -2.508  0.00  0.00    -0.288 N 
ATOM     37  H   LIG d   1       8.702   6.095  -2.535  0.00  0.00     0.048 H 
ATOM     38  H   LIG d   1       9.418   6.935  -3.952  0.00  0.00     0.048 H 
ATOM     39  C   LIG d   1      11.010   5.165  -1.562  0.00  0.00     0.040 C 
ATOM     40  C   LIG d   1      11.043   3.841  -2.329  0.00  0.00    -0.019 C 
ATOM     41  H   LIG d   1      10.186   5.146  -0.834  0.00  0.00     0.048 H 
ATOM     42  H   LIG d   1      11.964   5.307  -1.034  0.00  0.00     0.048 H 
ATOM     43  H   LIG d   1      11.168   3.009  -1.621  0.00  0.00     0.083 H 
ATOM     44  H   LIG d   1      11.884   3.848  -3.038  0.00  0.00     0.083 H 
ATOM     45  H   LIG d   1       8.959   3.691  -2.337  0.00  0.00     0.203 HD
BRANCH  36  46
ATOM     46  C   LIG d   1      10.842   7.568  -1.818  0.00  0.00     0.025 C 
ATOM     47  H   LIG d   1       9.927   7.691  -1.219  0.00  0.00     0.048 H 
ATOM     48  H   LIG d   1      11.720   7.606  -1.157  0.00  0.00     0.048 H 
BRANCH  46  49
ATOM     49  C   LIG d   1      10.929   8.675  -2.836  0.00  0.00    -0.030 A 
ATOM     50  C   LIG d   1       9.918   9.615  -2.920  0.00  0.00    -0.012 A 
ATOM     51  C   LIG d   1       9.996  10.635  -3.855  0.00  0.00     0.167 A 
ATOM     52  H   LIG d   1       9.068   9.555  -2.258  0.00  0.00     0.066 H 
ATOM     53  C   LIG d   1      11.095  10.710  -4.708  0.00  0.00     0.166 A 
ATOM     54  O   LIG d   1       9.151  11.668  -4.140  0.00  0.00    -0.453 OA
ATOM     55  C   LIG d   1      12.104   9.765  -4.617  0.00  0.00    -0.016 A 
ATOM     56  O   LIG d   1      10.938  11.791  -5.527  0.00  0.00    -0.453 OA
ATOM     57  C   LIG d   1      12.019   8.751  -3.683  0.00  0.00    -0.054 A 
ATOM     58  H   LIG d   1      12.957   9.820  -5.277  0.00  0.00     0.066 H 
ATOM     59  H   LIG d   1      12.809   8.016  -3.610  0.00  0.00     0.062 H 
ATOM     60  C   LIG d   1       9.543  12.138  -5.444  0.00  0.00     0.233 C 
ATOM     61  H   LIG d   1       8.942  11.630  -6.211  0.00  0.00     0.117 H 
ATOM     62  H   LIG d   1       9.379  13.223  -5.507  0.00  0.00     0.117 H 
ENDBRANCH  46  49
ENDBRANCH  36  46
ENDBRANCH  28  31
ENDBRANCH  16  28
BRANCH   1  63
ATOM     63  C   LIG d   1       4.293   1.040  -1.562  0.00  0.00    -0.043 C 
ATOM     64  H   LIG d   1       3.520   0.781  -0.824  0.00  0.00     0.027 H 
ATOM     65  H   LIG d   1       3.982   1.935  -2.120  0.00  0.00     0.027 H 
ATOM     66  H   LIG d   1       5.242   1.243  -1.043  0.00  0.00     0.027 H 
ENDBRANCH   1  63
BRANCH   9  67
ATOM     67  C   LIG d   1       5.325  -0.460  -5.898  0.00  0.00    -0.056 C 
ATOM     68  H   LIG d   1       4.410  -0.913  -6.305  0.00  0.00     0.024 H 
ATOM     69  H   LIG d   1       6.171  -0.675  -6.569  0.00  0.00     0.024 H 
ATOM     70  H   LIG d   1       5.191   0.628  -5.814  0.00  0.00     0.024 H 
ENDBRANCH   9  67
TORSDOF 6
ENDMDL
MODEL 4
REMARK VINA RESULT:      -7.2      5.974      9.453
REMARK  6 active torsions:
REMARK  status: ('A' for Active; 'I' for Inactive)
REMARK    1  A    between atoms: C_1  and  C_2 
REMARK    2  A    between atoms: C_10  and  C_14 
REMARK    3  A    between atoms: C_18  and  C_20 
REMARK    4  A    between atoms: C_20  and  N_21 
REMARK    5  A    between atoms: N_24  and  C_27 
REMARK    6  A    between atoms: C_27  and  C_28 
ROOT
ATOM      1  C   LIG d   1       9.380 -10.008  -1.114  0.00  0.00    -0.073 C 
ATOM      2  C   LIG d   1       8.221 -10.307  -1.619  0.00  0.00    -0.064 C 
ATOM      3  C   LIG d   1       7.493  -9.278  -2.457  0.00  0.00    -0.024 C 
ATOM      4  C   LIG d   1       7.166  -9.868  -3.833  0.00  0.00     0.018 C 
ATOM      5  H   LIG d   1       8.095  -9.861  -4.422  0.00  0.00     0.035 H 
ATOM      6  C   LIG d   1       6.530 -11.263  -3.706  0.00  0.00     0.108 C 
ATOM      7  H   LIG d   1       6.488 -11.821  -4.652  0.00  0.00     0.074 H 
ATOM      8  C   LIG d   1       7.296 -12.223  -2.832  0.00  0.00    -0.006 C 
ATOM      9  C   LIG d   1       7.540 -11.636  -1.440  0.00  0.00    -0.007 C 
ATOM     10  C   LIG d   1       8.328 -12.605  -0.582  0.00  0.00    -0.043 C 
ATOM     11  C   LIG d   1       9.832 -12.404  -0.756  0.00  0.00    -0.049 C 
ATOM     12  C   LIG d   1      10.185 -10.983  -0.300  0.00  0.00    -0.032 C 
ATOM     13  O   LIG d   1       5.181 -10.985  -3.237  0.00  0.00    -0.461 OA
ATOM     14  C   LIG d   1       4.741  -9.906  -3.925  0.00  0.00     0.316 C 
ATOM     15  O   LIG d   1       3.583  -9.650  -4.158  0.00  0.00    -0.250 OA
ATOM     16  C   LIG d   1       5.931  -9.071  -4.359  0.00  0.00     0.102 C 
ATOM     17  H   LIG d   1       5.869  -8.042  -3.974  0.00  0.00     0.047 H 
ATOM     18  H   LIG d   1       6.559  -8.988  -1.954  0.00  0.00     0.031 H 
ATOM     19  H   LIG d   1       8.131  -8.391  -2.584  0.00  0.00     0.031 H 
ATOM     20  H   LIG d   1       6.723 -13.155  -2.722  0.00  0.00     0.031 H 
ATOM     21  H   LIG d   1       8.269 -12.442  -3.295  0.00  0.00     0.031 H 
ATOM     22  H   LIG d   1       8.074 -12.449   0.477  0.00  0.00     0.027 H 
ATOM     23  H   LIG d   1       8.077 -13.637  -0.871  0.00  0.00     0.027 H 
ATOM     24  H   LIG d   1      10.374 -13.140  -0.145  0.00  0.00     0.027 H 
ATOM     25  H   LIG d   1      10.100 -12.536  -1.815  0.00  0.00     0.027 H 
ATOM     26  H   LIG d   1      11.256 -10.794  -0.454  0.00  0.00     0.031 H 
ATOM     27  H   LIG d   1       9.940 -10.859   0.766  0.00  0.00     0.031 H 
ENDROOT
BRANCH  16  28
ATOM     28  C   LIG d   1       5.977  -8.955  -5.883  0.00  0.00    -0.018 C 
ATOM     29  H   LIG d   1       6.883  -9.452  -6.262  0.00  0.00     0.082 H 
ATOM     30  H   LIG d   1       5.087  -9.435  -6.315  0.00  0.00     0.082 H 
BRANCH  28  31
ATOM     31  N   LIG d   1       6.001  -7.536  -6.266  0.00  0.00     0.238 N 
ATOM     32  C   LIG d   1       6.928  -6.778  -5.414  0.00  0.00    -0.019 C 
ATOM     33  C   LIG d   1       6.984  -5.325  -5.894  0.00  0.00     0.040 C 
ATOM     34  H   LIG d   1       6.577  -6.807  -4.372  0.00  0.00     0.083 H 
ATOM     35  H   LIG d   1       7.932  -7.224  -5.475  0.00  0.00     0.083 H 
ATOM     36  N   LIG d   1       5.635  -4.744  -5.847  0.00  0.00    -0.288 N 
ATOM     37  H   LIG d   1       7.362  -5.294  -6.926  0.00  0.00     0.048 H 
ATOM     38  H   LIG d   1       7.654  -4.747  -5.241  0.00  0.00     0.048 H 
ATOM     39  C   LIG d   1       4.708  -5.504  -6.699  0.00  0.00     0.040 C 
ATOM     40  C   LIG d   1       4.652  -6.956  -6.219  0.00  0.00    -0.019 C 
ATOM     41  H   LIG d   1       5.060  -5.475  -7.741  0.00  0.00     0.048 H 
ATOM     42  H   LIG d   1       3.705  -5.058  -6.638  0.00  0.00     0.048 H 
ATOM     43  H   LIG d   1       3.982  -7.533  -6.872  0.00  0.00     0.083 H 
ATOM     44  H   LIG d   1       4.275  -6.987  -5.187  0.00  0.00     0.083 H 
ATOM     45  H   LIG d   1       6.363  -7.473  -7.302  0.00  0.00     0.203 HD
BRANCH  36  46
ATOM     46  C   LIG d   1       5.659  -3.326  -6.229  0.00  0.00     0.025 C 
ATOM     47  H   LIG d   1       6.701  -2.999  -6.362  0.00  0.00     0.048 H 
ATOM     48  H   LIG d   1       5.109  -3.191  -7.173  0.00  0.00     0.048 H 
BRANCH  46  49
ATOM     49  C   LIG d   1       5.008  -2.503  -5.147  0.00  0.00    -0.030 A 
ATOM     50  C   LIG d   1       4.722  -1.170  -5.374  0.00  0.00    -0.012 A 
ATOM     51  C   LIG d   1       4.124  -0.411  -4.381  0.00  0.00     0.167 A 
ATOM     52  H   LIG d   1       4.964  -0.719  -6.325  0.00  0.00     0.066 H 
ATOM     53  C   LIG d   1       3.812  -0.996  -3.155  0.00  0.00     0.166 A 
ATOM     54  O   LIG d   1       3.742   0.900  -4.349  0.00  0.00    -0.453 OA
ATOM     55  C   LIG d   1       4.103  -2.332  -2.936  0.00  0.00    -0.016 A 
ATOM     56  O   LIG d   1       3.236  -0.051  -2.356  0.00  0.00    -0.453 OA
ATOM     57  C   LIG d   1       4.700  -3.083  -3.931  0.00  0.00    -0.054 A 
ATOM     58  H   LIG d   1       3.863  -2.788  -1.987  0.00  0.00     0.066 H 
ATOM     59  H   LIG d   1       4.922  -4.126  -3.760  0.00  0.00     0.062 H 
ATOM     60  C   LIG d   1       3.570   1.216  -2.955  0.00  0.00     0.233 C 
ATOM     61  H   LIG d   1       4.506   1.632  -2.555  0.00  0.00     0.117 H 
ATOM     62  H   LIG d   1       2.763   1.954  -2.843  0.00  0.00     0.117 H 
ENDBRANCH  46  49
ENDBRANCH  36  46
ENDBRANCH  28  31
ENDBRANCH  16  28
BRANCH   1  63
ATOM     63  C   LIG d   1       9.940  -8.630  -1.355  0.00  0.00    -0.043 C 
ATOM     64  H   LIG d   1       9.945  -8.419  -2.434  0.00  0.00     0.027 H 
ATOM     65  H   LIG d   1      10.968  -8.578  -0.967  0.00  0.00     0.027 H 
ATOM     66  H   LIG d   1       9.316  -7.884  -0.839  0.00  0.00     0.027 H 
ENDBRANCH   1  63
BRANCH   9  67
ATOM     67  C   LIG d   1       6.185 -11.400  -0.770  0.00  0.00    -0.056 C 
ATOM     68  H   LIG d   1       5.660 -10.582  -1.283  0.00  0.00     0.024 H 
ATOM     69  H   LIG d   1       6.341 -11.131   0.286  0.00  0.00     0.024 H 
ATOM     70  H   LIG d   1       5.583 -12.318  -0.830  0.00  0.00     0.024 H 
ENDBRANCH   9  67
TORSDOF 6
ENDMDL
MODEL 5
REMARK VINA RESULT:      -7.2      8.771     12.291
REMARK  6 active torsions:
REMARK  status: ('A' for Active; 'I' for Inactive)
REMARK    1  A    between atoms: C_1  and  C_2 
REMARK    2  A    between atoms: C_10  and  C_14 
REMARK    3  A    between atoms: C_18  and  C_20 
REMARK    4  A    between atoms: C_20  and  N_21 
REMARK    5  A    between atoms: N_24  and  C_27 
REMARK    6  A    between atoms: C_27  and  C_28 
ROOT
ATOM      1  C   LIG d   1       9.887  10.306  -6.910  0.00  0.00    -0.073 C 
ATOM      2  C   LIG d   1       9.870  10.044  -5.638  0.00  0.00    -0.064 C 
ATOM      3  C   LIG d   1       9.579   8.630  -5.181  0.00  0.00    -0.024 C 
ATOM      4  C   LIG d   1      10.718   8.130  -4.286  0.00  0.00     0.018 C 
ATOM      5  H   LIG d   1      11.560   7.868  -4.942  0.00  0.00     0.035 H 
ATOM      6  C   LIG d   1      11.078   9.168  -3.209  0.00  0.00     0.108 C 
ATOM      7  H   LIG d   1      12.027   8.963  -2.693  0.00  0.00     0.074 H 
ATOM      8  C   LIG d   1      11.324  10.558  -3.737  0.00  0.00    -0.006 C 
ATOM      9  C   LIG d   1      10.138  11.059  -4.563  0.00  0.00    -0.007 C 
ATOM     10  C   LIG d   1      10.410  12.449  -5.101  0.00  0.00    -0.043 C 
ATOM     11  C   LIG d   1      11.121  12.390  -6.453  0.00  0.00    -0.049 C 
ATOM     12  C   LIG d   1      10.202  11.675  -7.450  0.00  0.00    -0.032 C 
ATOM     13  O   LIG d   1       9.975   9.081  -2.265  0.00  0.00    -0.461 OA
ATOM     14  C   LIG d   1       9.684   7.768  -2.120  0.00  0.00     0.316 C 
ATOM     15  O   LIG d   1       9.177   7.267  -1.144  0.00  0.00    -0.250 OA
ATOM     16  C   LIG d   1      10.095   7.024  -3.377  0.00  0.00     0.102 C 
ATOM     17  H   LIG d   1       9.245   6.498  -3.835  0.00  0.00     0.047 H 
ATOM     18  H   LIG d   1       8.636   8.614  -4.614  0.00  0.00     0.031 H 
ATOM     19  H   LIG d   1       9.490   7.972  -6.058  0.00  0.00     0.031 H 
ATOM     20  H   LIG d   1      11.479  11.248  -2.894  0.00  0.00     0.031 H 
ATOM     21  H   LIG d   1      12.219  10.553  -4.377  0.00  0.00     0.031 H 
ATOM     22  H   LIG d   1       9.459  12.987  -5.228  0.00  0.00     0.027 H 
ATOM     23  H   LIG d   1      11.050  12.998  -4.393  0.00  0.00     0.027 H 
ATOM     24  H   LIG d   1      11.331  13.412  -6.801  0.00  0.00     0.027 H 
ATOM     25  H   LIG d   1      12.065  11.837  -6.347  0.00  0.00     0.027 H 
ATOM     26  H   LIG d   1      10.705  11.579  -8.423  0.00  0.00     0.031 H 
ATOM     27  H   LIG d   1       9.267  12.243  -7.574  0.00  0.00     0.031 H 
ENDROOT
BRANCH  16  28
ATOM     28  C   LIG d   1      11.135   5.951  -3.049  0.00  0.00    -0.018 C 
ATOM     29  H   LIG d   1      12.106   6.239  -3.479  0.00  0.00     0.082 H 
ATOM     30  H   LIG d   1      11.230   5.855  -1.958  0.00  0.00     0.082 H 
BRANCH  28  31
ATOM     31  N   LIG d   1      10.708   4.666  -3.619  0.00  0.00     0.238 N 
ATOM     32  C   LIG d   1       9.448   4.812  -4.361  0.00  0.00    -0.019 C 
ATOM     33  C   LIG d   1       9.080   3.472  -5.003  0.00  0.00     0.040 C 
ATOM     34  H   LIG d   1       8.649   5.120  -3.671  0.00  0.00     0.083 H 
ATOM     35  H   LIG d   1       9.570   5.574  -5.145  0.00  0.00     0.083 H 
ATOM     36  N   LIG d   1       8.956   2.448  -3.956  0.00  0.00    -0.288 N 
ATOM     37  H   LIG d   1       9.865   3.177  -5.714  0.00  0.00     0.048 H 
ATOM     38  H   LIG d   1       8.122   3.569  -5.535  0.00  0.00     0.048 H 
ATOM     39  C   LIG d   1      10.216   2.302  -3.214  0.00  0.00     0.040 C 
ATOM     40  C   LIG d   1      10.584   3.642  -2.572  0.00  0.00    -0.019 C 
ATOM     41  H   LIG d   1      11.016   1.995  -3.904  0.00  0.00     0.048 H 
ATOM     42  H   LIG d   1      10.095   1.541  -2.430  0.00  0.00     0.048 H 
ATOM     43  H   LIG d   1      11.541   3.544  -2.040  0.00  0.00     0.083 H 
ATOM     44  H   LIG d   1       9.799   3.937  -1.861  0.00  0.00     0.083 H 
ATOM     45  H   LIG d   1      11.483   4.337  -4.326  0.00  0.00     0.203 HD
BRANCH  36  46
ATOM     46  C   LIG d   1       8.529   1.162  -4.526  0.00  0.00     0.025 C 
ATOM     47  H   LIG d   1       8.333   1.284  -5.601  0.00  0.00     0.048 H 
ATOM     48  H   LIG d   1       9.323   0.415  -4.380  0.00  0.00     0.048 H 
BRANCH  46  49
ATOM     49  C   LIG d   1       7.272   0.700  -3.835  0.00  0.00    -0.030 A 
ATOM     50  C   LIG d   1       6.978  -0.650  -3.771  0.00  0.00    -0.012 A 
ATOM     51  C   LIG d   1       5.823  -1.078  -3.136  0.00  0.00     0.167 A 
ATOM     52  H   LIG d   1       7.648  -1.371  -4.214  0.00  0.00     0.066 H 
ATOM     53  C   LIG d   1       4.961  -0.145  -2.563  0.00  0.00     0.166 A 
ATOM     54  O   LIG d   1       5.310  -2.327  -2.936  0.00  0.00    -0.453 OA
ATOM     55  C   LIG d   1       5.262   1.205  -2.632  0.00  0.00    -0.016 A 
ATOM     56  O   LIG d   1       3.907  -0.810  -2.006  0.00  0.00    -0.453 OA
ATOM     57  C   LIG d   1       6.416   1.625  -3.267  0.00  0.00    -0.054 A 
ATOM     58  H   LIG d   1       4.596   1.931  -2.190  0.00  0.00     0.066 H 
ATOM     59  H   LIG d   1       6.652   2.678  -3.317  0.00  0.00     0.062 H 
ATOM     60  C   LIG d   1       3.925  -2.124  -2.596  0.00  0.00     0.233 C 
ATOM     61  H   LIG d   1       3.312  -2.179  -3.507  0.00  0.00     0.117 H 
ATOM     62  H   LIG d   1       3.603  -2.902  -1.889  0.00  0.00     0.117 H 
ENDBRANCH  46  49
ENDBRANCH  36  46
ENDBRANCH  28  31
ENDBRANCH  16  28
BRANCH   1  63
ATOM     63  C   LIG d   1       9.581   9.197  -7.883  0.00  0.00    -0.043 C 
ATOM     64  H   LIG d   1       8.730   8.608  -7.512  0.00  0.00     0.027 H 
ATOM     65  H   LIG d   1      10.461   8.546  -7.986  0.00  0.00     0.027 H 
ATOM     66  H   LIG d   1       9.329   9.629  -8.864  0.00  0.00     0.027 H 
ENDBRANCH   1  63
BRANCH   9  67
ATOM     67  C   LIG d   1       8.911  11.135  -3.651  0.00  0.00    -0.056 C 
ATOM     68  H   LIG d   1       8.002  11.206  -4.265  0.00  0.00     0.024 H 
ATOM     69  H   LIG d   1       8.989  12.022  -3.005  0.00  0.00     0.024 H 
ATOM     70  H   LIG d   1       8.863  10.230  -3.027  0.00  0.00     0.024 H 
ENDBRANCH   9  67
TORSDOF 6
ENDMDL
MODEL 6
REMARK VINA RESULT:      -7.2      6.185     11.453
REMARK  6 active torsions:
REMARK  status: ('A' for Active; 'I' for Inactive)
REMARK    1  A    between atoms: C_1  and  C_2 
REMARK    2  A    between atoms: C_10  and  C_14 
REMARK    3  A    between atoms: C_18  and  C_20 
REMARK    4  A    between atoms: C_20  and  N_21 
REMARK    5  A    between atoms: N_24  and  C_27 
REMARK    6  A    between atoms: C_27  and  C_28 
ROOT
ATOM      1  C   LIG d   1       3.397  -0.405  -4.705  0.00  0.00    -0.073 C 
ATOM      2  C   LIG d   1       4.582  -0.921  -4.831  0.00  0.00    -0.064 C 
ATOM      3  C   LIG d   1       5.380  -0.637  -6.086  0.00  0.00    -0.024 C 
ATOM      4  C   LIG d   1       6.738  -0.032  -5.711  0.00  0.00     0.018 C 
ATOM      5  H   LIG d   1       6.566   1.020  -5.442  0.00  0.00     0.035 H 
ATOM      6  C   LIG d   1       7.423  -0.846  -4.598  0.00  0.00     0.108 C 
ATOM      7  H   LIG d   1       8.280  -0.334  -4.137  0.00  0.00     0.074 H 
ATOM      8  C   LIG d   1       6.556  -1.113  -3.395  0.00  0.00    -0.006 C 
ATOM      9  C   LIG d   1       5.241  -1.786  -3.793  0.00  0.00    -0.007 C 
ATOM     10  C   LIG d   1       4.374  -2.031  -2.574  0.00  0.00    -0.043 C 
ATOM     11  C   LIG d   1       3.483  -0.825  -2.277  0.00  0.00    -0.049 C 
ATOM     12  C   LIG d   1       2.552  -0.608  -3.477  0.00  0.00    -0.032 C 
ATOM     13  O   LIG d   1       7.876  -2.048  -5.280  0.00  0.00    -0.461 OA
ATOM     14  C   LIG d   1       8.368  -1.659  -6.479  0.00  0.00     0.316 C 
ATOM     15  O   LIG d   1       9.209  -2.249  -7.114  0.00  0.00    -0.250 OA
ATOM     16  C   LIG d   1       7.697  -0.364  -6.897  0.00  0.00     0.102 C 
ATOM     17  H   LIG d   1       7.187  -0.463  -7.866  0.00  0.00     0.047 H 
ATOM     18  H   LIG d   1       5.539  -1.573  -6.640  0.00  0.00     0.031 H 
ATOM     19  H   LIG d   1       4.829   0.074  -6.719  0.00  0.00     0.031 H 
ATOM     20  H   LIG d   1       7.091  -1.776  -2.699  0.00  0.00     0.031 H 
ATOM     21  H   LIG d   1       6.325  -0.163  -2.892  0.00  0.00     0.031 H 
ATOM     22  H   LIG d   1       3.733  -2.907  -2.749  0.00  0.00     0.027 H 
ATOM     23  H   LIG d   1       5.016  -2.215  -1.699  0.00  0.00     0.027 H 
ATOM     24  H   LIG d   1       2.890  -1.022  -1.372  0.00  0.00     0.027 H 
ATOM     25  H   LIG d   1       4.110   0.065  -2.121  0.00  0.00     0.027 H 
ATOM     26  H   LIG d   1       1.927   0.281  -3.310  0.00  0.00     0.031 H 
ATOM     27  H   LIG d   1       1.908  -1.489  -3.617  0.00  0.00     0.031 H 
ENDROOT
BRANCH  16  28
ATOM     28  C   LIG d   1       8.735   0.746  -7.072  0.00  0.00    -0.018 C 
ATOM     29  H   LIG d   1       9.600   0.354  -7.628  0.00  0.00     0.082 H 
ATOM     30  H   LIG d   1       8.288   1.581  -7.631  0.00  0.00     0.082 H 
BRANCH  28  31
ATOM     31  N   LIG d   1       9.174   1.219  -5.753  0.00  0.00     0.238 N 
ATOM     32  C   LIG d   1       8.696   2.586  -5.498  0.00  0.00    -0.019 C 
ATOM     33  C   LIG d   1       9.106   3.011  -4.086  0.00  0.00     0.040 C 
ATOM     34  H   LIG d   1       9.141   3.273  -6.233  0.00  0.00     0.083 H 
ATOM     35  H   LIG d   1       7.600   2.614  -5.587  0.00  0.00     0.083 H 
ATOM     36  N   LIG d   1      10.568   2.935  -3.959  0.00  0.00    -0.288 N 
ATOM     37  H   LIG d   1       8.638   2.341  -3.350  0.00  0.00     0.048 H 
ATOM     38  H   LIG d   1       8.776   4.044  -3.903  0.00  0.00     0.048 H 
ATOM     39  C   LIG d   1      11.046   1.568  -4.214  0.00  0.00     0.040 C 
ATOM     40  C   LIG d   1      10.636   1.143  -5.626  0.00  0.00    -0.019 C 
ATOM     41  H   LIG d   1      10.600   0.881  -3.480  0.00  0.00     0.048 H 
ATOM     42  H   LIG d   1      12.141   1.540  -4.126  0.00  0.00     0.048 H 
ATOM     43  H   LIG d   1      10.967   0.111  -5.809  0.00  0.00     0.083 H 
ATOM     44  H   LIG d   1      11.104   1.813  -6.362  0.00  0.00     0.083 H 
ATOM     45  H   LIG d   1       8.732   0.558  -4.994  0.00  0.00     0.203 HD
BRANCH  36  46
ATOM     46  C   LIG d   1      11.007   3.409  -2.639  0.00  0.00     0.025 C 
ATOM     47  H   LIG d   1      10.386   2.946  -1.858  0.00  0.00     0.048 H 
ATOM     48  H   LIG d   1      12.060   3.131  -2.482  0.00  0.00     0.048 H 
BRANCH  46  49
ATOM     49  C   LIG d   1      10.866   4.907  -2.571  0.00  0.00    -0.030 A 
ATOM     50  C   LIG d   1      10.223   5.490  -1.495  0.00  0.00    -0.012 A 
ATOM     51  C   LIG d   1      10.092   6.868  -1.430  0.00  0.00     0.167 A 
ATOM     52  H   LIG d   1       9.822   4.873  -0.706  0.00  0.00     0.066 H 
ATOM     53  C   LIG d   1      10.611   7.663  -2.451  0.00  0.00     0.166 A 
ATOM     54  O   LIG d   1       9.513   7.679  -0.497  0.00  0.00    -0.453 OA
ATOM     55  C   LIG d   1      11.254   7.071  -3.525  0.00  0.00    -0.016 A 
ATOM     56  O   LIG d   1      10.356   8.971  -2.156  0.00  0.00    -0.453 OA
ATOM     57  C   LIG d   1      11.381   5.696  -3.584  0.00  0.00    -0.054 A 
ATOM     58  H   LIG d   1      11.656   7.684  -4.318  0.00  0.00     0.066 H 
ATOM     59  H   LIG d   1      11.886   5.236  -4.420  0.00  0.00     0.062 H 
ATOM     60  C   LIG d   1       9.322   8.946  -1.154  0.00  0.00     0.233 C 
ATOM     61  H   LIG d   1       8.315   8.982  -1.594  0.00  0.00     0.117 H 
ATOM     62  H   LIG d   1       9.432   9.759  -0.422  0.00  0.00     0.117 H 
ENDBRANCH  46  49
ENDBRANCH  36  46
ENDBRANCH  28  31
ENDBRANCH  16  28
BRANCH   1  63
ATOM     63  C   LIG d   1       2.846   0.431  -5.832  0.00  0.00    -0.043 C 
ATOM     64  H   LIG d   1       3.034   1.494  -5.625  0.00  0.00     0.027 H 
ATOM     65  H   LIG d   1       1.764   0.260  -5.921  0.00  0.00     0.027 H 
ATOM     66  H   LIG d   1       3.341   0.148  -6.773  0.00  0.00     0.027 H 
ENDBRANCH   1  63
BRANCH   9  67
ATOM     67  C   LIG d   1       5.563  -3.141  -4.426  0.00  0.00    -0.056 C 
ATOM     68  H   LIG d   1       6.613  -3.153  -4.753  0.00  0.00     0.024 H 
ATOM     69  H   LIG d   1       4.908  -3.306  -5.294  0.00  0.00     0.024 H 
ATOM     70  H   LIG d   1       5.400  -3.939  -3.687  0.00  0.00     0.024 H 
ENDBRANCH   9  67
TORSDOF 6
ENDMDL
MODEL 7
REMARK VINA RESULT:      -7.1      6.123     10.402
REMARK  6 active torsions:
REMARK  status: ('A' for Active; 'I' for Inactive)
REMARK    1  A    between atoms: C_1  and  C_2 
REMARK    2  A    between atoms: C_10  and  C_14 
REMARK    3  A    between atoms: C_18  and  C_20 
REMARK    4  A    between atoms: C_20  and  N_21 
REMARK    5  A    between atoms: N_24  and  C_27 
REMARK    6  A    between atoms: C_27  and  C_28 
ROOT
ATOM      1  C   LIG d   1       5.076   1.463  -8.917  0.00  0.00    -0.073 C 
ATOM      2  C   LIG d   1       4.869   0.458  -8.120  0.00  0.00    -0.064 C 
ATOM      3  C   LIG d   1       6.033  -0.117  -7.341  0.00  0.00    -0.024 C 
ATOM      4  C   LIG d   1       5.709  -0.106  -5.843  0.00  0.00     0.018 C 
ATOM      5  H   LIG d   1       5.832   0.927  -5.488  0.00  0.00     0.035 H 
ATOM      6  C   LIG d   1       4.310  -0.687  -5.570  0.00  0.00     0.108 C 
ATOM      7  H   LIG d   1       3.939  -0.494  -4.553  0.00  0.00     0.074 H 
ATOM      8  C   LIG d   1       3.209  -0.085  -6.404  0.00  0.00    -0.006 C 
ATOM      9  C   LIG d   1       3.526  -0.180  -7.898  0.00  0.00    -0.007 C 
ATOM     10  C   LIG d   1       2.418   0.446  -8.721  0.00  0.00    -0.043 C 
ATOM     11  C   LIG d   1       2.659   1.941  -8.927  0.00  0.00    -0.049 C 
ATOM     12  C   LIG d   1       3.971   2.116  -9.701  0.00  0.00    -0.032 C 
ATOM     13  O   LIG d   1       4.487  -2.117  -5.766  0.00  0.00    -0.461 OA
ATOM     14  C   LIG d   1       5.673  -2.448  -5.204  0.00  0.00     0.316 C 
ATOM     15  O   LIG d   1       5.960  -3.538  -4.769  0.00  0.00    -0.250 OA
ATOM     16  C   LIG d   1       6.582  -1.233  -5.207  0.00  0.00     0.102 C 
ATOM     17  H   LIG d   1       7.520  -1.428  -5.748  0.00  0.00     0.047 H 
ATOM     18  H   LIG d   1       6.217  -1.152  -7.666  0.00  0.00     0.031 H 
ATOM     19  H   LIG d   1       6.932   0.489  -7.523  0.00  0.00     0.031 H 
ATOM     20  H   LIG d   1       2.268  -0.623  -6.212  0.00  0.00     0.031 H 
ATOM     21  H   LIG d   1       3.086   0.975  -6.139  0.00  0.00     0.031 H 
ATOM     22  H   LIG d   1       2.372  -0.041  -9.706  0.00  0.00     0.027 H 
ATOM     23  H   LIG d   1       1.457   0.315  -8.201  0.00  0.00     0.027 H 
ATOM     24  H   LIG d   1       1.824   2.371  -9.501  0.00  0.00     0.027 H 
ATOM     25  H   LIG d   1       2.728   2.440  -7.949  0.00  0.00     0.027 H 
ATOM     26  H   LIG d   1       4.193   3.185  -9.828  0.00  0.00     0.031 H 
ATOM     27  H   LIG d   1       3.891   1.638 -10.689  0.00  0.00     0.031 H 
ENDROOT
BRANCH  16  28
ATOM     28  C   LIG d   1       6.982  -0.860  -3.779  0.00  0.00    -0.018 C 
ATOM     29  H   LIG d   1       6.106  -0.463  -3.244  0.00  0.00     0.082 H 
ATOM     30  H   LIG d   1       7.356  -1.753  -3.258  0.00  0.00     0.082 H 
BRANCH  28  31
ATOM     31  N   LIG d   1       8.037   0.162  -3.817  0.00  0.00     0.238 N 
ATOM     32  C   LIG d   1       7.460   1.514  -3.820  0.00  0.00    -0.019 C 
ATOM     33  C   LIG d   1       8.589   2.547  -3.781  0.00  0.00     0.040 C 
ATOM     34  H   LIG d   1       6.864   1.656  -4.734  0.00  0.00     0.083 H 
ATOM     35  H   LIG d   1       6.815   1.640  -2.938  0.00  0.00     0.083 H 
ATOM     36  N   LIG d   1       9.470   2.350  -4.941  0.00  0.00    -0.288 N 
ATOM     37  H   LIG d   1       9.168   2.422  -2.854  0.00  0.00     0.048 H 
ATOM     38  H   LIG d   1       8.162   3.559  -3.813  0.00  0.00     0.048 H 
ATOM     39  C   LIG d   1      10.047   0.998  -4.937  0.00  0.00     0.040 C 
ATOM     40  C   LIG d   1       8.918  -0.035  -4.977  0.00  0.00    -0.019 C 
ATOM     41  H   LIG d   1      10.643   0.855  -4.023  0.00  0.00     0.048 H 
ATOM     42  H   LIG d   1      10.691   0.871  -5.819  0.00  0.00     0.048 H 
ATOM     43  H   LIG d   1       9.345  -1.047  -4.945  0.00  0.00     0.083 H 
ATOM     44  H   LIG d   1       8.339   0.089  -5.903  0.00  0.00     0.083 H 
ATOM     45  H   LIG d   1       8.644   0.054  -2.907  0.00  0.00     0.203 HD
BRANCH  36  46
ATOM     46  C   LIG d   1      10.525   3.372  -4.979  0.00  0.00     0.025 C 
ATOM     47  H   LIG d   1      10.596   3.864  -3.997  0.00  0.00     0.048 H 
ATOM     48  H   LIG d   1      11.487   2.897  -5.221  0.00  0.00     0.048 H 
BRANCH  46  49
ATOM     49  C   LIG d   1      10.193   4.397  -6.032  0.00  0.00    -0.030 A 
ATOM     50  C   LIG d   1      10.227   5.744  -5.717  0.00  0.00    -0.012 A 
ATOM     51  C   LIG d   1       9.921   6.689  -6.684  0.00  0.00     0.167 A 
ATOM     52  H   LIG d   1      10.491   6.059  -4.720  0.00  0.00     0.066 H 
ATOM     53  C   LIG d   1       9.581   6.279  -7.971  0.00  0.00     0.166 A 
ATOM     54  O   LIG d   1       9.882   8.052  -6.635  0.00  0.00    -0.453 OA
ATOM     55  C   LIG d   1       9.549   4.928  -8.278  0.00  0.00    -0.016 A 
ATOM     56  O   LIG d   1       9.328   7.386  -8.728  0.00  0.00    -0.453 OA
ATOM     57  C   LIG d   1       9.854   3.991  -7.309  0.00  0.00    -0.054 A 
ATOM     58  H   LIG d   1       9.285   4.607  -9.275  0.00  0.00     0.066 H 
ATOM     59  H   LIG d   1       9.833   2.938  -7.551  0.00  0.00     0.062 H 
ATOM     60  C   LIG d   1       9.118   8.456  -7.788  0.00  0.00     0.233 C 
ATOM     61  H   LIG d   1       8.060   8.563  -7.507  0.00  0.00     0.117 H 
ATOM     62  H   LIG d   1       9.498   9.418  -8.161  0.00  0.00     0.117 H 
ENDBRANCH  46  49
ENDBRANCH  36  46
ENDBRANCH  28  31
ENDBRANCH  16  28
BRANCH   1  63
ATOM     63  C   LIG d   1       6.479   1.995  -9.062  0.00  0.00    -0.043 C 
ATOM     64  H   LIG d   1       7.117   1.226  -9.520  0.00  0.00     0.027 H 
ATOM     65  H   LIG d   1       6.876   2.259  -8.071  0.00  0.00     0.027 H 
ATOM     66  H   LIG d   1       6.467   2.890  -9.702  0.00  0.00     0.027 H 
ENDBRANCH   1  63
BRANCH   9  67
ATOM     67  C   LIG d   1       3.623  -1.659  -8.279  0.00  0.00    -0.056 C 
ATOM     68  H   LIG d   1       3.650  -1.754  -9.374  0.00  0.00     0.024 H 
ATOM     69  H   LIG d   1       2.748  -2.197  -7.886  0.00  0.00     0.024 H 
ATOM     70  H   LIG d   1       4.541  -2.088  -7.851  0.00  0.00     0.024 H 
ENDBRANCH   9  67
TORSDOF 6
ENDMDL
MODEL 8
REMARK VINA RESULT:      -7.0      4.432      8.352
REMARK  6 active torsions:
REMARK  status: ('A' for Active; 'I' for Inactive)
REMARK    1  A    between atoms: C_1  and  C_2 
REMARK    2  A    between atoms: C_10  and  C_14 
REMARK    3  A    between atoms: C_18  and  C_20 
REMARK    4  A    between atoms: C_20  and  N_21 
REMARK    5  A    between atoms: N_24  and  C_27 
REMARK    6  A    between atoms: C_27  and  C_28 
ROOT
ATOM      1  C   LIG d   1       3.006  -1.288 -10.284  0.00  0.00    -0.073 C 
ATOM      2  C   LIG d   1       3.456  -0.784  -9.175  0.00  0.00    -0.064 C 
ATOM      3  C   LIG d   1       3.603  -1.679  -7.963  0.00  0.00    -0.024 C 
ATOM      4  C   LIG d   1       5.045  -1.621  -7.447  0.00  0.00     0.018 C 
ATOM      5  H   LIG d   1       5.660  -2.235  -8.121  0.00  0.00     0.035 H 
ATOM      6  C   LIG d   1       5.536  -0.167  -7.324  0.00  0.00     0.108 C 
ATOM      7  H   LIG d   1       6.622  -0.075  -7.182  0.00  0.00     0.074 H 
ATOM      8  C   LIG d   1       5.328   0.670  -8.560  0.00  0.00    -0.006 C 
ATOM      9  C   LIG d   1       3.865   0.653  -9.006  0.00  0.00    -0.007 C 
ATOM     10  C   LIG d   1       3.678   1.484 -10.260  0.00  0.00    -0.043 C 
ATOM     11  C   LIG d   1       3.905   0.646 -11.518  0.00  0.00    -0.049 C 
ATOM     12  C   LIG d   1       2.862  -0.478 -11.543  0.00  0.00    -0.032 C 
ATOM     13  O   LIG d   1       4.840   0.332  -6.148  0.00  0.00    -0.461 OA
ATOM     14  C   LIG d   1       4.866  -0.657  -5.226  0.00  0.00     0.316 C 
ATOM     15  O   LIG d   1       4.811  -0.500  -4.030  0.00  0.00    -0.250 OA
ATOM     16  C   LIG d   1       4.975  -1.995  -5.934  0.00  0.00     0.102 C 
ATOM     17  H   LIG d   1       4.137  -2.661  -5.679  0.00  0.00     0.047 H 
ATOM     18  H   LIG d   1       2.919  -1.340  -7.171  0.00  0.00     0.031 H 
ATOM     19  H   LIG d   1       3.358  -2.715  -8.240  0.00  0.00     0.031 H 
ATOM     20  H   LIG d   1       5.618   1.710  -8.350  0.00  0.00     0.031 H 
ATOM     21  H   LIG d   1       5.948   0.274  -9.379  0.00  0.00     0.031 H 
ATOM     22  H   LIG d   1       2.655   1.886 -10.286  0.00  0.00     0.027 H 
ATOM     23  H   LIG d   1       4.399   2.316 -10.259  0.00  0.00     0.027 H 
ATOM     24  H   LIG d   1       3.792   1.283 -12.408  0.00  0.00     0.027 H 
ATOM     25  H   LIG d   1       4.919   0.220 -11.497  0.00  0.00     0.027 H 
ATOM     26  H   LIG d   1       3.028  -1.124 -12.416  0.00  0.00     0.031 H 
ATOM     27  H   LIG d   1       1.850  -0.050 -11.589  0.00  0.00     0.031 H 
ENDROOT
BRANCH  16  28
ATOM     28  C   LIG d   1       6.247  -2.727  -5.503  0.00  0.00    -0.018 C 
ATOM     29  H   LIG d   1       7.114  -2.293  -6.024  0.00  0.00     0.082 H 
ATOM     30  H   LIG d   1       6.381  -2.621  -4.417  0.00  0.00     0.082 H 
BRANCH  28  31
ATOM     31  N   LIG d   1       6.133  -4.151  -5.845  0.00  0.00     0.238 N 
ATOM     32  C   LIG d   1       4.887  -4.721  -5.313  0.00  0.00    -0.019 C 
ATOM     33  C   LIG d   1       4.768  -6.182  -5.757  0.00  0.00     0.040 C 
ATOM     34  H   LIG d   1       4.901  -4.671  -4.214  0.00  0.00     0.083 H 
ATOM     35  H   LIG d   1       4.029  -4.149  -5.696  0.00  0.00     0.083 H 
ATOM     36  N   LIG d   1       5.936  -6.934  -5.277  0.00  0.00    -0.288 N 
ATOM     37  H   LIG d   1       4.726  -6.229  -6.855  0.00  0.00     0.048 H 
ATOM     38  H   LIG d   1       3.852  -6.620  -5.336  0.00  0.00     0.048 H 
ATOM     39  C   LIG d   1       7.181  -6.363  -5.809  0.00  0.00     0.040 C 
ATOM     40  C   LIG d   1       7.301  -4.903  -5.366  0.00  0.00    -0.019 C 
ATOM     41  H   LIG d   1       7.167  -6.412  -6.909  0.00  0.00     0.048 H 
ATOM     42  H   LIG d   1       8.040  -6.934  -5.427  0.00  0.00     0.048 H 
ATOM     43  H   LIG d   1       8.217  -4.465  -5.786  0.00  0.00     0.083 H 
ATOM     44  H   LIG d   1       7.342  -4.855  -4.268  0.00  0.00     0.083 H 
ATOM     45  H   LIG d   1       6.103  -4.233  -6.941  0.00  0.00     0.203 HD
BRANCH  36  46
ATOM     46  C   LIG d   1       5.821  -8.358  -5.619  0.00  0.00     0.025 C 
ATOM     47  H   LIG d   1       4.891  -8.527  -6.182  0.00  0.00     0.048 H 
ATOM     48  H   LIG d   1       6.682  -8.657  -6.235  0.00  0.00     0.048 H 
BRANCH  46  49
ATOM     49  C   LIG d   1       5.799  -9.178  -4.355  0.00  0.00    -0.030 A 
ATOM     50  C   LIG d   1       6.928  -9.248  -3.560  0.00  0.00    -0.012 A 
ATOM     51  C   LIG d   1       6.910 -10.001  -2.396  0.00  0.00     0.167 A 
ATOM     52  H   LIG d   1       7.823  -8.716  -3.844  0.00  0.00     0.066 H 
ATOM     53  C   LIG d   1       5.752 -10.685  -2.031  0.00  0.00     0.166 A 
ATOM     54  O   LIG d   1       7.869 -10.231  -1.453  0.00  0.00    -0.453 OA
ATOM     55  C   LIG d   1       4.626 -10.610  -2.834  0.00  0.00    -0.016 A 
ATOM     56  O   LIG d   1       5.987 -11.344  -0.859  0.00  0.00    -0.453 OA
ATOM     57  C   LIG d   1       4.651  -9.857  -3.993  0.00  0.00    -0.054 A 
ATOM     58  H   LIG d   1       3.727 -11.140  -2.554  0.00  0.00     0.066 H 
ATOM     59  H   LIG d   1       3.770  -9.796  -4.616  0.00  0.00     0.062 H 
ATOM     60  C   LIG d   1       7.420 -11.389  -0.723  0.00  0.00     0.233 C 
ATOM     61  H   LIG d   1       7.853 -12.295  -1.171  0.00  0.00     0.117 H 
ATOM     62  H   LIG d   1       7.741 -11.308   0.326  0.00  0.00     0.117 H 
ENDBRANCH  46  49
ENDBRANCH  36  46
ENDBRANCH  28  31
ENDBRANCH  16  28
BRANCH   1  63
ATOM     63  C   LIG d   1       2.614  -2.743 -10.311  0.00  0.00    -0.043 C 
ATOM     64  H   LIG d   1       2.703  -3.166  -9.299  0.00  0.00     0.027 H 
ATOM     65  H   LIG d   1       3.277  -3.290 -10.997  0.00  0.00     0.027 H 
ATOM     66  H   LIG d   1       1.573  -2.836 -10.657  0.00  0.00     0.027 H 
ENDBRANCH   1  63
BRANCH   9  67
ATOM     67  C   LIG d   1       3.014   1.272  -7.895  0.00  0.00    -0.056 C 
ATOM     68  H   LIG d   1       2.191   1.848  -8.343  0.00  0.00     0.024 H 
ATOM     69  H   LIG d   1       3.639   1.940  -7.284  0.00  0.00     0.024 H 
ATOM     70  H   LIG d   1       2.601   0.473  -7.262  0.00  0.00     0.024 H 
ENDBRANCH   9  67
TORSDOF 6
ENDMDL
MODEL 9
REMARK VINA RESULT:      -6.9      6.154      8.910
REMARK  6 active torsions:
REMARK  status: ('A' for Active; 'I' for Inactive)
REMARK    1  A    between atoms: C_1  and  C_2 
REMARK    2  A    between atoms: C_10  and  C_14 
REMARK    3  A    between atoms: C_18  and  C_20 
REMARK    4  A    between atoms: C_20  and  N_21 
REMARK    5  A    between atoms: N_24  and  C_27 
REMARK    6  A    between atoms: C_27  and  C_28 
ROOT
ATOM      1  C   LIG d   1       3.349   0.614  -3.830  0.00  0.00    -0.073 C 
ATOM      2  C   LIG d   1       4.047  -0.440  -4.131  0.00  0.00    -0.064 C 
ATOM      3  C   LIG d   1       4.127  -0.883  -5.577  0.00  0.00    -0.024 C 
ATOM      4  C   LIG d   1       5.595  -0.975  -6.010  0.00  0.00     0.018 C 
ATOM      5  H   LIG d   1       5.951   0.051  -6.183  0.00  0.00     0.035 H 
ATOM      6  C   LIG d   1       6.434  -1.750  -4.978  0.00  0.00     0.108 C 
ATOM      7  H   LIG d   1       7.519  -1.649  -5.122  0.00  0.00     0.074 H 
ATOM      8  C   LIG d   1       6.278  -1.270  -3.558  0.00  0.00    -0.006 C 
ATOM      9  C   LIG d   1       4.809  -1.263  -3.130  0.00  0.00    -0.007 C 
ATOM     10  C   LIG d   1       4.669  -0.760  -1.707  0.00  0.00    -0.043 C 
ATOM     11  C   LIG d   1       4.523   0.760  -1.668  0.00  0.00    -0.049 C 
ATOM     12  C   LIG d   1       3.245   1.142  -2.425  0.00  0.00    -0.032 C 
ATOM     13  O   LIG d   1       6.036  -3.134  -5.182  0.00  0.00    -0.461 OA
ATOM     14  C   LIG d   1       5.940  -3.323  -6.518  0.00  0.00     0.316 C 
ATOM     15  O   LIG d   1       6.079  -4.380  -7.087  0.00  0.00    -0.250 OA
ATOM     16  C   LIG d   1       5.631  -1.997  -7.189  0.00  0.00     0.102 C 
ATOM     17  H   LIG d   1       4.697  -2.041  -7.768  0.00  0.00     0.047 H 
ATOM     18  H   LIG d   1       3.653  -1.869  -5.686  0.00  0.00     0.031 H 
ATOM     19  H   LIG d   1       3.606  -0.153  -6.214  0.00  0.00     0.031 H 
ATOM     20  H   LIG d   1       6.835  -1.938  -2.883  0.00  0.00     0.031 H 
ATOM     21  H   LIG d   1       6.673  -0.248  -3.471  0.00  0.00     0.031 H 
ATOM     22  H   LIG d   1       3.778  -1.210  -1.244  0.00  0.00     0.027 H 
ATOM     23  H   LIG d   1       5.563  -1.041  -1.130  0.00  0.00     0.027 H 
ATOM     24  H   LIG d   1       4.455   1.095  -0.623  0.00  0.00     0.027 H 
ATOM     25  H   LIG d   1       5.398   1.225  -2.146  0.00  0.00     0.027 H 
ATOM     26  H   LIG d   1       3.136   2.235  -2.451  0.00  0.00     0.031 H 
ATOM     27  H   LIG d   1       2.369   0.696  -1.931  0.00  0.00     0.031 H 
ENDROOT
BRANCH  16  28
ATOM     28  C   LIG d   1       6.733  -1.629  -8.183  0.00  0.00    -0.018 C 
ATOM     29  H   LIG d   1       7.577  -2.326  -8.070  0.00  0.00     0.082 H 
ATOM     30  H   LIG d   1       6.338  -1.694  -9.208  0.00  0.00     0.082 H 
BRANCH  28  31
ATOM     31  N   LIG d   1       7.192  -0.258  -7.921  0.00  0.00     0.238 N 
ATOM     32  C   LIG d   1       6.828   0.638  -9.027  0.00  0.00    -0.019 C 
ATOM     33  C   LIG d   1       7.253   2.068  -8.681  0.00  0.00     0.040 C 
ATOM     34  H   LIG d   1       7.341   0.315  -9.945  0.00  0.00     0.083 H 
ATOM     35  H   LIG d   1       5.740   0.605  -9.184  0.00  0.00     0.083 H 
ATOM     36  N   LIG d   1       8.701   2.100  -8.434  0.00  0.00    -0.288 N 
ATOM     37  H   LIG d   1       6.719   2.401  -7.779  0.00  0.00     0.048 H 
ATOM     38  H   LIG d   1       7.009   2.737  -9.519  0.00  0.00     0.048 H 
ATOM     39  C   LIG d   1       9.064   1.203  -7.328  0.00  0.00     0.040 C 
ATOM     40  C   LIG d   1       8.640  -0.227  -7.674  0.00  0.00    -0.019 C 
ATOM     41  H   LIG d   1       8.550   1.525  -6.410  0.00  0.00     0.048 H 
ATOM     42  H   LIG d   1      10.152   1.235  -7.171  0.00  0.00     0.048 H 
ATOM     43  H   LIG d   1       8.884  -0.895  -6.836  0.00  0.00     0.083 H 
ATOM     44  H   LIG d   1       9.174  -0.560  -8.576  0.00  0.00     0.083 H 
ATOM     45  H   LIG d   1       6.684   0.099  -7.014  0.00  0.00     0.203 HD
BRANCH  36  46
ATOM     46  C   LIG d   1       9.160   3.471  -8.172  0.00  0.00     0.025 C 
ATOM     47  H   LIG d   1       8.415   3.996  -7.556  0.00  0.00     0.048 H 
ATOM     48  H   LIG d   1      10.121   3.440  -7.638  0.00  0.00     0.048 H 
BRANCH  46  49
ATOM     49  C   LIG d   1       9.334   4.200  -9.479  0.00  0.00    -0.030 A 
ATOM     50  C   LIG d   1      10.080   3.628 -10.493  0.00  0.00    -0.012 A 
ATOM     51  C   LIG d   1      10.242   4.297 -11.696  0.00  0.00     0.167 A 
ATOM     52  H   LIG d   1      10.537   2.661 -10.348  0.00  0.00     0.066 H 
ATOM     53  C   LIG d   1       9.651   5.545 -11.880  0.00  0.00     0.166 A 
ATOM     54  O   LIG d   1      10.915   3.960 -12.835  0.00  0.00    -0.453 OA
ATOM     55  C   LIG d   1       8.905   6.111 -10.859  0.00  0.00    -0.016 A 
ATOM     56  O   LIG d   1       9.954   5.990 -13.134  0.00  0.00    -0.453 OA
ATOM     57  C   LIG d   1       8.748   5.439  -9.662  0.00  0.00    -0.054 A 
ATOM     58  H   LIG d   1       8.446   7.079 -10.999  0.00  0.00     0.066 H 
ATOM     59  H   LIG d   1       8.163   5.881  -8.868  0.00  0.00     0.062 H 
ATOM     60  C   LIG d   1      11.071   5.191 -13.567  0.00  0.00     0.233 C 
ATOM     61  H   LIG d   1      12.037   5.650 -13.309  0.00  0.00     0.117 H 
ATOM     62  H   LIG d   1      11.041   4.982 -14.646  0.00  0.00     0.117 H 
ENDBRANCH  46  49
ENDBRANCH  36  46
ENDBRANCH  28  31
ENDBRANCH  16  28
BRANCH   1  63
ATOM     63  C   LIG d   1       2.617   1.337  -4.931  0.00  0.00    -0.043 C 
ATOM     64  H   LIG d   1       2.399   2.366  -4.612  0.00  0.00     0.027 H 
ATOM     65  H   LIG d   1       1.675   0.814  -5.151  0.00  0.00     0.027 H 
ATOM     66  H   LIG d   1       3.244   1.359  -5.836  0.00  0.00     0.027 H 
ENDBRANCH   1  63
BRANCH   9  67
ATOM     67  C   LIG d   1       4.282  -2.698  -3.181  0.00  0.00    -0.056 C 
ATOM     68  H   LIG d   1       3.849  -2.964  -2.206  0.00  0.00     0.024 H 
ATOM     69  H   LIG d   1       5.110  -3.384  -3.414  0.00  0.00     0.024 H 
ATOM     70  H   LIG d   1       3.510  -2.777  -3.960  0.00  0.00     0.024 H 
ENDBRANCH   9  67
TORSDOF 6
ENDMDL
MODEL 10
REMARK VINA RESULT:      -6.9      4.837      7.343
REMARK  6 active torsions:
REMARK  status: ('A' for Active; 'I' for Inactive)
REMARK    1  A    between atoms: C_1  and  C_2 
REMARK    2  A    between atoms: C_10  and  C_14 
REMARK    3  A    between atoms: C_18  and  C_20 
REMARK    4  A    between atoms: C_20  and  N_21 
REMARK    5  A    between atoms: N_24  and  C_27 
REMARK    6  A    between atoms: C_27  and  C_28 
ROOT
ATOM      1  C   LIG d   1       4.581  -1.090  -2.468  0.00  0.00    -0.073 C 
ATOM      2  C   LIG d   1       5.459  -1.249  -3.412  0.00  0.00    -0.064 C 
ATOM      3  C   LIG d   1       5.647  -2.623  -4.019  0.00  0.00    -0.024 C 
ATOM      4  C   LIG d   1       5.452  -2.550  -5.538  0.00  0.00     0.018 C 
ATOM      5  H   LIG d   1       4.371  -2.486  -5.727  0.00  0.00     0.035 H 
ATOM      6  C   LIG d   1       6.251  -1.384  -6.147  0.00  0.00     0.108 C 
ATOM      7  H   LIG d   1       5.971  -1.146  -7.183  0.00  0.00     0.074 H 
ATOM      8  C   LIG d   1       6.034  -0.055  -5.470  0.00  0.00    -0.006 C 
ATOM      9  C   LIG d   1       6.311  -0.143  -3.968  0.00  0.00    -0.007 C 
ATOM     10  C   LIG d   1       6.070   1.197  -3.301  0.00  0.00    -0.043 C 
ATOM     11  C   LIG d   1       4.613   1.343  -2.863  0.00  0.00    -0.049 C 
ATOM     12  C   LIG d   1       4.306   0.247  -1.835  0.00  0.00    -0.032 C 
ATOM     13  O   LIG d   1       7.628  -1.852  -6.104  0.00  0.00    -0.461 OA
ATOM     14  C   LIG d   1       7.612  -3.156  -6.465  0.00  0.00     0.316 C 
ATOM     15  O   LIG d   1       8.532  -3.753  -6.972  0.00  0.00    -0.250 OA
ATOM     16  C   LIG d   1       6.255  -3.749  -6.132  0.00  0.00     0.102 C 
ATOM     17  H   LIG d   1       6.342  -4.607  -5.450  0.00  0.00     0.047 H 
ATOM     18  H   LIG d   1       6.661  -2.986  -3.800  0.00  0.00     0.031 H 
ATOM     19  H   LIG d   1       4.909  -3.318  -3.592  0.00  0.00     0.031 H 
ATOM     20  H   LIG d   1       6.713   0.693  -5.907  0.00  0.00     0.031 H 
ATOM     21  H   LIG d   1       4.992   0.265  -5.616  0.00  0.00     0.031 H 
ATOM     22  H   LIG d   1       6.713   1.286  -2.413  0.00  0.00     0.027 H 
ATOM     23  H   LIG d   1       6.305   2.006  -4.008  0.00  0.00     0.027 H 
ATOM     24  H   LIG d   1       4.464   2.335  -2.411  0.00  0.00     0.027 H 
ATOM     25  H   LIG d   1       3.954   1.234  -3.737  0.00  0.00     0.027 H 
ATOM     26  H   LIG d   1       3.251   0.300  -1.532  0.00  0.00     0.031 H 
ATOM     27  H   LIG d   1       4.949   0.371  -0.950  0.00  0.00     0.031 H 
ENDROOT
BRANCH  16  28
ATOM     28  C   LIG d   1       5.575  -4.275  -7.397  0.00  0.00    -0.018 C 
ATOM     29  H   LIG d   1       4.540  -3.906  -7.437  0.00  0.00     0.082 H 
ATOM     30  H   LIG d   1       6.125  -3.923  -8.282  0.00  0.00     0.082 H 
BRANCH  28  31
ATOM     31  N   LIG d   1       5.571  -5.744  -7.375  0.00  0.00     0.238 N 
ATOM     32  C   LIG d   1       4.250  -6.272  -7.745  0.00  0.00    -0.019 C 
ATOM     33  C   LIG d   1       4.309  -7.801  -7.788  0.00  0.00     0.040 C 
ATOM     34  H   LIG d   1       3.506  -5.953  -7.000  0.00  0.00     0.083 H 
ATOM     35  H   LIG d   1       3.965  -5.887  -8.736  0.00  0.00     0.083 H 
ATOM     36  N   LIG d   1       4.727  -8.309  -6.474  0.00  0.00    -0.288 N 
ATOM     37  H   LIG d   1       5.033  -8.119  -8.552  0.00  0.00     0.048 H 
ATOM     38  H   LIG d   1       3.315  -8.200  -8.036  0.00  0.00     0.048 H 
ATOM     39  C   LIG d   1       6.048  -7.781  -6.104  0.00  0.00     0.040 C 
ATOM     40  C   LIG d   1       5.989  -6.252  -6.062  0.00  0.00    -0.019 C 
ATOM     41  H   LIG d   1       6.793  -8.098  -6.849  0.00  0.00     0.048 H 
ATOM     42  H   LIG d   1       6.333  -8.165  -5.114  0.00  0.00     0.048 H 
ATOM     43  H   LIG d   1       6.983  -5.853  -5.813  0.00  0.00     0.083 H 
ATOM     44  H   LIG d   1       5.265  -5.934  -5.297  0.00  0.00     0.083 H 
ATOM     45  H   LIG d   1       6.298  -6.094  -8.122  0.00  0.00     0.203 HD
BRANCH  36  46
ATOM     46  C   LIG d   1       4.723  -9.779  -6.452  0.00  0.00     0.025 C 
ATOM     47  H   LIG d   1       3.723 -10.147  -6.726  0.00  0.00     0.048 H 
ATOM     48  H   LIG d   1       5.463 -10.157  -7.172  0.00  0.00     0.048 H 
BRANCH  46  49
ATOM     49  C   LIG d   1       5.075 -10.261  -5.069  0.00  0.00    -0.030 A 
ATOM     50  C   LIG d   1       6.277 -10.909  -4.850  0.00  0.00    -0.012 A 
ATOM     51  C   LIG d   1       6.602 -11.354  -3.579  0.00  0.00     0.167 A 
ATOM     52  H   LIG d   1       6.961 -11.069  -5.669  0.00  0.00     0.066 H 
ATOM     53  C   LIG d   1       5.717 -11.146  -2.524  0.00  0.00     0.166 A 
ATOM     54  O   LIG d   1       7.702 -12.007  -3.103  0.00  0.00    -0.453 OA
ATOM     55  C   LIG d   1       4.515 -10.496  -2.751  0.00  0.00    -0.016 A 
ATOM     56  O   LIG d   1       6.262 -11.670  -1.387  0.00  0.00    -0.453 OA
ATOM     57  C   LIG d   1       4.196 -10.056  -4.022  0.00  0.00    -0.054 A 
ATOM     58  H   LIG d   1       3.825 -10.334  -1.936  0.00  0.00     0.066 H 
ATOM     59  H   LIG d   1       3.259  -9.545  -4.197  0.00  0.00     0.062 H 
ATOM     60  C   LIG d   1       7.303 -12.559  -1.834  0.00  0.00     0.233 C 
ATOM     61  H   LIG d   1       6.939 -13.586  -1.980  0.00  0.00     0.117 H 
ATOM     62  H   LIG d   1       8.164 -12.568  -1.151  0.00  0.00     0.117 H 
ENDBRANCH  46  49
ENDBRANCH  36  46
ENDBRANCH  28  31
ENDBRANCH  16  28
BRANCH   1  63
ATOM     63  C   LIG d   1       3.805  -2.290  -1.989  0.00  0.00    -0.043 C 
ATOM     64  H   LIG d   1       2.808  -1.972  -1.653  0.00  0.00     0.027 H 
ATOM     65  H   LIG d   1       4.341  -2.764  -1.153  0.00  0.00     0.027 H 
ATOM     66  H   LIG d   1       3.701  -3.012  -2.813  0.00  0.00     0.027 H 
ENDBRANCH   1  63
BRANCH   9  67
ATOM     67  C   LIG d   1       7.781  -0.516  -3.767  0.00  0.00    -0.056 C 
ATOM     68  H   LIG d   1       7.849  -1.545  -3.388  0.00  0.00     0.024 H 
ATOM     69  H   LIG d   1       8.238   0.174  -3.042  0.00  0.00     0.024 H 
ATOM     70  H   LIG d   1       8.312  -0.442  -4.728  0.00  0.00     0.024 H 
ENDBRANCH   9  67
TORSDOF 6
ENDMDL
