MODEL 1
REMARK VINA RESULT:      -6.3      0.000      0.000
REMARK  9 active torsions:
REMARK  status: ('A' for Active; 'I' for Inactive)
REMARK    1  A    between atoms: C_1  and  C_2 
REMARK    2  A    between atoms: C_3  and  C_17 
REMARK    3  A    between atoms: C_9  and  O_15 
REMARK    4  A    between atoms: C_11  and  O_13 
REMARK    5  A    between atoms: O_13  and  C_14 
REMARK    6  A    between atoms: O_15  and  C_16 
REMARK    7  A    between atoms: C_17  and  C_18 
REMARK       I    between atoms: C_18  and  N_20 
REMARK    8  A    between atoms: N_20  and  C_21 
REMARK    9  A    between atoms: C_21  and  C_22 
ROOT
ATOM      1  C   LIG d   1       6.880  -5.907  -5.358  0.00  0.00    -0.026 A 
ATOM      2  C   LIG d   1       5.725  -5.233  -5.600  0.00  0.00     0.049 A 
ATOM      3  C   LIG d   1       4.508  -5.936  -5.696  0.00  0.00     0.341 A 
ATOM      4  O   LIG d   1       3.477  -5.324  -5.907  0.00  0.00    -0.245 OA
ATOM      5  O   LIG d   1       4.469  -7.273  -5.562  0.00  0.00    -0.422 OA
ATOM      6  C   LIG d   1       5.595  -7.980  -5.321  0.00  0.00     0.146 A 
ATOM      7  C   LIG d   1       6.831  -7.316  -5.213  0.00  0.00     0.063 A 
ATOM      8  C   LIG d   1       8.002  -8.053  -4.960  0.00  0.00     0.135 A 
ATOM      9  C   LIG d   1       7.928  -9.426  -4.823  0.00  0.00     0.023 A 
ATOM     10  C   LIG d   1       6.704 -10.076  -4.932  0.00  0.00     0.127 A 
ATOM     11  C   LIG d   1       5.543  -9.357  -5.180  0.00  0.00     0.023 A 
ATOM     12  H   LIG d   1       8.825  -9.996  -4.630  0.00  0.00     0.069 H 
ATOM     13  H   LIG d   1       4.598  -9.873  -5.262  0.00  0.00     0.069 H 
ENDROOT
BRANCH   2  14
ATOM     14  C   LIG d   1       5.746  -3.734  -5.760  0.00  0.00     0.056 C 
ATOM     15  H   LIG d   1       4.972  -3.434  -6.467  0.00  0.00     0.041 H 
ATOM     16  H   LIG d   1       6.721  -3.422  -6.135  0.00  0.00     0.041 H 
BRANCH  14  17
ATOM     17  C   LIG d   1       5.488  -3.082  -4.427  0.00  0.00     0.218 C 
ATOM     18  O   LIG d   1       6.411  -2.620  -3.790  0.00  0.00    -0.275 OA
ATOM     19  N   LIG d   1       4.232  -3.014  -3.941  0.00  0.00    -0.311 N 
ATOM     20  H   LIG d   1       3.495  -3.384  -4.451  0.00  0.00     0.149 HD
BRANCH  19  21
ATOM     21  C   LIG d   1       3.982  -2.380  -2.644  0.00  0.00     0.037 C 
ATOM     22  H   LIG d   1       4.817  -2.581  -1.974  0.00  0.00     0.051 H 
ATOM     23  H   LIG d   1       3.066  -2.784  -2.213  0.00  0.00     0.051 H 
BRANCH  21  24
ATOM     24  C   LIG d   1       3.836  -0.892  -2.833  0.00  0.00    -0.028 A 
ATOM     25  C   LIG d   1       3.105  -0.379  -3.894  0.00  0.00    -0.039 A 
ATOM     26  C   LIG d   1       2.993   0.991  -4.035  0.00  0.00     0.028 A 
ATOM     27  H   LIG d   1       2.631  -1.042  -4.602  0.00  0.00     0.064 H 
ATOM     28  N   LIG d   1       3.572   1.807  -3.175  0.00  0.00    -0.263 NA
ATOM     29  H   LIG d   1       2.427   1.399  -4.859  0.00  0.00     0.083 H 
ATOM     30  C   LIG d   1       4.274   1.355  -2.155  0.00  0.00     0.028 A 
ATOM     31  C   LIG d   1       4.433  -0.003  -1.953  0.00  0.00    -0.039 A 
ATOM     32  H   LIG d   1       4.733   2.054  -1.471  0.00  0.00     0.083 H 
ATOM     33  H   LIG d   1       5.014  -0.367  -1.118  0.00  0.00     0.064 H 
ENDBRANCH  21  24
ENDBRANCH  19  21
ENDBRANCH  14  17
ENDBRANCH   2  14
BRANCH   1  34
ATOM     34  C   LIG d   1       8.190  -5.169  -5.247  0.00  0.00    -0.038 C 
ATOM     35  H   LIG d   1       8.534  -5.193  -4.213  0.00  0.00     0.028 H 
ATOM     36  H   LIG d   1       8.931  -5.646  -5.888  0.00  0.00     0.028 H 
ATOM     37  H   LIG d   1       8.052  -4.135  -5.561  0.00  0.00     0.028 H 
ENDBRANCH   1  34
BRANCH   8  38
ATOM     38  O   LIG d   1       9.197  -7.420  -4.854  0.00  0.00    -0.494 OA
BRANCH  38  39
ATOM     39  C   LIG d   1      10.185  -8.034  -4.024  0.00  0.00     0.079 C 
ATOM     40  H   LIG d   1      10.010  -9.109  -3.986  0.00  0.00     0.066 H 
ATOM     41  H   LIG d   1      11.176  -7.842  -4.434  0.00  0.00     0.066 H 
ATOM     42  H   LIG d   1      10.122  -7.619  -3.017  0.00  0.00     0.066 H 
ENDBRANCH  38  39
ENDBRANCH   8  38
BRANCH  10  43
ATOM     43  O   LIG d   1       6.643 -11.425  -4.795  0.00  0.00    -0.495 OA
BRANCH  43  44
ATOM     44  C   LIG d   1       5.505 -12.084  -5.354  0.00  0.00     0.079 C 
ATOM     45  H   LIG d   1       5.367 -13.048  -4.864  0.00  0.00     0.066 H 
ATOM     46  H   LIG d   1       4.618 -11.469  -5.204  0.00  0.00     0.066 H 
ATOM     47  H   LIG d   1       5.664 -12.239  -6.421  0.00  0.00     0.066 H 
ENDBRANCH  43  44
ENDBRANCH  10  43
TORSDOF 9
ENDMDL
MODEL 2
REMARK VINA RESULT:      -6.1      3.796      7.665
REMARK  9 active torsions:
REMARK  status: ('A' for Active; 'I' for Inactive)
REMARK    1  A    between atoms: C_1  and  C_2 
REMARK    2  A    between atoms: C_3  and  C_17 
REMARK    3  A    between atoms: C_9  and  O_15 
REMARK    4  A    between atoms: C_11  and  O_13 
REMARK    5  A    between atoms: O_13  and  C_14 
REMARK    6  A    between atoms: O_15  and  C_16 
REMARK    7  A    between atoms: C_17  and  C_18 
REMARK       I    between atoms: C_18  and  N_20 
REMARK    8  A    between atoms: N_20  and  C_21 
REMARK    9  A    between atoms: C_21  and  C_22 
ROOT
ATOM      1  C   LIG d   1       5.303  -2.182  -4.044  0.00  0.00    -0.026 A 
ATOM      2  C   LIG d   1       5.795  -3.195  -4.804  0.00  0.00     0.049 A 
ATOM      3  C   LIG d   1       7.032  -3.043  -5.462  0.00  0.00     0.341 A 
ATOM      4  O   LIG d   1       7.467  -3.958  -6.137  0.00  0.00    -0.245 OA
ATOM      5  O   LIG d   1       7.734  -1.902  -5.361  0.00  0.00    -0.422 OA
ATOM      6  C   LIG d   1       7.279  -0.871  -4.615  0.00  0.00     0.146 A 
ATOM      7  C   LIG d   1       6.052  -0.983  -3.937  0.00  0.00     0.063 A 
ATOM      8  C   LIG d   1       5.580   0.090  -3.160  0.00  0.00     0.135 A 
ATOM      9  C   LIG d   1       6.328   1.249  -3.072  0.00  0.00     0.023 A 
ATOM     10  C   LIG d   1       7.540   1.354  -3.745  0.00  0.00     0.127 A 
ATOM     11  C   LIG d   1       8.014   0.299  -4.513  0.00  0.00     0.023 A 
ATOM     12  H   LIG d   1       5.970   2.076  -2.477  0.00  0.00     0.069 H 
ATOM     13  H   LIG d   1       8.956   0.392  -5.031  0.00  0.00     0.069 H 
ENDROOT
BRANCH   2  14
ATOM     14  C   LIG d   1       5.022  -4.482  -4.938  0.00  0.00     0.056 C 
ATOM     15  H   LIG d   1       4.354  -4.595  -4.083  0.00  0.00     0.041 H 
ATOM     16  H   LIG d   1       5.716  -5.322  -4.970  0.00  0.00     0.041 H 
BRANCH  14  17
ATOM     17  C   LIG d   1       4.212  -4.453  -6.207  0.00  0.00     0.218 C 
ATOM     18  O   LIG d   1       3.400  -5.326  -6.430  0.00  0.00    -0.275 OA
ATOM     19  N   LIG d   1       4.390  -3.456  -7.097  0.00  0.00    -0.311 N 
ATOM     20  H   LIG d   1       5.040  -2.758  -6.919  0.00  0.00     0.149 HD
BRANCH  19  21
ATOM     21  C   LIG d   1       3.603  -3.426  -8.332  0.00  0.00     0.037 C 
ATOM     22  H   LIG d   1       2.726  -4.063  -8.219  0.00  0.00     0.051 H 
ATOM     23  H   LIG d   1       4.212  -3.791  -9.160  0.00  0.00     0.051 H 
BRANCH  21  24
ATOM     24  C   LIG d   1       3.164  -2.013  -8.615  0.00  0.00    -0.028 A 
ATOM     25  C   LIG d   1       2.313  -1.733  -9.673  0.00  0.00    -0.039 A 
ATOM     26  C   LIG d   1       1.932  -0.424  -9.902  0.00  0.00     0.028 A 
ATOM     27  H   LIG d   1       1.954  -2.526 -10.311  0.00  0.00     0.064 H 
ATOM     28  N   LIG d   1       2.368   0.551  -9.128  0.00  0.00    -0.263 NA
ATOM     29  H   LIG d   1       1.270  -0.197 -10.725  0.00  0.00     0.083 H 
ATOM     30  C   LIG d   1       3.177   0.321  -8.113  0.00  0.00     0.028 A 
ATOM     31  C   LIG d   1       3.605  -0.961  -7.827  0.00  0.00    -0.039 A 
ATOM     32  H   LIG d   1       3.514   1.145  -7.502  0.00  0.00     0.083 H 
ATOM     33  H   LIG d   1       4.272  -1.143  -6.997  0.00  0.00     0.064 H 
ENDBRANCH  21  24
ENDBRANCH  19  21
ENDBRANCH  14  17
ENDBRANCH   2  14
BRANCH   1  34
ATOM     34  C   LIG d   1       3.985  -2.330  -3.328  0.00  0.00    -0.038 C 
ATOM     35  H   LIG d   1       3.545  -1.346  -3.169  0.00  0.00     0.028 H 
ATOM     36  H   LIG d   1       3.310  -2.937  -3.931  0.00  0.00     0.028 H 
ATOM     37  H   LIG d   1       4.147  -2.816  -2.366  0.00  0.00     0.028 H 
ENDBRANCH   1  34
BRANCH   8  38
ATOM     38  O   LIG d   1       4.397  -0.010  -2.503  0.00  0.00    -0.494 OA
BRANCH  38  39
ATOM     39  C   LIG d   1       3.654   1.196  -2.316  0.00  0.00     0.079 C 
ATOM     40  H   LIG d   1       3.649   1.458  -1.257  0.00  0.00     0.066 H 
ATOM     41  H   LIG d   1       4.117   2.001  -2.887  0.00  0.00     0.066 H 
ATOM     42  H   LIG d   1       2.630   1.049  -2.660  0.00  0.00     0.066 H 
ENDBRANCH  38  39
ENDBRANCH   8  38
BRANCH  10  43
ATOM     43  O   LIG d   1       8.266   2.496  -3.651  0.00  0.00    -0.495 OA
BRANCH  43  44
ATOM     44  C   LIG d   1       9.675   2.357  -3.459  0.00  0.00     0.079 C 
ATOM     45  H   LIG d   1      10.084   3.294  -3.082  0.00  0.00     0.066 H 
ATOM     46  H   LIG d   1       9.867   1.560  -2.742  0.00  0.00     0.066 H 
ATOM     47  H   LIG d   1      10.148   2.111  -4.411  0.00  0.00     0.066 H 
ENDBRANCH  43  44
ENDBRANCH  10  43
TORSDOF 9
ENDMDL
MODEL 3
REMARK VINA RESULT:      -6.1      4.491      6.447
REMARK  9 active torsions:
REMARK  status: ('A' for Active; 'I' for Inactive)
REMARK    1  A    between atoms: C_1  and  C_2 
REMARK    2  A    between atoms: C_3  and  C_17 
REMARK    3  A    between atoms: C_9  and  O_15 
REMARK    4  A    between atoms: C_11  and  O_13 
REMARK    5  A    between atoms: O_13  and  C_14 
REMARK    6  A    between atoms: O_15  and  C_16 
REMARK    7  A    between atoms: C_17  and  C_18 
REMARK       I    between atoms: C_18  and  N_20 
REMARK    8  A    between atoms: N_20  and  C_21 
REMARK    9  A    between atoms: C_21  and  C_22 
ROOT
ATOM      1  C   LIG d   1       2.787  -1.828  -9.336  0.00  0.00    -0.026 A 
ATOM      2  C   LIG d   1       3.725  -1.289  -8.515  0.00  0.00     0.049 A 
ATOM      3  C   LIG d   1       4.573  -2.131  -7.768  0.00  0.00     0.341 A 
ATOM      4  O   LIG d   1       5.415  -1.639  -7.039  0.00  0.00    -0.245 OA
ATOM      5  O   LIG d   1       4.463  -3.468  -7.845  0.00  0.00    -0.422 OA
ATOM      6  C   LIG d   1       3.543  -4.044  -8.650  0.00  0.00     0.146 A 
ATOM      7  C   LIG d   1       2.679  -3.240  -9.416  0.00  0.00     0.063 A 
ATOM      8  C   LIG d   1       1.723  -3.840 -10.254  0.00  0.00     0.135 A 
ATOM      9  C   LIG d   1       1.638  -5.217 -10.315  0.00  0.00     0.023 A 
ATOM     10  C   LIG d   1       2.494  -6.007  -9.554  0.00  0.00     0.127 A 
ATOM     11  C   LIG d   1       3.441  -5.423  -8.726  0.00  0.00     0.023 A 
ATOM     12  H   LIG d   1       0.904  -5.684 -10.956  0.00  0.00     0.069 H 
ATOM     13  H   LIG d   1       4.101  -6.046  -8.140  0.00  0.00     0.069 H 
ENDROOT
BRANCH   2  14
ATOM     14  C   LIG d   1       3.862   0.209  -8.407  0.00  0.00     0.056 C 
ATOM     15  H   LIG d   1       3.439   0.677  -9.296  0.00  0.00     0.041 H 
ATOM     16  H   LIG d   1       4.917   0.472  -8.325  0.00  0.00     0.041 H 
BRANCH  14  17
ATOM     17  C   LIG d   1       3.127   0.695  -7.185  0.00  0.00     0.218 C 
ATOM     18  O   LIG d   1       2.747   1.845  -7.124  0.00  0.00    -0.275 OA
ATOM     19  N   LIG d   1       2.894  -0.149  -6.160  0.00  0.00    -0.311 N 
ATOM     20  H   LIG d   1       3.198  -1.068  -6.209  0.00  0.00     0.149 HD
BRANCH  19  21
ATOM     21  C   LIG d   1       2.179   0.323  -4.972  0.00  0.00     0.037 C 
ATOM     22  H   LIG d   1       1.233  -0.210  -4.880  0.00  0.00     0.051 H 
ATOM     23  H   LIG d   1       1.985   1.392  -5.065  0.00  0.00     0.051 H 
BRANCH  21  24
ATOM     24  C   LIG d   1       3.019   0.070  -3.747  0.00  0.00    -0.028 A 
ATOM     25  C   LIG d   1       3.571   1.124  -3.034  0.00  0.00    -0.039 A 
ATOM     26  C   LIG d   1       4.336   0.853  -1.916  0.00  0.00     0.028 A 
ATOM     27  H   LIG d   1       3.406   2.143  -3.350  0.00  0.00     0.064 H 
ATOM     28  N   LIG d   1       4.543  -0.390  -1.525  0.00  0.00    -0.263 NA
ATOM     29  H   LIG d   1       4.770   1.668  -1.355  0.00  0.00     0.083 H 
ATOM     30  C   LIG d   1       4.034  -1.416  -2.178  0.00  0.00     0.028 A 
ATOM     31  C   LIG d   1       3.263  -1.222  -3.308  0.00  0.00    -0.039 A 
ATOM     32  H   LIG d   1       4.226  -2.419  -1.827  0.00  0.00     0.083 H 
ATOM     33  H   LIG d   1       2.853  -2.067  -3.841  0.00  0.00     0.064 H 
ENDBRANCH  21  24
ENDBRANCH  19  21
ENDBRANCH  14  17
ENDBRANCH   2  14
BRANCH   1  34
ATOM     34  C   LIG d   1       1.875  -0.942 -10.146  0.00  0.00    -0.038 C 
ATOM     35  H   LIG d   1       1.181  -1.559 -10.716  0.00  0.00     0.028 H 
ATOM     36  H   LIG d   1       1.315  -0.289  -9.477  0.00  0.00     0.028 H 
ATOM     37  H   LIG d   1       2.470  -0.337 -10.829  0.00  0.00     0.028 H 
ENDBRANCH   1  34
BRANCH   8  38
ATOM     38  O   LIG d   1       0.887  -3.072 -10.997  0.00  0.00    -0.494 OA
BRANCH  38  39
ATOM     39  C   LIG d   1      -0.042  -3.753 -11.841  0.00  0.00     0.079 C 
ATOM     40  H   LIG d   1       0.416  -4.665 -12.225  0.00  0.00     0.066 H 
ATOM     41  H   LIG d   1      -0.935  -4.009 -11.270  0.00  0.00     0.066 H 
ATOM     42  H   LIG d   1      -0.318  -3.106 -12.675  0.00  0.00     0.066 H 
ENDBRANCH  38  39
ENDBRANCH   8  38
BRANCH  10  43
ATOM     43  O   LIG d   1       2.402  -7.359  -9.622  0.00  0.00    -0.495 OA
BRANCH  43  44
ATOM     44  C   LIG d   1       3.486  -8.112  -9.077  0.00  0.00     0.079 C 
ATOM     45  H   LIG d   1       3.639  -9.012  -9.673  0.00  0.00     0.066 H 
ATOM     46  H   LIG d   1       4.393  -7.508  -9.091  0.00  0.00     0.066 H 
ATOM     47  H   LIG d   1       3.253  -8.393  -8.050  0.00  0.00     0.066 H 
ENDBRANCH  43  44
ENDBRANCH  10  43
TORSDOF 9
ENDMDL
MODEL 4
REMARK VINA RESULT:      -6.0      4.418      6.224
REMARK  9 active torsions:
REMARK  status: ('A' for Active; 'I' for Inactive)
REMARK    1  A    between atoms: C_1  and  C_2 
REMARK    2  A    between atoms: C_3  and  C_17 
REMARK    3  A    between atoms: C_9  and  O_15 
REMARK    4  A    between atoms: C_11  and  O_13 
REMARK    5  A    between atoms: O_13  and  C_14 
REMARK    6  A    between atoms: O_15  and  C_16 
REMARK    7  A    between atoms: C_17  and  C_18 
REMARK       I    between atoms: C_18  and  N_20 
REMARK    8  A    between atoms: N_20  and  C_21 
REMARK    9  A    between atoms: C_21  and  C_22 
ROOT
ATOM      1  C   LIG d   1       3.575  -2.602  -8.800  0.00  0.00    -0.026 A 
ATOM      2  C   LIG d   1       3.211  -1.307  -8.988  0.00  0.00     0.049 A 
ATOM      3  C   LIG d   1       2.061  -1.003  -9.744  0.00  0.00     0.341 A 
ATOM      4  O   LIG d   1       1.739   0.161  -9.903  0.00  0.00    -0.245 OA
ATOM      5  O   LIG d   1       1.318  -1.977 -10.296  0.00  0.00    -0.422 OA
ATOM      6  C   LIG d   1       1.646  -3.278 -10.132  0.00  0.00     0.146 A 
ATOM      7  C   LIG d   1       2.783  -3.625  -9.381  0.00  0.00     0.063 A 
ATOM      8  C   LIG d   1       3.123  -4.979  -9.211  0.00  0.00     0.135 A 
ATOM      9  C   LIG d   1       2.336  -5.958  -9.786  0.00  0.00     0.023 A 
ATOM     10  C   LIG d   1       1.213  -5.608 -10.529  0.00  0.00     0.127 A 
ATOM     11  C   LIG d   1       0.870  -4.274 -10.702  0.00  0.00     0.023 A 
ATOM     12  H   LIG d   1       2.593  -6.999  -9.659  0.00  0.00     0.069 H 
ATOM     13  H   LIG d   1      -0.004  -4.014 -11.280  0.00  0.00     0.069 H 
ENDROOT
BRANCH   2  14
ATOM     14  C   LIG d   1       4.033  -0.197  -8.384  0.00  0.00     0.056 C 
ATOM     15  H   LIG d   1       4.207   0.575  -9.134  0.00  0.00     0.041 H 
ATOM     16  H   LIG d   1       4.989  -0.596  -8.045  0.00  0.00     0.041 H 
BRANCH  14  17
ATOM     17  C   LIG d   1       3.293   0.397  -7.214  0.00  0.00     0.218 C 
ATOM     18  O   LIG d   1       2.977   1.568  -7.228  0.00  0.00    -0.275 OA
ATOM     19  N   LIG d   1       2.984  -0.372  -6.151  0.00  0.00    -0.311 N 
ATOM     20  H   LIG d   1       3.238  -1.308  -6.140  0.00  0.00     0.149 HD
BRANCH  19  21
ATOM     21  C   LIG d   1       2.265   0.205  -5.013  0.00  0.00     0.037 C 
ATOM     22  H   LIG d   1       1.303  -0.293  -4.900  0.00  0.00     0.051 H 
ATOM     23  H   LIG d   1       2.104   1.270  -5.187  0.00  0.00     0.051 H 
BRANCH  21  24
ATOM     24  C   LIG d   1       3.078   0.019  -3.758  0.00  0.00    -0.028 A 
ATOM     25  C   LIG d   1       3.347  -1.252  -3.269  0.00  0.00    -0.039 A 
ATOM     26  C   LIG d   1       4.096  -1.384  -2.116  0.00  0.00     0.028 A 
ATOM     27  H   LIG d   1       2.975  -2.125  -3.783  0.00  0.00     0.064 H 
ATOM     28  N   LIG d   1       4.552  -0.322  -1.482  0.00  0.00    -0.263 NA
ATOM     29  H   LIG d   1       4.309  -2.369  -1.728  0.00  0.00     0.083 H 
ATOM     30  C   LIG d   1       4.316   0.900  -1.917  0.00  0.00     0.028 A 
ATOM     31  C   LIG d   1       3.571   1.111  -3.062  0.00  0.00    -0.039 A 
ATOM     32  H   LIG d   1       4.707   1.746  -1.371  0.00  0.00     0.083 H 
ATOM     33  H   LIG d   1       3.377   2.114  -3.411  0.00  0.00     0.064 H 
ENDBRANCH  21  24
ENDBRANCH  19  21
ENDBRANCH  14  17
ENDBRANCH   2  14
BRANCH   1  34
ATOM     34  C   LIG d   1       4.798  -2.946  -7.990  0.00  0.00    -0.038 C 
ATOM     35  H   LIG d   1       4.741  -2.455  -7.019  0.00  0.00     0.028 H 
ATOM     36  H   LIG d   1       4.850  -4.025  -7.849  0.00  0.00     0.028 H 
ATOM     37  H   LIG d   1       5.690  -2.606  -8.517  0.00  0.00     0.028 H 
ENDBRANCH   1  34
BRANCH   8  38
ATOM     38  O   LIG d   1       4.218  -5.323  -8.487  0.00  0.00    -0.494 OA
BRANCH  38  39
ATOM     39  C   LIG d   1       4.284  -6.668  -8.009  0.00  0.00     0.079 C 
ATOM     40  H   LIG d   1       4.397  -7.348  -8.854  0.00  0.00     0.066 H 
ATOM     41  H   LIG d   1       5.138  -6.775  -7.340  0.00  0.00     0.066 H 
ATOM     42  H   LIG d   1       3.368  -6.907  -7.469  0.00  0.00     0.066 H 
ENDBRANCH  38  39
ENDBRANCH   8  38
BRANCH  10  43
ATOM     43  O   LIG d   1       0.447  -6.577 -11.090  0.00  0.00    -0.495 OA
BRANCH  43  44
ATOM     44  C   LIG d   1       0.114  -7.698 -10.270  0.00  0.00     0.079 C 
ATOM     45  H   LIG d   1       0.930  -8.420 -10.293  0.00  0.00     0.066 H 
ATOM     46  H   LIG d   1      -0.049  -7.364  -9.245  0.00  0.00     0.066 H 
ATOM     47  H   LIG d   1      -0.795  -8.167 -10.648  0.00  0.00     0.066 H 
ENDBRANCH  43  44
ENDBRANCH  10  43
TORSDOF 9
ENDMDL
MODEL 5
REMARK VINA RESULT:      -6.0      2.862      8.047
REMARK  9 active torsions:
REMARK  status: ('A' for Active; 'I' for Inactive)
REMARK    1  A    between atoms: C_1  and  C_2 
REMARK    2  A    between atoms: C_3  and  C_17 
REMARK    3  A    between atoms: C_9  and  O_15 
REMARK    4  A    between atoms: C_11  and  O_13 
REMARK    5  A    between atoms: O_13  and  C_14 
REMARK    6  A    between atoms: O_15  and  C_16 
REMARK    7  A    between atoms: C_17  and  C_18 
REMARK       I    between atoms: C_18  and  N_20 
REMARK    8  A    between atoms: N_20  and  C_21 
REMARK    9  A    between atoms: C_21  and  C_22 
ROOT
ATOM      1  C   LIG d   1       6.722  -3.477  -5.241  0.00  0.00    -0.026 A 
ATOM      2  C   LIG d   1       5.993  -4.580  -5.551  0.00  0.00     0.049 A 
ATOM      3  C   LIG d   1       4.709  -4.753  -4.996  0.00  0.00     0.341 A 
ATOM      4  O   LIG d   1       4.060  -5.742  -5.283  0.00  0.00    -0.245 OA
ATOM      5  O   LIG d   1       4.193  -3.844  -4.151  0.00  0.00    -0.422 OA
ATOM      6  C   LIG d   1       4.886  -2.733  -3.817  0.00  0.00     0.146 A 
ATOM      7  C   LIG d   1       6.169  -2.520  -4.353  0.00  0.00     0.063 A 
ATOM      8  C   LIG d   1       6.890  -1.363  -4.006  0.00  0.00     0.135 A 
ATOM      9  C   LIG d   1       6.330  -0.445  -3.139  0.00  0.00     0.023 A 
ATOM     10  C   LIG d   1       5.061  -0.662  -2.612  0.00  0.00     0.127 A 
ATOM     11  C   LIG d   1       4.343  -1.800  -2.949  0.00  0.00     0.023 A 
ATOM     12  H   LIG d   1       6.879   0.445  -2.869  0.00  0.00     0.069 H 
ATOM     13  H   LIG d   1       3.358  -1.958  -2.534  0.00  0.00     0.069 H 
ENDROOT
BRANCH   2  14
ATOM     14  C   LIG d   1       6.554  -5.616  -6.491  0.00  0.00     0.056 C 
ATOM     15  H   LIG d   1       7.451  -5.224  -6.970  0.00  0.00     0.041 H 
ATOM     16  H   LIG d   1       5.811  -5.856  -7.253  0.00  0.00     0.041 H 
BRANCH  14  17
ATOM     17  C   LIG d   1       6.900  -6.862  -5.718  0.00  0.00     0.218 C 
ATOM     18  O   LIG d   1       7.868  -6.873  -4.988  0.00  0.00    -0.275 OA
ATOM     19  N   LIG d   1       6.134  -7.965  -5.840  0.00  0.00    -0.311 N 
ATOM     20  H   LIG d   1       5.361  -7.956  -6.424  0.00  0.00     0.149 HD
BRANCH  19  21
ATOM     21  C   LIG d   1       6.471  -9.176  -5.088  0.00  0.00     0.037 C 
ATOM     22  H   LIG d   1       6.990  -8.902  -4.170  0.00  0.00     0.051 H 
ATOM     23  H   LIG d   1       7.118  -9.812  -5.694  0.00  0.00     0.051 H 
BRANCH  21  24
ATOM     24  C   LIG d   1       5.208  -9.924  -4.748  0.00  0.00    -0.028 A 
ATOM     25  C   LIG d   1       4.469  -9.592  -3.621  0.00  0.00    -0.039 A 
ATOM     26  C   LIG d   1       3.316 -10.300  -3.341  0.00  0.00     0.028 A 
ATOM     27  H   LIG d   1       4.792  -8.793  -2.972  0.00  0.00     0.064 H 
ATOM     28  N   LIG d   1       2.916 -11.279  -4.130  0.00  0.00    -0.263 NA
ATOM     29  H   LIG d   1       2.735 -10.049  -2.466  0.00  0.00     0.083 H 
ATOM     30  C   LIG d   1       3.593 -11.621  -5.208  0.00  0.00     0.028 A 
ATOM     31  C   LIG d   1       4.758 -10.961  -5.549  0.00  0.00    -0.039 A 
ATOM     32  H   LIG d   1       3.235 -12.428  -5.830  0.00  0.00     0.083 H 
ATOM     33  H   LIG d   1       5.311 -11.249  -6.432  0.00  0.00     0.064 H 
ENDBRANCH  21  24
ENDBRANCH  19  21
ENDBRANCH  14  17
ENDBRANCH   2  14
BRANCH   1  34
ATOM     34  C   LIG d   1       8.095  -3.274  -5.830  0.00  0.00    -0.038 C 
ATOM     35  H   LIG d   1       8.791  -2.993  -5.040  0.00  0.00     0.028 H 
ATOM     36  H   LIG d   1       8.430  -4.199  -6.298  0.00  0.00     0.028 H 
ATOM     37  H   LIG d   1       8.055  -2.483  -6.579  0.00  0.00     0.028 H 
ENDBRANCH   1  34
BRANCH   8  38
ATOM     38  O   LIG d   1       8.128  -1.149  -4.519  0.00  0.00    -0.494 OA
BRANCH  38  39
ATOM     39  C   LIG d   1       8.482   0.202  -4.817  0.00  0.00     0.079 C 
ATOM     40  H   LIG d   1       9.232   0.214  -5.609  0.00  0.00     0.066 H 
ATOM     41  H   LIG d   1       7.597   0.746  -5.148  0.00  0.00     0.066 H 
ATOM     42  H   LIG d   1       8.888   0.678  -3.924  0.00  0.00     0.066 H 
ENDBRANCH  38  39
ENDBRANCH   8  38
BRANCH  10  43
ATOM     43  O   LIG d   1       4.520   0.246  -1.761  0.00  0.00    -0.495 OA
BRANCH  43  44
ATOM     44  C   LIG d   1       3.760   1.308  -2.340  0.00  0.00     0.079 C 
ATOM     45  H   LIG d   1       4.419   1.950  -2.924  0.00  0.00     0.066 H 
ATOM     46  H   LIG d   1       2.989   0.892  -2.988  0.00  0.00     0.066 H 
ATOM     47  H   LIG d   1       3.292   1.893  -1.548  0.00  0.00     0.066 H 
ENDBRANCH  43  44
ENDBRANCH  10  43
TORSDOF 9
ENDMDL
MODEL 6
REMARK VINA RESULT:      -6.0      3.666      6.278
REMARK  9 active torsions:
REMARK  status: ('A' for Active; 'I' for Inactive)
REMARK    1  A    between atoms: C_1  and  C_2 
REMARK    2  A    between atoms: C_3  and  C_17 
REMARK    3  A    between atoms: C_9  and  O_15 
REMARK    4  A    between atoms: C_11  and  O_13 
REMARK    5  A    between atoms: O_13  and  C_14 
REMARK    6  A    between atoms: O_15  and  C_16 
REMARK    7  A    between atoms: C_17  and  C_18 
REMARK       I    between atoms: C_18  and  N_20 
REMARK    8  A    between atoms: N_20  and  C_21 
REMARK    9  A    between atoms: C_21  and  C_22 
ROOT
ATOM      1  C   LIG d   1       5.610  -2.369  -7.040  0.00  0.00    -0.026 A 
ATOM      2  C   LIG d   1       5.356  -3.427  -6.226  0.00  0.00     0.049 A 
ATOM      3  C   LIG d   1       4.322  -4.329  -6.549  0.00  0.00     0.341 A 
ATOM      4  O   LIG d   1       4.104  -5.277  -5.817  0.00  0.00    -0.245 OA
ATOM      5  O   LIG d   1       3.570  -4.154  -7.649  0.00  0.00    -0.422 OA
ATOM      6  C   LIG d   1       3.791  -3.115  -8.484  0.00  0.00     0.146 A 
ATOM      7  C   LIG d   1       4.817  -2.194  -8.202  0.00  0.00     0.063 A 
ATOM      8  C   LIG d   1       5.047  -1.113  -9.072  0.00  0.00     0.135 A 
ATOM      9  C   LIG d   1       4.260  -0.965 -10.197  0.00  0.00     0.023 A 
ATOM     10  C   LIG d   1       3.248  -1.878 -10.471  0.00  0.00     0.127 A 
ATOM     11  C   LIG d   1       3.014  -2.948  -9.618  0.00  0.00     0.023 A 
ATOM     12  H   LIG d   1       4.432  -0.136 -10.868  0.00  0.00     0.069 H 
ATOM     13  H   LIG d   1       2.225  -3.651  -9.841  0.00  0.00     0.069 H 
ENDROOT
BRANCH   2  14
ATOM     14  C   LIG d   1       6.182  -3.639  -4.983  0.00  0.00     0.056 C 
ATOM     15  H   LIG d   1       7.212  -3.339  -5.176  0.00  0.00     0.041 H 
ATOM     16  H   LIG d   1       6.156  -4.693  -4.705  0.00  0.00     0.041 H 
BRANCH  14  17
ATOM     17  C   LIG d   1       5.619  -2.809  -3.858  0.00  0.00     0.218 C 
ATOM     18  O   LIG d   1       6.339  -2.049  -3.247  0.00  0.00    -0.275 OA
ATOM     19  N   LIG d   1       4.315  -2.914  -3.531  0.00  0.00    -0.311 N 
ATOM     20  H   LIG d   1       3.740  -3.522  -4.019  0.00  0.00     0.149 HD
BRANCH  19  21
ATOM     21  C   LIG d   1       3.769  -2.107  -2.437  0.00  0.00     0.037 C 
ATOM     22  H   LIG d   1       4.468  -2.105  -1.602  0.00  0.00     0.051 H 
ATOM     23  H   LIG d   1       2.818  -2.532  -2.113  0.00  0.00     0.051 H 
BRANCH  21  24
ATOM     24  C   LIG d   1       3.552  -0.695  -2.915  0.00  0.00    -0.028 A 
ATOM     25  C   LIG d   1       4.043   0.382  -2.191  0.00  0.00    -0.039 A 
ATOM     26  C   LIG d   1       3.824   1.664  -2.660  0.00  0.00     0.028 A 
ATOM     27  H   LIG d   1       4.587   0.221  -1.273  0.00  0.00     0.064 H 
ATOM     28  N   LIG d   1       3.159   1.868  -3.780  0.00  0.00    -0.263 NA
ATOM     29  H   LIG d   1       4.202   2.508  -2.102  0.00  0.00     0.083 H 
ATOM     30  C   LIG d   1       2.679   0.869  -4.493  0.00  0.00     0.028 A 
ATOM     31  C   LIG d   1       2.854  -0.440  -4.084  0.00  0.00    -0.039 A 
ATOM     32  H   LIG d   1       2.139   1.076  -5.406  0.00  0.00     0.083 H 
ATOM     33  H   LIG d   1       2.454  -1.254  -4.671  0.00  0.00     0.064 H 
ENDBRANCH  21  24
ENDBRANCH  19  21
ENDBRANCH  14  17
ENDBRANCH   2  14
BRANCH   1  34
ATOM     34  C   LIG d   1       6.716  -1.398  -6.712  0.00  0.00    -0.038 C 
ATOM     35  H   LIG d   1       7.038  -0.894  -7.623  0.00  0.00     0.028 H 
ATOM     36  H   LIG d   1       6.351  -0.660  -5.998  0.00  0.00     0.028 H 
ATOM     37  H   LIG d   1       7.557  -1.938  -6.278  0.00  0.00     0.028 H 
ENDBRANCH   1  34
BRANCH   8  38
ATOM     38  O   LIG d   1       6.034  -0.221  -8.807  0.00  0.00    -0.494 OA
BRANCH  38  39
ATOM     39  C   LIG d   1       5.759   1.153  -9.083  0.00  0.00     0.079 C 
ATOM     40  H   LIG d   1       6.694   1.713  -9.108  0.00  0.00     0.066 H 
ATOM     41  H   LIG d   1       5.260   1.237 -10.049  0.00  0.00     0.066 H 
ATOM     42  H   LIG d   1       5.112   1.558  -8.304  0.00  0.00     0.066 H 
ENDBRANCH  38  39
ENDBRANCH   8  38
BRANCH  10  43
ATOM     43  O   LIG d   1       2.481  -1.722 -11.579  0.00  0.00    -0.495 OA
BRANCH  43  44
ATOM     44  C   LIG d   1       1.192  -1.133 -11.401  0.00  0.00     0.079 C 
ATOM     45  H   LIG d   1       0.832  -0.751 -12.356  0.00  0.00     0.066 H 
ATOM     46  H   LIG d   1       0.498  -1.883 -11.023  0.00  0.00     0.066 H 
ATOM     47  H   LIG d   1       1.264  -0.312 -10.686  0.00  0.00     0.066 H 
ENDBRANCH  43  44
ENDBRANCH  10  43
TORSDOF 9
ENDMDL
MODEL 7
REMARK VINA RESULT:      -5.9      5.257      8.039
REMARK  9 active torsions:
REMARK  status: ('A' for Active; 'I' for Inactive)
REMARK    1  A    between atoms: C_1  and  C_2 
REMARK    2  A    between atoms: C_3  and  C_17 
REMARK    3  A    between atoms: C_9  and  O_15 
REMARK    4  A    between atoms: C_11  and  O_13 
REMARK    5  A    between atoms: O_13  and  C_14 
REMARK    6  A    between atoms: O_15  and  C_16 
REMARK    7  A    between atoms: C_17  and  C_18 
REMARK       I    between atoms: C_18  and  N_20 
REMARK    8  A    between atoms: N_20  and  C_21 
REMARK    9  A    between atoms: C_21  and  C_22 
ROOT
ATOM      1  C   LIG d   1       6.773  -0.696  -4.378  0.00  0.00    -0.026 A 
ATOM      2  C   LIG d   1       5.749  -0.159  -3.664  0.00  0.00     0.049 A 
ATOM      3  C   LIG d   1       5.899   1.108  -3.066  0.00  0.00     0.341 A 
ATOM      4  O   LIG d   1       4.974   1.585  -2.433  0.00  0.00    -0.245 OA
ATOM      5  O   LIG d   1       7.048   1.796  -3.180  0.00  0.00    -0.422 OA
ATOM      6  C   LIG d   1       8.090   1.297  -3.881  0.00  0.00     0.146 A 
ATOM      7  C   LIG d   1       7.981   0.037  -4.498  0.00  0.00     0.063 A 
ATOM      8  C   LIG d   1       9.065  -0.481  -5.228  0.00  0.00     0.135 A 
ATOM      9  C   LIG d   1      10.231   0.252  -5.331  0.00  0.00     0.023 A 
ATOM     10  C   LIG d   1      10.333   1.497  -4.718  0.00  0.00     0.127 A 
ATOM     11  C   LIG d   1       9.268   2.016  -3.996  0.00  0.00     0.023 A 
ATOM     12  H   LIG d   1      11.067  -0.141  -5.890  0.00  0.00     0.069 H 
ATOM     13  H   LIG d   1       9.358   2.983  -3.525  0.00  0.00     0.069 H 
ENDROOT
BRANCH   2  14
ATOM     14  C   LIG d   1       4.454  -0.915  -3.517  0.00  0.00     0.056 C 
ATOM     15  H   LIG d   1       4.091  -0.818  -2.494  0.00  0.00     0.041 H 
ATOM     16  H   LIG d   1       4.619  -1.968  -3.746  0.00  0.00     0.041 H 
BRANCH  14  17
ATOM     17  C   LIG d   1       3.431  -0.350  -4.469  0.00  0.00     0.218 C 
ATOM     18  O   LIG d   1       2.320  -0.072  -4.069  0.00  0.00    -0.275 OA
ATOM     19  N   LIG d   1       3.751  -0.155  -5.764  0.00  0.00    -0.311 N 
ATOM     20  H   LIG d   1       4.639  -0.378  -6.083  0.00  0.00     0.149 HD
BRANCH  19  21
ATOM     21  C   LIG d   1       2.756   0.394  -6.689  0.00  0.00     0.037 C 
ATOM     22  H   LIG d   1       2.232   1.221  -6.210  0.00  0.00     0.051 H 
ATOM     23  H   LIG d   1       2.040  -0.384  -6.955  0.00  0.00     0.051 H 
BRANCH  21  24
ATOM     24  C   LIG d   1       3.447   0.889  -7.932  0.00  0.00    -0.028 A 
ATOM     25  C   LIG d   1       4.631   0.309  -8.366  0.00  0.00    -0.039 A 
ATOM     26  C   LIG d   1       5.236   0.790  -9.511  0.00  0.00     0.028 A 
ATOM     27  H   LIG d   1       5.074  -0.506  -7.814  0.00  0.00     0.064 H 
ATOM     28  N   LIG d   1       4.702   1.787 -10.189  0.00  0.00    -0.263 NA
ATOM     29  H   LIG d   1       6.158   0.345  -9.855  0.00  0.00     0.083 H 
ATOM     30  C   LIG d   1       3.578   2.362  -9.807  0.00  0.00     0.028 A 
ATOM     31  C   LIG d   1       2.919   1.938  -8.669  0.00  0.00    -0.039 A 
ATOM     32  H   LIG d   1       3.171   3.176 -10.388  0.00  0.00     0.083 H 
ATOM     33  H   LIG d   1       2.001   2.416  -8.358  0.00  0.00     0.064 H 
ENDBRANCH  21  24
ENDBRANCH  19  21
ENDBRANCH  14  17
ENDBRANCH   2  14
BRANCH   1  34
ATOM     34  C   LIG d   1       6.629  -2.048  -5.029  0.00  0.00    -0.038 C 
ATOM     35  H   LIG d   1       6.688  -1.938  -6.111  0.00  0.00     0.028 H 
ATOM     36  H   LIG d   1       7.428  -2.704  -4.685  0.00  0.00     0.028 H 
ATOM     37  H   LIG d   1       5.664  -2.479  -4.759  0.00  0.00     0.028 H 
ENDBRANCH   1  34
BRANCH   8  38
ATOM     38  O   LIG d   1       8.968  -1.695  -5.827  0.00  0.00    -0.494 OA
BRANCH  38  39
ATOM     39  C   LIG d   1      10.186  -2.407  -6.053  0.00  0.00     0.079 C 
ATOM     40  H   LIG d   1      10.046  -3.116  -6.869  0.00  0.00     0.066 H 
ATOM     41  H   LIG d   1      10.976  -1.703  -6.317  0.00  0.00     0.066 H 
ATOM     42  H   LIG d   1      10.466  -2.944  -5.147  0.00  0.00     0.066 H 
ENDBRANCH  38  39
ENDBRANCH   8  38
BRANCH  10  43
ATOM     43  O   LIG d   1      11.483   2.209  -4.826  0.00  0.00    -0.495 OA
BRANCH  43  44
ATOM     44  C   LIG d   1      12.557   1.843  -3.958  0.00  0.00     0.079 C 
ATOM     45  H   LIG d   1      12.351   0.869  -3.515  0.00  0.00     0.066 H 
ATOM     46  H   LIG d   1      13.485   1.795  -4.527  0.00  0.00     0.066 H 
ATOM     47  H   LIG d   1      12.654   2.588  -3.167  0.00  0.00     0.066 H 
ENDBRANCH  43  44
ENDBRANCH  10  43
TORSDOF 9
ENDMDL
MODEL 8
REMARK VINA RESULT:      -5.8      3.558      6.231
REMARK  9 active torsions:
REMARK  status: ('A' for Active; 'I' for Inactive)
REMARK    1  A    between atoms: C_1  and  C_2 
REMARK    2  A    between atoms: C_3  and  C_17 
REMARK    3  A    between atoms: C_9  and  O_15 
REMARK    4  A    between atoms: C_11  and  O_13 
REMARK    5  A    between atoms: O_13  and  C_14 
REMARK    6  A    between atoms: O_15  and  C_16 
REMARK    7  A    between atoms: C_17  and  C_18 
REMARK       I    between atoms: C_18  and  N_20 
REMARK    8  A    between atoms: N_20  and  C_21 
REMARK    9  A    between atoms: C_21  and  C_22 
ROOT
ATOM      1  C   LIG d   1       5.799  -2.043  -4.329  0.00  0.00    -0.026 A 
ATOM      2  C   LIG d   1       5.431  -0.775  -4.010  0.00  0.00     0.049 A 
ATOM      3  C   LIG d   1       6.379   0.266  -4.059  0.00  0.00     0.341 A 
ATOM      4  O   LIG d   1       6.039   1.401  -3.777  0.00  0.00    -0.245 OA
ATOM      5  O   LIG d   1       7.654   0.024  -4.407  0.00  0.00    -0.422 OA
ATOM      6  C   LIG d   1       8.061  -1.223  -4.731  0.00  0.00     0.146 A 
ATOM      7  C   LIG d   1       7.145  -2.290  -4.700  0.00  0.00     0.063 A 
ATOM      8  C   LIG d   1       7.570  -3.587  -5.039  0.00  0.00     0.135 A 
ATOM      9  C   LIG d   1       8.886  -3.803  -5.397  0.00  0.00     0.023 A 
ATOM     10  C   LIG d   1       9.787  -2.744  -5.425  0.00  0.00     0.127 A 
ATOM     11  C   LIG d   1       9.377  -1.460  -5.094  0.00  0.00     0.023 A 
ATOM     12  H   LIG d   1       9.217  -4.797  -5.658  0.00  0.00     0.069 H 
ATOM     13  H   LIG d   1      10.085  -0.646  -5.119  0.00  0.00     0.069 H 
ENDROOT
BRANCH   2  14
ATOM     14  C   LIG d   1       4.007  -0.481  -3.610  0.00  0.00     0.056 C 
ATOM     15  H   LIG d   1       4.003   0.215  -2.771  0.00  0.00     0.041 H 
ATOM     16  H   LIG d   1       3.513  -1.408  -3.317  0.00  0.00     0.041 H 
BRANCH  14  17
ATOM     17  C   LIG d   1       3.274   0.132  -4.775  0.00  0.00     0.218 C 
ATOM     18  O   LIG d   1       2.701   1.193  -4.640  0.00  0.00    -0.275 OA
ATOM     19  N   LIG d   1       3.253  -0.499  -5.966  0.00  0.00    -0.311 N 
ATOM     20  H   LIG d   1       3.710  -1.348  -6.073  0.00  0.00     0.149 HD
BRANCH  19  21
ATOM     21  C   LIG d   1       2.540   0.097  -7.098  0.00  0.00     0.037 C 
ATOM     22  H   LIG d   1       1.765   0.768  -6.728  0.00  0.00     0.051 H 
ATOM     23  H   LIG d   1       2.081  -0.693  -7.694  0.00  0.00     0.051 H 
BRANCH  21  24
ATOM     24  C   LIG d   1       3.510   0.872  -7.951  0.00  0.00    -0.028 A 
ATOM     25  C   LIG d   1       4.831   0.466  -8.070  0.00  0.00    -0.039 A 
ATOM     26  C   LIG d   1       5.693   1.202  -8.861  0.00  0.00     0.028 A 
ATOM     27  H   LIG d   1       5.182  -0.412  -7.550  0.00  0.00     0.064 H 
ATOM     28  N   LIG d   1       5.271   2.278  -9.498  0.00  0.00    -0.263 NA
ATOM     29  H   LIG d   1       6.723   0.894  -8.959  0.00  0.00     0.083 H 
ATOM     30  C   LIG d   1       4.023   2.692  -9.408  0.00  0.00     0.028 A 
ATOM     31  C   LIG d   1       3.106   2.010  -8.631  0.00  0.00    -0.039 A 
ATOM     32  H   LIG d   1       3.715   3.578  -9.944  0.00  0.00     0.083 H 
ATOM     33  H   LIG d   1       2.086   2.357  -8.558  0.00  0.00     0.064 H 
ENDBRANCH  21  24
ENDBRANCH  19  21
ENDBRANCH  14  17
ENDBRANCH   2  14
BRANCH   1  34
ATOM     34  C   LIG d   1       4.796  -3.167  -4.287  0.00  0.00    -0.038 C 
ATOM     35  H   LIG d   1       4.595  -3.437  -3.250  0.00  0.00     0.028 H 
ATOM     36  H   LIG d   1       3.872  -2.847  -4.766  0.00  0.00     0.028 H 
ATOM     37  H   LIG d   1       5.198  -4.032  -4.816  0.00  0.00     0.028 H 
ENDBRANCH   1  34
BRANCH   8  38
ATOM     38  O   LIG d   1       6.692  -4.622  -5.012  0.00  0.00    -0.494 OA
BRANCH  38  39
ATOM     39  C   LIG d   1       7.091  -5.828  -5.665  0.00  0.00     0.079 C 
ATOM     40  H   LIG d   1       6.379  -6.620  -5.431  0.00  0.00     0.066 H 
ATOM     41  H   LIG d   1       7.114  -5.668  -6.743  0.00  0.00     0.066 H 
ATOM     42  H   LIG d   1       8.084  -6.118  -5.320  0.00  0.00     0.066 H 
ENDBRANCH  38  39
ENDBRANCH   8  38
BRANCH  10  43
ATOM     43  O   LIG d   1      11.078  -2.966  -5.779  0.00  0.00    -0.495 OA
BRANCH  43  44
ATOM     44  C   LIG d   1      11.675  -4.183  -5.328  0.00  0.00     0.079 C 
ATOM     45  H   LIG d   1      12.655  -4.300  -5.790  0.00  0.00     0.066 H 
ATOM     46  H   LIG d   1      11.784  -4.154  -4.244  0.00  0.00     0.066 H 
ATOM     47  H   LIG d   1      11.040  -5.025  -5.606  0.00  0.00     0.066 H 
ENDBRANCH  43  44
ENDBRANCH  10  43
TORSDOF 9
ENDMDL
MODEL 9
REMARK VINA RESULT:      -5.8      6.530      9.093
REMARK  9 active torsions:
REMARK  status: ('A' for Active; 'I' for Inactive)
REMARK    1  A    between atoms: C_1  and  C_2 
REMARK    2  A    between atoms: C_3  and  C_17 
REMARK    3  A    between atoms: C_9  and  O_15 
REMARK    4  A    between atoms: C_11  and  O_13 
REMARK    5  A    between atoms: O_13  and  C_14 
REMARK    6  A    between atoms: O_15  and  C_16 
REMARK    7  A    between atoms: C_17  and  C_18 
REMARK       I    between atoms: C_18  and  N_20 
REMARK    8  A    between atoms: N_20  and  C_21 
REMARK    9  A    between atoms: C_21  and  C_22 
ROOT
ATOM      1  C   LIG d   1       2.449  -0.343 -10.454  0.00  0.00    -0.026 A 
ATOM      2  C   LIG d   1       3.234   0.567  -9.821  0.00  0.00     0.049 A 
ATOM      3  C   LIG d   1       4.376   1.080 -10.467  0.00  0.00     0.341 A 
ATOM      4  O   LIG d   1       5.071   1.899  -9.895  0.00  0.00    -0.245 OA
ATOM      5  O   LIG d   1       4.713   0.673 -11.703  0.00  0.00    -0.422 OA
ATOM      6  C   LIG d   1       3.959  -0.230 -12.367  0.00  0.00     0.146 A 
ATOM      7  C   LIG d   1       2.807  -0.764 -11.760  0.00  0.00     0.063 A 
ATOM      8  C   LIG d   1       2.022  -1.704 -12.452  0.00  0.00     0.135 A 
ATOM      9  C   LIG d   1       2.391  -2.097 -13.723  0.00  0.00     0.023 A 
ATOM     10  C   LIG d   1       3.532  -1.567 -14.317  0.00  0.00     0.127 A 
ATOM     11  C   LIG d   1       4.312  -0.639 -13.643  0.00  0.00     0.023 A 
ATOM     12  H   LIG d   1       1.792  -2.819 -14.258  0.00  0.00     0.069 H 
ATOM     13  H   LIG d   1       5.195  -0.234 -14.114  0.00  0.00     0.069 H 
ENDROOT
BRANCH   2  14
ATOM     14  C   LIG d   1       2.880   1.033  -8.432  0.00  0.00     0.056 C 
ATOM     15  H   LIG d   1       1.797   1.013  -8.307  0.00  0.00     0.041 H 
ATOM     16  H   LIG d   1       3.243   2.050  -8.286  0.00  0.00     0.041 H 
BRANCH  14  17
ATOM     17  C   LIG d   1       3.520   0.121  -7.418  0.00  0.00     0.218 C 
ATOM     18  O   LIG d   1       4.573  -0.424  -7.672  0.00  0.00    -0.275 OA
ATOM     19  N   LIG d   1       2.920  -0.091  -6.228  0.00  0.00    -0.311 N 
ATOM     20  H   LIG d   1       2.078   0.345  -6.026  0.00  0.00     0.149 HD
BRANCH  19  21
ATOM     21  C   LIG d   1       3.543  -0.978  -5.243  0.00  0.00     0.037 C 
ATOM     22  H   LIG d   1       4.329  -1.559  -5.722  0.00  0.00     0.051 H 
ATOM     23  H   LIG d   1       2.790  -1.653  -4.835  0.00  0.00     0.051 H 
BRANCH  21  24
ATOM     24  C   LIG d   1       4.135  -0.154  -4.129  0.00  0.00    -0.028 A 
ATOM     25  C   LIG d   1       5.509  -0.012  -4.005  0.00  0.00    -0.039 A 
ATOM     26  C   LIG d   1       6.016   0.752  -2.970  0.00  0.00     0.028 A 
ATOM     27  H   LIG d   1       6.174  -0.493  -4.706  0.00  0.00     0.064 H 
ATOM     28  N   LIG d   1       5.210   1.341  -2.109  0.00  0.00    -0.263 NA
ATOM     29  H   LIG d   1       7.085   0.867  -2.865  0.00  0.00     0.083 H 
ATOM     30  C   LIG d   1       3.899   1.228  -2.196  0.00  0.00     0.028 A 
ATOM     31  C   LIG d   1       3.320   0.477  -3.202  0.00  0.00    -0.039 A 
ATOM     32  H   LIG d   1       3.271   1.725  -1.472  0.00  0.00     0.083 H 
ATOM     33  H   LIG d   1       2.246   0.384  -3.265  0.00  0.00     0.064 H 
ENDBRANCH  21  24
ENDBRANCH  19  21
ENDBRANCH  14  17
ENDBRANCH   2  14
BRANCH   1  34
ATOM     34  C   LIG d   1       1.220  -0.898  -9.779  0.00  0.00    -0.038 C 
ATOM     35  H   LIG d   1       0.973  -0.285  -8.913  0.00  0.00     0.028 H 
ATOM     36  H   LIG d   1       0.386  -0.889 -10.480  0.00  0.00     0.028 H 
ATOM     37  H   LIG d   1       1.413  -1.921  -9.458  0.00  0.00     0.028 H 
ENDBRANCH   1  34
BRANCH   8  38
ATOM     38  O   LIG d   1       0.909  -2.222 -11.873  0.00  0.00    -0.494 OA
BRANCH  38  39
ATOM     39  C   LIG d   1      -0.144  -2.633 -12.746  0.00  0.00     0.079 C 
ATOM     40  H   LIG d   1       0.136  -3.564 -13.240  0.00  0.00     0.066 H 
ATOM     41  H   LIG d   1      -1.056  -2.788 -12.169  0.00  0.00     0.066 H 
ATOM     42  H   LIG d   1      -0.317  -1.861 -13.497  0.00  0.00     0.066 H 
ENDBRANCH  38  39
ENDBRANCH   8  38
BRANCH  10  43
ATOM     43  O   LIG d   1       3.885  -1.961 -15.566  0.00  0.00    -0.495 OA
BRANCH  43  44
ATOM     44  C   LIG d   1       2.842  -2.057 -16.537  0.00  0.00     0.079 C 
ATOM     45  H   LIG d   1       3.150  -2.732 -17.336  0.00  0.00     0.066 H 
ATOM     46  H   LIG d   1       1.939  -2.441 -16.064  0.00  0.00     0.066 H 
ATOM     47  H   LIG d   1       2.642  -1.070 -16.955  0.00  0.00     0.066 H 
ENDBRANCH  43  44
ENDBRANCH  10  43
TORSDOF 9
ENDMDL
MODEL 10
REMARK VINA RESULT:      -5.8      4.001      6.111
REMARK  9 active torsions:
REMARK  status: ('A' for Active; 'I' for Inactive)
REMARK    1  A    between atoms: C_1  and  C_2 
REMARK    2  A    between atoms: C_3  and  C_17 
REMARK    3  A    between atoms: C_9  and  O_15 
REMARK    4  A    between atoms: C_11  and  O_13 
REMARK    5  A    between atoms: O_13  and  C_14 
REMARK    6  A    between atoms: O_15  and  C_16 
REMARK    7  A    between atoms: C_17  and  C_18 
REMARK       I    between atoms: C_18  and  N_20 
REMARK    8  A    between atoms: N_20  and  C_21 
REMARK    9  A    between atoms: C_21  and  C_22 
ROOT
ATOM      1  C   LIG d   1       6.505  -0.644  -4.209  0.00  0.00    -0.026 A 
ATOM      2  C   LIG d   1       5.300  -1.207  -3.934  0.00  0.00     0.049 A 
ATOM      3  C   LIG d   1       5.128  -2.599  -4.065  0.00  0.00     0.341 A 
ATOM      4  O   LIG d   1       4.046  -3.096  -3.812  0.00  0.00    -0.245 OA
ATOM      5  O   LIG d   1       6.139  -3.386  -4.472  0.00  0.00    -0.422 OA
ATOM      6  C   LIG d   1       7.353  -2.865  -4.756  0.00  0.00     0.146 A 
ATOM      7  C   LIG d   1       7.569  -1.480  -4.632  0.00  0.00     0.063 A 
ATOM      8  C   LIG d   1       8.833  -0.939  -4.927  0.00  0.00     0.135 A 
ATOM      9  C   LIG d   1       9.854  -1.774  -5.337  0.00  0.00     0.023 A 
ATOM     10  C   LIG d   1       9.634  -3.142  -5.458  0.00  0.00     0.127 A 
ATOM     11  C   LIG d   1       8.390  -3.685  -5.169  0.00  0.00     0.023 A 
ATOM     12  H   LIG d   1      10.826  -1.364  -5.565  0.00  0.00     0.069 H 
ATOM     13  H   LIG d   1       8.231  -4.749  -5.266  0.00  0.00     0.069 H 
ENDROOT
BRANCH   2  14
ATOM     14  C   LIG d   1       4.149  -0.344  -3.483  0.00  0.00     0.056 C 
ATOM     15  H   LIG d   1       4.532   0.501  -2.910  0.00  0.00     0.041 H 
ATOM     16  H   LIG d   1       3.477  -0.932  -2.857  0.00  0.00     0.041 H 
BRANCH  14  17
ATOM     17  C   LIG d   1       3.398   0.163  -4.687  0.00  0.00     0.218 C 
ATOM     18  O   LIG d   1       2.771   1.199  -4.618  0.00  0.00    -0.275 OA
ATOM     19  N   LIG d   1       3.423  -0.535  -5.840  0.00  0.00    -0.311 N 
ATOM     20  H   LIG d   1       3.924  -1.364  -5.894  0.00  0.00     0.149 HD
BRANCH  19  21
ATOM     21  C   LIG d   1       2.693  -0.043  -7.010  0.00  0.00     0.037 C 
ATOM     22  H   LIG d   1       1.862   0.582  -6.684  0.00  0.00     0.051 H 
ATOM     23  H   LIG d   1       2.309  -0.889  -7.581  0.00  0.00     0.051 H 
BRANCH  21  24
ATOM     24  C   LIG d   1       3.622   0.769  -7.876  0.00  0.00    -0.028 A 
ATOM     25  C   LIG d   1       3.173   1.911  -8.523  0.00  0.00    -0.039 A 
ATOM     26  C   LIG d   1       4.053   2.629  -9.309  0.00  0.00     0.028 A 
ATOM     27  H   LIG d   1       2.148   2.232  -8.415  0.00  0.00     0.064 H 
ATOM     28  N   LIG d   1       5.306   2.241  -9.447  0.00  0.00    -0.263 NA
ATOM     29  H   LIG d   1       3.711   3.519  -9.817  0.00  0.00     0.083 H 
ATOM     30  C   LIG d   1       5.767   1.162  -8.847  0.00  0.00     0.028 A 
ATOM     31  C   LIG d   1       4.944   0.390  -8.049  0.00  0.00    -0.039 A 
ATOM     32  H   LIG d   1       6.800   0.875  -8.984  0.00  0.00     0.083 H 
ATOM     33  H   LIG d   1       5.327  -0.496  -7.564  0.00  0.00     0.064 H 
ENDBRANCH  21  24
ENDBRANCH  19  21
ENDBRANCH  14  17
ENDBRANCH   2  14
BRANCH   1  34
ATOM     34  C   LIG d   1       6.707   0.843  -4.068  0.00  0.00    -0.038 C 
ATOM     35  H   LIG d   1       5.877   1.369  -4.538  0.00  0.00     0.028 H 
ATOM     36  H   LIG d   1       6.753   1.105  -3.012  0.00  0.00     0.028 H 
ATOM     37  H   LIG d   1       7.641   1.130  -4.553  0.00  0.00     0.028 H 
ENDBRANCH   1  34
BRANCH   8  38
ATOM     38  O   LIG d   1       9.049   0.395  -4.810  0.00  0.00    -0.494 OA
BRANCH  38  39
ATOM     39  C   LIG d   1      10.391   0.853  -4.986  0.00  0.00     0.079 C 
ATOM     40  H   LIG d   1      11.085   0.056  -4.718  0.00  0.00     0.066 H 
ATOM     41  H   LIG d   1      10.546   1.134  -6.028  0.00  0.00     0.066 H 
ATOM     42  H   LIG d   1      10.567   1.719  -4.346  0.00  0.00     0.066 H 
ENDBRANCH  38  39
ENDBRANCH   8  38
BRANCH  10  43
ATOM     43  O   LIG d   1      10.644  -3.954  -5.862  0.00  0.00    -0.495 OA
BRANCH  43  44
ATOM     44  C   LIG d   1      10.756  -5.223  -5.216  0.00  0.00     0.079 C 
ATOM     45  H   LIG d   1      11.465  -5.846  -5.761  0.00  0.00     0.066 H 
ATOM     46  H   LIG d   1      11.106  -5.081  -4.194  0.00  0.00     0.066 H 
ATOM     47  H   LIG d   1       9.781  -5.711  -5.202  0.00  0.00     0.066 H 
ENDBRANCH  43  44
ENDBRANCH  10  43
TORSDOF 9
ENDMDL
