MODEL 1
REMARK VINA RESULT:      -3.3      0.000      0.000
REMARK  2 active torsions:
REMARK  status: ('A' for Active; 'I' for Inactive)
REMARK    1  A    between atoms: C_1  and  N_2 
REMARK    2  A    between atoms: N_5  and  C_8 
ROOT
ATOM      1  N   LIG d   1       4.951   0.758  -2.765  0.00  0.00    -0.224 N 
ATOM      2  C   LIG d   1       5.183  -0.571  -2.825  0.00  0.00     0.195 A 
ATOM      3  S   LIG d   1       4.082  -1.823  -2.435  0.00  0.00    -0.010 SA
ATOM      4  N   LIG d   1       6.456  -0.716  -3.253  0.00  0.00    -0.224 N 
ATOM      5  N   LIG d   1       6.983   0.566  -3.449  0.00  0.00    -0.045 NA
ATOM      6  N   LIG d   1       6.123   1.409  -3.170  0.00  0.00    -0.045 NA
ENDROOT
BRANCH   1   7
ATOM      7  C   LIG d   1       3.702   1.402  -2.352  0.00  0.00     0.035 C 
ATOM      8  H   LIG d   1       3.874   1.981  -1.444  0.00  0.00     0.047 H 
ATOM      9  H   LIG d   1       3.356   2.066  -3.145  0.00  0.00     0.047 H 
ATOM     10  H   LIG d   1       2.946   0.641  -2.160  0.00  0.00     0.047 H 
ENDBRANCH   1   7
BRANCH   4  11
ATOM     11  C   LIG d   1       7.156  -1.984  -3.471  0.00  0.00     0.035 C 
ATOM     12  H   LIG d   1       6.463  -2.717  -3.883  0.00  0.00     0.047 H 
ATOM     13  H   LIG d   1       7.979  -1.830  -4.170  0.00  0.00     0.047 H 
ATOM     14  H   LIG d   1       7.550  -2.350  -2.522  0.00  0.00     0.047 H 
ENDBRANCH   4  11
TORSDOF 2
ENDMDL
MODEL 2
REMARK VINA RESULT:      -3.3      1.857      2.428
REMARK  2 active torsions:
REMARK  status: ('A' for Active; 'I' for Inactive)
REMARK    1  A    between atoms: C_1  and  N_2 
REMARK    2  A    between atoms: N_5  and  C_8 
ROOT
ATOM      1  N   LIG d   1       4.746  -0.704  -2.432  0.00  0.00    -0.224 N 
ATOM      2  C   LIG d   1       5.845  -0.556  -3.203  0.00  0.00     0.195 A 
ATOM      3  S   LIG d   1       6.613  -1.767  -4.137  0.00  0.00    -0.010 SA
ATOM      4  N   LIG d   1       6.218   0.737  -3.089  0.00  0.00    -0.224 N 
ATOM      5  N   LIG d   1       5.310   1.364  -2.226  0.00  0.00    -0.045 NA
ATOM      6  N   LIG d   1       4.469   0.540  -1.851  0.00  0.00    -0.045 NA
ENDROOT
BRANCH   1   7
ATOM      7  C   LIG d   1       3.983  -1.940  -2.238  0.00  0.00     0.035 C 
ATOM      8  H   LIG d   1       4.529  -2.776  -2.677  0.00  0.00     0.047 H 
ATOM      9  H   LIG d   1       3.843  -2.117  -1.171  0.00  0.00     0.047 H 
ATOM     10  H   LIG d   1       3.011  -1.847  -2.722  0.00  0.00     0.047 H 
ENDBRANCH   1   7
BRANCH   4  11
ATOM     11  C   LIG d   1       7.364   1.369  -3.748  0.00  0.00     0.035 C 
ATOM     12  H   LIG d   1       8.203   1.416  -3.054  0.00  0.00     0.047 H 
ATOM     13  H   LIG d   1       7.648   0.784  -4.623  0.00  0.00     0.047 H 
ATOM     14  H   LIG d   1       7.093   2.379  -4.058  0.00  0.00     0.047 H 
ENDBRANCH   4  11
TORSDOF 2
ENDMDL
MODEL 3
REMARK VINA RESULT:      -3.3      1.858      2.564
REMARK  2 active torsions:
REMARK  status: ('A' for Active; 'I' for Inactive)
REMARK    1  A    between atoms: C_1  and  N_2 
REMARK    2  A    between atoms: N_5  and  C_8 
ROOT
ATOM      1  N   LIG d   1       6.237   0.752  -3.099  0.00  0.00    -0.224 N 
ATOM      2  C   LIG d   1       5.869  -0.544  -3.193  0.00  0.00     0.195 A 
ATOM      3  S   LIG d   1       6.648  -1.767  -4.104  0.00  0.00    -0.010 SA
ATOM      4  N   LIG d   1       4.765  -0.684  -2.427  0.00  0.00    -0.224 N 
ATOM      5  N   LIG d   1       4.479   0.568  -1.868  0.00  0.00    -0.045 NA
ATOM      6  N   LIG d   1       5.320   1.388  -2.252  0.00  0.00    -0.045 NA
ENDROOT
BRANCH   1   7
ATOM      7  C   LIG d   1       7.384   1.378  -3.760  0.00  0.00     0.035 C 
ATOM      8  H   LIG d   1       7.031   2.035  -4.556  0.00  0.00     0.047 H 
ATOM      9  H   LIG d   1       7.948   1.962  -3.032  0.00  0.00     0.047 H 
ATOM     10  H   LIG d   1       8.026   0.607  -4.184  0.00  0.00     0.047 H 
ENDBRANCH   1   7
BRANCH   4  11
ATOM     11  C   LIG d   1       4.006  -1.919  -2.220  0.00  0.00     0.035 C 
ATOM     12  H   LIG d   1       3.440  -2.154  -3.121  0.00  0.00     0.047 H 
ATOM     13  H   LIG d   1       4.694  -2.737  -2.000  0.00  0.00     0.047 H 
ATOM     14  H   LIG d   1       3.319  -1.788  -1.384  0.00  0.00     0.047 H 
ENDBRANCH   4  11
TORSDOF 2
ENDMDL
MODEL 4
REMARK VINA RESULT:      -3.2      2.663      3.758
REMARK  2 active torsions:
REMARK  status: ('A' for Active; 'I' for Inactive)
REMARK    1  A    between atoms: C_1  and  N_2 
REMARK    2  A    between atoms: N_5  and  C_8 
ROOT
ATOM      1  N   LIG d   1       3.915  -0.395  -5.594  0.00  0.00    -0.224 N 
ATOM      2  C   LIG d   1       4.273  -0.355  -4.292  0.00  0.00     0.195 A 
ATOM      3  S   LIG d   1       5.379  -1.394  -3.500  0.00  0.00    -0.010 SA
ATOM      4  N   LIG d   1       3.585   0.667  -3.740  0.00  0.00    -0.224 N 
ATOM      5  N   LIG d   1       2.801   1.242  -4.749  0.00  0.00    -0.045 NA
ATOM      6  N   LIG d   1       2.991   0.634  -5.808  0.00  0.00    -0.045 NA
ENDROOT
BRANCH   1   7
ATOM      7  C   LIG d   1       4.405  -1.342  -6.599  0.00  0.00     0.035 C 
ATOM      8  H   LIG d   1       3.668  -1.439  -7.396  0.00  0.00     0.047 H 
ATOM      9  H   LIG d   1       5.344  -0.976  -7.015  0.00  0.00     0.047 H 
ATOM     10  H   LIG d   1       4.568  -2.315  -6.134  0.00  0.00     0.047 H 
ENDBRANCH   1   7
BRANCH   4  11
ATOM     11  C   LIG d   1       3.646   1.096  -2.341  0.00  0.00     0.035 C 
ATOM     12  H   LIG d   1       3.629   2.185  -2.292  0.00  0.00     0.047 H 
ATOM     13  H   LIG d   1       2.790   0.695  -1.798  0.00  0.00     0.047 H 
ATOM     14  H   LIG d   1       4.567   0.728  -1.888  0.00  0.00     0.047 H 
ENDBRANCH   4  11
TORSDOF 2
ENDMDL
MODEL 5
REMARK VINA RESULT:      -3.2      2.670      3.042
REMARK  2 active torsions:
REMARK  status: ('A' for Active; 'I' for Inactive)
REMARK    1  A    between atoms: C_1  and  N_2 
REMARK    2  A    between atoms: N_5  and  C_8 
ROOT
ATOM      1  N   LIG d   1       3.581   0.648  -3.749  0.00  0.00    -0.224 N 
ATOM      2  C   LIG d   1       4.271  -0.374  -4.299  0.00  0.00     0.195 A 
ATOM      3  S   LIG d   1       5.379  -1.409  -3.504  0.00  0.00    -0.010 SA
ATOM      4  N   LIG d   1       3.914  -0.416  -5.601  0.00  0.00    -0.224 N 
ATOM      5  N   LIG d   1       2.988   0.611  -5.818  0.00  0.00    -0.045 NA
ATOM      6  N   LIG d   1       2.797   1.219  -4.759  0.00  0.00    -0.045 NA
ENDROOT
BRANCH   1   7
ATOM      7  C   LIG d   1       3.640   1.080  -2.350  0.00  0.00     0.035 C 
ATOM      8  H   LIG d   1       4.639   0.896  -1.955  0.00  0.00     0.047 H 
ATOM      9  H   LIG d   1       3.416   2.146  -2.290  0.00  0.00     0.047 H 
ATOM     10  H   LIG d   1       2.909   0.522  -1.765  0.00  0.00     0.047 H 
ENDBRANCH   1   7
BRANCH   4  11
ATOM     11  C   LIG d   1       4.408  -1.364  -6.603  0.00  0.00     0.035 C 
ATOM     12  H   LIG d   1       5.249  -0.925  -7.137  0.00  0.00     0.047 H 
ATOM     13  H   LIG d   1       4.729  -2.282  -6.110  0.00  0.00     0.047 H 
ATOM     14  H   LIG d   1       3.610  -1.594  -7.311  0.00  0.00     0.047 H 
ENDBRANCH   4  11
TORSDOF 2
ENDMDL
MODEL 6
REMARK VINA RESULT:      -3.1     16.331     17.036
REMARK  2 active torsions:
REMARK  status: ('A' for Active; 'I' for Inactive)
REMARK    1  A    between atoms: C_1  and  N_2 
REMARK    2  A    between atoms: N_5  and  C_8 
ROOT
ATOM      1  N   LIG d   1      -1.415   8.197 -14.941  0.00  0.00    -0.224 N 
ATOM      2  C   LIG d   1      -1.576   9.403 -15.525  0.00  0.00     0.195 A 
ATOM      3  S   LIG d   1      -3.060  10.182 -15.876  0.00  0.00    -0.010 SA
ATOM      4  N   LIG d   1      -0.335   9.873 -15.777  0.00  0.00    -0.224 N 
ATOM      5  N   LIG d   1       0.579   8.913 -15.326  0.00  0.00    -0.045 NA
ATOM      6  N   LIG d   1      -0.038   7.954 -14.848  0.00  0.00    -0.045 NA
ENDROOT
BRANCH   1   7
ATOM      7  C   LIG d   1      -2.483   7.303 -14.486  0.00  0.00     0.035 C 
ATOM      8  H   LIG d   1      -3.073   7.805 -13.718  0.00  0.00     0.047 H 
ATOM      9  H   LIG d   1      -3.126   7.048 -15.329  0.00  0.00     0.047 H 
ATOM     10  H   LIG d   1      -2.047   6.394 -14.073  0.00  0.00     0.047 H 
ENDBRANCH   1   7
BRANCH   4  11
ATOM     11  C   LIG d   1      -0.006  11.154 -16.407  0.00  0.00     0.035 C 
ATOM     12  H   LIG d   1      -0.832  11.851 -16.268  0.00  0.00     0.047 H 
ATOM     13  H   LIG d   1       0.896  11.563 -15.950  0.00  0.00     0.047 H 
ATOM     14  H   LIG d   1       0.164  11.002 -17.473  0.00  0.00     0.047 H 
ENDBRANCH   4  11
TORSDOF 2
ENDMDL
MODEL 7
REMARK VINA RESULT:      -3.1     16.344     17.029
REMARK  2 active torsions:
REMARK  status: ('A' for Active; 'I' for Inactive)
REMARK    1  A    between atoms: C_1  and  N_2 
REMARK    2  A    between atoms: N_5  and  C_8 
ROOT
ATOM      1  N   LIG d   1      -0.371   9.869 -15.788  0.00  0.00    -0.224 N 
ATOM      2  C   LIG d   1      -1.610   9.402 -15.526  0.00  0.00     0.195 A 
ATOM      3  S   LIG d   1      -3.094  10.179 -15.879  0.00  0.00    -0.010 SA
ATOM      4  N   LIG d   1      -1.447   8.201 -14.930  0.00  0.00    -0.224 N 
ATOM      5  N   LIG d   1      -0.070   7.959 -14.842  0.00  0.00    -0.045 NA
ATOM      6  N   LIG d   1       0.545   8.912 -15.332  0.00  0.00    -0.045 NA
ENDROOT
BRANCH   1   7
ATOM      7  C   LIG d   1      -0.042  11.143 -16.433  0.00  0.00     0.035 C 
ATOM      8  H   LIG d   1      -0.955  11.605 -16.811  0.00  0.00     0.047 H 
ATOM      9  H   LIG d   1       0.427  11.807 -15.706  0.00  0.00     0.047 H 
ATOM     10  H   LIG d   1       0.645  10.967 -17.260  0.00  0.00     0.047 H 
ENDBRANCH   1   7
BRANCH   4  11
ATOM     11  C   LIG d   1      -2.515   7.315 -14.462  0.00  0.00     0.035 C 
ATOM     12  H   LIG d   1      -2.866   7.652 -13.487  0.00  0.00     0.047 H 
ATOM     13  H   LIG d   1      -3.341   7.333 -15.173  0.00  0.00     0.047 H 
ATOM     14  H   LIG d   1      -2.131   6.297 -14.377  0.00  0.00     0.047 H 
ENDBRANCH   4  11
TORSDOF 2
ENDMDL
MODEL 8
REMARK VINA RESULT:      -3.1      1.203      2.718
REMARK  2 active torsions:
REMARK  status: ('A' for Active; 'I' for Inactive)
REMARK    1  A    between atoms: C_1  and  N_2 
REMARK    2  A    between atoms: N_5  and  C_8 
ROOT
ATOM      1  N   LIG d   1       6.330  -0.200  -4.516  0.00  0.00    -0.224 N 
ATOM      2  C   LIG d   1       5.374  -0.410  -3.585  0.00  0.00     0.195 A 
ATOM      3  S   LIG d   1       4.374  -1.791  -3.435  0.00  0.00    -0.010 SA
ATOM      4  N   LIG d   1       5.364   0.687  -2.797  0.00  0.00    -0.224 N 
ATOM      5  N   LIG d   1       6.343   1.563  -3.281  0.00  0.00    -0.045 NA
ATOM      6  N   LIG d   1       6.895   1.056  -4.263  0.00  0.00    -0.045 NA
ENDROOT
BRANCH   1   7
ATOM      7  C   LIG d   1       6.707  -1.119  -5.593  0.00  0.00     0.035 C 
ATOM      8  H   LIG d   1       7.770  -1.009  -5.809  0.00  0.00     0.047 H 
ATOM      9  H   LIG d   1       6.505  -2.145  -5.283  0.00  0.00     0.047 H 
ATOM     10  H   LIG d   1       6.129  -0.889  -6.488  0.00  0.00     0.047 H 
ENDBRANCH   1   7
BRANCH   4  11
ATOM     11  C   LIG d   1       4.488   0.917  -1.645  0.00  0.00     0.035 C 
ATOM     12  H   LIG d   1       3.564   0.354  -1.772  0.00  0.00     0.047 H 
ATOM     13  H   LIG d   1       4.990   0.590  -0.734  0.00  0.00     0.047 H 
ATOM     14  H   LIG d   1       4.258   1.980  -1.571  0.00  0.00     0.047 H 
ENDBRANCH   4  11
TORSDOF 2
ENDMDL
MODEL 9
REMARK VINA RESULT:      -2.9      9.966     10.504
REMARK  2 active torsions:
REMARK  status: ('A' for Active; 'I' for Inactive)
REMARK    1  A    between atoms: C_1  and  N_2 
REMARK    2  A    between atoms: N_5  and  C_8 
ROOT
ATOM      1  N   LIG d   1      11.368   8.224   1.257  0.00  0.00    -0.224 N 
ATOM      2  C   LIG d   1      10.789   8.406   0.052  0.00  0.00     0.195 A 
ATOM      3  S   LIG d   1      10.644   9.882  -0.804  0.00  0.00    -0.010 SA
ATOM      4  N   LIG d   1      10.346   7.193  -0.345  0.00  0.00    -0.224 N 
ATOM      5  N   LIG d   1      10.676   6.275   0.659  0.00  0.00    -0.045 NA
ATOM      6  N   LIG d   1      11.261   6.864   1.575  0.00  0.00    -0.045 NA
ENDROOT
BRANCH   1   7
ATOM      7  C   LIG d   1      11.995   9.259   2.083  0.00  0.00     0.035 C 
ATOM      8  H   LIG d   1      12.182  10.145   1.476  0.00  0.00     0.047 H 
ATOM      9  H   LIG d   1      11.330   9.518   2.908  0.00  0.00     0.047 H 
ATOM     10  H   LIG d   1      12.939   8.885   2.481  0.00  0.00     0.047 H 
ENDBRANCH   1   7
BRANCH   4  11
ATOM     11  C   LIG d   1       9.646   6.894  -1.597  0.00  0.00     0.035 C 
ATOM     12  H   LIG d   1      10.145   7.402  -2.423  0.00  0.00     0.047 H 
ATOM     13  H   LIG d   1       9.658   5.818  -1.772  0.00  0.00     0.047 H 
ATOM     14  H   LIG d   1       8.615   7.240  -1.529  0.00  0.00     0.047 H 
ENDBRANCH   4  11
TORSDOF 2
ENDMDL
MODEL 10
REMARK VINA RESULT:      -2.9      9.305     10.083
REMARK  2 active torsions:
REMARK  status: ('A' for Active; 'I' for Inactive)
REMARK    1  A    between atoms: C_1  and  N_2 
REMARK    2  A    between atoms: N_5  and  C_8 
ROOT
ATOM      1  N   LIG d   1      10.729   6.720  -0.181  0.00  0.00    -0.224 N 
ATOM      2  C   LIG d   1      10.604   8.040   0.075  0.00  0.00     0.195 A 
ATOM      3  S   LIG d   1      11.590   8.981   1.111  0.00  0.00    -0.010 SA
ATOM      4  N   LIG d   1       9.547   8.469  -0.648  0.00  0.00    -0.224 N 
ATOM      5  N   LIG d   1       9.039   7.368  -1.347  0.00  0.00    -0.045 NA
ATOM      6  N   LIG d   1       9.715   6.367  -1.081  0.00  0.00    -0.045 NA
ENDROOT
BRANCH   1   7
ATOM      7  C   LIG d   1      11.741   5.820   0.379  0.00  0.00     0.035 C 
ATOM      8  H   LIG d   1      11.530   4.797   0.065  0.00  0.00     0.047 H 
ATOM      9  H   LIG d   1      12.727   6.114   0.019  0.00  0.00     0.047 H 
ATOM     10  H   LIG d   1      11.718   5.878   1.467  0.00  0.00     0.047 H 
ENDBRANCH   1   7
BRANCH   4  11
ATOM     11  C   LIG d   1       9.027   9.838  -0.691  0.00  0.00     0.035 C 
ATOM     12  H   LIG d   1       7.938   9.813  -0.721  0.00  0.00     0.047 H 
ATOM     13  H   LIG d   1       9.354  10.380   0.196  0.00  0.00     0.047 H 
ATOM     14  H   LIG d   1       9.402  10.341  -1.583  0.00  0.00     0.047 H 
ENDBRANCH   4  11
TORSDOF 2
ENDMDL
