MODEL 1
REMARK VINA RESULT:      -8.1      0.000      0.000
REMARK  7 active torsions:
REMARK  status: ('A' for Active; 'I' for Inactive)
REMARK    1  A    between atoms: C_1  and  C_2 
REMARK    2  A    between atoms: C_16  and  C_19 
REMARK    3  A    between atoms: C_19  and  C_20 
REMARK    4  A    between atoms: C_20  and  C_21 
REMARK       I    between atoms: C_21  and  N_23 
REMARK    5  A    between atoms: N_26  and  C_29 
REMARK    6  A    between atoms: C_29  and  C_30 
REMARK    7  A    between atoms: C_30  and  C_31 
ROOT
ATOM      1  C   LIG d   1       3.783   1.476  -9.625  0.00  0.00    -0.027 A 
ATOM      2  C   LIG d   1       3.895   1.237 -10.980  0.00  0.00    -0.039 A 
ATOM      3  C   LIG d   1       4.253  -0.017 -11.440  0.00  0.00     0.042 A 
ATOM      4  C   LIG d   1       4.500  -1.038 -10.536  0.00  0.00    -0.032 A 
ATOM      5  C   LIG d   1       4.389  -0.803  -9.185  0.00  0.00     0.036 A 
ATOM      6  C   LIG d   1       4.036   0.458  -8.711  0.00  0.00     0.046 A 
ATOM      7  N   LIG d   1       3.997   0.455  -7.314  0.00  0.00    -0.280 N 
ATOM      8  C   LIG d   1       4.313  -0.750  -6.799  0.00  0.00     0.274 A 
ATOM      9  O   LIG d   1       4.361  -1.045  -5.624  0.00  0.00    -0.269 OA
ATOM     10  C   LIG d   1       4.580  -1.661  -7.967  0.00  0.00     0.106 A 
ATOM     11  C   LIG d   1       6.000  -2.235  -7.898  0.00  0.00     0.111 A 
ATOM     12  H   LIG d   1       6.491  -2.254  -8.870  0.00  0.00     0.047 H 
ATOM     13  C   LIG d   1       5.819  -3.654  -7.288  0.00  0.00     0.096 A 
ATOM     14  H   LIG d   1       6.217  -4.443  -7.927  0.00  0.00     0.046 H 
ATOM     15  C   LIG d   1       4.301  -3.791  -7.048  0.00  0.00    -0.009 C 
ATOM     16  H   LIG d   1       4.053  -3.521  -6.021  0.00  0.00     0.086 H 
ATOM     17  N   LIG d   1       3.673  -2.824  -7.977  0.00  0.00     0.245 N 
ATOM     18  C   LIG d   1       6.540  -3.558  -5.963  0.00  0.00     0.231 A 
ATOM     19  O   LIG d   1       6.646  -4.457  -5.155  0.00  0.00    -0.275 OA
ATOM     20  N   LIG d   1       7.042  -2.326  -5.817  0.00  0.00    -0.241 N 
ATOM     21  C   LIG d   1       6.803  -1.492  -6.855  0.00  0.00     0.232 A 
ATOM     22  O   LIG d   1       7.166  -0.338  -6.941  0.00  0.00    -0.275 OA
ATOM     23 CL   LIG d   1       4.392  -0.312 -13.145  0.00  0.00    -0.084 Cl
ATOM     24  H   LIG d   1       3.701   2.033 -11.684  0.00  0.00     0.064 H 
ATOM     25  H   LIG d   1       4.779  -2.018 -10.893  0.00  0.00     0.064 H 
ATOM     26  H   LIG d   1       3.770   1.230  -6.777  0.00  0.00     0.155 HD
ATOM     27  H   LIG d   1       2.756  -2.559  -7.651  0.00  0.00     0.203 HD
ATOM     28  H   LIG d   1       3.619  -3.222  -8.903  0.00  0.00     0.203 HD
ENDROOT
BRANCH  15  29
ATOM     29  C   LIG d   1       3.841  -5.219  -7.346  0.00  0.00    -0.001 C 
ATOM     30  H   LIG d   1       4.476  -5.925  -6.810  0.00  0.00     0.033 H 
ATOM     31  H   LIG d   1       2.807  -5.343  -7.023  0.00  0.00     0.033 H 
BRANCH  29  32
ATOM     32  C   LIG d   1       3.940  -5.484  -8.850  0.00  0.00     0.029 C 
ATOM     33  H   LIG d   1       4.196  -4.559  -9.365  0.00  0.00     0.036 H 
ATOM     34  H   LIG d   1       4.714  -6.229  -9.036  0.00  0.00     0.036 H 
BRANCH  32  35
ATOM     35  C   LIG d   1       2.617  -5.995  -9.359  0.00  0.00     0.211 C 
ATOM     36  O   LIG d   1       2.382  -7.185  -9.348  0.00  0.00    -0.276 OA
ATOM     37  N   LIG d   1       1.694  -5.131  -9.824  0.00  0.00    -0.329 N 
ATOM     38  H   LIG d   1       1.882  -4.179  -9.832  0.00  0.00     0.145 HD
ATOM     39  H   LIG d   1       0.843  -5.460 -10.151  0.00  0.00     0.145 HD
ENDBRANCH  32  35
ENDBRANCH  29  32
ENDBRANCH  15  29
BRANCH   1  40
ATOM     40  C   LIG d   1       3.393   2.847  -9.135  0.00  0.00    -0.038 C 
ATOM     41  H   LIG d   1       4.290   3.442  -8.967  0.00  0.00     0.028 H 
ATOM     42  H   LIG d   1       2.766   3.335  -9.881  0.00  0.00     0.028 H 
ATOM     43  H   LIG d   1       2.839   2.753  -8.200  0.00  0.00     0.028 H 
ENDBRANCH   1  40
BRANCH  20  44
ATOM     44  C   LIG d   1       7.798  -1.913  -4.633  0.00  0.00     0.026 C 
ATOM     45  H   LIG d   1       8.766  -2.414  -4.626  0.00  0.00     0.047 H 
ATOM     46  H   LIG d   1       7.948  -0.833  -4.656  0.00  0.00     0.047 H 
BRANCH  44  47
ATOM     47  C   LIG d   1       7.018  -2.292  -3.371  0.00  0.00    -0.011 C 
ATOM     48  H   LIG d   1       6.403  -3.168  -3.575  0.00  0.00     0.033 H 
ATOM     49  H   LIG d   1       7.717  -2.517  -2.566  0.00  0.00     0.033 H 
BRANCH  47  50
ATOM     50  C   LIG d   1       6.136  -1.141  -2.962  0.00  0.00    -0.046 A 
ATOM     51  C   LIG d   1       4.958  -1.383  -2.279  0.00  0.00    -0.059 A 
ATOM     52  C   LIG d   1       4.150  -0.327  -1.899  0.00  0.00    -0.061 A 
ATOM     53  H   LIG d   1       4.671  -2.396  -2.040  0.00  0.00     0.062 H 
ATOM     54  C   LIG d   1       4.516   0.970  -2.209  0.00  0.00    -0.062 A 
ATOM     55  H   LIG d   1       3.233  -0.515  -1.362  0.00  0.00     0.062 H 
ATOM     56  C   LIG d   1       5.692   1.211  -2.896  0.00  0.00    -0.061 A 
ATOM     57  H   LIG d   1       3.884   1.794  -1.915  0.00  0.00     0.062 H 
ATOM     58  C   LIG d   1       6.501   0.155  -3.273  0.00  0.00    -0.059 A 
ATOM     59  H   LIG d   1       5.978   2.224  -3.139  0.00  0.00     0.062 H 
ATOM     60  H   LIG d   1       7.419   0.344  -3.809  0.00  0.00     0.062 H 
ENDBRANCH  47  50
ENDBRANCH  44  47
ENDBRANCH  20  44
TORSDOF 7
ENDMDL
MODEL 2
REMARK VINA RESULT:      -7.9      3.578      6.331
REMARK  7 active torsions:
REMARK  status: ('A' for Active; 'I' for Inactive)
REMARK    1  A    between atoms: C_1  and  C_2 
REMARK    2  A    between atoms: C_16  and  C_19 
REMARK    3  A    between atoms: C_19  and  C_20 
REMARK    4  A    between atoms: C_20  and  C_21 
REMARK       I    between atoms: C_21  and  N_23 
REMARK    5  A    between atoms: N_26  and  C_29 
REMARK    6  A    between atoms: C_29  and  C_30 
REMARK    7  A    between atoms: C_30  and  C_31 
ROOT
ATOM      1  C   LIG d   1       4.954  -5.826  -8.176  0.00  0.00    -0.027 A 
ATOM      2  C   LIG d   1       4.832  -7.045  -7.541  0.00  0.00    -0.039 A 
ATOM      3  C   LIG d   1       4.820  -7.115  -6.160  0.00  0.00     0.042 A 
ATOM      4  C   LIG d   1       4.932  -5.954  -5.411  0.00  0.00    -0.032 A 
ATOM      5  C   LIG d   1       5.054  -4.737  -6.041  0.00  0.00     0.036 A 
ATOM      6  C   LIG d   1       5.073  -4.657  -7.431  0.00  0.00     0.046 A 
ATOM      7  N   LIG d   1       5.214  -3.327  -7.836  0.00  0.00    -0.280 N 
ATOM      8  C   LIG d   1       5.298  -2.483  -6.789  0.00  0.00     0.274 A 
ATOM      9  O   LIG d   1       5.425  -1.278  -6.838  0.00  0.00    -0.269 OA
ATOM     10  C   LIG d   1       5.190  -3.325  -5.546  0.00  0.00     0.106 A 
ATOM     11  C   LIG d   1       6.430  -3.155  -4.661  0.00  0.00     0.111 A 
ATOM     12  H   LIG d   1       6.775  -4.098  -4.238  0.00  0.00     0.047 H 
ATOM     13  C   LIG d   1       5.998  -2.130  -3.575  0.00  0.00     0.096 A 
ATOM     14  H   LIG d   1       6.113  -2.514  -2.561  0.00  0.00     0.046 H 
ATOM     15  C   LIG d   1       4.534  -1.782  -3.918  0.00  0.00    -0.009 C 
ATOM     16  H   LIG d   1       4.492  -0.878  -4.525  0.00  0.00     0.086 H 
ATOM     17  N   LIG d   1       4.040  -2.931  -4.711  0.00  0.00     0.245 N 
ATOM     18  C   LIG d   1       6.885  -0.937  -3.850  0.00  0.00     0.231 A 
ATOM     19  O   LIG d   1       6.877   0.102  -3.223  0.00  0.00    -0.275 OA
ATOM     20  N   LIG d   1       7.679  -1.203  -4.893  0.00  0.00    -0.241 N 
ATOM     21  C   LIG d   1       7.513  -2.433  -5.431  0.00  0.00     0.232 A 
ATOM     22  O   LIG d   1       8.125  -2.889  -6.373  0.00  0.00    -0.275 OA
ATOM     23 CL   LIG d   1       4.666  -8.651  -5.366  0.00  0.00    -0.084 Cl
ATOM     24  H   LIG d   1       4.743  -7.949  -8.125  0.00  0.00     0.064 H 
ATOM     25  H   LIG d   1       4.923  -6.006  -4.332  0.00  0.00     0.064 H 
ATOM     26  H   LIG d   1       5.247  -3.044  -8.762  0.00  0.00     0.155 HD
ATOM     27  H   LIG d   1       3.261  -2.657  -5.291  0.00  0.00     0.203 HD
ATOM     28  H   LIG d   1       3.775  -3.685  -4.096  0.00  0.00     0.203 HD
ENDROOT
BRANCH  15  29
ATOM     29  C   LIG d   1       3.715  -1.603  -2.639  0.00  0.00    -0.001 C 
ATOM     30  H   LIG d   1       3.081  -2.478  -2.488  0.00  0.00     0.033 H 
ATOM     31  H   LIG d   1       4.388  -1.490  -1.789  0.00  0.00     0.033 H 
BRANCH  29  32
ATOM     32  C   LIG d   1       2.839  -0.355  -2.765  0.00  0.00     0.029 C 
ATOM     33  H   LIG d   1       2.374  -0.335  -3.750  0.00  0.00     0.036 H 
ATOM     34  H   LIG d   1       2.064  -0.377  -1.998  0.00  0.00     0.036 H 
BRANCH  32  35
ATOM     35  C   LIG d   1       3.689   0.876  -2.584  0.00  0.00     0.211 C 
ATOM     36  O   LIG d   1       3.599   1.796  -3.369  0.00  0.00    -0.276 OA
ATOM     37  N   LIG d   1       4.548   0.956  -1.549  0.00  0.00    -0.329 N 
ATOM     38  H   LIG d   1       4.620   0.221  -0.920  0.00  0.00     0.145 HD
ATOM     39  H   LIG d   1       5.095   1.749  -1.433  0.00  0.00     0.145 HD
ENDBRANCH  32  35
ENDBRANCH  29  32
ENDBRANCH  15  29
BRANCH   1  40
ATOM     40  C   LIG d   1       4.965  -5.762  -9.682  0.00  0.00    -0.038 C 
ATOM     41  H   LIG d   1       4.682  -4.761 -10.005  0.00  0.00     0.028 H 
ATOM     42  H   LIG d   1       5.966  -5.993 -10.048  0.00  0.00     0.028 H 
ATOM     43  H   LIG d   1       4.256  -6.488 -10.081  0.00  0.00     0.028 H 
ENDBRANCH   1  40
BRANCH  20  44
ATOM     44  C   LIG d   1       8.656  -0.243  -5.411  0.00  0.00     0.026 C 
ATOM     45  H   LIG d   1       9.160   0.248  -4.579  0.00  0.00     0.047 H 
ATOM     46  H   LIG d   1       9.391  -0.767  -6.022  0.00  0.00     0.047 H 
BRANCH  44  47
ATOM     47  C   LIG d   1       7.939   0.806  -6.264  0.00  0.00    -0.011 C 
ATOM     48  H   LIG d   1       7.999   0.522  -7.315  0.00  0.00     0.033 H 
ATOM     49  H   LIG d   1       6.893   0.866  -5.962  0.00  0.00     0.033 H 
BRANCH  47  50
ATOM     50  C   LIG d   1       8.595   2.148  -6.067  0.00  0.00    -0.046 A 
ATOM     51  C   LIG d   1       9.191   2.789  -7.137  0.00  0.00    -0.059 A 
ATOM     52  C   LIG d   1       9.790   4.023  -6.958  0.00  0.00    -0.061 A 
ATOM     53  H   LIG d   1       9.186   2.329  -8.114  0.00  0.00     0.062 H 
ATOM     54  C   LIG d   1       9.800   4.611  -5.707  0.00  0.00    -0.062 A 
ATOM     55  H   LIG d   1      10.251   4.526  -7.794  0.00  0.00     0.062 H 
ATOM     56  C   LIG d   1       9.209   3.967  -4.635  0.00  0.00    -0.061 A 
ATOM     57  H   LIG d   1      10.270   5.573  -5.566  0.00  0.00     0.062 H 
ATOM     58  C   LIG d   1       8.607   2.735  -4.817  0.00  0.00    -0.059 A 
ATOM     59  H   LIG d   1       9.216   4.426  -3.658  0.00  0.00     0.062 H 
ATOM     60  H   LIG d   1       8.145   2.233  -3.979  0.00  0.00     0.062 H 
ENDBRANCH  47  50
ENDBRANCH  44  47
ENDBRANCH  20  44
TORSDOF 7
ENDMDL
MODEL 3
REMARK VINA RESULT:      -7.6      3.205      5.987
REMARK  7 active torsions:
REMARK  status: ('A' for Active; 'I' for Inactive)
REMARK    1  A    between atoms: C_1  and  C_2 
REMARK    2  A    between atoms: C_16  and  C_19 
REMARK    3  A    between atoms: C_19  and  C_20 
REMARK    4  A    between atoms: C_20  and  C_21 
REMARK       I    between atoms: C_21  and  N_23 
REMARK    5  A    between atoms: N_26  and  C_29 
REMARK    6  A    between atoms: C_29  and  C_30 
REMARK    7  A    between atoms: C_30  and  C_31 
ROOT
ATOM      1  C   LIG d   1       3.866  -4.926  -8.707  0.00  0.00    -0.027 A 
ATOM      2  C   LIG d   1       4.092  -6.190  -8.202  0.00  0.00    -0.039 A 
ATOM      3  C   LIG d   1       4.543  -6.353  -6.904  0.00  0.00     0.042 A 
ATOM      4  C   LIG d   1       4.770  -5.242  -6.109  0.00  0.00    -0.032 A 
ATOM      5  C   LIG d   1       4.546  -3.979  -6.610  0.00  0.00     0.036 A 
ATOM      6  C   LIG d   1       4.098  -3.804  -7.916  0.00  0.00     0.046 A 
ATOM      7  N   LIG d   1       3.953  -2.443  -8.198  0.00  0.00    -0.280 N 
ATOM      8  C   LIG d   1       4.287  -1.668  -7.147  0.00  0.00     0.274 A 
ATOM      9  O   LIG d   1       4.260  -0.456  -7.103  0.00  0.00    -0.269 OA
ATOM     10  C   LIG d   1       4.685  -2.599  -6.034  0.00  0.00     0.106 A 
ATOM     11  C   LIG d   1       6.121  -2.320  -5.576  0.00  0.00     0.111 A 
ATOM     12  H   LIG d   1       6.685  -3.233  -5.389  0.00  0.00     0.047 H 
ATOM     13  C   LIG d   1       5.964  -1.440  -4.305  0.00  0.00     0.096 A 
ATOM     14  H   LIG d   1       6.446  -1.872  -3.428  0.00  0.00     0.046 H 
ATOM     15  C   LIG d   1       4.440  -1.274  -4.125  0.00  0.00    -0.009 C 
ATOM     16  H   LIG d   1       4.103  -0.345  -4.585  0.00  0.00     0.086 H 
ATOM     17  N   LIG d   1       3.839  -2.423  -4.839  0.00  0.00     0.245 N 
ATOM     18  C   LIG d   1       6.576  -0.120  -4.717  0.00  0.00     0.231 A 
ATOM     19  O   LIG d   1       6.664   0.863  -4.012  0.00  0.00    -0.275 OA
ATOM     20  N   LIG d   1       7.006  -0.204  -5.981  0.00  0.00    -0.241 N 
ATOM     21  C   LIG d   1       6.806  -1.407  -6.568  0.00  0.00     0.232 A 
ATOM     22  O   LIG d   1       7.119  -1.710  -7.700  0.00  0.00    -0.275 OA
ATOM     23 CL   LIG d   1       4.825  -7.946  -6.275  0.00  0.00    -0.084 Cl
ATOM     24  H   LIG d   1       3.914  -7.056  -8.821  0.00  0.00     0.064 H 
ATOM     25  H   LIG d   1       5.123  -5.366  -5.096  0.00  0.00     0.064 H 
ATOM     26  H   LIG d   1       3.649  -2.096  -9.051  0.00  0.00     0.155 HD
ATOM     27  H   LIG d   1       2.888  -2.220  -5.107  0.00  0.00     0.203 HD
ATOM     28  H   LIG d   1       3.874  -3.246  -4.257  0.00  0.00     0.203 HD
ENDROOT
BRANCH  15  29
ATOM     29  C   LIG d   1       4.073  -1.295  -2.640  0.00  0.00    -0.001 C 
ATOM     30  H   LIG d   1       3.559  -2.228  -2.406  0.00  0.00     0.033 H 
ATOM     31  H   LIG d   1       4.980  -1.220  -2.040  0.00  0.00     0.033 H 
BRANCH  29  32
ATOM     32  C   LIG d   1       3.154  -0.113  -2.324  0.00  0.00     0.029 C 
ATOM     33  H   LIG d   1       2.410  -0.010  -3.114  0.00  0.00     0.036 H 
ATOM     34  H   LIG d   1       2.651  -0.290  -1.373  0.00  0.00     0.036 H 
BRANCH  32  35
ATOM     35  C   LIG d   1       3.971   1.149  -2.234  0.00  0.00     0.211 C 
ATOM     36  O   LIG d   1       4.721   1.321  -1.295  0.00  0.00    -0.276 OA
ATOM     37  N   LIG d   1       3.871   2.087  -3.195  0.00  0.00    -0.329 N 
ATOM     38  H   LIG d   1       3.272   1.951  -3.946  0.00  0.00     0.145 HD
ATOM     39  H   LIG d   1       4.398   2.900  -3.137  0.00  0.00     0.145 HD
ENDBRANCH  32  35
ENDBRANCH  29  32
ENDBRANCH  15  29
BRANCH   1  40
ATOM     40  C   LIG d   1       3.374  -4.759 -10.122  0.00  0.00    -0.038 C 
ATOM     41  H   LIG d   1       2.428  -4.220 -10.116  0.00  0.00     0.028 H 
ATOM     42  H   LIG d   1       4.109  -4.198 -10.698  0.00  0.00     0.028 H 
ATOM     43  H   LIG d   1       3.230  -5.741 -10.573  0.00  0.00     0.028 H 
ENDBRANCH   1  40
BRANCH  20  44
ATOM     44  C   LIG d   1       7.649   0.913  -6.676  0.00  0.00     0.026 C 
ATOM     45  H   LIG d   1       7.518   0.797  -7.751  0.00  0.00     0.047 H 
ATOM     46  H   LIG d   1       7.195   1.850  -6.355  0.00  0.00     0.047 H 
BRANCH  44  47
ATOM     47  C   LIG d   1       9.143   0.930  -6.342  0.00  0.00    -0.011 C 
ATOM     48  H   LIG d   1       9.434  -0.037  -5.932  0.00  0.00     0.033 H 
ATOM     49  H   LIG d   1       9.715   1.127  -7.249  0.00  0.00     0.033 H 
BRANCH  47  50
ATOM     50  C   LIG d   1       9.420   2.011  -5.331  0.00  0.00    -0.046 A 
ATOM     51  C   LIG d   1       9.086   3.323  -5.614  0.00  0.00    -0.059 A 
ATOM     52  C   LIG d   1       9.335   4.316  -4.684  0.00  0.00    -0.061 A 
ATOM     53  H   LIG d   1       8.627   3.572  -6.559  0.00  0.00     0.062 H 
ATOM     54  C   LIG d   1       9.926   3.999  -3.475  0.00  0.00    -0.062 A 
ATOM     55  H   LIG d   1       9.070   5.339  -4.903  0.00  0.00     0.062 H 
ATOM     56  C   LIG d   1      10.265   2.687  -3.195  0.00  0.00    -0.061 A 
ATOM     57  H   LIG d   1      10.124   4.774  -2.751  0.00  0.00     0.062 H 
ATOM     58  C   LIG d   1      10.012   1.695  -4.123  0.00  0.00    -0.059 A 
ATOM     59  H   LIG d   1      10.727   2.439  -2.251  0.00  0.00     0.062 H 
ATOM     60  H   LIG d   1      10.276   0.671  -3.904  0.00  0.00     0.062 H 
ENDBRANCH  47  50
ENDBRANCH  44  47
ENDBRANCH  20  44
TORSDOF 7
ENDMDL
MODEL 4
REMARK VINA RESULT:      -7.5      2.865      6.634
REMARK  7 active torsions:
REMARK  status: ('A' for Active; 'I' for Inactive)
REMARK    1  A    between atoms: C_1  and  C_2 
REMARK    2  A    between atoms: C_16  and  C_19 
REMARK    3  A    between atoms: C_19  and  C_20 
REMARK    4  A    between atoms: C_20  and  C_21 
REMARK       I    between atoms: C_21  and  N_23 
REMARK    5  A    between atoms: N_26  and  C_29 
REMARK    6  A    between atoms: C_29  and  C_30 
REMARK    7  A    between atoms: C_30  and  C_31 
ROOT
ATOM      1  C   LIG d   1       4.223  -6.431  -7.902  0.00  0.00    -0.027 A 
ATOM      2  C   LIG d   1       4.598  -7.497  -7.110  0.00  0.00    -0.039 A 
ATOM      3  C   LIG d   1       5.083  -7.282  -5.833  0.00  0.00     0.042 A 
ATOM      4  C   LIG d   1       5.194  -5.989  -5.347  0.00  0.00    -0.032 A 
ATOM      5  C   LIG d   1       4.821  -4.923  -6.135  0.00  0.00     0.036 A 
ATOM      6  C   LIG d   1       4.337  -5.129  -7.424  0.00  0.00     0.046 A 
ATOM      7  N   LIG d   1       4.036  -3.905  -8.027  0.00  0.00    -0.280 N 
ATOM      8  C   LIG d   1       4.294  -2.861  -7.216  0.00  0.00     0.274 A 
ATOM      9  O   LIG d   1       4.131  -1.687  -7.472  0.00  0.00    -0.269 OA
ATOM     10  C   LIG d   1       4.811  -3.436  -5.924  0.00  0.00     0.106 A 
ATOM     11  C   LIG d   1       6.213  -2.900  -5.611  0.00  0.00     0.111 A 
ATOM     12  H   LIG d   1       6.880  -3.673  -5.228  0.00  0.00     0.047 H 
ATOM     13  C   LIG d   1       5.975  -1.752  -4.591  0.00  0.00     0.096 A 
ATOM     14  H   LIG d   1       6.516  -1.897  -3.656  0.00  0.00     0.046 H 
ATOM     15  C   LIG d   1       4.445  -1.708  -4.394  0.00  0.00    -0.009 C 
ATOM     16  H   LIG d   1       3.998  -0.965  -5.055  0.00  0.00     0.086 H 
ATOM     17  N   LIG d   1       3.967  -3.057  -4.776  0.00  0.00     0.245 N 
ATOM     18  C   LIG d   1       6.428  -0.520  -5.342  0.00  0.00     0.231 A 
ATOM     19  O   LIG d   1       6.414   0.612  -4.906  0.00  0.00    -0.275 OA
ATOM     20  N   LIG d   1       6.847  -0.872  -6.563  0.00  0.00    -0.241 N 
ATOM     21  C   LIG d   1       6.776  -2.197  -6.825  0.00  0.00     0.232 A 
ATOM     22  O   LIG d   1       7.104  -2.740  -7.859  0.00  0.00    -0.275 OA
ATOM     23 CL   LIG d   1       5.553  -8.627  -4.841  0.00  0.00    -0.084 Cl
ATOM     24  H   LIG d   1       4.510  -8.505  -7.488  0.00  0.00     0.064 H 
ATOM     25  H   LIG d   1       5.573  -5.817  -4.350  0.00  0.00     0.064 H 
ATOM     26  H   LIG d   1       3.682  -3.817  -8.926  0.00  0.00     0.155 HD
ATOM     27  H   LIG d   1       2.996  -3.029  -5.046  0.00  0.00     0.203 HD
ATOM     28  H   LIG d   1       4.104  -3.700  -4.010  0.00  0.00     0.203 HD
ENDROOT
BRANCH  15  29
ATOM     29  C   LIG d   1       4.104  -1.396  -2.936  0.00  0.00    -0.001 C 
ATOM     30  H   LIG d   1       3.646  -2.271  -2.474  0.00  0.00     0.033 H 
ATOM     31  H   LIG d   1       5.015  -1.136  -2.397  0.00  0.00     0.033 H 
BRANCH  29  32
ATOM     32  C   LIG d   1       3.126  -0.220  -2.881  0.00  0.00     0.029 C 
ATOM     33  H   LIG d   1       2.479  -0.244  -3.757  0.00  0.00     0.036 H 
ATOM     34  H   LIG d   1       2.519  -0.296  -1.979  0.00  0.00     0.036 H 
BRANCH  32  35
ATOM     35  C   LIG d   1       3.897   1.074  -2.860  0.00  0.00     0.211 C 
ATOM     36  O   LIG d   1       3.538   2.006  -3.549  0.00  0.00    -0.276 OA
ATOM     37  N   LIG d   1       4.985   1.198  -2.074  0.00  0.00    -0.329 N 
ATOM     38  H   LIG d   1       5.273   0.454  -1.522  0.00  0.00     0.145 HD
ATOM     39  H   LIG d   1       5.481   2.032  -2.061  0.00  0.00     0.145 HD
ENDBRANCH  32  35
ENDBRANCH  29  32
ENDBRANCH  15  29
BRANCH   1  40
ATOM     40  C   LIG d   1       3.695  -6.678  -9.292  0.00  0.00    -0.038 C 
ATOM     41  H   LIG d   1       2.648  -6.973  -9.236  0.00  0.00     0.028 H 
ATOM     42  H   LIG d   1       3.785  -5.766  -9.881  0.00  0.00     0.028 H 
ATOM     43  H   LIG d   1       4.273  -7.473  -9.763  0.00  0.00     0.028 H 
ENDBRANCH   1  40
BRANCH  20  44
ATOM     44  C   LIG d   1       7.349   0.098  -7.540  0.00  0.00     0.026 C 
ATOM     45  H   LIG d   1       6.989   1.093  -7.282  0.00  0.00     0.047 H 
ATOM     46  H   LIG d   1       8.439   0.092  -7.529  0.00  0.00     0.047 H 
BRANCH  44  47
ATOM     47  C   LIG d   1       6.851  -0.280  -8.937  0.00  0.00    -0.011 C 
ATOM     48  H   LIG d   1       7.657  -0.146  -9.658  0.00  0.00     0.033 H 
ATOM     49  H   LIG d   1       6.530  -1.322  -8.938  0.00  0.00     0.033 H 
BRANCH  47  50
ATOM     50  C   LIG d   1       5.688   0.603  -9.310  0.00  0.00    -0.046 A 
ATOM     51  C   LIG d   1       4.650   0.093 -10.068  0.00  0.00    -0.059 A 
ATOM     52  C   LIG d   1       3.581   0.901 -10.408  0.00  0.00    -0.061 A 
ATOM     53  H   LIG d   1       4.673  -0.937 -10.392  0.00  0.00     0.062 H 
ATOM     54  C   LIG d   1       3.553   2.220  -9.997  0.00  0.00    -0.062 A 
ATOM     55  H   LIG d   1       2.768   0.501 -10.996  0.00  0.00     0.062 H 
ATOM     56  C   LIG d   1       4.594   2.731  -9.244  0.00  0.00    -0.061 A 
ATOM     57  H   LIG d   1       2.720   2.852 -10.265  0.00  0.00     0.062 H 
ATOM     58  C   LIG d   1       5.661   1.922  -8.902  0.00  0.00    -0.059 A 
ATOM     59  H   LIG d   1       4.573   3.762  -8.923  0.00  0.00     0.062 H 
ATOM     60  H   LIG d   1       6.474   2.322  -8.313  0.00  0.00     0.062 H 
ENDBRANCH  47  50
ENDBRANCH  44  47
ENDBRANCH  20  44
TORSDOF 7
ENDMDL
MODEL 5
REMARK VINA RESULT:      -7.5      2.612      5.012
REMARK  7 active torsions:
REMARK  status: ('A' for Active; 'I' for Inactive)
REMARK    1  A    between atoms: C_1  and  C_2 
REMARK    2  A    between atoms: C_16  and  C_19 
REMARK    3  A    between atoms: C_19  and  C_20 
REMARK    4  A    between atoms: C_20  and  C_21 
REMARK       I    between atoms: C_21  and  N_23 
REMARK    5  A    between atoms: N_26  and  C_29 
REMARK    6  A    between atoms: C_29  and  C_30 
REMARK    7  A    between atoms: C_30  and  C_31 
ROOT
ATOM      1  C   LIG d   1       3.735  -0.555 -10.860  0.00  0.00    -0.027 A 
ATOM      2  C   LIG d   1       2.680  -1.374 -11.208  0.00  0.00    -0.039 A 
ATOM      3  C   LIG d   1       2.069  -2.169 -10.256  0.00  0.00     0.042 A 
ATOM      4  C   LIG d   1       2.519  -2.143  -8.946  0.00  0.00    -0.032 A 
ATOM      5  C   LIG d   1       3.571  -1.328  -8.594  0.00  0.00     0.036 A 
ATOM      6  C   LIG d   1       4.197  -0.528  -9.547  0.00  0.00     0.046 A 
ATOM      7  N   LIG d   1       5.235   0.198  -8.959  0.00  0.00    -0.280 N 
ATOM      8  C   LIG d   1       5.360  -0.066  -7.643  0.00  0.00     0.274 A 
ATOM      9  O   LIG d   1       6.171   0.416  -6.881  0.00  0.00    -0.269 OA
ATOM     10  C   LIG d   1       4.287  -1.064  -7.301  0.00  0.00     0.106 A 
ATOM     11  C   LIG d   1       4.898  -2.346  -6.722  0.00  0.00     0.111 A 
ATOM     12  H   LIG d   1       4.419  -3.247  -7.104  0.00  0.00     0.047 H 
ATOM     13  C   LIG d   1       4.749  -2.191  -5.183  0.00  0.00     0.096 A 
ATOM     14  H   LIG d   1       4.193  -3.010  -4.726  0.00  0.00     0.046 H 
ATOM     15  C   LIG d   1       4.062  -0.823  -4.987  0.00  0.00    -0.009 C 
ATOM     16  H   LIG d   1       4.806  -0.047  -4.808  0.00  0.00     0.086 H 
ATOM     17  N   LIG d   1       3.368  -0.552  -6.267  0.00  0.00     0.245 N 
ATOM     18  C   LIG d   1       6.180  -2.117  -4.700  0.00  0.00     0.231 A 
ATOM     19  O   LIG d   1       6.524  -1.994  -3.544  0.00  0.00    -0.275 OA
ATOM     20  N   LIG d   1       7.008  -2.207  -5.747  0.00  0.00    -0.241 N 
ATOM     21  C   LIG d   1       6.394  -2.345  -6.944  0.00  0.00     0.232 A 
ATOM     22  O   LIG d   1       6.942  -2.449  -8.021  0.00  0.00    -0.275 OA
ATOM     23 CL   LIG d   1       0.743  -3.197 -10.701  0.00  0.00    -0.084 Cl
ATOM     24  H   LIG d   1       2.329  -1.393 -12.229  0.00  0.00     0.064 H 
ATOM     25  H   LIG d   1       2.043  -2.763  -8.200  0.00  0.00     0.064 H 
ATOM     26  H   LIG d   1       5.801   0.820  -9.441  0.00  0.00     0.155 HD
ATOM     27  H   LIG d   1       3.216   0.437  -6.390  0.00  0.00     0.203 HD
ATOM     28  H   LIG d   1       2.491  -1.052  -6.295  0.00  0.00     0.203 HD
ENDROOT
BRANCH  15  29
ATOM     29  C   LIG d   1       3.069  -0.886  -3.826  0.00  0.00    -0.001 C 
ATOM     30  H   LIG d   1       2.054  -0.956  -4.218  0.00  0.00     0.033 H 
ATOM     31  H   LIG d   1       3.282  -1.762  -3.212  0.00  0.00     0.033 H 
BRANCH  29  32
ATOM     32  C   LIG d   1       3.200   0.377  -2.972  0.00  0.00     0.029 C 
ATOM     33  H   LIG d   1       3.467   1.220  -3.610  0.00  0.00     0.036 H 
ATOM     34  H   LIG d   1       2.249   0.582  -2.480  0.00  0.00     0.036 H 
BRANCH  32  35
ATOM     35  C   LIG d   1       4.271   0.173  -1.932  0.00  0.00     0.211 C 
ATOM     36  O   LIG d   1       4.888   1.124  -1.502  0.00  0.00    -0.276 OA
ATOM     37  N   LIG d   1       4.542  -1.067  -1.479  0.00  0.00    -0.329 N 
ATOM     38  H   LIG d   1       4.049  -1.828  -1.823  0.00  0.00     0.145 HD
ATOM     39  H   LIG d   1       5.232  -1.198  -0.809  0.00  0.00     0.145 HD
ENDBRANCH  32  35
ENDBRANCH  29  32
ENDBRANCH  15  29
BRANCH   1  40
ATOM     40  C   LIG d   1       4.394   0.307 -11.905  0.00  0.00    -0.038 C 
ATOM     41  H   LIG d   1       5.476   0.243 -11.800  0.00  0.00     0.028 H 
ATOM     42  H   LIG d   1       4.104  -0.039 -12.897  0.00  0.00     0.028 H 
ATOM     43  H   LIG d   1       4.076   1.342 -11.774  0.00  0.00     0.028 H 
ENDBRANCH   1  40
BRANCH  20  44
ATOM     44  C   LIG d   1       8.466  -2.166  -5.610  0.00  0.00     0.026 C 
ATOM     45  H   LIG d   1       8.877  -1.445  -6.317  0.00  0.00     0.047 H 
ATOM     46  H   LIG d   1       8.728  -1.868  -4.595  0.00  0.00     0.047 H 
BRANCH  44  47
ATOM     47  C   LIG d   1       9.045  -3.553  -5.900  0.00  0.00    -0.011 C 
ATOM     48  H   LIG d   1       8.352  -4.111  -6.529  0.00  0.00     0.033 H 
ATOM     49  H   LIG d   1      10.000  -3.448  -6.416  0.00  0.00     0.033 H 
BRANCH  47  50
ATOM     50  C   LIG d   1       9.255  -4.291  -4.603  0.00  0.00    -0.046 A 
ATOM     51  C   LIG d   1       9.110  -5.665  -4.560  0.00  0.00    -0.059 A 
ATOM     52  C   LIG d   1       9.307  -6.343  -3.371  0.00  0.00    -0.061 A 
ATOM     53  H   LIG d   1       8.847  -6.209  -5.455  0.00  0.00     0.062 H 
ATOM     54  C   LIG d   1       9.639  -5.647  -2.224  0.00  0.00    -0.062 A 
ATOM     55  H   LIG d   1       9.198  -7.417  -3.338  0.00  0.00     0.062 H 
ATOM     56  C   LIG d   1       9.778  -4.271  -2.267  0.00  0.00    -0.061 A 
ATOM     57  H   LIG d   1       9.790  -6.176  -1.295  0.00  0.00     0.062 H 
ATOM     58  C   LIG d   1       9.585  -3.594  -3.457  0.00  0.00    -0.059 A 
ATOM     59  H   LIG d   1      10.038  -3.727  -1.371  0.00  0.00     0.062 H 
ATOM     60  H   LIG d   1       9.695  -2.520  -3.490  0.00  0.00     0.062 H 
ENDBRANCH  47  50
ENDBRANCH  44  47
ENDBRANCH  20  44
TORSDOF 7
ENDMDL
MODEL 6
REMARK VINA RESULT:      -7.4      2.712      4.834
REMARK  7 active torsions:
REMARK  status: ('A' for Active; 'I' for Inactive)
REMARK    1  A    between atoms: C_1  and  C_2 
REMARK    2  A    between atoms: C_16  and  C_19 
REMARK    3  A    between atoms: C_19  and  C_20 
REMARK    4  A    between atoms: C_20  and  C_21 
REMARK       I    between atoms: C_21  and  N_23 
REMARK    5  A    between atoms: N_26  and  C_29 
REMARK    6  A    between atoms: C_29  and  C_30 
REMARK    7  A    between atoms: C_30  and  C_31 
ROOT
ATOM      1  C   LIG d   1       3.552  -0.628 -11.075  0.00  0.00    -0.027 A 
ATOM      2  C   LIG d   1       2.588  -1.580 -11.334  0.00  0.00    -0.039 A 
ATOM      3  C   LIG d   1       2.095  -2.370 -10.310  0.00  0.00     0.042 A 
ATOM      4  C   LIG d   1       2.572  -2.203  -9.021  0.00  0.00    -0.032 A 
ATOM      5  C   LIG d   1       3.534  -1.254  -8.760  0.00  0.00     0.036 A 
ATOM      6  C   LIG d   1       4.042  -0.459  -9.783  0.00  0.00     0.046 A 
ATOM      7  N   LIG d   1       5.007   0.418  -9.280  0.00  0.00    -0.280 N 
ATOM      8  C   LIG d   1       5.194   0.261  -7.955  0.00  0.00     0.274 A 
ATOM      9  O   LIG d   1       5.965   0.882  -7.254  0.00  0.00    -0.269 OA
ATOM     10  C   LIG d   1       4.250  -0.823  -7.511  0.00  0.00     0.106 A 
ATOM     11  C   LIG d   1       5.016  -1.986  -6.870  0.00  0.00     0.111 A 
ATOM     12  H   LIG d   1       4.631  -2.959  -7.174  0.00  0.00     0.047 H 
ATOM     13  C   LIG d   1       4.890  -1.742  -5.340  0.00  0.00     0.096 A 
ATOM     14  H   LIG d   1       4.442  -2.584  -4.812  0.00  0.00     0.046 H 
ATOM     15  C   LIG d   1       4.058  -0.448  -5.213  0.00  0.00    -0.009 C 
ATOM     16  H   LIG d   1       4.715   0.417  -5.110  0.00  0.00     0.086 H 
ATOM     17  N   LIG d   1       3.306  -0.345  -6.484  0.00  0.00     0.245 N 
ATOM     18  C   LIG d   1       6.315  -1.476  -4.911  0.00  0.00     0.231 A 
ATOM     19  O   LIG d   1       6.673  -1.236  -3.777  0.00  0.00    -0.275 OA
ATOM     20  N   LIG d   1       7.121  -1.547  -5.977  0.00  0.00    -0.241 N 
ATOM     21  C   LIG d   1       6.496  -1.835  -7.141  0.00  0.00     0.232 A 
ATOM     22  O   LIG d   1       7.025  -1.953  -8.226  0.00  0.00    -0.275 OA
ATOM     23 CL   LIG d   1       0.882  -3.567 -10.642  0.00  0.00    -0.084 Cl
ATOM     24  H   LIG d   1       2.215  -1.709 -12.339  0.00  0.00     0.064 H 
ATOM     25  H   LIG d   1       2.189  -2.819  -8.220  0.00  0.00     0.064 H 
ATOM     26  H   LIG d   1       5.486   1.064  -9.821  0.00  0.00     0.155 HD
ATOM     27  H   LIG d   1       3.040   0.610  -6.666  0.00  0.00     0.203 HD
ATOM     28  H   LIG d   1       2.491  -0.940  -6.449  0.00  0.00     0.203 HD
ENDROOT
BRANCH  15  29
ATOM     29  C   LIG d   1       3.109  -0.539  -4.017  0.00  0.00    -0.001 C 
ATOM     30  H   LIG d   1       2.079  -0.577  -4.372  0.00  0.00     0.033 H 
ATOM     31  H   LIG d   1       3.329  -1.442  -3.446  0.00  0.00     0.033 H 
BRANCH  29  32
ATOM     32  C   LIG d   1       3.296   0.687  -3.121  0.00  0.00     0.029 C 
ATOM     33  H   LIG d   1       3.691   1.512  -3.713  0.00  0.00     0.036 H 
ATOM     34  H   LIG d   1       2.334   0.974  -2.695  0.00  0.00     0.036 H 
BRANCH  32  35
ATOM     35  C   LIG d   1       4.259   0.357  -2.011  0.00  0.00     0.211 C 
ATOM     36  O   LIG d   1       4.874   1.244  -1.457  0.00  0.00    -0.276 OA
ATOM     37  N   LIG d   1       4.436  -0.924  -1.631  0.00  0.00    -0.329 N 
ATOM     38  H   LIG d   1       3.944  -1.634  -2.072  0.00  0.00     0.145 HD
ATOM     39  H   LIG d   1       5.056  -1.136  -0.915  0.00  0.00     0.145 HD
ENDBRANCH  32  35
ENDBRANCH  29  32
ENDBRANCH  15  29
BRANCH   1  40
ATOM     40  C   LIG d   1       4.082   0.227 -12.198  0.00  0.00    -0.038 C 
ATOM     41  H   LIG d   1       3.485   0.062 -13.094  0.00  0.00     0.028 H 
ATOM     42  H   LIG d   1       4.026   1.278 -11.912  0.00  0.00     0.028 H 
ATOM     43  H   LIG d   1       5.120  -0.040 -12.398  0.00  0.00     0.028 H 
ENDBRANCH   1  40
BRANCH  20  44
ATOM     44  C   LIG d   1       8.569  -1.335  -5.892  0.00  0.00     0.026 C 
ATOM     45  H   LIG d   1       8.885  -1.397  -4.851  0.00  0.00     0.047 H 
ATOM     46  H   LIG d   1       9.082  -2.101  -6.473  0.00  0.00     0.047 H 
BRANCH  44  47
ATOM     47  C   LIG d   1       8.916   0.047  -6.450  0.00  0.00    -0.011 C 
ATOM     48  H   LIG d   1       9.710  -0.050  -7.190  0.00  0.00     0.033 H 
ATOM     49  H   LIG d   1       8.033   0.481  -6.919  0.00  0.00     0.033 H 
BRANCH  47  50
ATOM     50  C   LIG d   1       9.378   0.940  -5.328  0.00  0.00    -0.046 A 
ATOM     51  C   LIG d   1      10.715   0.971  -4.977  0.00  0.00    -0.059 A 
ATOM     52  C   LIG d   1      11.141   1.793  -3.950  0.00  0.00    -0.061 A 
ATOM     53  H   LIG d   1      11.427   0.356  -5.506  0.00  0.00     0.062 H 
ATOM     54  C   LIG d   1      10.228   2.578  -3.269  0.00  0.00    -0.062 A 
ATOM     55  H   LIG d   1      12.185   1.821  -3.678  0.00  0.00     0.062 H 
ATOM     56  C   LIG d   1       8.891   2.542  -3.618  0.00  0.00    -0.061 A 
ATOM     57  H   LIG d   1      10.560   3.218  -2.466  0.00  0.00     0.062 H 
ATOM     58  C   LIG d   1       8.466   1.723  -4.647  0.00  0.00    -0.059 A 
ATOM     59  H   LIG d   1       8.177   3.155  -3.086  0.00  0.00     0.062 H 
ATOM     60  H   LIG d   1       7.421   1.696  -4.919  0.00  0.00     0.062 H 
ENDBRANCH  47  50
ENDBRANCH  44  47
ENDBRANCH  20  44
TORSDOF 7
ENDMDL
MODEL 7
REMARK VINA RESULT:      -7.4      3.303      7.075
REMARK  7 active torsions:
REMARK  status: ('A' for Active; 'I' for Inactive)
REMARK    1  A    between atoms: C_1  and  C_2 
REMARK    2  A    between atoms: C_16  and  C_19 
REMARK    3  A    between atoms: C_19  and  C_20 
REMARK    4  A    between atoms: C_20  and  C_21 
REMARK       I    between atoms: C_21  and  N_23 
REMARK    5  A    between atoms: N_26  and  C_29 
REMARK    6  A    between atoms: C_29  and  C_30 
REMARK    7  A    between atoms: C_30  and  C_31 
ROOT
ATOM      1  C   LIG d   1      10.889   1.340  -5.040  0.00  0.00    -0.027 A 
ATOM      2  C   LIG d   1      10.808   2.587  -4.456  0.00  0.00    -0.039 A 
ATOM      3  C   LIG d   1       9.641   2.994  -3.836  0.00  0.00     0.042 A 
ATOM      4  C   LIG d   1       8.547   2.144  -3.803  0.00  0.00    -0.032 A 
ATOM      5  C   LIG d   1       8.623   0.899  -4.385  0.00  0.00     0.036 A 
ATOM      6  C   LIG d   1       9.792   0.483  -5.017  0.00  0.00     0.046 A 
ATOM      7  N   LIG d   1       9.627  -0.804  -5.536  0.00  0.00    -0.280 N 
ATOM      8  C   LIG d   1       8.396  -1.295  -5.298  0.00  0.00     0.274 A 
ATOM      9  O   LIG d   1       7.972  -2.381  -5.631  0.00  0.00    -0.269 OA
ATOM     10  C   LIG d   1       7.652  -0.238  -4.525  0.00  0.00     0.106 A 
ATOM     11  C   LIG d   1       6.383   0.191  -5.269  0.00  0.00     0.111 A 
ATOM     12  H   LIG d   1       6.223   1.269  -5.235  0.00  0.00     0.047 H 
ATOM     13  C   LIG d   1       5.239  -0.609  -4.586  0.00  0.00     0.096 A 
ATOM     14  H   LIG d   1       4.454   0.033  -4.185  0.00  0.00     0.046 H 
ATOM     15  C   LIG d   1       5.938  -1.446  -3.495  0.00  0.00    -0.009 C 
ATOM     16  H   LIG d   1       6.163  -2.445  -3.869  0.00  0.00     0.086 H 
ATOM     17  N   LIG d   1       7.203  -0.731  -3.210  0.00  0.00     0.245 N 
ATOM     18  C   LIG d   1       4.743  -1.517  -5.688  0.00  0.00     0.231 A 
ATOM     19  O   LIG d   1       3.840  -2.320  -5.581  0.00  0.00    -0.275 OA
ATOM     20  N   LIG d   1       5.456  -1.300  -6.799  0.00  0.00    -0.241 N 
ATOM     21  C   LIG d   1       6.410  -0.348  -6.681  0.00  0.00     0.232 A 
ATOM     22  O   LIG d   1       7.167   0.016  -7.556  0.00  0.00    -0.275 OA
ATOM     23 CL   LIG d   1       9.546   4.564  -3.102  0.00  0.00    -0.084 Cl
ATOM     24  H   LIG d   1      11.662   3.249  -4.480  0.00  0.00     0.064 H 
ATOM     25  H   LIG d   1       7.633   2.459  -3.320  0.00  0.00     0.064 H 
ATOM     26  H   LIG d   1      10.319  -1.287  -6.014  0.00  0.00     0.155 HD
ATOM     27  H   LIG d   1       7.888  -1.359  -2.816  0.00  0.00     0.203 HD
ATOM     28  H   LIG d   1       7.028   0.041  -2.584  0.00  0.00     0.203 HD
ENDROOT
BRANCH  15  29
ATOM     29  C   LIG d   1       5.061  -1.532  -2.245  0.00  0.00    -0.001 C 
ATOM     30  H   LIG d   1       4.756  -2.567  -2.085  0.00  0.00     0.033 H 
ATOM     31  H   LIG d   1       5.625  -1.183  -1.379  0.00  0.00     0.033 H 
BRANCH  29  32
ATOM     32  C   LIG d   1       3.820  -0.657  -2.430  0.00  0.00     0.029 C 
ATOM     33  H   LIG d   1       3.480  -0.723  -3.463  0.00  0.00     0.036 H 
ATOM     34  H   LIG d   1       3.029  -1.004  -1.765  0.00  0.00     0.036 H 
BRANCH  32  35
ATOM     35  C   LIG d   1       4.160   0.774  -2.102  0.00  0.00     0.211 C 
ATOM     36  O   LIG d   1       5.012   1.020  -1.274  0.00  0.00    -0.276 OA
ATOM     37  N   LIG d   1       3.520   1.780  -2.730  0.00  0.00    -0.329 N 
ATOM     38  H   LIG d   1       2.840   1.583  -3.393  0.00  0.00     0.145 HD
ATOM     39  H   LIG d   1       3.740   2.700  -2.519  0.00  0.00     0.145 HD
ENDBRANCH  32  35
ENDBRANCH  29  32
ENDBRANCH  15  29
BRANCH   1  40
ATOM     40  C   LIG d   1      12.166   0.907  -5.712  0.00  0.00    -0.038 C 
ATOM     41  H   LIG d   1      11.960   0.642  -6.749  0.00  0.00     0.028 H 
ATOM     42  H   LIG d   1      12.887   1.723  -5.683  0.00  0.00     0.028 H 
ATOM     43  H   LIG d   1      12.576   0.041  -5.190  0.00  0.00     0.028 H 
ENDBRANCH   1  40
BRANCH  20  44
ATOM     44  C   LIG d   1       5.219  -2.027  -8.048  0.00  0.00     0.026 C 
ATOM     45  H   LIG d   1       5.935  -1.699  -8.801  0.00  0.00     0.047 H 
ATOM     46  H   LIG d   1       5.340  -3.096  -7.874  0.00  0.00     0.047 H 
BRANCH  44  47
ATOM     47  C   LIG d   1       3.797  -1.748  -8.540  0.00  0.00    -0.011 C 
ATOM     48  H   LIG d   1       3.571  -2.398  -9.385  0.00  0.00     0.033 H 
ATOM     49  H   LIG d   1       3.090  -1.940  -7.733  0.00  0.00     0.033 H 
BRANCH  47  50
ATOM     50  C   LIG d   1       3.688  -0.308  -8.969  0.00  0.00    -0.046 A 
ATOM     51  C   LIG d   1       4.350   0.126 -10.103  0.00  0.00    -0.059 A 
ATOM     52  C   LIG d   1       4.247   1.447 -10.500  0.00  0.00    -0.061 A 
ATOM     53  H   LIG d   1       4.944  -0.566 -10.680  0.00  0.00     0.062 H 
ATOM     54  C   LIG d   1       3.489   2.335  -9.760  0.00  0.00    -0.062 A 
ATOM     55  H   LIG d   1       4.760   1.785 -11.388  0.00  0.00     0.062 H 
ATOM     56  C   LIG d   1       2.832   1.901  -8.623  0.00  0.00    -0.061 A 
ATOM     57  H   LIG d   1       3.411   3.366 -10.068  0.00  0.00     0.062 H 
ATOM     58  C   LIG d   1       2.932   0.580  -8.229  0.00  0.00    -0.059 A 
ATOM     59  H   LIG d   1       2.240   2.595  -8.044  0.00  0.00     0.062 H 
ATOM     60  H   LIG d   1       2.418   0.242  -7.341  0.00  0.00     0.062 H 
ENDBRANCH  47  50
ENDBRANCH  44  47
ENDBRANCH  20  44
TORSDOF 7
ENDMDL
MODEL 8
REMARK VINA RESULT:      -7.3      3.165      7.508
REMARK  7 active torsions:
REMARK  status: ('A' for Active; 'I' for Inactive)
REMARK    1  A    between atoms: C_1  and  C_2 
REMARK    2  A    between atoms: C_16  and  C_19 
REMARK    3  A    between atoms: C_19  and  C_20 
REMARK    4  A    between atoms: C_20  and  C_21 
REMARK       I    between atoms: C_21  and  N_23 
REMARK    5  A    between atoms: N_26  and  C_29 
REMARK    6  A    between atoms: C_29  and  C_30 
REMARK    7  A    between atoms: C_30  and  C_31 
ROOT
ATOM      1  C   LIG d   1       7.979  -5.682  -6.192  0.00  0.00    -0.027 A 
ATOM      2  C   LIG d   1       9.022  -5.635  -5.289  0.00  0.00    -0.039 A 
ATOM      3  C   LIG d   1       9.023  -4.699  -4.271  0.00  0.00     0.042 A 
ATOM      4  C   LIG d   1       7.972  -3.803  -4.159  0.00  0.00    -0.032 A 
ATOM      5  C   LIG d   1       6.930  -3.847  -5.057  0.00  0.00     0.036 A 
ATOM      6  C   LIG d   1       6.922  -4.782  -6.089  0.00  0.00     0.046 A 
ATOM      7  N   LIG d   1       5.776  -4.627  -6.871  0.00  0.00    -0.280 N 
ATOM      8  C   LIG d   1       4.991  -3.624  -6.431  0.00  0.00     0.274 A 
ATOM      9  O   LIG d   1       3.938  -3.263  -6.913  0.00  0.00    -0.269 OA
ATOM     10  C   LIG d   1       5.668  -3.048  -5.217  0.00  0.00     0.106 A 
ATOM     11  C   LIG d   1       5.966  -1.557  -5.414  0.00  0.00     0.111 A 
ATOM     12  H   LIG d   1       6.950  -1.274  -5.041  0.00  0.00     0.047 H 
ATOM     13  C   LIG d   1       4.810  -0.826  -4.677  0.00  0.00     0.096 A 
ATOM     14  H   LIG d   1       5.164  -0.141  -3.905  0.00  0.00     0.046 H 
ATOM     15  C   LIG d   1       3.925  -1.956  -4.109  0.00  0.00    -0.009 C 
ATOM     16  H   LIG d   1       3.104  -2.175  -4.792  0.00  0.00     0.086 H 
ATOM     17  N   LIG d   1       4.816  -3.135  -4.017  0.00  0.00     0.245 N 
ATOM     18  C   LIG d   1       4.078  -0.117  -5.794  0.00  0.00     0.231 A 
ATOM     19  O   LIG d   1       3.096   0.582  -5.656  0.00  0.00    -0.275 OA
ATOM     20  N   LIG d   1       4.680  -0.380  -6.959  0.00  0.00    -0.241 N 
ATOM     21  C   LIG d   1       5.766  -1.182  -6.865  0.00  0.00     0.232 A 
ATOM     22  O   LIG d   1       6.466  -1.547  -7.786  0.00  0.00    -0.275 OA
ATOM     23 CL   LIG d   1      10.338  -4.644  -3.139  0.00  0.00    -0.084 Cl
ATOM     24  H   LIG d   1       9.841  -6.334  -5.377  0.00  0.00     0.064 H 
ATOM     25  H   LIG d   1       7.970  -3.071  -3.365  0.00  0.00     0.064 H 
ATOM     26  H   LIG d   1       5.568  -5.178  -7.642  0.00  0.00     0.155 HD
ATOM     27  H   LIG d   1       4.280  -3.990  -4.026  0.00  0.00     0.203 HD
ATOM     28  H   LIG d   1       5.377  -3.077  -3.180  0.00  0.00     0.203 HD
ENDROOT
BRANCH  15  29
ATOM     29  C   LIG d   1       3.382  -1.568  -2.733  0.00  0.00    -0.001 C 
ATOM     30  H   LIG d   1       2.552  -0.870  -2.853  0.00  0.00     0.033 H 
ATOM     31  H   LIG d   1       3.033  -2.461  -2.214  0.00  0.00     0.033 H 
BRANCH  29  32
ATOM     32  C   LIG d   1       4.492  -0.905  -1.914  0.00  0.00     0.029 C 
ATOM     33  H   LIG d   1       4.496  -1.318  -0.906  0.00  0.00     0.036 H 
ATOM     34  H   LIG d   1       5.455  -1.095  -2.388  0.00  0.00     0.036 H 
BRANCH  32  35
ATOM     35  C   LIG d   1       4.249   0.581  -1.849  0.00  0.00     0.211 C 
ATOM     36  O   LIG d   1       5.008   1.293  -1.225  0.00  0.00    -0.276 OA
ATOM     37  N   LIG d   1       3.190   1.120  -2.484  0.00  0.00    -0.329 N 
ATOM     38  H   LIG d   1       2.583   0.551  -2.984  0.00  0.00     0.145 HD
ATOM     39  H   LIG d   1       3.035   2.076  -2.442  0.00  0.00     0.145 HD
ENDBRANCH  32  35
ENDBRANCH  29  32
ENDBRANCH  15  29
BRANCH   1  40
ATOM     40  C   LIG d   1       7.988  -6.707  -7.297  0.00  0.00    -0.038 C 
ATOM     41  H   LIG d   1       8.959  -6.699  -7.791  0.00  0.00     0.028 H 
ATOM     42  H   LIG d   1       7.801  -7.695  -6.877  0.00  0.00     0.028 H 
ATOM     43  H   LIG d   1       7.209  -6.466  -8.021  0.00  0.00     0.028 H 
ENDBRANCH   1  40
BRANCH  20  44
ATOM     44  C   LIG d   1       4.209   0.161  -8.236  0.00  0.00     0.026 C 
ATOM     45  H   LIG d   1       4.233   1.249  -8.200  0.00  0.00     0.047 H 
ATOM     46  H   LIG d   1       4.856  -0.190  -9.040  0.00  0.00     0.047 H 
BRANCH  44  47
ATOM     47  C   LIG d   1       2.776  -0.311  -8.492  0.00  0.00    -0.011 C 
ATOM     48  H   LIG d   1       2.568  -1.189  -7.881  0.00  0.00     0.033 H 
ATOM     49  H   LIG d   1       2.079   0.486  -8.233  0.00  0.00     0.033 H 
BRANCH  47  50
ATOM     50  C   LIG d   1       2.615  -0.662  -9.949  0.00  0.00    -0.046 A 
ATOM     51  C   LIG d   1       1.389  -1.089 -10.425  0.00  0.00    -0.059 A 
ATOM     52  C   LIG d   1       1.240  -1.407 -11.762  0.00  0.00    -0.061 A 
ATOM     53  H   LIG d   1       0.547  -1.170  -9.753  0.00  0.00     0.062 H 
ATOM     54  C   LIG d   1       2.318  -1.307 -12.621  0.00  0.00    -0.062 A 
ATOM     55  H   LIG d   1       0.282  -1.735 -12.135  0.00  0.00     0.062 H 
ATOM     56  C   LIG d   1       3.546  -0.886 -12.143  0.00  0.00    -0.061 A 
ATOM     57  H   LIG d   1       2.202  -1.558 -13.665  0.00  0.00     0.062 H 
ATOM     58  C   LIG d   1       3.693  -0.564 -10.807  0.00  0.00    -0.059 A 
ATOM     59  H   LIG d   1       4.389  -0.807 -12.814  0.00  0.00     0.062 H 
ATOM     60  H   LIG d   1       4.652  -0.235 -10.434  0.00  0.00     0.062 H 
ENDBRANCH  47  50
ENDBRANCH  44  47
ENDBRANCH  20  44
TORSDOF 7
ENDMDL
MODEL 9
REMARK VINA RESULT:      -7.2      4.158      6.493
REMARK  7 active torsions:
REMARK  status: ('A' for Active; 'I' for Inactive)
REMARK    1  A    between atoms: C_1  and  C_2 
REMARK    2  A    between atoms: C_16  and  C_19 
REMARK    3  A    between atoms: C_19  and  C_20 
REMARK    4  A    between atoms: C_20  and  C_21 
REMARK       I    between atoms: C_21  and  N_23 
REMARK    5  A    between atoms: N_26  and  C_29 
REMARK    6  A    between atoms: C_29  and  C_30 
REMARK    7  A    between atoms: C_30  and  C_31 
ROOT
ATOM      1  C   LIG d   1       8.041  -4.673  -7.596  0.00  0.00    -0.027 A 
ATOM      2  C   LIG d   1       8.348  -5.829  -6.909  0.00  0.00    -0.039 A 
ATOM      3  C   LIG d   1       8.082  -5.929  -5.555  0.00  0.00     0.042 A 
ATOM      4  C   LIG d   1       7.504  -4.862  -4.886  0.00  0.00    -0.032 A 
ATOM      5  C   LIG d   1       7.196  -3.707  -5.569  0.00  0.00     0.036 A 
ATOM      6  C   LIG d   1       7.466  -3.594  -6.930  0.00  0.00     0.046 A 
ATOM      7  N   LIG d   1       7.077  -2.336  -7.396  0.00  0.00    -0.280 N 
ATOM      8  C   LIG d   1       6.555  -1.570  -6.418  0.00  0.00     0.274 A 
ATOM      9  O   LIG d   1       6.136  -0.437  -6.530  0.00  0.00    -0.269 OA
ATOM     10  C   LIG d   1       6.580  -2.398  -5.162  0.00  0.00     0.106 A 
ATOM     11  C   LIG d   1       7.398  -1.705  -4.067  0.00  0.00     0.111 A 
ATOM     12  H   LIG d   1       8.032  -2.400  -3.515  0.00  0.00     0.047 H 
ATOM     13  C   LIG d   1       6.338  -1.013  -3.165  0.00  0.00     0.096 A 
ATOM     14  H   LIG d   1       6.399  -1.327  -2.122  0.00  0.00     0.046 H 
ATOM     15  C   LIG d   1       4.981  -1.359  -3.813  0.00  0.00    -0.009 C 
ATOM     16  H   LIG d   1       4.665  -0.558  -4.481  0.00  0.00     0.086 H 
ATOM     17  N   LIG d   1       5.230  -2.588  -4.600  0.00  0.00     0.245 N 
ATOM     18  C   LIG d   1       6.632   0.458  -3.348  0.00  0.00     0.231 A 
ATOM     19  O   LIG d   1       6.030   1.366  -2.814  0.00  0.00    -0.275 OA
ATOM     20  N   LIG d   1       7.659   0.605  -4.194  0.00  0.00    -0.241 N 
ATOM     21  C   LIG d   1       8.177  -0.554  -4.661  0.00  0.00     0.232 A 
ATOM     22  O   LIG d   1       9.109  -0.661  -5.429  0.00  0.00    -0.275 OA
ATOM     23 CL   LIG d   1       8.471  -7.386  -4.696  0.00  0.00    -0.084 Cl
ATOM     24  H   LIG d   1       8.797  -6.662  -7.430  0.00  0.00     0.064 H 
ATOM     25  H   LIG d   1       7.295  -4.937  -3.829  0.00  0.00     0.064 H 
ATOM     26  H   LIG d   1       7.172  -2.046  -8.317  0.00  0.00     0.155 HD
ATOM     27  H   LIG d   1       4.550  -2.683  -5.339  0.00  0.00     0.203 HD
ATOM     28  H   LIG d   1       5.209  -3.394  -3.994  0.00  0.00     0.203 HD
ENDROOT
BRANCH  15  29
ATOM     29  C   LIG d   1       3.922  -1.600  -2.736  0.00  0.00    -0.001 C 
ATOM     30  H   LIG d   1       3.235  -2.379  -3.069  0.00  0.00     0.033 H 
ATOM     31  H   LIG d   1       4.408  -1.916  -1.812  0.00  0.00     0.033 H 
BRANCH  29  32
ATOM     32  C   LIG d   1       3.144  -0.307  -2.485  0.00  0.00     0.029 C 
ATOM     33  H   LIG d   1       2.247  -0.529  -1.907  0.00  0.00     0.036 H 
ATOM     34  H   LIG d   1       3.770   0.391  -1.928  0.00  0.00     0.036 H 
BRANCH  32  35
ATOM     35  C   LIG d   1       2.754   0.309  -3.803  0.00  0.00     0.211 C 
ATOM     36  O   LIG d   1       2.026  -0.294  -4.563  0.00  0.00    -0.276 OA
ATOM     37  N   LIG d   1       3.212   1.531  -4.138  0.00  0.00    -0.329 N 
ATOM     38  H   LIG d   1       3.794   2.015  -3.530  0.00  0.00     0.145 HD
ATOM     39  H   LIG d   1       2.961   1.928  -4.987  0.00  0.00     0.145 HD
ENDBRANCH  32  35
ENDBRANCH  29  32
ENDBRANCH  15  29
BRANCH   1  40
ATOM     40  C   LIG d   1       8.335  -4.576  -9.071  0.00  0.00    -0.038 C 
ATOM     41  H   LIG d   1       7.423  -4.313  -9.606  0.00  0.00     0.028 H 
ATOM     42  H   LIG d   1       9.090  -3.808  -9.241  0.00  0.00     0.028 H 
ATOM     43  H   LIG d   1       8.705  -5.536  -9.431  0.00  0.00     0.028 H 
ENDBRANCH   1  40
BRANCH  20  44
ATOM     44  C   LIG d   1       8.187   1.916  -4.580  0.00  0.00     0.026 C 
ATOM     45  H   LIG d   1       8.543   1.875  -5.609  0.00  0.00     0.047 H 
ATOM     46  H   LIG d   1       7.398   2.664  -4.498  0.00  0.00     0.047 H 
BRANCH  44  47
ATOM     47  C   LIG d   1       9.345   2.293  -3.652  0.00  0.00    -0.011 C 
ATOM     48  H   LIG d   1       9.118   1.966  -2.638  0.00  0.00     0.033 H 
ATOM     49  H   LIG d   1      10.258   1.807  -3.996  0.00  0.00     0.033 H 
BRANCH  47  50
ATOM     50  C   LIG d   1       9.536   3.787  -3.670  0.00  0.00    -0.046 A 
ATOM     51  C   LIG d   1       9.220   4.510  -4.805  0.00  0.00    -0.059 A 
ATOM     52  C   LIG d   1       9.391   5.882  -4.821  0.00  0.00    -0.061 A 
ATOM     53  H   LIG d   1       8.836   4.004  -5.679  0.00  0.00     0.062 H 
ATOM     54  C   LIG d   1       9.886   6.530  -3.705  0.00  0.00    -0.062 A 
ATOM     55  H   LIG d   1       9.139   6.447  -5.706  0.00  0.00     0.062 H 
ATOM     56  C   LIG d   1      10.207   5.806  -2.571  0.00  0.00    -0.061 A 
ATOM     57  H   LIG d   1      10.022   7.601  -3.718  0.00  0.00     0.062 H 
ATOM     58  C   LIG d   1      10.032   4.434  -2.555  0.00  0.00    -0.059 A 
ATOM     59  H   LIG d   1      10.594   6.311  -1.699  0.00  0.00     0.062 H 
ATOM     60  H   LIG d   1      10.283   3.869  -1.669  0.00  0.00     0.062 H 
ENDBRANCH  47  50
ENDBRANCH  44  47
ENDBRANCH  20  44
TORSDOF 7
ENDMDL
