MODEL 1
REMARK VINA RESULT:      -6.0      0.000      0.000
REMARK  3 active torsions:
REMARK  status: ('A' for Active; 'I' for Inactive)
REMARK    1  A    between atoms: C_1  and  O_2 
REMARK    2  A    between atoms: O_2  and  C_3 
REMARK    3  A    between atoms: C_3  and  C_5 
ROOT
ATOM      1  C   LIG d   1       4.386  -3.661  -5.672  0.00  0.00     0.342 C 
ATOM      2  O   LIG d   1       5.512  -2.990  -6.224  0.00  0.00    -0.444 OA
ATOM      3  C   LIG d   1       6.672  -3.684  -6.055  0.00  0.00     0.129 A 
ATOM      4  C   LIG d   1       7.009  -4.578  -7.067  0.00  0.00    -0.018 A 
ATOM      5  C   LIG d   1       7.972  -5.542  -6.852  0.00  0.00    -0.040 A 
ATOM      6  C   LIG d   1       8.604  -5.602  -5.622  0.00  0.00     0.042 A 
ATOM      7  C   LIG d   1       8.317  -4.671  -4.650  0.00  0.00    -0.036 A 
ATOM      8  C   LIG d   1       7.379  -3.659  -4.871  0.00  0.00     0.000 A 
ATOM      9  C   LIG d   1       7.258  -2.631  -3.799  0.00  0.00     0.005 C 
ATOM     10  C   LIG d   1       5.921  -2.028  -3.521  0.00  0.00     0.000 A 
ATOM     11  C   LIG d   1       5.936  -0.736  -2.993  0.00  0.00    -0.036 A 
ATOM     12  C   LIG d   1       4.801  -0.179  -2.447  0.00  0.00     0.042 A 
ATOM     13  C   LIG d   1       3.619  -0.898  -2.421  0.00  0.00    -0.040 A 
ATOM     14  C   LIG d   1       3.576  -2.148  -3.001  0.00  0.00    -0.018 A 
ATOM     15  C   LIG d   1       4.713  -2.689  -3.600  0.00  0.00     0.129 A 
ATOM     16  O   LIG d   1       4.558  -3.860  -4.273  0.00  0.00    -0.444 OA
ATOM     17 CL   LIG d   1       4.853   1.428  -1.791  0.00  0.00    -0.084 Cl
ATOM     18 CL   LIG d   1       9.761  -6.857  -5.305  0.00  0.00    -0.084 Cl
ATOM     19  H   LIG d   1       3.492  -3.061  -5.842  0.00  0.00     0.133 H 
ATOM     20  H   LIG d   1       6.513  -4.517  -8.024  0.00  0.00     0.066 H 
ATOM     21  H   LIG d   1       8.230  -6.239  -7.635  0.00  0.00     0.063 H 
ATOM     22  H   LIG d   1       8.827  -4.723  -3.699  0.00  0.00     0.064 H 
ATOM     23  H   LIG d   1       7.939  -1.817  -4.047  0.00  0.00     0.036 H 
ATOM     24  H   LIG d   1       7.614  -3.080  -2.872  0.00  0.00     0.036 H 
ATOM     25  H   LIG d   1       6.852  -0.165  -3.012  0.00  0.00     0.064 H 
ATOM     26  H   LIG d   1       2.738  -0.485  -1.950  0.00  0.00     0.063 H 
ATOM     27  H   LIG d   1       2.656  -2.712  -2.992  0.00  0.00     0.066 H 
ENDROOT
BRANCH   1  28
ATOM     28  C   LIG d   1       4.223  -4.998  -6.348  0.00  0.00     0.390 C 
ATOM     29  O   LIG d   1       3.934  -5.052  -7.519  0.00  0.00    -0.242 OA
BRANCH  28  30
ATOM     30  O   LIG d   1       4.399  -6.130  -5.648  0.00  0.00    -0.463 OA
BRANCH  30  31
ATOM     31  C   LIG d   1       4.696  -7.333  -6.403  0.00  0.00     0.082 C 
ATOM     32  H   LIG d   1       5.713  -7.277  -6.792  0.00  0.00     0.066 H 
ATOM     33  H   LIG d   1       3.995  -7.424  -7.233  0.00  0.00     0.066 H 
ATOM     34  H   LIG d   1       4.603  -8.203  -5.753  0.00  0.00     0.066 H 
ENDBRANCH  30  31
ENDBRANCH  28  30
ENDBRANCH   1  28
TORSDOF 3
ENDMDL
MODEL 2
REMARK VINA RESULT:      -6.0      4.431      6.416
REMARK  3 active torsions:
REMARK  status: ('A' for Active; 'I' for Inactive)
REMARK    1  A    between atoms: C_1  and  O_2 
REMARK    2  A    between atoms: O_2  and  C_3 
REMARK    3  A    between atoms: C_3  and  C_5 
ROOT
ATOM      1  C   LIG d   1       3.349  -0.450  -5.667  0.00  0.00     0.342 C 
ATOM      2  O   LIG d   1       4.439  -1.355  -5.791  0.00  0.00    -0.444 OA
ATOM      3  C   LIG d   1       5.626  -0.802  -5.415  0.00  0.00     0.129 A 
ATOM      4  C   LIG d   1       5.973  -0.941  -4.075  0.00  0.00    -0.018 A 
ATOM      5  C   LIG d   1       6.974  -0.163  -3.530  0.00  0.00    -0.040 A 
ATOM      6  C   LIG d   1       7.632   0.751  -4.336  0.00  0.00     0.042 A 
ATOM      7  C   LIG d   1       7.332   0.833  -5.677  0.00  0.00    -0.036 A 
ATOM      8  C   LIG d   1       6.355   0.016  -6.252  0.00  0.00     0.000 A 
ATOM      9  C   LIG d   1       6.220   0.099  -7.734  0.00  0.00     0.005 C 
ATOM     10  C   LIG d   1       4.868  -0.059  -8.347  0.00  0.00     0.000 A 
ATOM     11  C   LIG d   1       4.848  -0.558  -9.651  0.00  0.00    -0.036 A 
ATOM     12  C   LIG d   1       3.706  -0.498 -10.417  0.00  0.00     0.042 A 
ATOM     13  C   LIG d   1       2.550   0.059  -9.897  0.00  0.00    -0.040 A 
ATOM     14  C   LIG d   1       2.540   0.492  -8.588  0.00  0.00    -0.018 A 
ATOM     15  C   LIG d   1       3.682   0.383  -7.798  0.00  0.00     0.129 A 
ATOM     16  O   LIG d   1       3.556   0.698  -6.481  0.00  0.00    -0.444 OA
ATOM     17 CL   LIG d   1       3.715  -1.120 -12.038  0.00  0.00    -0.084 Cl
ATOM     18 CL   LIG d   1       8.839   1.795  -3.653  0.00  0.00    -0.084 Cl
ATOM     19  H   LIG d   1       2.431  -0.950  -5.977  0.00  0.00     0.133 H 
ATOM     20  H   LIG d   1       5.457  -1.660  -3.458  0.00  0.00     0.066 H 
ATOM     21  H   LIG d   1       7.241  -0.266  -2.489  0.00  0.00     0.063 H 
ATOM     22  H   LIG d   1       7.863   1.542  -6.296  0.00  0.00     0.064 H 
ATOM     23  H   LIG d   1       6.867  -0.664  -8.165  0.00  0.00     0.036 H 
ATOM     24  H   LIG d   1       6.610   1.068  -8.045  0.00  0.00     0.036 H 
ATOM     25  H   LIG d   1       5.743  -0.998 -10.064  0.00  0.00     0.064 H 
ATOM     26  H   LIG d   1       1.666   0.154 -10.509  0.00  0.00     0.063 H 
ATOM     27  H   LIG d   1       1.640   0.921  -8.172  0.00  0.00     0.066 H 
ENDROOT
BRANCH   1  28
ATOM     28  C   LIG d   1       3.219  -0.022  -4.227  0.00  0.00     0.390 C 
ATOM     29  O   LIG d   1       2.822  -0.805  -3.397  0.00  0.00    -0.242 OA
BRANCH  28  30
ATOM     30  O   LIG d   1       3.545   1.229  -3.868  0.00  0.00    -0.463 OA
BRANCH  30  31
ATOM     31  C   LIG d   1       3.740   1.479  -2.451  0.00  0.00     0.082 C 
ATOM     32  H   LIG d   1       4.255   2.430  -2.317  0.00  0.00     0.066 H 
ATOM     33  H   LIG d   1       4.341   0.677  -2.020  0.00  0.00     0.066 H 
ATOM     34  H   LIG d   1       2.772   1.516  -1.951  0.00  0.00     0.066 H 
ENDBRANCH  30  31
ENDBRANCH  28  30
ENDBRANCH   1  28
TORSDOF 3
ENDMDL
MODEL 3
REMARK VINA RESULT:      -5.9      3.748      5.566
REMARK  3 active torsions:
REMARK  status: ('A' for Active; 'I' for Inactive)
REMARK    1  A    between atoms: C_1  and  O_2 
REMARK    2  A    between atoms: O_2  and  C_3 
REMARK    3  A    between atoms: C_3  and  C_5 
ROOT
ATOM      1  C   LIG d   1       3.868  -0.479  -5.009  0.00  0.00     0.342 C 
ATOM      2  O   LIG d   1       4.066  -1.885  -4.932  0.00  0.00    -0.444 OA
ATOM      3  C   LIG d   1       5.383  -2.234  -4.980  0.00  0.00     0.129 A 
ATOM      4  C   LIG d   1       6.044  -2.314  -3.758  0.00  0.00    -0.018 A 
ATOM      5  C   LIG d   1       7.422  -2.345  -3.713  0.00  0.00    -0.040 A 
ATOM      6  C   LIG d   1       8.138  -2.303  -4.897  0.00  0.00     0.042 A 
ATOM      7  C   LIG d   1       7.477  -2.294  -6.104  0.00  0.00    -0.036 A 
ATOM      8  C   LIG d   1       6.081  -2.313  -6.167  0.00  0.00     0.000 A 
ATOM      9  C   LIG d   1       5.486  -2.444  -7.527  0.00  0.00     0.005 C 
ATOM     10  C   LIG d   1       4.199  -1.749  -7.823  0.00  0.00     0.000 A 
ATOM     11  C   LIG d   1       3.407  -2.336  -8.813  0.00  0.00    -0.036 A 
ATOM     12  C   LIG d   1       2.342  -1.659  -9.365  0.00  0.00     0.042 A 
ATOM     13  C   LIG d   1       2.037  -0.378  -8.936  0.00  0.00    -0.040 A 
ATOM     14  C   LIG d   1       2.770   0.183  -7.912  0.00  0.00    -0.018 A 
ATOM     15  C   LIG d   1       3.814  -0.524  -7.319  0.00  0.00     0.129 A 
ATOM     16  O   LIG d   1       4.397   0.035  -6.225  0.00  0.00    -0.444 OA
ATOM     17 CL   LIG d   1       1.381  -2.412 -10.599  0.00  0.00    -0.084 Cl
ATOM     18 CL   LIG d   1       9.873  -2.260  -4.859  0.00  0.00    -0.084 Cl
ATOM     19  H   LIG d   1       2.801  -0.264  -4.961  0.00  0.00     0.133 H 
ATOM     20  H   LIG d   1       5.475  -2.353  -2.841  0.00  0.00     0.066 H 
ATOM     21  H   LIG d   1       7.936  -2.402  -2.765  0.00  0.00     0.063 H 
ATOM     22  H   LIG d   1       8.048  -2.274  -7.021  0.00  0.00     0.064 H 
ATOM     23  H   LIG d   1       5.337  -3.506  -7.719  0.00  0.00     0.036 H 
ATOM     24  H   LIG d   1       6.225  -2.086  -8.244  0.00  0.00     0.036 H 
ATOM     25  H   LIG d   1       3.634  -3.336  -9.151  0.00  0.00     0.064 H 
ATOM     26  H   LIG d   1       1.234   0.176  -9.400  0.00  0.00     0.063 H 
ATOM     27  H   LIG d   1       2.533   1.178  -7.567  0.00  0.00     0.066 H 
ENDROOT
BRANCH   1  28
ATOM     28  C   LIG d   1       4.561   0.185  -3.846  0.00  0.00     0.390 C 
ATOM     29  O   LIG d   1       5.527   0.884  -4.037  0.00  0.00    -0.242 OA
BRANCH  28  30
ATOM     30  O   LIG d   1       4.104  -0.001  -2.598  0.00  0.00    -0.463 OA
BRANCH  30  31
ATOM     31  C   LIG d   1       4.610   0.891  -1.570  0.00  0.00     0.082 C 
ATOM     32  H   LIG d   1       4.140   1.869  -1.675  0.00  0.00     0.066 H 
ATOM     33  H   LIG d   1       5.690   0.994  -1.678  0.00  0.00     0.066 H 
ATOM     34  H   LIG d   1       4.380   0.481  -0.587  0.00  0.00     0.066 H 
ENDBRANCH  30  31
ENDBRANCH  28  30
ENDBRANCH   1  28
TORSDOF 3
ENDMDL
MODEL 4
REMARK VINA RESULT:      -5.4      2.483      5.744
REMARK  3 active torsions:
REMARK  status: ('A' for Active; 'I' for Inactive)
REMARK    1  A    between atoms: C_1  and  O_2 
REMARK    2  A    between atoms: O_2  and  C_3 
REMARK    3  A    between atoms: C_3  and  C_5 
ROOT
ATOM      1  C   LIG d   1       4.552  -1.859  -3.936  0.00  0.00     0.342 C 
ATOM      2  O   LIG d   1       5.782  -1.884  -3.223  0.00  0.00    -0.444 OA
ATOM      3  C   LIG d   1       6.690  -0.992  -3.709  0.00  0.00     0.129 A 
ATOM      4  C   LIG d   1       6.665   0.281  -3.149  0.00  0.00    -0.018 A 
ATOM      5  C   LIG d   1       7.307   1.330  -3.773  0.00  0.00    -0.040 A 
ATOM      6  C   LIG d   1       7.983   1.098  -4.959  0.00  0.00     0.042 A 
ATOM      7  C   LIG d   1       8.064  -0.177  -5.470  0.00  0.00    -0.036 A 
ATOM      8  C   LIG d   1       7.459  -1.258  -4.823  0.00  0.00     0.000 A 
ATOM      9  C   LIG d   1       7.734  -2.605  -5.397  0.00  0.00     0.005 C 
ATOM     10  C   LIG d   1       6.665  -3.645  -5.348  0.00  0.00     0.000 A 
ATOM     11  C   LIG d   1       7.107  -4.969  -5.326  0.00  0.00    -0.036 A 
ATOM     12  C   LIG d   1       6.237  -6.013  -5.551  0.00  0.00     0.042 A 
ATOM     13  C   LIG d   1       4.899  -5.758  -5.797  0.00  0.00    -0.040 A 
ATOM     14  C   LIG d   1       4.439  -4.460  -5.753  0.00  0.00    -0.018 A 
ATOM     15  C   LIG d   1       5.312  -3.410  -5.474  0.00  0.00     0.129 A 
ATOM     16  O   LIG d   1       4.762  -2.177  -5.307  0.00  0.00    -0.444 OA
ATOM     17 CL   LIG d   1       6.819  -7.648  -5.525  0.00  0.00    -0.084 Cl
ATOM     18 CL   LIG d   1       8.731   2.418  -5.801  0.00  0.00    -0.084 Cl
ATOM     19  H   LIG d   1       3.869  -2.588  -3.499  0.00  0.00     0.133 H 
ATOM     20  H   LIG d   1       6.139   0.449  -2.221  0.00  0.00     0.066 H 
ATOM     21  H   LIG d   1       7.284   2.320  -3.341  0.00  0.00     0.063 H 
ATOM     22  H   LIG d   1       8.605  -0.346  -6.390  0.00  0.00     0.064 H 
ATOM     23  H   LIG d   1       8.607  -3.008  -4.885  0.00  0.00     0.036 H 
ATOM     24  H   LIG d   1       8.009  -2.466  -6.443  0.00  0.00     0.036 H 
ATOM     25  H   LIG d   1       8.148  -5.178  -5.131  0.00  0.00     0.064 H 
ATOM     26  H   LIG d   1       4.221  -6.569  -6.023  0.00  0.00     0.063 H 
ATOM     27  H   LIG d   1       3.395  -4.254  -5.936  0.00  0.00     0.066 H 
ENDROOT
BRANCH   1  28
ATOM     28  C   LIG d   1       3.944  -0.484  -3.832  0.00  0.00     0.390 C 
ATOM     29  O   LIG d   1       3.904   0.234  -4.803  0.00  0.00    -0.242 OA
BRANCH  28  30
ATOM     30  O   LIG d   1       3.447  -0.057  -2.661  0.00  0.00    -0.463 OA
BRANCH  30  31
ATOM     31  C   LIG d   1       3.492   1.372  -2.407  0.00  0.00     0.082 C 
ATOM     32  H   LIG d   1       4.521   1.723  -2.487  0.00  0.00     0.066 H 
ATOM     33  H   LIG d   1       3.117   1.574  -1.403  0.00  0.00     0.066 H 
ATOM     34  H   LIG d   1       2.873   1.891  -3.138  0.00  0.00     0.066 H 
ENDBRANCH  30  31
ENDBRANCH  28  30
ENDBRANCH   1  28
TORSDOF 3
ENDMDL
MODEL 5
REMARK VINA RESULT:      -5.4      2.574      6.175
REMARK  3 active torsions:
REMARK  status: ('A' for Active; 'I' for Inactive)
REMARK    1  A    between atoms: C_1  and  O_2 
REMARK    2  A    between atoms: O_2  and  C_3 
REMARK    3  A    between atoms: C_3  and  C_5 
ROOT
ATOM      1  C   LIG d   1       5.209  -1.445  -7.044  0.00  0.00     0.342 C 
ATOM      2  O   LIG d   1       3.927  -1.627  -6.456  0.00  0.00    -0.444 OA
ATOM      3  C   LIG d   1       3.863  -1.158  -5.179  0.00  0.00     0.129 A 
ATOM      4  C   LIG d   1       3.480   0.171  -5.028  0.00  0.00    -0.018 A 
ATOM      5  C   LIG d   1       3.687   0.824  -3.831  0.00  0.00    -0.040 A 
ATOM      6  C   LIG d   1       4.273   0.139  -2.780  0.00  0.00     0.042 A 
ATOM      7  C   LIG d   1       4.585  -1.195  -2.913  0.00  0.00    -0.036 A 
ATOM      8  C   LIG d   1       4.336  -1.883  -4.104  0.00  0.00     0.000 A 
ATOM      9  C   LIG d   1       4.585  -3.351  -4.079  0.00  0.00     0.005 C 
ATOM     10  C   LIG d   1       5.093  -4.021  -5.313  0.00  0.00     0.000 A 
ATOM     11  C   LIG d   1       4.758  -5.369  -5.453  0.00  0.00    -0.036 A 
ATOM     12  C   LIG d   1       5.380  -6.161  -6.392  0.00  0.00     0.042 A 
ATOM     13  C   LIG d   1       6.350  -5.623  -7.221  0.00  0.00    -0.040 A 
ATOM     14  C   LIG d   1       6.638  -4.278  -7.137  0.00  0.00    -0.018 A 
ATOM     15  C   LIG d   1       5.971  -3.467  -6.221  0.00  0.00     0.129 A 
ATOM     16  O   LIG d   1       6.206  -2.129  -6.294  0.00  0.00    -0.444 OA
ATOM     17 CL   LIG d   1       4.947  -7.836  -6.537  0.00  0.00    -0.084 Cl
ATOM     18 CL   LIG d   1       4.615   0.964  -1.292  0.00  0.00    -0.084 Cl
ATOM     19  H   LIG d   1       5.195  -1.834  -8.062  0.00  0.00     0.133 H 
ATOM     20  H   LIG d   1       3.019   0.694  -5.852  0.00  0.00     0.066 H 
ATOM     21  H   LIG d   1       3.395   1.858  -3.715  0.00  0.00     0.063 H 
ATOM     22  H   LIG d   1       5.030  -1.721  -2.081  0.00  0.00     0.064 H 
ATOM     23  H   LIG d   1       3.651  -3.839  -3.803  0.00  0.00     0.036 H 
ATOM     24  H   LIG d   1       5.301  -3.549  -3.281  0.00  0.00     0.036 H 
ATOM     25  H   LIG d   1       4.001  -5.797  -4.814  0.00  0.00     0.064 H 
ATOM     26  H   LIG d   1       6.875  -6.251  -7.926  0.00  0.00     0.063 H 
ATOM     27  H   LIG d   1       7.388  -3.849  -7.786  0.00  0.00     0.066 H 
ENDROOT
BRANCH   1  28
ATOM     28  C   LIG d   1       5.536   0.026  -7.079  0.00  0.00     0.390 C 
ATOM     29  O   LIG d   1       6.446   0.459  -6.414  0.00  0.00    -0.242 OA
BRANCH  28  30
ATOM     30  O   LIG d   1       4.815   0.855  -7.850  0.00  0.00    -0.463 OA
BRANCH  30  31
ATOM     31  C   LIG d   1       4.934   0.690  -9.287  0.00  0.00     0.082 C 
ATOM     32  H   LIG d   1       5.741   1.321  -9.660  0.00  0.00     0.066 H 
ATOM     33  H   LIG d   1       3.998   0.979  -9.765  0.00  0.00     0.066 H 
ATOM     34  H   LIG d   1       5.152  -0.353  -9.517  0.00  0.00     0.066 H 
ENDBRANCH  30  31
ENDBRANCH  28  30
ENDBRANCH   1  28
TORSDOF 3
ENDMDL
MODEL 6
REMARK VINA RESULT:      -5.3      3.564      5.698
REMARK  3 active torsions:
REMARK  status: ('A' for Active; 'I' for Inactive)
REMARK    1  A    between atoms: C_1  and  O_2 
REMARK    2  A    between atoms: O_2  and  C_3 
REMARK    3  A    between atoms: C_3  and  C_5 
ROOT
ATOM      1  C   LIG d   1       7.795  -0.865  -6.029  0.00  0.00     0.342 C 
ATOM      2  O   LIG d   1       7.943  -1.115  -4.637  0.00  0.00    -0.444 OA
ATOM      3  C   LIG d   1       6.760  -1.046  -3.963  0.00  0.00     0.129 A 
ATOM      4  C   LIG d   1       6.041  -2.232  -3.857  0.00  0.00    -0.018 A 
ATOM      5  C   LIG d   1       4.713  -2.211  -3.484  0.00  0.00    -0.040 A 
ATOM      6  C   LIG d   1       4.109  -0.996  -3.208  0.00  0.00     0.042 A 
ATOM      7  C   LIG d   1       4.845   0.166  -3.246  0.00  0.00    -0.036 A 
ATOM      8  C   LIG d   1       6.203   0.155  -3.575  0.00  0.00     0.000 A 
ATOM      9  C   LIG d   1       6.921   1.454  -3.445  0.00  0.00     0.005 C 
ATOM     10  C   LIG d   1       8.019   1.773  -4.405  0.00  0.00     0.000 A 
ATOM     11  C   LIG d   1       9.009   2.635  -3.929  0.00  0.00    -0.036 A 
ATOM     12  C   LIG d   1       9.917   3.216  -4.786  0.00  0.00     0.042 A 
ATOM     13  C   LIG d   1       9.862   2.944  -6.142  0.00  0.00    -0.040 A 
ATOM     14  C   LIG d   1       8.933   2.041  -6.613  0.00  0.00    -0.018 A 
ATOM     15  C   LIG d   1       8.049   1.414  -5.736  0.00  0.00     0.129 A 
ATOM     16  O   LIG d   1       7.259   0.434  -6.251  0.00  0.00    -0.444 OA
ATOM     17 CL   LIG d   1      11.131   4.290  -4.165  0.00  0.00    -0.084 Cl
ATOM     18 CL   LIG d   1       2.419  -0.939  -2.814  0.00  0.00    -0.084 Cl
ATOM     19  H   LIG d   1       8.770  -0.938  -6.511  0.00  0.00     0.133 H 
ATOM     20  H   LIG d   1       6.524  -3.174  -4.069  0.00  0.00     0.066 H 
ATOM     21  H   LIG d   1       4.153  -3.131  -3.406  0.00  0.00     0.063 H 
ATOM     22  H   LIG d   1       4.363   1.106  -3.017  0.00  0.00     0.064 H 
ATOM     23  H   LIG d   1       7.341   1.497  -2.440  0.00  0.00     0.036 H 
ATOM     24  H   LIG d   1       6.179   2.248  -3.520  0.00  0.00     0.036 H 
ATOM     25  H   LIG d   1       9.062   2.851  -2.872  0.00  0.00     0.064 H 
ATOM     26  H   LIG d   1      10.540   3.434  -6.825  0.00  0.00     0.063 H 
ATOM     27  H   LIG d   1       8.889   1.817  -7.668  0.00  0.00     0.066 H 
ENDROOT
BRANCH   1  28
ATOM     28  C   LIG d   1       6.868  -1.894  -6.624  0.00  0.00     0.390 C 
ATOM     29  O   LIG d   1       7.207  -3.052  -6.680  0.00  0.00    -0.242 OA
BRANCH  28  30
ATOM     30  O   LIG d   1       5.666  -1.523  -7.091  0.00  0.00    -0.463 OA
BRANCH  30  31
ATOM     31  C   LIG d   1       4.668  -2.566  -7.246  0.00  0.00     0.082 C 
ATOM     32  H   LIG d   1       5.134  -3.540  -7.096  0.00  0.00     0.066 H 
ATOM     33  H   LIG d   1       4.245  -2.518  -8.250  0.00  0.00     0.066 H 
ATOM     34  H   LIG d   1       3.877  -2.424  -6.511  0.00  0.00     0.066 H 
ENDBRANCH  30  31
ENDBRANCH  28  30
ENDBRANCH   1  28
TORSDOF 3
ENDMDL
MODEL 7
REMARK VINA RESULT:      -5.2     10.485     13.420
REMARK  3 active torsions:
REMARK  status: ('A' for Active; 'I' for Inactive)
REMARK    1  A    between atoms: C_1  and  O_2 
REMARK    2  A    between atoms: O_2  and  C_3 
REMARK    3  A    between atoms: C_3  and  C_5 
ROOT
ATOM      1  C   LIG d   1       9.310   7.752  -1.572  0.00  0.00     0.342 C 
ATOM      2  O   LIG d   1       9.738   7.048  -0.413  0.00  0.00    -0.444 OA
ATOM      3  C   LIG d   1      10.999   7.390  -0.026  0.00  0.00     0.129 A 
ATOM      4  C   LIG d   1      11.103   8.448   0.871  0.00  0.00    -0.018 A 
ATOM      5  C   LIG d   1      12.316   9.070   1.076  0.00  0.00    -0.040 A 
ATOM      6  C   LIG d   1      13.430   8.623   0.385  0.00  0.00     0.042 A 
ATOM      7  C   LIG d   1      13.335   7.531  -0.447  0.00  0.00    -0.036 A 
ATOM      8  C   LIG d   1      12.122   6.860  -0.627  0.00  0.00     0.000 A 
ATOM      9  C   LIG d   1      12.177   5.612  -1.439  0.00  0.00     0.005 C 
ATOM     10  C   LIG d   1      11.013   5.261  -2.305  0.00  0.00     0.000 A 
ATOM     11  C   LIG d   1      10.833   3.899  -2.555  0.00  0.00    -0.036 A 
ATOM     12  C   LIG d   1       9.975   3.466  -3.542  0.00  0.00     0.042 A 
ATOM     13  C   LIG d   1       9.270   4.385  -4.300  0.00  0.00    -0.040 A 
ATOM     14  C   LIG d   1       9.389   5.728  -4.016  0.00  0.00    -0.018 A 
ATOM     15  C   LIG d   1      10.218   6.162  -2.982  0.00  0.00     0.129 A 
ATOM     16  O   LIG d   1      10.175   7.484  -2.669  0.00  0.00    -0.444 OA
ATOM     17 CL   LIG d   1       9.778   1.766  -3.834  0.00  0.00    -0.084 Cl
ATOM     18 CL   LIG d   1      14.949   9.443   0.569  0.00  0.00    -0.084 Cl
ATOM     19  H   LIG d   1       8.298   7.440  -1.828  0.00  0.00     0.133 H 
ATOM     20  H   LIG d   1      10.229   8.784   1.408  0.00  0.00     0.066 H 
ATOM     21  H   LIG d   1      12.397   9.896   1.769  0.00  0.00     0.063 H 
ATOM     22  H   LIG d   1      14.214   7.186  -0.970  0.00  0.00     0.064 H 
ATOM     23  H   LIG d   1      12.337   4.781  -0.753  0.00  0.00     0.036 H 
ATOM     24  H   LIG d   1      13.056   5.676  -2.080  0.00  0.00     0.036 H 
ATOM     25  H   LIG d   1      11.375   3.175  -1.966  0.00  0.00     0.064 H 
ATOM     26  H   LIG d   1       8.634   4.053  -5.108  0.00  0.00     0.063 H 
ATOM     27  H   LIG d   1       8.836   6.450  -4.598  0.00  0.00     0.066 H 
ENDROOT
BRANCH   1  28
ATOM     28  C   LIG d   1       9.316   9.232  -1.284  0.00  0.00     0.390 C 
ATOM     29  O   LIG d   1       8.499   9.705  -0.531  0.00  0.00    -0.242 OA
BRANCH  28  30
ATOM     30  O   LIG d   1      10.229  10.025  -1.866  0.00  0.00    -0.463 OA
BRANCH  30  31
ATOM     31  C   LIG d   1      10.369  11.369  -1.336  0.00  0.00     0.082 C 
ATOM     32  H   LIG d   1      10.907  11.333  -0.389  0.00  0.00     0.066 H 
ATOM     33  H   LIG d   1       9.380  11.801  -1.176  0.00  0.00     0.066 H 
ATOM     34  H   LIG d   1      10.923  11.984  -2.045  0.00  0.00     0.066 H 
ENDBRANCH  30  31
ENDBRANCH  28  30
ENDBRANCH   1  28
TORSDOF 3
ENDMDL
MODEL 8
REMARK VINA RESULT:      -5.1     10.392     13.420
REMARK  3 active torsions:
REMARK  status: ('A' for Active; 'I' for Inactive)
REMARK    1  A    between atoms: C_1  and  O_2 
REMARK    2  A    between atoms: O_2  and  C_3 
REMARK    3  A    between atoms: C_3  and  C_5 
ROOT
ATOM      1  C   LIG d   1      10.300   6.803  -2.376  0.00  0.00     0.342 C 
ATOM      2  O   LIG d   1      11.268   7.644  -2.990  0.00  0.00    -0.444 OA
ATOM      3  C   LIG d   1      10.797   8.900  -3.229  0.00  0.00     0.129 A 
ATOM      4  C   LIG d   1      10.981   9.831  -2.211  0.00  0.00    -0.018 A 
ATOM      5  C   LIG d   1      10.277  11.017  -2.217  0.00  0.00    -0.040 A 
ATOM      6  C   LIG d   1       9.392  11.272  -3.250  0.00  0.00     0.042 A 
ATOM      7  C   LIG d   1       9.267  10.378  -4.290  0.00  0.00    -0.036 A 
ATOM      8  C   LIG d   1      10.010   9.196  -4.322  0.00  0.00     0.000 A 
ATOM      9  C   LIG d   1       9.893   8.380  -5.564  0.00  0.00     0.005 C 
ATOM     10  C   LIG d   1       9.955   6.892  -5.461  0.00  0.00     0.000 A 
ATOM     11  C   LIG d   1      10.429   6.226  -6.593  0.00  0.00    -0.036 A 
ATOM     12  C   LIG d   1      10.284   4.863  -6.728  0.00  0.00     0.042 A 
ATOM     13  C   LIG d   1       9.666   4.130  -5.729  0.00  0.00    -0.040 A 
ATOM     14  C   LIG d   1       9.256   4.768  -4.578  0.00  0.00    -0.018 A 
ATOM     15  C   LIG d   1       9.451   6.139  -4.422  0.00  0.00     0.129 A 
ATOM     16  O   LIG d   1       9.152   6.671  -3.207  0.00  0.00    -0.444 OA
ATOM     17 CL   LIG d   1      10.876   4.064  -8.150  0.00  0.00    -0.084 Cl
ATOM     18 CL   LIG d   1       8.437  12.722  -3.235  0.00  0.00    -0.084 Cl
ATOM     19  H   LIG d   1      10.736   5.818  -2.208  0.00  0.00     0.133 H 
ATOM     20  H   LIG d   1      11.679   9.625  -1.414  0.00  0.00     0.066 H 
ATOM     21  H   LIG d   1      10.416  11.739  -1.425  0.00  0.00     0.063 H 
ATOM     22  H   LIG d   1       8.581  10.596  -5.096  0.00  0.00     0.064 H 
ATOM     23  H   LIG d   1      10.687   8.696  -6.240  0.00  0.00     0.036 H 
ATOM     24  H   LIG d   1       8.945   8.637  -6.036  0.00  0.00     0.036 H 
ATOM     25  H   LIG d   1      10.916   6.788  -7.376  0.00  0.00     0.064 H 
ATOM     26  H   LIG d   1       9.505   3.068  -5.851  0.00  0.00     0.063 H 
ATOM     27  H   LIG d   1       8.781   4.202  -3.791  0.00  0.00     0.066 H 
ENDROOT
BRANCH   1  28
ATOM     28  C   LIG d   1       9.891   7.398  -1.053  0.00  0.00     0.390 C 
ATOM     29  O   LIG d   1       8.764   7.804  -0.895  0.00  0.00    -0.242 OA
BRANCH  28  30
ATOM     30  O   LIG d   1      10.779   7.477  -0.050  0.00  0.00    -0.463 OA
BRANCH  30  31
ATOM     31  C   LIG d   1      11.012   6.269   0.722  0.00  0.00     0.082 C 
ATOM     32  H   LIG d   1      10.700   5.401   0.141  0.00  0.00     0.066 H 
ATOM     33  H   LIG d   1      10.436   6.313   1.647  0.00  0.00     0.066 H 
ATOM     34  H   LIG d   1      12.072   6.187   0.958  0.00  0.00     0.066 H 
ENDBRANCH  30  31
ENDBRANCH  28  30
ENDBRANCH   1  28
TORSDOF 3
ENDMDL
MODEL 9
REMARK VINA RESULT:      -5.1      4.096      6.049
REMARK  3 active torsions:
REMARK  status: ('A' for Active; 'I' for Inactive)
REMARK    1  A    between atoms: C_1  and  O_2 
REMARK    2  A    between atoms: O_2  and  C_3 
REMARK    3  A    between atoms: C_3  and  C_5 
ROOT
ATOM      1  C   LIG d   1       8.088  -0.810  -5.949  0.00  0.00     0.342 C 
ATOM      2  O   LIG d   1       7.592   0.497  -6.208  0.00  0.00    -0.444 OA
ATOM      3  C   LIG d   1       8.319   1.467  -5.587  0.00  0.00     0.129 A 
ATOM      4  C   LIG d   1       9.391   1.990  -6.304  0.00  0.00    -0.018 A 
ATOM      5  C   LIG d   1      10.363   2.729  -5.664  0.00  0.00    -0.040 A 
ATOM      6  C   LIG d   1      10.255   2.952  -4.301  0.00  0.00     0.042 A 
ATOM      7  C   LIG d   1       9.156   2.492  -3.611  0.00  0.00    -0.036 A 
ATOM      8  C   LIG d   1       8.139   1.784  -4.256  0.00  0.00     0.000 A 
ATOM      9  C   LIG d   1       6.939   1.463  -3.434  0.00  0.00     0.005 C 
ATOM     10  C   LIG d   1       6.215   0.181  -3.679  0.00  0.00     0.000 A 
ATOM     11  C   LIG d   1       4.855   0.181  -3.361  0.00  0.00    -0.036 A 
ATOM     12  C   LIG d   1       4.143  -0.995  -3.284  0.00  0.00     0.042 A 
ATOM     13  C   LIG d   1       4.772  -2.203  -3.529  0.00  0.00    -0.040 A 
ATOM     14  C   LIG d   1       6.097  -2.210  -3.911  0.00  0.00    -0.018 A 
ATOM     15  C   LIG d   1       6.802  -1.014  -4.039  0.00  0.00     0.129 A 
ATOM     16  O   LIG d   1       8.058  -1.090  -4.554  0.00  0.00    -0.444 OA
ATOM     17 CL   LIG d   1       2.456  -0.962  -2.879  0.00  0.00    -0.084 Cl
ATOM     18 CL   LIG d   1      11.508   3.812  -3.462  0.00  0.00    -0.084 Cl
ATOM     19  H   LIG d   1       7.470  -1.539  -6.475  0.00  0.00     0.133 H 
ATOM     20  H   LIG d   1       9.462   1.815  -7.367  0.00  0.00     0.066 H 
ATOM     21  H   LIG d   1      11.198   3.131  -6.219  0.00  0.00     0.063 H 
ATOM     22  H   LIG d   1       9.079   2.684  -2.551  0.00  0.00     0.064 H 
ATOM     23  H   LIG d   1       6.223   2.274  -3.567  0.00  0.00     0.036 H 
ATOM     24  H   LIG d   1       7.246   1.472  -2.388  0.00  0.00     0.036 H 
ATOM     25  H   LIG d   1       4.355   1.119  -3.171  0.00  0.00     0.064 H 
ATOM     26  H   LIG d   1       4.231  -3.132  -3.423  0.00  0.00     0.063 H 
ATOM     27  H   LIG d   1       6.592  -3.148  -4.112  0.00  0.00     0.066 H 
ENDROOT
BRANCH   1  28
ATOM     28  C   LIG d   1       9.507  -0.912  -6.446  0.00  0.00     0.390 C 
ATOM     29  O   LIG d   1       9.735  -0.898  -7.632  0.00  0.00    -0.242 OA
BRANCH  28  30
ATOM     30  O   LIG d   1      10.519  -1.018  -5.570  0.00  0.00    -0.463 OA
BRANCH  30  31
ATOM     31  C   LIG d   1      11.860  -0.807  -6.083  0.00  0.00     0.082 C 
ATOM     32  H   LIG d   1      12.497  -0.420  -5.287  0.00  0.00     0.066 H 
ATOM     33  H   LIG d   1      11.827  -0.089  -6.903  0.00  0.00     0.066 H 
ATOM     34  H   LIG d   1      12.265  -1.752  -6.445  0.00  0.00     0.066 H 
ENDBRANCH  30  31
ENDBRANCH  28  30
ENDBRANCH   1  28
TORSDOF 3
ENDMDL
MODEL 10
REMARK VINA RESULT:      -4.9      9.286     11.116
REMARK  3 active torsions:
REMARK  status: ('A' for Active; 'I' for Inactive)
REMARK    1  A    between atoms: C_1  and  O_2 
REMARK    2  A    between atoms: O_2  and  C_3 
REMARK    3  A    between atoms: C_3  and  C_5 
ROOT
ATOM      1  C   LIG d   1      10.934   7.380  -4.782  0.00  0.00     0.342 C 
ATOM      2  O   LIG d   1      11.737   6.209  -4.700  0.00  0.00    -0.444 OA
ATOM      3  C   LIG d   1      11.124   5.113  -5.231  0.00  0.00     0.129 A 
ATOM      4  C   LIG d   1      11.343   4.880  -6.585  0.00  0.00    -0.018 A 
ATOM      5  C   LIG d   1      10.535   4.005  -7.280  0.00  0.00    -0.040 A 
ATOM      6  C   LIG d   1       9.510   3.356  -6.612  0.00  0.00     0.042 A 
ATOM      7  C   LIG d   1       9.344   3.538  -5.259  0.00  0.00    -0.036 A 
ATOM      8  C   LIG d   1      10.185   4.384  -4.531  0.00  0.00     0.000 A 
ATOM      9  C   LIG d   1       9.994   4.389  -3.054  0.00  0.00     0.005 C 
ATOM     10  C   LIG d   1      10.208   5.660  -2.301  0.00  0.00     0.000 A 
ATOM     11  C   LIG d   1      10.600   5.516  -0.968  0.00  0.00    -0.036 A 
ATOM     12  C   LIG d   1      10.568   6.584  -0.099  0.00  0.00     0.042 A 
ATOM     13  C   LIG d   1      10.148   7.827  -0.543  0.00  0.00    -0.040 A 
ATOM     14  C   LIG d   1       9.824   7.995  -1.873  0.00  0.00    -0.018 A 
ATOM     15  C   LIG d   1       9.907   6.925  -2.761  0.00  0.00     0.129 A 
ATOM     16  O   LIG d   1       9.711   7.199  -4.079  0.00  0.00    -0.444 OA
ATOM     17 CL   LIG d   1      11.054   6.373   1.554  0.00  0.00    -0.084 Cl
ATOM     18 CL   LIG d   1       8.433   2.312  -7.486  0.00  0.00    -0.084 Cl
ATOM     19  H   LIG d   1      11.478   8.218  -4.348  0.00  0.00     0.133 H 
ATOM     20  H   LIG d   1      12.149   5.387  -7.094  0.00  0.00     0.066 H 
ATOM     21  H   LIG d   1      10.702   3.827  -8.333  0.00  0.00     0.063 H 
ATOM     22  H   LIG d   1       8.547   3.016  -4.748  0.00  0.00     0.064 H 
ATOM     23  H   LIG d   1      10.666   3.641  -2.633  0.00  0.00     0.036 H 
ATOM     24  H   LIG d   1       8.975   4.057  -2.854  0.00  0.00     0.036 H 
ATOM     25  H   LIG d   1      10.932   4.552  -0.613  0.00  0.00     0.064 H 
ATOM     26  H   LIG d   1      10.074   8.656   0.145  0.00  0.00     0.063 H 
ATOM     27  H   LIG d   1       9.504   8.963  -2.228  0.00  0.00     0.066 H 
ENDROOT
BRANCH   1  28
ATOM     28  C   LIG d   1      10.636   7.677  -6.229  0.00  0.00     0.390 C 
ATOM     29  O   LIG d   1      11.527   8.008  -6.975  0.00  0.00    -0.242 OA
BRANCH  28  30
ATOM     30  O   LIG d   1       9.379   7.576  -6.690  0.00  0.00    -0.463 OA
BRANCH  30  31
ATOM     31  C   LIG d   1       8.995   8.476  -7.763  0.00  0.00     0.082 C 
ATOM     32  H   LIG d   1       8.119   9.049  -7.460  0.00  0.00     0.066 H 
ATOM     33  H   LIG d   1       8.759   7.897  -8.656  0.00  0.00     0.066 H 
ATOM     34  H   LIG d   1       9.818   9.157  -7.979  0.00  0.00     0.066 H 
ENDBRANCH  30  31
ENDBRANCH  28  30
ENDBRANCH   1  28
TORSDOF 3
ENDMDL
