MODEL 1
REMARK VINA RESULT:      -6.8      0.000      0.000
REMARK  9 active torsions:
REMARK  status: ('A' for Active; 'I' for Inactive)
REMARK    1  A    between atoms: C_1  and  C_2 
REMARK    2  A    between atoms: C_2  and  O_3 
REMARK    3  A    between atoms: O_3  and  C_4 
REMARK    4  A    between atoms: C_5  and  C_30 
REMARK    5  A    between atoms: C_7  and  C_11 
REMARK    6  A    between atoms: C_9  and  C_10 
REMARK    7  A    between atoms: C_12  and  O_17 
REMARK    8  A    between atoms: O_17  and  C_18 
REMARK    9  A    between atoms: C_18  and  C_20 
ROOT
ATOM      1  C   LIG d   1       5.004   0.376  -8.399  0.00  0.00     0.113 A 
ATOM      2  C   LIG d   1       3.693   0.477  -7.921  0.00  0.00     0.158 A 
ATOM      3  C   LIG d   1       2.829   1.389  -8.515  0.00  0.00    -0.016 A 
ATOM      4  C   LIG d   1       3.308   2.172  -9.554  0.00  0.00    -0.040 A 
ATOM      5  C   LIG d   1       4.617   2.019  -9.974  0.00  0.00     0.029 A 
ATOM      6  N   LIG d   1       5.416   1.144  -9.399  0.00  0.00    -0.251 NA
ATOM      7  H   LIG d   1       1.810   1.487  -8.173  0.00  0.00     0.066 H 
ATOM      8  H   LIG d   1       2.663   2.895 -10.034  0.00  0.00     0.063 H 
ATOM      9  H   LIG d   1       4.990   2.626 -10.786  0.00  0.00     0.083 H 
ENDROOT
BRANCH   2  10
ATOM     10  O   LIG d   1       3.270  -0.308  -6.897  0.00  0.00    -0.423 OA
BRANCH  10  11
ATOM     11  C   LIG d   1       3.158   0.271  -5.691  0.00  0.00     0.319 C 
ATOM     12  O   LIG d   1       2.556   1.312  -5.573  0.00  0.00    -0.250 OA
BRANCH  11  13
ATOM     13  C   LIG d   1       3.786  -0.376  -4.483  0.00  0.00     0.069 C 
ATOM     14  C   LIG d   1       2.749  -0.482  -3.363  0.00  0.00    -0.034 C 
ATOM     15  C   LIG d   1       3.386  -1.139  -2.137  0.00  0.00    -0.040 C 
ATOM     16  H   LIG d   1       1.908  -1.086  -3.704  0.00  0.00     0.028 H 
ATOM     17  H   LIG d   1       2.396   0.515  -3.099  0.00  0.00     0.028 H 
ATOM     18  C   LIG d   1       4.566  -0.290  -1.660  0.00  0.00    -0.047 C 
ATOM     19  C   LIG d   1       3.881  -2.538  -2.509  0.00  0.00    -0.047 C 
ATOM     20  H   LIG d   1       2.647  -1.215  -1.340  0.00  0.00     0.030 H 
ATOM     21  C   LIG d   1       5.605  -0.184  -2.780  0.00  0.00    -0.040 C 
ATOM     22  H   LIG d   1       5.021  -0.758  -0.786  0.00  0.00     0.027 H 
ATOM     23  H   LIG d   1       4.214   0.707  -1.396  0.00  0.00     0.027 H 
ATOM     24  C   LIG d   1       4.967   0.473  -4.005  0.00  0.00    -0.034 C 
ATOM     25  C   LIG d   1       6.100  -1.584  -3.151  0.00  0.00    -0.047 C 
ATOM     26  H   LIG d   1       6.446   0.421  -2.439  0.00  0.00     0.030 H 
ATOM     27  H   LIG d   1       4.614   1.470  -3.741  0.00  0.00     0.028 H 
ATOM     28  H   LIG d   1       5.707   0.549  -4.803  0.00  0.00     0.028 H 
ATOM     29  C   LIG d   1       4.919  -2.433  -3.627  0.00  0.00    -0.040 C 
ATOM     30  H   LIG d   1       6.839  -1.508  -3.947  0.00  0.00     0.027 H 
ATOM     31  H   LIG d   1       6.554  -2.052  -2.277  0.00  0.00     0.027 H 
ATOM     32  C   LIG d   1       4.281  -1.775  -4.853  0.00  0.00    -0.034 C 
ATOM     33  H   LIG d   1       5.272  -3.429  -3.892  0.00  0.00     0.030 H 
ATOM     34  H   LIG d   1       5.021  -1.700  -5.651  0.00  0.00     0.028 H 
ATOM     35  H   LIG d   1       3.442  -2.380  -5.194  0.00  0.00     0.028 H 
ATOM     36  H   LIG d   1       3.040  -3.143  -2.848  0.00  0.00     0.027 H 
ATOM     37  H   LIG d   1       4.336  -3.006  -1.635  0.00  0.00     0.027 H 
ENDBRANCH  11  13
ENDBRANCH  10  11
ENDBRANCH   2  10
BRANCH   1  38
ATOM     38  C   LIG d   1       5.939  -0.595  -7.782  0.00  0.00     0.005 A 
ATOM     39  C   LIG d   1       5.845  -1.950  -8.094  0.00  0.00    -0.046 A 
ATOM     40  C   LIG d   1       6.715  -2.851  -7.519  0.00  0.00    -0.008 A 
ATOM     41  H   LIG d   1       5.089  -2.294  -8.785  0.00  0.00     0.063 H 
ATOM     42  C   LIG d   1       7.687  -2.409  -6.630  0.00  0.00     0.126 A 
ATOM     43  C   LIG d   1       7.784  -1.060  -6.319  0.00  0.00    -0.008 A 
ATOM     44  C   LIG d   1       6.919  -0.153  -6.894  0.00  0.00    -0.046 A 
ATOM     45  H   LIG d   1       6.999   0.897  -6.654  0.00  0.00     0.063 H 
BRANCH  40  46
ATOM     46  C   LIG d   1       6.613  -4.317  -7.855  0.00  0.00    -0.036 C 
ATOM     47  H   LIG d   1       7.085  -4.903  -7.066  0.00  0.00     0.028 H 
ATOM     48  H   LIG d   1       5.564  -4.598  -7.939  0.00  0.00     0.028 H 
ATOM     49  H   LIG d   1       7.118  -4.509  -8.801  0.00  0.00     0.028 H 
ENDBRANCH  40  46
BRANCH  42  50
ATOM     50  O   LIG d   1       8.544  -3.300  -6.066  0.00  0.00    -0.492 OA
BRANCH  50  51
ATOM     51  C   LIG d   1       8.051  -4.067  -4.967  0.00  0.00     0.087 C 
ATOM     52  H   LIG d   1       7.045  -3.731  -4.712  0.00  0.00     0.069 H 
ATOM     53  H   LIG d   1       8.023  -5.121  -5.241  0.00  0.00     0.069 H 
BRANCH  51  54
ATOM     54  C   LIG d   1       8.972  -3.879  -3.760  0.00  0.00    -0.031 C 
ATOM     55  H   LIG d   1       9.957  -3.563  -4.101  0.00  0.00     0.026 H 
ATOM     56  H   LIG d   1       8.555  -3.118  -3.099  0.00  0.00     0.026 H 
ATOM     57  H   LIG d   1       9.059  -4.821  -3.218  0.00  0.00     0.026 H 
ENDBRANCH  51  54
ENDBRANCH  50  51
ENDBRANCH  42  50
BRANCH  43  58
ATOM     58  C   LIG d   1       8.840  -0.584  -5.353  0.00  0.00    -0.036 C 
ATOM     59  H   LIG d   1       9.593  -0.011  -5.893  0.00  0.00     0.028 H 
ATOM     60  H   LIG d   1       8.379   0.045  -4.592  0.00  0.00     0.028 H 
ATOM     61  H   LIG d   1       9.311  -1.446  -4.877  0.00  0.00     0.028 H 
ENDBRANCH  43  58
ENDBRANCH   1  38
TORSDOF 9
ENDMDL
MODEL 2
REMARK VINA RESULT:      -6.8      0.062      1.567
REMARK  9 active torsions:
REMARK  status: ('A' for Active; 'I' for Inactive)
REMARK    1  A    between atoms: C_1  and  C_2 
REMARK    2  A    between atoms: C_2  and  O_3 
REMARK    3  A    between atoms: O_3  and  C_4 
REMARK    4  A    between atoms: C_5  and  C_30 
REMARK    5  A    between atoms: C_7  and  C_11 
REMARK    6  A    between atoms: C_9  and  C_10 
REMARK    7  A    between atoms: C_12  and  O_17 
REMARK    8  A    between atoms: O_17  and  C_18 
REMARK    9  A    between atoms: C_18  and  C_20 
ROOT
ATOM      1  C   LIG d   1       5.021   0.384  -8.416  0.00  0.00     0.113 A 
ATOM      2  C   LIG d   1       3.707   0.461  -7.945  0.00  0.00     0.158 A 
ATOM      3  C   LIG d   1       2.829   1.355  -8.544  0.00  0.00    -0.016 A 
ATOM      4  C   LIG d   1       3.297   2.145  -9.583  0.00  0.00    -0.040 A 
ATOM      5  C   LIG d   1       4.611   2.015  -9.997  0.00  0.00     0.029 A 
ATOM      6  N   LIG d   1       5.424   1.157  -9.416  0.00  0.00    -0.251 NA
ATOM      7  H   LIG d   1       1.806   1.436  -8.207  0.00  0.00     0.066 H 
ATOM      8  H   LIG d   1       2.642   2.854 -10.068  0.00  0.00     0.063 H 
ATOM      9  H   LIG d   1       4.976   2.627 -10.809  0.00  0.00     0.083 H 
ENDROOT
BRANCH   2  10
ATOM     10  O   LIG d   1       3.293  -0.329  -6.920  0.00  0.00    -0.423 OA
BRANCH  10  11
ATOM     11  C   LIG d   1       3.173   0.250  -5.714  0.00  0.00     0.319 C 
ATOM     12  O   LIG d   1       2.570   1.291  -5.600  0.00  0.00    -0.250 OA
BRANCH  11  13
ATOM     13  C   LIG d   1       3.791  -0.399  -4.502  0.00  0.00     0.069 C 
ATOM     14  C   LIG d   1       2.734  -0.540  -3.404  0.00  0.00    -0.034 C 
ATOM     15  C   LIG d   1       3.361  -1.198  -2.174  0.00  0.00    -0.040 C 
ATOM     16  H   LIG d   1       1.912  -1.157  -3.768  0.00  0.00     0.028 H 
ATOM     17  H   LIG d   1       2.355   0.447  -3.136  0.00  0.00     0.028 H 
ATOM     18  C   LIG d   1       4.513  -0.331  -1.663  0.00  0.00    -0.047 C 
ATOM     19  C   LIG d   1       3.892  -2.582  -2.552  0.00  0.00    -0.047 C 
ATOM     20  H   LIG d   1       2.608  -1.299  -1.392  0.00  0.00     0.030 H 
ATOM     21  C   LIG d   1       5.571  -0.190  -2.761  0.00  0.00    -0.040 C 
ATOM     22  H   LIG d   1       4.960  -0.800  -0.786  0.00  0.00     0.027 H 
ATOM     23  H   LIG d   1       4.134   0.655  -1.394  0.00  0.00     0.027 H 
ATOM     24  C   LIG d   1       4.944   0.468  -3.991  0.00  0.00    -0.034 C 
ATOM     25  C   LIG d   1       6.102  -1.574  -3.138  0.00  0.00    -0.047 C 
ATOM     26  H   LIG d   1       6.392   0.428  -2.396  0.00  0.00     0.030 H 
ATOM     27  H   LIG d   1       4.565   1.454  -3.722  0.00  0.00     0.028 H 
ATOM     28  H   LIG d   1       5.697   0.569  -4.773  0.00  0.00     0.028 H 
ATOM     29  C   LIG d   1       4.949  -2.442  -3.648  0.00  0.00    -0.040 C 
ATOM     30  H   LIG d   1       6.856  -1.474  -3.919  0.00  0.00     0.027 H 
ATOM     31  H   LIG d   1       6.549  -2.044  -2.261  0.00  0.00     0.027 H 
ATOM     32  C   LIG d   1       4.322  -1.782  -4.879  0.00  0.00    -0.034 C 
ATOM     33  H   LIG d   1       5.328  -3.427  -3.917  0.00  0.00     0.030 H 
ATOM     34  H   LIG d   1       5.075  -1.682  -5.661  0.00  0.00     0.028 H 
ATOM     35  H   LIG d   1       3.502  -2.401  -5.243  0.00  0.00     0.028 H 
ATOM     36  H   LIG d   1       3.071  -3.200  -2.915  0.00  0.00     0.027 H 
ATOM     37  H   LIG d   1       4.339  -3.052  -1.675  0.00  0.00     0.027 H 
ENDBRANCH  11  13
ENDBRANCH  10  11
ENDBRANCH   2  10
BRANCH   1  38
ATOM     38  C   LIG d   1       5.971  -0.568  -7.793  0.00  0.00     0.005 A 
ATOM     39  C   LIG d   1       6.924  -0.110  -6.884  0.00  0.00    -0.046 A 
ATOM     40  C   LIG d   1       7.806  -0.998  -6.305  0.00  0.00    -0.008 A 
ATOM     41  H   LIG d   1       6.972   0.939  -6.634  0.00  0.00     0.063 H 
ATOM     42  C   LIG d   1       7.746  -2.348  -6.627  0.00  0.00     0.126 A 
ATOM     43  C   LIG d   1       6.797  -2.807  -7.531  0.00  0.00    -0.008 A 
ATOM     44  C   LIG d   1       5.909  -1.925  -8.109  0.00  0.00    -0.046 A 
ATOM     45  H   LIG d   1       5.169  -2.284  -8.809  0.00  0.00     0.063 H 
BRANCH  40  46
ATOM     46  C   LIG d   1       8.837  -0.504  -5.324  0.00  0.00    -0.036 C 
ATOM     47  H   LIG d   1       8.677  -0.984  -4.358  0.00  0.00     0.028 H 
ATOM     48  H   LIG d   1       9.834  -0.747  -5.690  0.00  0.00     0.028 H 
ATOM     49  H   LIG d   1       8.744   0.576  -5.212  0.00  0.00     0.028 H 
ENDBRANCH  40  46
BRANCH  42  50
ATOM     50  O   LIG d   1       8.616  -3.220  -6.055  0.00  0.00    -0.492 OA
BRANCH  50  51
ATOM     51  C   LIG d   1       8.122  -4.017  -4.978  0.00  0.00     0.087 C 
ATOM     52  H   LIG d   1       7.101  -3.715  -4.742  0.00  0.00     0.069 H 
ATOM     53  H   LIG d   1       8.133  -5.067  -5.267  0.00  0.00     0.069 H 
BRANCH  51  54
ATOM     54  C   LIG d   1       9.010  -3.817  -3.747  0.00  0.00    -0.031 C 
ATOM     55  H   LIG d   1       9.930  -4.388  -3.867  0.00  0.00     0.026 H 
ATOM     56  H   LIG d   1       9.250  -2.759  -3.640  0.00  0.00     0.026 H 
ATOM     57  H   LIG d   1       8.481  -4.162  -2.858  0.00  0.00     0.026 H 
ENDBRANCH  51  54
ENDBRANCH  50  51
ENDBRANCH  42  50
BRANCH  43  58
ATOM     58  C   LIG d   1       6.735  -4.273  -7.878  0.00  0.00    -0.036 C 
ATOM     59  H   LIG d   1       6.104  -4.790  -7.155  0.00  0.00     0.028 H 
ATOM     60  H   LIG d   1       6.317  -4.392  -8.877  0.00  0.00     0.028 H 
ATOM     61  H   LIG d   1       7.740  -4.695  -7.850  0.00  0.00     0.028 H 
ENDBRANCH  43  58
ENDBRANCH   1  38
TORSDOF 9
ENDMDL
MODEL 3
REMARK VINA RESULT:      -6.8      0.089      1.357
REMARK  9 active torsions:
REMARK  status: ('A' for Active; 'I' for Inactive)
REMARK    1  A    between atoms: C_1  and  C_2 
REMARK    2  A    between atoms: C_2  and  O_3 
REMARK    3  A    between atoms: O_3  and  C_4 
REMARK    4  A    between atoms: C_5  and  C_30 
REMARK    5  A    between atoms: C_7  and  C_11 
REMARK    6  A    between atoms: C_9  and  C_10 
REMARK    7  A    between atoms: C_12  and  O_17 
REMARK    8  A    between atoms: O_17  and  C_18 
REMARK    9  A    between atoms: C_18  and  C_20 
ROOT
ATOM      1  C   LIG d   1       5.035   0.406  -8.393  0.00  0.00     0.113 A 
ATOM      2  C   LIG d   1       3.717   0.468  -7.929  0.00  0.00     0.158 A 
ATOM      3  C   LIG d   1       2.834   1.358  -8.529  0.00  0.00    -0.016 A 
ATOM      4  C   LIG d   1       3.302   2.159  -9.559  0.00  0.00    -0.040 A 
ATOM      5  C   LIG d   1       4.619   2.045  -9.965  0.00  0.00     0.029 A 
ATOM      6  N   LIG d   1       5.436   1.189  -9.385  0.00  0.00    -0.251 NA
ATOM      7  H   LIG d   1       1.809   1.427  -8.197  0.00  0.00     0.066 H 
ATOM      8  H   LIG d   1       2.643   2.866 -10.043  0.00  0.00     0.063 H 
ATOM      9  H   LIG d   1       4.983   2.665 -10.771  0.00  0.00     0.083 H 
ENDROOT
BRANCH   2  10
ATOM     10  O   LIG d   1       3.304  -0.333  -6.913  0.00  0.00    -0.423 OA
BRANCH  10  11
ATOM     11  C   LIG d   1       3.169   0.237  -5.704  0.00  0.00     0.319 C 
ATOM     12  O   LIG d   1       2.549   1.267  -5.587  0.00  0.00    -0.250 OA
BRANCH  11  13
ATOM     13  C   LIG d   1       3.793  -0.408  -4.493  0.00  0.00     0.069 C 
ATOM     14  C   LIG d   1       4.941   0.466  -3.984  0.00  0.00    -0.034 C 
ATOM     15  C   LIG d   1       5.575  -0.189  -2.755  0.00  0.00    -0.040 C 
ATOM     16  H   LIG d   1       4.557   1.450  -3.715  0.00  0.00     0.028 H 
ATOM     17  H   LIG d   1       5.692   0.572  -4.768  0.00  0.00     0.028 H 
ATOM     18  C   LIG d   1       6.115  -1.569  -3.134  0.00  0.00    -0.047 C 
ATOM     19  C   LIG d   1       4.521  -0.337  -1.656  0.00  0.00    -0.047 C 
ATOM     20  H   LIG d   1       6.393   0.434  -2.393  0.00  0.00     0.030 H 
ATOM     21  C   LIG d   1       4.966  -2.444  -3.643  0.00  0.00    -0.040 C 
ATOM     22  H   LIG d   1       6.567  -2.037  -2.259  0.00  0.00     0.027 H 
ATOM     23  H   LIG d   1       6.866  -1.464  -3.918  0.00  0.00     0.027 H 
ATOM     24  C   LIG d   1       4.333  -1.789  -4.872  0.00  0.00    -0.034 C 
ATOM     25  C   LIG d   1       3.912  -2.593  -2.544  0.00  0.00    -0.047 C 
ATOM     26  H   LIG d   1       5.352  -3.428  -3.913  0.00  0.00     0.030 H 
ATOM     27  H   LIG d   1       5.084  -1.683  -5.655  0.00  0.00     0.028 H 
ATOM     28  H   LIG d   1       3.515  -2.412  -5.235  0.00  0.00     0.028 H 
ATOM     29  C   LIG d   1       3.373  -1.212  -2.164  0.00  0.00    -0.040 C 
ATOM     30  H   LIG d   1       3.095  -3.216  -2.906  0.00  0.00     0.027 H 
ATOM     31  H   LIG d   1       4.364  -3.059  -1.668  0.00  0.00     0.027 H 
ATOM     32  C   LIG d   1       2.740  -0.557  -3.394  0.00  0.00    -0.034 C 
ATOM     33  H   LIG d   1       2.622  -1.318  -1.383  0.00  0.00     0.030 H 
ATOM     34  H   LIG d   1       1.921  -1.179  -3.757  0.00  0.00     0.028 H 
ATOM     35  H   LIG d   1       2.355   0.426  -3.124  0.00  0.00     0.028 H 
ATOM     36  H   LIG d   1       4.137   0.646  -1.386  0.00  0.00     0.027 H 
ATOM     37  H   LIG d   1       4.973  -0.804  -0.781  0.00  0.00     0.027 H 
ENDBRANCH  11  13
ENDBRANCH  10  11
ENDBRANCH   2  10
BRANCH   1  38
ATOM     38  C   LIG d   1       5.989  -0.541  -7.770  0.00  0.00     0.005 A 
ATOM     39  C   LIG d   1       5.943  -1.896  -8.096  0.00  0.00    -0.046 A 
ATOM     40  C   LIG d   1       6.832  -2.775  -7.516  0.00  0.00    -0.008 A 
ATOM     41  H   LIG d   1       5.209  -2.257  -8.802  0.00  0.00     0.063 H 
ATOM     42  C   LIG d   1       7.775  -2.312  -6.607  0.00  0.00     0.126 A 
ATOM     43  C   LIG d   1       7.825  -0.963  -6.281  0.00  0.00    -0.008 A 
ATOM     44  C   LIG d   1       6.941  -0.079  -6.862  0.00  0.00    -0.046 A 
ATOM     45  H   LIG d   1       6.984   0.971  -6.611  0.00  0.00     0.063 H 
BRANCH  40  46
ATOM     46  C   LIG d   1       6.781  -4.240  -7.867  0.00  0.00    -0.036 C 
ATOM     47  H   LIG d   1       6.007  -4.405  -8.617  0.00  0.00     0.028 H 
ATOM     48  H   LIG d   1       7.746  -4.552  -8.264  0.00  0.00     0.028 H 
ATOM     49  H   LIG d   1       6.550  -4.820  -6.974  0.00  0.00     0.028 H 
ENDBRANCH  40  46
BRANCH  42  50
ATOM     50  O   LIG d   1       8.650  -3.181  -6.037  0.00  0.00    -0.492 OA
BRANCH  50  51
ATOM     51  C   LIG d   1       8.161  -3.979  -4.958  0.00  0.00     0.087 C 
ATOM     52  H   LIG d   1       7.139  -3.683  -4.721  0.00  0.00     0.069 H 
ATOM     53  H   LIG d   1       8.177  -5.030  -5.246  0.00  0.00     0.069 H 
BRANCH  51  54
ATOM     54  C   LIG d   1       9.049  -3.774  -3.729  0.00  0.00    -0.031 C 
ATOM     55  H   LIG d   1       9.621  -2.854  -3.843  0.00  0.00     0.026 H 
ATOM     56  H   LIG d   1       8.425  -3.707  -2.837  0.00  0.00     0.026 H 
ATOM     57  H   LIG d   1       9.733  -4.618  -3.630  0.00  0.00     0.026 H 
ENDBRANCH  51  54
ENDBRANCH  50  51
ENDBRANCH  42  50
BRANCH  43  58
ATOM     58  C   LIG d   1       8.849  -0.465  -5.294  0.00  0.00    -0.036 C 
ATOM     59  H   LIG d   1       9.706  -0.061  -5.833  0.00  0.00     0.028 H 
ATOM     60  H   LIG d   1       8.408   0.317  -4.676  0.00  0.00     0.028 H 
ATOM     61  H   LIG d   1       9.175  -1.291  -4.660  0.00  0.00     0.028 H 
ENDBRANCH  43  58
ENDBRANCH   1  38
TORSDOF 9
ENDMDL
MODEL 4
REMARK VINA RESULT:      -6.6      1.421      2.303
REMARK  9 active torsions:
REMARK  status: ('A' for Active; 'I' for Inactive)
REMARK    1  A    between atoms: C_1  and  C_2 
REMARK    2  A    between atoms: C_2  and  O_3 
REMARK    3  A    between atoms: O_3  and  C_4 
REMARK    4  A    between atoms: C_5  and  C_30 
REMARK    5  A    between atoms: C_7  and  C_11 
REMARK    6  A    between atoms: C_9  and  C_10 
REMARK    7  A    between atoms: C_12  and  O_17 
REMARK    8  A    between atoms: O_17  and  C_18 
REMARK    9  A    between atoms: C_18  and  C_20 
ROOT
ATOM      1  C   LIG d   1       4.301  -0.257  -8.673  0.00  0.00     0.113 A 
ATOM      2  C   LIG d   1       3.296   0.389  -7.946  0.00  0.00     0.158 A 
ATOM      3  C   LIG d   1       2.843   1.628  -8.379  0.00  0.00    -0.016 A 
ATOM      4  C   LIG d   1       3.416   2.181  -9.515  0.00  0.00    -0.040 A 
ATOM      5  C   LIG d   1       4.406   1.485 -10.184  0.00  0.00     0.029 A 
ATOM      6  N   LIG d   1       4.816   0.309  -9.757  0.00  0.00    -0.251 NA
ATOM      7  H   LIG d   1       2.066   2.151  -7.843  0.00  0.00     0.066 H 
ATOM      8  H   LIG d   1       3.089   3.146  -9.876  0.00  0.00     0.063 H 
ATOM      9  H   LIG d   1       4.849   1.913 -11.072  0.00  0.00     0.083 H 
ENDROOT
BRANCH   2  10
ATOM     10  O   LIG d   1       2.768  -0.189  -6.835  0.00  0.00    -0.423 OA
BRANCH  10  11
ATOM     11  C   LIG d   1       2.990   0.429  -5.663  0.00  0.00     0.319 C 
ATOM     12  O   LIG d   1       2.581   1.551  -5.485  0.00  0.00    -0.250 OA
BRANCH  11  13
ATOM     13  C   LIG d   1       3.749  -0.279  -4.570  0.00  0.00     0.069 C 
ATOM     14  C   LIG d   1       3.089   0.010  -3.221  0.00  0.00    -0.034 C 
ATOM     15  C   LIG d   1       3.860  -0.708  -2.111  0.00  0.00    -0.040 C 
ATOM     16  H   LIG d   1       2.059  -0.345  -3.236  0.00  0.00     0.028 H 
ATOM     17  H   LIG d   1       3.100   1.084  -3.034  0.00  0.00     0.028 H 
ATOM     18  C   LIG d   1       5.306  -0.208  -2.089  0.00  0.00    -0.047 C 
ATOM     19  C   LIG d   1       3.845  -2.215  -2.374  0.00  0.00    -0.047 C 
ATOM     20  H   LIG d   1       3.389  -0.502  -1.150  0.00  0.00     0.030 H 
ATOM     21  C   LIG d   1       5.967  -0.498  -3.439  0.00  0.00    -0.040 C 
ATOM     22  H   LIG d   1       5.856  -0.720  -1.299  0.00  0.00     0.027 H 
ATOM     23  H   LIG d   1       5.316   0.866  -1.902  0.00  0.00     0.027 H 
ATOM     24  C   LIG d   1       5.196   0.220  -4.549  0.00  0.00    -0.034 C 
ATOM     25  C   LIG d   1       5.951  -2.005  -3.702  0.00  0.00    -0.047 C 
ATOM     26  H   LIG d   1       6.997  -0.142  -3.423  0.00  0.00     0.030 H 
ATOM     27  H   LIG d   1       5.206   1.294  -4.361  0.00  0.00     0.028 H 
ATOM     28  H   LIG d   1       5.666   0.015  -5.510  0.00  0.00     0.028 H 
ATOM     29  C   LIG d   1       4.505  -2.505  -3.723  0.00  0.00    -0.040 C 
ATOM     30  H   LIG d   1       6.422  -2.211  -4.663  0.00  0.00     0.027 H 
ATOM     31  H   LIG d   1       6.501  -2.517  -2.911  0.00  0.00     0.027 H 
ATOM     32  C   LIG d   1       3.734  -1.786  -4.833  0.00  0.00    -0.034 C 
ATOM     33  H   LIG d   1       4.495  -3.578  -3.911  0.00  0.00     0.030 H 
ATOM     34  H   LIG d   1       4.204  -1.992  -5.794  0.00  0.00     0.028 H 
ATOM     35  H   LIG d   1       2.705  -2.143  -4.849  0.00  0.00     0.028 H 
ATOM     36  H   LIG d   1       2.815  -2.571  -2.389  0.00  0.00     0.027 H 
ATOM     37  H   LIG d   1       4.395  -2.727  -1.584  0.00  0.00     0.027 H 
ENDBRANCH  11  13
ENDBRANCH  10  11
ENDBRANCH   2  10
BRANCH   1  38
ATOM     38  C   LIG d   1       4.794  -1.583  -8.230  0.00  0.00     0.005 A 
ATOM     39  C   LIG d   1       6.057  -1.701  -7.653  0.00  0.00    -0.046 A 
ATOM     40  C   LIG d   1       6.513  -2.935  -7.241  0.00  0.00    -0.008 A 
ATOM     41  H   LIG d   1       6.679  -0.827  -7.530  0.00  0.00     0.063 H 
ATOM     42  C   LIG d   1       5.714  -4.061  -7.400  0.00  0.00     0.126 A 
ATOM     43  C   LIG d   1       4.454  -3.946  -7.973  0.00  0.00    -0.008 A 
ATOM     44  C   LIG d   1       3.991  -2.713  -8.383  0.00  0.00    -0.046 A 
ATOM     45  H   LIG d   1       3.010  -2.624  -8.824  0.00  0.00     0.063 H 
BRANCH  40  46
ATOM     46  C   LIG d   1       7.879  -3.065  -6.618  0.00  0.00    -0.036 C 
ATOM     47  H   LIG d   1       8.234  -4.089  -6.734  0.00  0.00     0.028 H 
ATOM     48  H   LIG d   1       8.570  -2.383  -7.113  0.00  0.00     0.028 H 
ATOM     49  H   LIG d   1       7.821  -2.818  -5.559  0.00  0.00     0.028 H 
ENDBRANCH  40  46
BRANCH  42  50
ATOM     50  O   LIG d   1       6.166  -5.275  -6.992  0.00  0.00    -0.492 OA
BRANCH  50  51
ATOM     51  C   LIG d   1       5.879  -5.656  -5.646  0.00  0.00     0.087 C 
ATOM     52  H   LIG d   1       6.622  -5.219  -4.979  0.00  0.00     0.069 H 
ATOM     53  H   LIG d   1       4.888  -5.298  -5.370  0.00  0.00     0.069 H 
BRANCH  51  54
ATOM     54  C   LIG d   1       5.921  -7.181  -5.528  0.00  0.00    -0.031 C 
ATOM     55  H   LIG d   1       6.914  -7.539  -5.796  0.00  0.00     0.026 H 
ATOM     56  H   LIG d   1       5.695  -7.472  -4.502  0.00  0.00     0.026 H 
ATOM     57  H   LIG d   1       5.182  -7.618  -6.200  0.00  0.00     0.026 H 
ENDBRANCH  51  54
ENDBRANCH  50  51
ENDBRANCH  42  50
BRANCH  43  58
ATOM     58  C   LIG d   1       3.590  -5.169  -8.144  0.00  0.00    -0.036 C 
ATOM     59  H   LIG d   1       4.038  -5.828  -8.887  0.00  0.00     0.028 H 
ATOM     60  H   LIG d   1       3.513  -5.694  -7.192  0.00  0.00     0.028 H 
ATOM     61  H   LIG d   1       2.596  -4.868  -8.475  0.00  0.00     0.028 H 
ENDBRANCH  43  58
ENDBRANCH   1  38
TORSDOF 9
ENDMDL
MODEL 5
REMARK VINA RESULT:      -6.5      1.305      2.227
REMARK  9 active torsions:
REMARK  status: ('A' for Active; 'I' for Inactive)
REMARK    1  A    between atoms: C_1  and  C_2 
REMARK    2  A    between atoms: C_2  and  O_3 
REMARK    3  A    between atoms: O_3  and  C_4 
REMARK    4  A    between atoms: C_5  and  C_30 
REMARK    5  A    between atoms: C_7  and  C_11 
REMARK    6  A    between atoms: C_9  and  C_10 
REMARK    7  A    between atoms: C_12  and  O_17 
REMARK    8  A    between atoms: O_17  and  C_18 
REMARK    9  A    between atoms: C_18  and  C_20 
ROOT
ATOM      1  C   LIG d   1       5.214   0.177  -8.745  0.00  0.00     0.113 A 
ATOM      2  C   LIG d   1       3.941  -0.285  -8.393  0.00  0.00     0.158 A 
ATOM      3  C   LIG d   1       2.892  -0.113  -9.287  0.00  0.00    -0.016 A 
ATOM      4  C   LIG d   1       3.149   0.522 -10.492  0.00  0.00    -0.040 A 
ATOM      5  C   LIG d   1       4.432   0.953 -10.773  0.00  0.00     0.029 A 
ATOM      6  N   LIG d   1       5.413   0.774  -9.912  0.00  0.00    -0.251 NA
ATOM      7  H   LIG d   1       1.899  -0.462  -9.047  0.00  0.00     0.066 H 
ATOM      8  H   LIG d   1       2.354   0.676 -11.208  0.00  0.00     0.063 H 
ATOM      9  H   LIG d   1       4.635   1.444 -11.714  0.00  0.00     0.083 H 
ENDROOT
BRANCH   2  10
ATOM     10  O   LIG d   1       3.735  -0.896  -7.197  0.00  0.00    -0.423 OA
BRANCH  10  11
ATOM     11  C   LIG d   1       3.528  -0.103  -6.134  0.00  0.00     0.319 C 
ATOM     12  O   LIG d   1       2.951   0.950  -6.268  0.00  0.00    -0.250 OA
BRANCH  11  13
ATOM     13  C   LIG d   1       4.018  -0.525  -4.772  0.00  0.00     0.069 C 
ATOM     14  C   LIG d   1       2.888  -0.369  -3.753  0.00  0.00    -0.034 C 
ATOM     15  C   LIG d   1       3.385  -0.797  -2.371  0.00  0.00    -0.040 C 
ATOM     16  H   LIG d   1       2.045  -0.995  -4.046  0.00  0.00     0.028 H 
ATOM     17  H   LIG d   1       2.571   0.674  -3.718  0.00  0.00     0.028 H 
ATOM     18  C   LIG d   1       4.567   0.083  -1.959  0.00  0.00    -0.047 C 
ATOM     19  C   LIG d   1       3.830  -2.260  -2.420  0.00  0.00    -0.047 C 
ATOM     20  H   LIG d   1       2.579  -0.686  -1.644  0.00  0.00     0.030 H 
ATOM     21  C   LIG d   1       5.698  -0.073  -2.978  0.00  0.00    -0.040 C 
ATOM     22  H   LIG d   1       4.922  -0.222  -0.974  0.00  0.00     0.027 H 
ATOM     23  H   LIG d   1       4.250   1.125  -1.924  0.00  0.00     0.027 H 
ATOM     24  C   LIG d   1       5.201   0.355  -4.361  0.00  0.00    -0.034 C 
ATOM     25  C   LIG d   1       6.143  -1.536  -3.028  0.00  0.00    -0.047 C 
ATOM     26  H   LIG d   1       6.541   0.554  -2.685  0.00  0.00     0.030 H 
ATOM     27  H   LIG d   1       4.884   1.397  -4.326  0.00  0.00     0.028 H 
ATOM     28  H   LIG d   1       6.007   0.245  -5.087  0.00  0.00     0.028 H 
ATOM     29  C   LIG d   1       4.960  -2.416  -3.438  0.00  0.00    -0.040 C 
ATOM     30  H   LIG d   1       6.949  -1.647  -3.753  0.00  0.00     0.027 H 
ATOM     31  H   LIG d   1       6.497  -1.841  -2.042  0.00  0.00     0.027 H 
ATOM     32  C   LIG d   1       4.463  -1.987  -4.821  0.00  0.00    -0.034 C 
ATOM     33  H   LIG d   1       5.278  -3.457  -3.473  0.00  0.00     0.030 H 
ATOM     34  H   LIG d   1       5.268  -2.098  -5.547  0.00  0.00     0.028 H 
ATOM     35  H   LIG d   1       3.622  -2.614  -5.114  0.00  0.00     0.028 H 
ATOM     36  H   LIG d   1       2.987  -2.886  -2.712  0.00  0.00     0.027 H 
ATOM     37  H   LIG d   1       4.185  -2.565  -1.434  0.00  0.00     0.027 H 
ENDBRANCH  11  13
ENDBRANCH  10  11
ENDBRANCH   2  10
BRANCH   1  38
ATOM     38  C   LIG d   1       6.347  -0.003  -7.806  0.00  0.00     0.005 A 
ATOM     39  C   LIG d   1       7.021   1.109  -7.304  0.00  0.00    -0.046 A 
ATOM     40  C   LIG d   1       8.074   0.939  -6.431  0.00  0.00    -0.008 A 
ATOM     41  H   LIG d   1       6.719   2.103  -7.600  0.00  0.00     0.063 H 
ATOM     42  C   LIG d   1       8.464  -0.339  -6.051  0.00  0.00     0.126 A 
ATOM     43  C   LIG d   1       7.793  -1.449  -6.549  0.00  0.00    -0.008 A 
ATOM     44  C   LIG d   1       6.736  -1.285  -7.418  0.00  0.00    -0.046 A 
ATOM     45  H   LIG d   1       6.212  -2.148  -7.801  0.00  0.00     0.063 H 
BRANCH  40  46
ATOM     46  C   LIG d   1       8.805   2.141  -5.889  0.00  0.00    -0.036 C 
ATOM     47  H   LIG d   1       8.269   3.048  -6.170  0.00  0.00     0.028 H 
ATOM     48  H   LIG d   1       8.860   2.073  -4.802  0.00  0.00     0.028 H 
ATOM     49  H   LIG d   1       9.812   2.171  -6.303  0.00  0.00     0.028 H 
ENDBRANCH  40  46
BRANCH  42  50
ATOM     50  O   LIG d   1       9.502  -0.503  -5.191  0.00  0.00    -0.492 OA
BRANCH  50  51
ATOM     51  C   LIG d   1      10.803  -0.646  -5.763  0.00  0.00     0.087 C 
ATOM     52  H   LIG d   1      10.715  -1.084  -6.758  0.00  0.00     0.069 H 
ATOM     53  H   LIG d   1      11.278   0.332  -5.838  0.00  0.00     0.069 H 
BRANCH  51  54
ATOM     54  C   LIG d   1      11.653  -1.559  -4.877  0.00  0.00    -0.031 C 
ATOM     55  H   LIG d   1      11.488  -2.597  -5.161  0.00  0.00     0.026 H 
ATOM     56  H   LIG d   1      12.707  -1.310  -5.003  0.00  0.00     0.026 H 
ATOM     57  H   LIG d   1      11.370  -1.418  -3.833  0.00  0.00     0.026 H 
ENDBRANCH  51  54
ENDBRANCH  50  51
ENDBRANCH  42  50
BRANCH  43  58
ATOM     58  C   LIG d   1       8.219  -2.834  -6.134  0.00  0.00    -0.036 C 
ATOM     59  H   LIG d   1       7.574  -3.570  -6.613  0.00  0.00     0.028 H 
ATOM     60  H   LIG d   1       9.252  -3.002  -6.438  0.00  0.00     0.028 H 
ATOM     61  H   LIG d   1       8.138  -2.930  -5.050  0.00  0.00     0.028 H 
ENDBRANCH  43  58
ENDBRANCH   1  38
TORSDOF 9
ENDMDL
MODEL 6
REMARK VINA RESULT:      -6.4      2.052      4.744
REMARK  9 active torsions:
REMARK  status: ('A' for Active; 'I' for Inactive)
REMARK    1  A    between atoms: C_1  and  C_2 
REMARK    2  A    between atoms: C_2  and  O_3 
REMARK    3  A    between atoms: O_3  and  C_4 
REMARK    4  A    between atoms: C_5  and  C_30 
REMARK    5  A    between atoms: C_7  and  C_11 
REMARK    6  A    between atoms: C_9  and  C_10 
REMARK    7  A    between atoms: C_12  and  O_17 
REMARK    8  A    between atoms: O_17  and  C_18 
REMARK    9  A    between atoms: C_18  and  C_20 
ROOT
ATOM      1  C   LIG d   1       7.505   0.522  -8.022  0.00  0.00     0.113 A 
ATOM      2  C   LIG d   1       7.958   0.948  -6.769  0.00  0.00     0.158 A 
ATOM      3  C   LIG d   1       9.301   1.266  -6.612  0.00  0.00    -0.016 A 
ATOM      4  C   LIG d   1      10.143   1.137  -7.706  0.00  0.00    -0.040 A 
ATOM      5  C   LIG d   1       9.626   0.709  -8.915  0.00  0.00     0.029 A 
ATOM      6  N   LIG d   1       8.347   0.418  -9.042  0.00  0.00    -0.251 NA
ATOM      7  H   LIG d   1       9.681   1.603  -5.659  0.00  0.00     0.066 H 
ATOM      8  H   LIG d   1      11.194   1.371  -7.616  0.00  0.00     0.063 H 
ATOM      9  H   LIG d   1      10.280   0.612  -9.769  0.00  0.00     0.083 H 
ENDROOT
BRANCH   2  10
ATOM     10  O   LIG d   1       7.097   1.055  -5.724  0.00  0.00    -0.423 OA
BRANCH  10  11
ATOM     11  C   LIG d   1       6.936  -0.033  -4.953  0.00  0.00     0.319 C 
ATOM     12  O   LIG d   1       7.748  -0.926  -4.991  0.00  0.00    -0.250 OA
BRANCH  11  13
ATOM     13  C   LIG d   1       5.741  -0.140  -4.040  0.00  0.00     0.069 C 
ATOM     14  C   LIG d   1       5.760  -1.497  -3.333  0.00  0.00    -0.034 C 
ATOM     15  C   LIG d   1       4.547  -1.605  -2.406  0.00  0.00    -0.040 C 
ATOM     16  H   LIG d   1       6.674  -1.588  -2.747  0.00  0.00     0.028 H 
ATOM     17  H   LIG d   1       5.723  -2.294  -4.075  0.00  0.00     0.028 H 
ATOM     18  C   LIG d   1       3.264  -1.477  -3.229  0.00  0.00    -0.047 C 
ATOM     19  C   LIG d   1       4.600  -0.486  -1.365  0.00  0.00    -0.047 C 
ATOM     20  H   LIG d   1       4.561  -2.572  -1.902  0.00  0.00     0.030 H 
ATOM     21  C   LIG d   1       3.245  -0.120  -3.937  0.00  0.00    -0.040 C 
ATOM     22  H   LIG d   1       2.399  -1.554  -2.569  0.00  0.00     0.027 H 
ATOM     23  H   LIG d   1       3.227  -2.275  -3.972  0.00  0.00     0.027 H 
ATOM     24  C   LIG d   1       4.457  -0.011  -4.863  0.00  0.00    -0.034 C 
ATOM     25  C   LIG d   1       3.297   1.000  -2.895  0.00  0.00    -0.047 C 
ATOM     26  H   LIG d   1       2.330  -0.029  -4.523  0.00  0.00     0.030 H 
ATOM     27  H   LIG d   1       4.421  -0.809  -5.605  0.00  0.00     0.028 H 
ATOM     28  H   LIG d   1       4.444   0.955  -5.368  0.00  0.00     0.028 H 
ATOM     29  C   LIG d   1       4.581   0.871  -2.071  0.00  0.00    -0.040 C 
ATOM     30  H   LIG d   1       3.283   1.966  -3.399  0.00  0.00     0.027 H 
ATOM     31  H   LIG d   1       2.433   0.922  -2.235  0.00  0.00     0.027 H 
ATOM     32  C   LIG d   1       5.793   0.979  -2.999  0.00  0.00    -0.034 C 
ATOM     33  H   LIG d   1       4.618   1.668  -1.331  0.00  0.00     0.030 H 
ATOM     34  H   LIG d   1       5.781   1.946  -3.503  0.00  0.00     0.028 H 
ATOM     35  H   LIG d   1       6.707   0.889  -2.412  0.00  0.00     0.028 H 
ATOM     36  H   LIG d   1       5.514  -0.578  -0.778  0.00  0.00     0.027 H 
ATOM     37  H   LIG d   1       3.735  -0.563  -0.705  0.00  0.00     0.027 H 
ENDBRANCH  11  13
ENDBRANCH  10  11
ENDBRANCH   2  10
BRANCH   1  38
ATOM     38  C   LIG d   1       6.074   0.184  -8.211  0.00  0.00     0.005 A 
ATOM     39  C   LIG d   1       5.654  -1.143  -8.133  0.00  0.00    -0.046 A 
ATOM     40  C   LIG d   1       4.322  -1.455  -8.309  0.00  0.00    -0.008 A 
ATOM     41  H   LIG d   1       6.371  -1.926  -7.936  0.00  0.00     0.063 H 
ATOM     42  C   LIG d   1       3.400  -0.448  -8.564  0.00  0.00     0.126 A 
ATOM     43  C   LIG d   1       3.816   0.875  -8.641  0.00  0.00    -0.008 A 
ATOM     44  C   LIG d   1       5.145   1.193  -8.461  0.00  0.00    -0.046 A 
ATOM     45  H   LIG d   1       5.466   2.223  -8.517  0.00  0.00     0.063 H 
BRANCH  40  46
ATOM     46  C   LIG d   1       3.867  -2.889  -8.226  0.00  0.00    -0.036 C 
ATOM     47  H   LIG d   1       2.777  -2.924  -8.230  0.00  0.00     0.028 H 
ATOM     48  H   LIG d   1       4.251  -3.442  -9.083  0.00  0.00     0.028 H 
ATOM     49  H   LIG d   1       4.242  -3.337  -7.307  0.00  0.00     0.028 H 
ENDBRANCH  40  46
BRANCH  42  50
ATOM     50  O   LIG d   1       2.089  -0.758  -8.736  0.00  0.00    -0.492 OA
BRANCH  50  51
ATOM     51  C   LIG d   1       1.609  -0.823 -10.080  0.00  0.00     0.087 C 
ATOM     52  H   LIG d   1       0.716  -0.204 -10.177  0.00  0.00     0.069 H 
ATOM     53  H   LIG d   1       2.378  -0.459 -10.760  0.00  0.00     0.069 H 
BRANCH  51  54
ATOM     54  C   LIG d   1       1.264  -2.272 -10.430  0.00  0.00    -0.031 C 
ATOM     55  H   LIG d   1       2.183  -2.833 -10.599  0.00  0.00     0.026 H 
ATOM     56  H   LIG d   1       0.710  -2.722  -9.606  0.00  0.00     0.026 H 
ATOM     57  H   LIG d   1       0.654  -2.292 -11.333  0.00  0.00     0.026 H 
ENDBRANCH  51  54
ENDBRANCH  50  51
ENDBRANCH  42  50
BRANCH  43  58
ATOM     58  C   LIG d   1       2.811   1.965  -8.917  0.00  0.00    -0.036 C 
ATOM     59  H   LIG d   1       2.787   2.657  -8.076  0.00  0.00     0.028 H 
ATOM     60  H   LIG d   1       3.097   2.501  -9.822  0.00  0.00     0.028 H 
ATOM     61  H   LIG d   1       1.823   1.522  -9.053  0.00  0.00     0.028 H 
ENDBRANCH  43  58
ENDBRANCH   1  38
TORSDOF 9
ENDMDL
MODEL 7
REMARK VINA RESULT:      -6.4      2.027      4.754
REMARK  9 active torsions:
REMARK  status: ('A' for Active; 'I' for Inactive)
REMARK    1  A    between atoms: C_1  and  C_2 
REMARK    2  A    between atoms: C_2  and  O_3 
REMARK    3  A    between atoms: O_3  and  C_4 
REMARK    4  A    between atoms: C_5  and  C_30 
REMARK    5  A    between atoms: C_7  and  C_11 
REMARK    6  A    between atoms: C_9  and  C_10 
REMARK    7  A    between atoms: C_12  and  O_17 
REMARK    8  A    between atoms: O_17  and  C_18 
REMARK    9  A    between atoms: C_18  and  C_20 
ROOT
ATOM      1  C   LIG d   1       7.496   0.499  -8.025  0.00  0.00     0.113 A 
ATOM      2  C   LIG d   1       7.940   0.950  -6.778  0.00  0.00     0.158 A 
ATOM      3  C   LIG d   1       9.277   1.294  -6.624  0.00  0.00    -0.016 A 
ATOM      4  C   LIG d   1      10.123   1.163  -7.715  0.00  0.00    -0.040 A 
ATOM      5  C   LIG d   1       9.615   0.709  -8.918  0.00  0.00     0.029 A 
ATOM      6  N   LIG d   1       8.342   0.394  -9.042  0.00  0.00    -0.251 NA
ATOM      7  H   LIG d   1       9.650   1.650  -5.675  0.00  0.00     0.066 H 
ATOM      8  H   LIG d   1      11.169   1.417  -7.627  0.00  0.00     0.063 H 
ATOM      9  H   LIG d   1      10.271   0.611  -9.770  0.00  0.00     0.083 H 
ENDROOT
BRANCH   2  10
ATOM     10  O   LIG d   1       7.076   1.057  -5.735  0.00  0.00    -0.423 OA
BRANCH  10  11
ATOM     11  C   LIG d   1       6.929  -0.024  -4.952  0.00  0.00     0.319 C 
ATOM     12  O   LIG d   1       7.753  -0.907  -4.980  0.00  0.00    -0.250 OA
BRANCH  11  13
ATOM     13  C   LIG d   1       5.735  -0.136  -4.038  0.00  0.00     0.069 C 
ATOM     14  C   LIG d   1       4.451  -0.021  -4.862  0.00  0.00    -0.034 C 
ATOM     15  C   LIG d   1       3.239  -0.135  -3.935  0.00  0.00    -0.040 C 
ATOM     16  H   LIG d   1       4.420  -0.822  -5.600  0.00  0.00     0.028 H 
ATOM     17  H   LIG d   1       4.430   0.943  -5.370  0.00  0.00     0.028 H 
ATOM     18  C   LIG d   1       3.283   0.990  -2.898  0.00  0.00    -0.047 C 
ATOM     19  C   LIG d   1       3.269  -1.488  -3.221  0.00  0.00    -0.047 C 
ATOM     20  H   LIG d   1       2.324  -0.053  -4.521  0.00  0.00     0.030 H 
ATOM     21  C   LIG d   1       4.568   0.875  -2.074  0.00  0.00    -0.040 C 
ATOM     22  H   LIG d   1       2.419   0.909  -2.237  0.00  0.00     0.027 H 
ATOM     23  H   LIG d   1       3.262   1.954  -3.406  0.00  0.00     0.027 H 
ATOM     24  C   LIG d   1       5.780   0.989  -3.001  0.00  0.00    -0.034 C 
ATOM     25  C   LIG d   1       4.597  -0.478  -1.361  0.00  0.00    -0.047 C 
ATOM     26  H   LIG d   1       4.599   1.677  -1.335  0.00  0.00     0.030 H 
ATOM     27  H   LIG d   1       5.759   1.952  -3.510  0.00  0.00     0.028 H 
ATOM     28  H   LIG d   1       6.695   0.907  -2.415  0.00  0.00     0.028 H 
ATOM     29  C   LIG d   1       4.553  -1.603  -2.397  0.00  0.00    -0.040 C 
ATOM     30  H   LIG d   1       5.512  -0.560  -0.774  0.00  0.00     0.027 H 
ATOM     31  H   LIG d   1       3.733  -0.559  -0.700  0.00  0.00     0.027 H 
ATOM     32  C   LIG d   1       5.765  -1.489  -3.325  0.00  0.00    -0.034 C 
ATOM     33  H   LIG d   1       4.574  -2.566  -1.889  0.00  0.00     0.030 H 
ATOM     34  H   LIG d   1       6.680  -1.571  -2.739  0.00  0.00     0.028 H 
ATOM     35  H   LIG d   1       5.734  -2.290  -4.062  0.00  0.00     0.028 H 
ATOM     36  H   LIG d   1       3.237  -2.289  -3.959  0.00  0.00     0.027 H 
ATOM     37  H   LIG d   1       2.405  -1.569  -2.560  0.00  0.00     0.027 H 
ENDBRANCH  11  13
ENDBRANCH  10  11
ENDBRANCH   2  10
BRANCH   1  38
ATOM     38  C   LIG d   1       6.072   0.133  -8.211  0.00  0.00     0.005 A 
ATOM     39  C   LIG d   1       5.129   1.119  -8.498  0.00  0.00    -0.046 A 
ATOM     40  C   LIG d   1       3.805   0.777  -8.671  0.00  0.00    -0.008 A 
ATOM     41  H   LIG d   1       5.436   2.151  -8.584  0.00  0.00     0.063 H 
ATOM     42  C   LIG d   1       3.410  -0.550  -8.559  0.00  0.00     0.126 A 
ATOM     43  C   LIG d   1       4.347  -1.535  -8.275  0.00  0.00    -0.008 A 
ATOM     44  C   LIG d   1       5.673  -1.199  -8.106  0.00  0.00    -0.046 A 
ATOM     45  H   LIG d   1       6.401  -1.967  -7.889  0.00  0.00     0.063 H 
BRANCH  40  46
ATOM     46  C   LIG d   1       2.785   1.842  -8.980  0.00  0.00    -0.036 C 
ATOM     47  H   LIG d   1       3.148   2.806  -8.619  0.00  0.00     0.028 H 
ATOM     48  H   LIG d   1       2.627   1.893 -10.057  0.00  0.00     0.028 H 
ATOM     49  H   LIG d   1       1.845   1.600  -8.485  0.00  0.00     0.028 H 
ENDBRANCH  40  46
BRANCH  42  50
ATOM     50  O   LIG d   1       2.104  -0.885  -8.730  0.00  0.00    -0.492 OA
BRANCH  50  51
ATOM     51  C   LIG d   1       1.784  -1.689  -9.866  0.00  0.00     0.087 C 
ATOM     52  H   LIG d   1       2.676  -2.224 -10.195  0.00  0.00     0.069 H 
ATOM     53  H   LIG d   1       1.008  -2.405  -9.599  0.00  0.00     0.069 H 
BRANCH  51  54
ATOM     54  C   LIG d   1       1.281  -0.793 -11.000  0.00  0.00    -0.031 C 
ATOM     55  H   LIG d   1       0.628  -1.368 -11.655  0.00  0.00     0.026 H 
ATOM     56  H   LIG d   1       0.727   0.047 -10.581  0.00  0.00     0.026 H 
ATOM     57  H   LIG d   1       2.131  -0.418 -11.571  0.00  0.00     0.026 H 
ENDBRANCH  51  54
ENDBRANCH  50  51
ENDBRANCH  42  50
BRANCH  43  58
ATOM     58  C   LIG d   1       3.913  -2.974  -8.155  0.00  0.00    -0.036 C 
ATOM     59  H   LIG d   1       4.464  -3.452  -7.346  0.00  0.00     0.028 H 
ATOM     60  H   LIG d   1       2.845  -3.015  -7.942  0.00  0.00     0.028 H 
ATOM     61  H   LIG d   1       4.118  -3.494  -9.092  0.00  0.00     0.028 H 
ENDBRANCH  43  58
ENDBRANCH   1  38
TORSDOF 9
ENDMDL
MODEL 8
REMARK VINA RESULT:      -6.1      1.462      2.426
REMARK  9 active torsions:
REMARK  status: ('A' for Active; 'I' for Inactive)
REMARK    1  A    between atoms: C_1  and  C_2 
REMARK    2  A    between atoms: C_2  and  O_3 
REMARK    3  A    between atoms: O_3  and  C_4 
REMARK    4  A    between atoms: C_5  and  C_30 
REMARK    5  A    between atoms: C_7  and  C_11 
REMARK    6  A    between atoms: C_9  and  C_10 
REMARK    7  A    between atoms: C_12  and  O_17 
REMARK    8  A    between atoms: O_17  and  C_18 
REMARK    9  A    between atoms: C_18  and  C_20 
ROOT
ATOM      1  C   LIG d   1       5.606   0.504  -8.781  0.00  0.00     0.113 A 
ATOM      2  C   LIG d   1       4.310   0.734  -8.307  0.00  0.00     0.158 A 
ATOM      3  C   LIG d   1       3.285   0.936  -9.223  0.00  0.00    -0.016 A 
ATOM      4  C   LIG d   1       3.592   0.911 -10.575  0.00  0.00    -0.040 A 
ATOM      5  C   LIG d   1       4.897   0.678 -10.971  0.00  0.00     0.029 A 
ATOM      6  N   LIG d   1       5.851   0.484 -10.084  0.00  0.00    -0.251 NA
ATOM      7  H   LIG d   1       2.273   1.111  -8.890  0.00  0.00     0.066 H 
ATOM      8  H   LIG d   1       2.819   1.069 -11.313  0.00  0.00     0.063 H 
ATOM      9  H   LIG d   1       5.137   0.654 -12.024  0.00  0.00     0.083 H 
ENDROOT
BRANCH   2  10
ATOM     10  O   LIG d   1       4.057   0.755  -6.973  0.00  0.00    -0.423 OA
BRANCH  10  11
ATOM     11  C   LIG d   1       3.794  -0.423  -6.384  0.00  0.00     0.319 C 
ATOM     12  O   LIG d   1       3.266  -1.309  -7.013  0.00  0.00    -0.250 OA
BRANCH  11  13
ATOM     13  C   LIG d   1       4.157  -0.640  -4.937  0.00  0.00     0.069 C 
ATOM     14  C   LIG d   1       4.615  -2.086  -4.737  0.00  0.00    -0.034 C 
ATOM     15  C   LIG d   1       4.983  -2.306  -3.268  0.00  0.00    -0.040 C 
ATOM     16  H   LIG d   1       5.485  -2.282  -5.363  0.00  0.00     0.028 H 
ATOM     17  H   LIG d   1       3.807  -2.764  -5.015  0.00  0.00     0.028 H 
ATOM     18  C   LIG d   1       3.761  -2.032  -2.390  0.00  0.00    -0.047 C 
ATOM     19  C   LIG d   1       6.115  -1.354  -2.879  0.00  0.00    -0.047 C 
ATOM     20  H   LIG d   1       5.309  -3.336  -3.126  0.00  0.00     0.030 H 
ATOM     21  C   LIG d   1       3.303  -0.585  -2.589  0.00  0.00    -0.040 C 
ATOM     22  H   LIG d   1       4.023  -2.188  -1.342  0.00  0.00     0.027 H 
ATOM     23  H   LIG d   1       2.954  -2.710  -2.667  0.00  0.00     0.027 H 
ATOM     24  C   LIG d   1       2.935  -0.365  -4.058  0.00  0.00    -0.034 C 
ATOM     25  C   LIG d   1       4.435   0.367  -2.200  0.00  0.00    -0.047 C 
ATOM     26  H   LIG d   1       2.432  -0.390  -1.963  0.00  0.00     0.030 H 
ATOM     27  H   LIG d   1       2.128  -1.044  -4.336  0.00  0.00     0.028 H 
ATOM     28  H   LIG d   1       2.608   0.665  -4.200  0.00  0.00     0.028 H 
ATOM     29  C   LIG d   1       5.658   0.092  -3.078  0.00  0.00    -0.040 C 
ATOM     30  H   LIG d   1       4.109   1.397  -2.342  0.00  0.00     0.027 H 
ATOM     31  H   LIG d   1       4.698   0.210  -1.153  0.00  0.00     0.027 H 
ATOM     32  C   LIG d   1       5.289   0.312  -4.547  0.00  0.00    -0.034 C 
ATOM     33  H   LIG d   1       6.464   0.771  -2.801  0.00  0.00     0.030 H 
ATOM     34  H   LIG d   1       4.963   1.343  -4.690  0.00  0.00     0.028 H 
ATOM     35  H   LIG d   1       6.160   0.117  -5.173  0.00  0.00     0.028 H 
ATOM     36  H   LIG d   1       6.986  -1.550  -3.504  0.00  0.00     0.027 H 
ATOM     37  H   LIG d   1       6.378  -1.510  -1.832  0.00  0.00     0.027 H 
ENDBRANCH  11  13
ENDBRANCH  10  11
ENDBRANCH   2  10
BRANCH   1  38
ATOM     38  C   LIG d   1       6.712   0.281  -7.820  0.00  0.00     0.005 A 
ATOM     39  C   LIG d   1       7.037  -1.014  -7.417  0.00  0.00    -0.046 A 
ATOM     40  C   LIG d   1       8.066  -1.218  -6.523  0.00  0.00    -0.008 A 
ATOM     41  H   LIG d   1       6.481  -1.856  -7.804  0.00  0.00     0.063 H 
ATOM     42  C   LIG d   1       8.779  -0.136  -6.024  0.00  0.00     0.126 A 
ATOM     43  C   LIG d   1       8.459   1.154  -6.424  0.00  0.00    -0.008 A 
ATOM     44  C   LIG d   1       7.434   1.365  -7.322  0.00  0.00    -0.046 A 
ATOM     45  H   LIG d   1       7.189   2.369  -7.636  0.00  0.00     0.063 H 
BRANCH  40  46
ATOM     46  C   LIG d   1       8.417  -2.617  -6.085  0.00  0.00    -0.036 C 
ATOM     47  H   LIG d   1       7.520  -3.118  -5.718  0.00  0.00     0.028 H 
ATOM     48  H   LIG d   1       8.821  -3.172  -6.932  0.00  0.00     0.028 H 
ATOM     49  H   LIG d   1       9.160  -2.574  -5.290  0.00  0.00     0.028 H 
ENDBRANCH  40  46
BRANCH  42  50
ATOM     50  O   LIG d   1       9.793  -0.341  -5.143  0.00  0.00    -0.492 OA
BRANCH  50  51
ATOM     51  C   LIG d   1      11.103  -0.506  -5.688  0.00  0.00     0.087 C 
ATOM     52  H   LIG d   1      11.223  -1.531  -6.040  0.00  0.00     0.069 H 
ATOM     53  H   LIG d   1      11.240   0.182  -6.521  0.00  0.00     0.069 H 
BRANCH  51  54
ATOM     54  C   LIG d   1      12.146  -0.213  -4.608  0.00  0.00    -0.031 C 
ATOM     55  H   LIG d   1      12.963  -0.929  -4.688  0.00  0.00     0.026 H 
ATOM     56  H   LIG d   1      12.533   0.797  -4.742  0.00  0.00     0.026 H 
ATOM     57  H   LIG d   1      11.683  -0.297  -3.624  0.00  0.00     0.026 H 
ENDBRANCH  51  54
ENDBRANCH  50  51
ENDBRANCH  42  50
BRANCH  43  58
ATOM     58  C   LIG d   1       9.236   2.326  -5.880  0.00  0.00    -0.036 C 
ATOM     59  H   LIG d   1       8.551   3.145  -5.662  0.00  0.00     0.028 H 
ATOM     60  H   LIG d   1       9.750   2.028  -4.967  0.00  0.00     0.028 H 
ATOM     61  H   LIG d   1       9.968   2.651  -6.621  0.00  0.00     0.028 H 
ENDBRANCH  43  58
ENDBRANCH   1  38
TORSDOF 9
ENDMDL
MODEL 9
REMARK VINA RESULT:      -6.0      2.326      5.238
REMARK  9 active torsions:
REMARK  status: ('A' for Active; 'I' for Inactive)
REMARK    1  A    between atoms: C_1  and  C_2 
REMARK    2  A    between atoms: C_2  and  O_3 
REMARK    3  A    between atoms: O_3  and  C_4 
REMARK    4  A    between atoms: C_5  and  C_30 
REMARK    5  A    between atoms: C_7  and  C_11 
REMARK    6  A    between atoms: C_9  and  C_10 
REMARK    7  A    between atoms: C_12  and  O_17 
REMARK    8  A    between atoms: O_17  and  C_18 
REMARK    9  A    between atoms: C_18  and  C_20 
ROOT
ATOM      1  C   LIG d   1       4.678  -3.618  -7.501  0.00  0.00     0.113 A 
ATOM      2  C   LIG d   1       5.540  -3.535  -6.402  0.00  0.00     0.158 A 
ATOM      3  C   LIG d   1       5.692  -4.646  -5.582  0.00  0.00    -0.016 A 
ATOM      4  C   LIG d   1       4.971  -5.792  -5.881  0.00  0.00    -0.040 A 
ATOM      5  C   LIG d   1       4.136  -5.801  -6.983  0.00  0.00     0.029 A 
ATOM      6  N   LIG d   1       4.012  -4.737  -7.750  0.00  0.00    -0.251 NA
ATOM      7  H   LIG d   1       6.353  -4.616  -4.728  0.00  0.00     0.066 H 
ATOM      8  H   LIG d   1       5.062  -6.672  -5.260  0.00  0.00     0.063 H 
ATOM      9  H   LIG d   1       3.577  -6.695  -7.221  0.00  0.00     0.083 H 
ENDROOT
BRANCH   2  10
ATOM     10  O   LIG d   1       6.222  -2.389  -6.144  0.00  0.00    -0.423 OA
BRANCH  10  11
ATOM     11  C   LIG d   1       6.456  -2.096  -4.855  0.00  0.00     0.319 C 
ATOM     12  O   LIG d   1       7.477  -2.464  -4.326  0.00  0.00    -0.250 OA
BRANCH  11  13
ATOM     13  C   LIG d   1       5.442  -1.307  -4.066  0.00  0.00     0.069 C 
ATOM     14  C   LIG d   1       4.450  -0.647  -5.027  0.00  0.00    -0.034 C 
ATOM     15  C   LIG d   1       3.421   0.154  -4.227  0.00  0.00    -0.040 C 
ATOM     16  H   LIG d   1       3.941  -1.416  -5.607  0.00  0.00     0.028 H 
ATOM     17  H   LIG d   1       4.987   0.021  -5.700  0.00  0.00     0.028 H 
ATOM     18  C   LIG d   1       4.137   1.234  -3.412  0.00  0.00    -0.047 C 
ATOM     19  C   LIG d   1       2.669  -0.784  -3.281  0.00  0.00    -0.047 C 
ATOM     20  H   LIG d   1       2.714   0.624  -4.911  0.00  0.00     0.030 H 
ATOM     21  C   LIG d   1       5.129   0.574  -2.451  0.00  0.00    -0.040 C 
ATOM     22  H   LIG d   1       3.404   1.805  -2.841  0.00  0.00     0.027 H 
ATOM     23  H   LIG d   1       4.673   1.902  -4.086  0.00  0.00     0.027 H 
ATOM     24  C   LIG d   1       6.158  -0.227  -3.251  0.00  0.00    -0.034 C 
ATOM     25  C   LIG d   1       4.376  -0.364  -1.505  0.00  0.00    -0.047 C 
ATOM     26  H   LIG d   1       5.639   1.344  -1.870  0.00  0.00     0.030 H 
ATOM     27  H   LIG d   1       6.694   0.441  -3.925  0.00  0.00     0.028 H 
ATOM     28  H   LIG d   1       6.865  -0.697  -2.567  0.00  0.00     0.028 H 
ATOM     29  C   LIG d   1       3.659  -1.443  -2.320  0.00  0.00    -0.040 C 
ATOM     30  H   LIG d   1       5.082  -0.834  -0.820  0.00  0.00     0.027 H 
ATOM     31  H   LIG d   1       3.643   0.207  -0.935  0.00  0.00     0.027 H 
ATOM     32  C   LIG d   1       4.689  -2.244  -3.121  0.00  0.00    -0.034 C 
ATOM     33  H   LIG d   1       3.124  -2.111  -1.646  0.00  0.00     0.030 H 
ATOM     34  H   LIG d   1       5.396  -2.715  -2.436  0.00  0.00     0.028 H 
ATOM     35  H   LIG d   1       4.180  -3.013  -3.700  0.00  0.00     0.028 H 
ATOM     36  H   LIG d   1       2.158  -1.552  -3.861  0.00  0.00     0.027 H 
ATOM     37  H   LIG d   1       1.935  -0.213  -2.710  0.00  0.00     0.027 H 
ENDBRANCH  11  13
ENDBRANCH  10  11
ENDBRANCH   2  10
BRANCH   1  38
ATOM     38  C   LIG d   1       4.508  -2.445  -8.391  0.00  0.00     0.005 A 
ATOM     39  C   LIG d   1       5.616  -1.873  -9.013  0.00  0.00    -0.046 A 
ATOM     40  C   LIG d   1       5.455  -0.782  -9.840  0.00  0.00    -0.008 A 
ATOM     41  H   LIG d   1       6.602  -2.283  -8.845  0.00  0.00     0.063 H 
ATOM     42  C   LIG d   1       4.189  -0.254 -10.056  0.00  0.00     0.126 A 
ATOM     43  C   LIG d   1       3.082  -0.823  -9.440  0.00  0.00    -0.008 A 
ATOM     44  C   LIG d   1       3.237  -1.916  -8.614  0.00  0.00    -0.046 A 
ATOM     45  H   LIG d   1       2.374  -2.361  -8.139  0.00  0.00     0.063 H 
BRANCH  40  46
ATOM     46  C   LIG d   1       6.653  -0.162 -10.512  0.00  0.00    -0.036 C 
ATOM     47  H   LIG d   1       6.417   0.863 -10.800  0.00  0.00     0.028 H 
ATOM     48  H   LIG d   1       7.496  -0.159  -9.821  0.00  0.00     0.028 H 
ATOM     49  H   LIG d   1       6.912  -0.738 -11.399  0.00  0.00     0.028 H 
ENDBRANCH  40  46
BRANCH  42  50
ATOM     50  O   LIG d   1       4.033   0.820 -10.873  0.00  0.00    -0.492 OA
BRANCH  50  51
ATOM     51  C   LIG d   1       3.624   2.045 -10.262  0.00  0.00     0.087 C 
ATOM     52  H   LIG d   1       3.510   2.812 -11.029  0.00  0.00     0.069 H 
ATOM     53  H   LIG d   1       2.674   1.898  -9.751  0.00  0.00     0.069 H 
BRANCH  51  54
ATOM     54  C   LIG d   1       4.683   2.489  -9.251  0.00  0.00    -0.031 C 
ATOM     55  H   LIG d   1       4.716   1.780  -8.424  0.00  0.00     0.026 H 
ATOM     56  H   LIG d   1       5.658   2.525  -9.738  0.00  0.00     0.026 H 
ATOM     57  H   LIG d   1       4.431   3.479  -8.871  0.00  0.00     0.026 H 
ENDBRANCH  51  54
ENDBRANCH  50  51
ENDBRANCH  42  50
BRANCH  43  58
ATOM     58  C   LIG d   1       1.709  -0.247  -9.676  0.00  0.00    -0.036 C 
ATOM     59  H   LIG d   1       1.671   0.770  -9.287  0.00  0.00     0.028 H 
ATOM     60  H   LIG d   1       1.500  -0.235 -10.746  0.00  0.00     0.028 H 
ATOM     61  H   LIG d   1       0.965  -0.859  -9.166  0.00  0.00     0.028 H 
ENDBRANCH  43  58
ENDBRANCH   1  38
TORSDOF 9
ENDMDL
MODEL 10
REMARK VINA RESULT:      -6.0      1.784      2.665
REMARK  9 active torsions:
REMARK  status: ('A' for Active; 'I' for Inactive)
REMARK    1  A    between atoms: C_1  and  C_2 
REMARK    2  A    between atoms: C_2  and  O_3 
REMARK    3  A    between atoms: O_3  and  C_4 
REMARK    4  A    between atoms: C_5  and  C_30 
REMARK    5  A    between atoms: C_7  and  C_11 
REMARK    6  A    between atoms: C_9  and  C_10 
REMARK    7  A    between atoms: C_12  and  O_17 
REMARK    8  A    between atoms: O_17  and  C_18 
REMARK    9  A    between atoms: C_18  and  C_20 
ROOT
ATOM      1  C   LIG d   1       5.662  -1.149  -8.453  0.00  0.00     0.113 A 
ATOM      2  C   LIG d   1       4.617  -0.307  -8.060  0.00  0.00     0.158 A 
ATOM      3  C   LIG d   1       4.578   0.992  -8.553  0.00  0.00    -0.016 A 
ATOM      4  C   LIG d   1       5.588   1.404  -9.409  0.00  0.00    -0.040 A 
ATOM      5  C   LIG d   1       6.591   0.517  -9.754  0.00  0.00     0.029 A 
ATOM      6  N   LIG d   1       6.604  -0.712  -9.278  0.00  0.00    -0.251 NA
ATOM      7  H   LIG d   1       3.782   1.665  -8.272  0.00  0.00     0.066 H 
ATOM      8  H   LIG d   1       5.590   2.409  -9.805  0.00  0.00     0.063 H 
ATOM      9  H   LIG d   1       7.376   0.835 -10.424  0.00  0.00     0.083 H 
ENDROOT
BRANCH   2  10
ATOM     10  O   LIG d   1       3.652  -0.753  -7.215  0.00  0.00    -0.423 OA
BRANCH  10  11
ATOM     11  C   LIG d   1       3.433  -0.031  -6.104  0.00  0.00     0.319 C 
ATOM     12  O   LIG d   1       2.788   0.988  -6.162  0.00  0.00    -0.250 OA
BRANCH  11  13
ATOM     13  C   LIG d   1       3.996  -0.492  -4.783  0.00  0.00     0.069 C 
ATOM     14  C   LIG d   1       4.098  -2.019  -4.778  0.00  0.00    -0.034 C 
ATOM     15  C   LIG d   1       4.668  -2.487  -3.437  0.00  0.00    -0.040 C 
ATOM     16  H   LIG d   1       4.755  -2.342  -5.585  0.00  0.00     0.028 H 
ATOM     17  H   LIG d   1       3.107  -2.450  -4.921  0.00  0.00     0.028 H 
ATOM     18  C   LIG d   1       3.745  -2.034  -2.304  0.00  0.00    -0.047 C 
ATOM     19  C   LIG d   1       6.059  -1.881  -3.236  0.00  0.00    -0.047 C 
ATOM     20  H   LIG d   1       4.741  -3.574  -3.434  0.00  0.00     0.030 H 
ATOM     21  C   LIG d   1       3.643  -0.506  -2.310  0.00  0.00    -0.040 C 
ATOM     22  H   LIG d   1       4.151  -2.367  -1.349  0.00  0.00     0.027 H 
ATOM     23  H   LIG d   1       2.754  -2.465  -2.448  0.00  0.00     0.027 H 
ATOM     24  C   LIG d   1       3.072  -0.038  -3.650  0.00  0.00    -0.034 C 
ATOM     25  C   LIG d   1       5.033   0.099  -2.108  0.00  0.00    -0.047 C 
ATOM     26  H   LIG d   1       2.985  -0.184  -1.502  0.00  0.00     0.030 H 
ATOM     27  H   LIG d   1       2.082  -0.470  -3.794  0.00  0.00     0.028 H 
ATOM     28  H   LIG d   1       2.999   1.049  -3.654  0.00  0.00     0.028 H 
ATOM     29  C   LIG d   1       5.957  -0.355  -3.241  0.00  0.00    -0.040 C 
ATOM     30  H   LIG d   1       4.960   1.186  -2.111  0.00  0.00     0.027 H 
ATOM     31  H   LIG d   1       5.440  -0.235  -1.153  0.00  0.00     0.027 H 
ATOM     32  C   LIG d   1       5.385   0.113  -4.581  0.00  0.00    -0.034 C 
ATOM     33  H   LIG d   1       6.946   0.077  -3.097  0.00  0.00     0.030 H 
ATOM     34  H   LIG d   1       5.313   1.201  -4.586  0.00  0.00     0.028 H 
ATOM     35  H   LIG d   1       6.043  -0.209  -5.388  0.00  0.00     0.028 H 
ATOM     36  H   LIG d   1       6.716  -2.205  -4.043  0.00  0.00     0.027 H 
ATOM     37  H   LIG d   1       6.465  -2.214  -2.280  0.00  0.00     0.027 H 
ENDBRANCH  11  13
ENDBRANCH  10  11
ENDBRANCH   2  10
BRANCH   1  38
ATOM     38  C   LIG d   1       5.717  -2.540  -7.944  0.00  0.00     0.005 A 
ATOM     39  C   LIG d   1       4.888  -3.518  -8.490  0.00  0.00    -0.046 A 
ATOM     40  C   LIG d   1       4.942  -4.811  -8.015  0.00  0.00    -0.008 A 
ATOM     41  H   LIG d   1       4.203  -3.263  -9.286  0.00  0.00     0.063 H 
ATOM     42  C   LIG d   1       5.822  -5.139  -6.991  0.00  0.00     0.126 A 
ATOM     43  C   LIG d   1       6.650  -4.168  -6.445  0.00  0.00    -0.008 A 
ATOM     44  C   LIG d   1       6.604  -2.874  -6.920  0.00  0.00    -0.046 A 
ATOM     45  H   LIG d   1       7.252  -2.120  -6.498  0.00  0.00     0.063 H 
BRANCH  40  46
ATOM     46  C   LIG d   1       4.045  -5.868  -8.604  0.00  0.00    -0.036 C 
ATOM     47  H   LIG d   1       4.628  -6.768  -8.805  0.00  0.00     0.028 H 
ATOM     48  H   LIG d   1       3.247  -6.103  -7.900  0.00  0.00     0.028 H 
ATOM     49  H   LIG d   1       3.612  -5.501  -9.534  0.00  0.00     0.028 H 
ENDBRANCH  40  46
BRANCH  42  50
ATOM     50  O   LIG d   1       5.872  -6.414  -6.525  0.00  0.00    -0.492 OA
BRANCH  50  51
ATOM     51  C   LIG d   1       4.945  -6.766  -5.496  0.00  0.00     0.087 C 
ATOM     52  H   LIG d   1       5.211  -6.246  -4.575  0.00  0.00     0.069 H 
ATOM     53  H   LIG d   1       3.939  -6.478  -5.799  0.00  0.00     0.069 H 
BRANCH  51  54
ATOM     54  C   LIG d   1       4.995  -8.277  -5.261  0.00  0.00    -0.031 C 
ATOM     55  H   LIG d   1       4.279  -8.547  -4.486  0.00  0.00     0.026 H 
ATOM     56  H   LIG d   1       4.743  -8.797  -6.185  0.00  0.00     0.026 H 
ATOM     57  H   LIG d   1       5.998  -8.563  -4.945  0.00  0.00     0.026 H 
ENDBRANCH  51  54
ENDBRANCH  50  51
ENDBRANCH  42  50
BRANCH  43  58
ATOM     58  C   LIG d   1       7.603  -4.528  -5.335  0.00  0.00    -0.036 C 
ATOM     59  H   LIG d   1       7.156  -5.300  -4.710  0.00  0.00     0.028 H 
ATOM     60  H   LIG d   1       8.534  -4.900  -5.763  0.00  0.00     0.028 H 
ATOM     61  H   LIG d   1       7.808  -3.644  -4.730  0.00  0.00     0.028 H 
ENDBRANCH  43  58
ENDBRANCH   1  38
TORSDOF 9
ENDMDL
