MODEL 1
REMARK VINA RESULT:      -6.4      0.000      0.000
REMARK  11 active torsions:
REMARK  status: ('A' for Active; 'I' for Inactive)
REMARK    1  A    between atoms: C_1  and  C_2 
REMARK    2  A    between atoms: C_2  and  O_3 
REMARK    3  A    between atoms: O_3  and  C_4 
REMARK    4  A    between atoms: C_4  and  C_6 
REMARK    5  A    between atoms: C_6  and  C_7 
REMARK    6  A    between atoms: C_7  and  C_8 
REMARK    7  A    between atoms: C_9  and  C_28 
REMARK    8  A    between atoms: C_13  and  O_20 
REMARK    9  A    between atoms: C_14  and  C_19 
REMARK   10  A    between atoms: O_20  and  C_21 
REMARK   11  A    between atoms: C_21  and  C_22 
ROOT
ATOM      1  C   LIG d   1       3.573  -1.218  -4.325  0.00  0.00     0.041 A 
ATOM      2  C   LIG d   1       3.215  -0.205  -5.155  0.00  0.00    -0.030 A 
ATOM      3  C   LIG d   1       3.609  -0.293  -6.563  0.00  0.00     0.021 A 
ATOM      4  C   LIG d   1       3.271   0.719  -7.470  0.00  0.00    -0.047 A 
ATOM      5  C   LIG d   1       3.653   0.614  -8.776  0.00  0.00    -0.019 A 
ATOM      6  C   LIG d   1       4.375  -0.496  -9.213  0.00  0.00     0.127 A 
ATOM      7  C   LIG d   1       4.718  -1.506  -8.329  0.00  0.00     0.034 A 
ATOM      8  C   LIG d   1       4.339  -1.414  -6.998  0.00  0.00     0.146 A 
ATOM      9  O   LIG d   1       4.663  -2.387  -6.120  0.00  0.00    -0.422 OA
ATOM     10  C   LIG d   1       4.305  -2.313  -4.829  0.00  0.00     0.341 A 
ATOM     11  O   LIG d   1       4.619  -3.215  -4.073  0.00  0.00    -0.245 OA
ATOM     12  H   LIG d   1       2.711   1.580  -7.137  0.00  0.00     0.063 H 
ATOM     13  H   LIG d   1       3.392   1.394  -9.476  0.00  0.00     0.065 H 
ENDROOT
BRANCH   1  14
ATOM     14  C   LIG d   1       3.191  -1.172  -2.868  0.00  0.00    -0.011 C 
ATOM     15  H   LIG d   1       2.461  -0.377  -2.709  0.00  0.00     0.032 H 
ATOM     16  H   LIG d   1       2.756  -2.128  -2.575  0.00  0.00     0.032 H 
BRANCH  14  17
ATOM     17  C   LIG d   1       4.436  -0.899  -2.021  0.00  0.00     0.049 C 
ATOM     18  H   LIG d   1       4.254  -1.216  -0.995  0.00  0.00     0.038 H 
ATOM     19  H   LIG d   1       5.281  -1.455  -2.429  0.00  0.00     0.038 H 
BRANCH  17  20
ATOM     20  C   LIG d   1       4.745   0.576  -2.045  0.00  0.00     0.307 C 
ATOM     21  O   LIG d   1       3.968   1.365  -1.563  0.00  0.00    -0.251 OA
BRANCH  20  22
ATOM     22  O   LIG d   1       5.887   1.012  -2.602  0.00  0.00    -0.465 OA
BRANCH  22  23
ATOM     23  C   LIG d   1       6.734   0.016  -3.232  0.00  0.00     0.090 C 
ATOM     24  H   LIG d   1       7.701  -0.011  -2.728  0.00  0.00     0.069 H 
ATOM     25  H   LIG d   1       6.261  -0.963  -3.160  0.00  0.00     0.069 H 
BRANCH  23  26
ATOM     26  C   LIG d   1       6.938   0.378  -4.705  0.00  0.00    -0.031 C 
ATOM     27  H   LIG d   1       6.021   0.174  -5.259  0.00  0.00     0.026 H 
ATOM     28  H   LIG d   1       7.185   1.435  -4.789  0.00  0.00     0.026 H 
ATOM     29  H   LIG d   1       7.752  -0.219  -5.117  0.00  0.00     0.026 H 
ENDBRANCH  23  26
ENDBRANCH  22  23
ENDBRANCH  20  22
ENDBRANCH  17  20
ENDBRANCH  14  17
ENDBRANCH   1  14
BRANCH   2  30
ATOM     30  C   LIG d   1       2.433   0.977  -4.642  0.00  0.00    -0.039 C 
ATOM     31  H   LIG d   1       2.050   1.552  -5.485  0.00  0.00     0.028 H 
ATOM     32  H   LIG d   1       1.601   0.624  -4.033  0.00  0.00     0.028 H 
ATOM     33  H   LIG d   1       3.084   1.608  -4.037  0.00  0.00     0.028 H 
ENDBRANCH   2  30
BRANCH   7  34
ATOM     34  C   LIG d   1       5.499  -2.701  -8.812  0.00  0.00    -0.033 C 
ATOM     35  H   LIG d   1       6.153  -2.400  -9.631  0.00  0.00     0.028 H 
ATOM     36  H   LIG d   1       6.101  -3.096  -7.994  0.00  0.00     0.028 H 
ATOM     37  H   LIG d   1       4.809  -3.469  -9.161  0.00  0.00     0.028 H 
ENDBRANCH   7  34
BRANCH   6  38
ATOM     38  O   LIG d   1       4.747  -0.586 -10.515  0.00  0.00    -0.487 OA
BRANCH  38  39
ATOM     39  C   LIG d   1       3.991   0.174 -11.461  0.00  0.00     0.115 C 
ATOM     40  H   LIG d   1       3.457   0.970 -10.943  0.00  0.00     0.075 H 
ATOM     41  H   LIG d   1       4.665   0.608 -12.199  0.00  0.00     0.075 H 
BRANCH  39  42
ATOM     42  C   LIG d   1       3.001  -0.728 -12.153  0.00  0.00    -0.010 A 
ATOM     43  C   LIG d   1       3.352  -1.364 -13.329  0.00  0.00    -0.055 A 
ATOM     44  C   LIG d   1       2.445  -2.192 -13.963  0.00  0.00    -0.061 A 
ATOM     45  H   LIG d   1       4.334  -1.214 -13.752  0.00  0.00     0.062 H 
ATOM     46  C   LIG d   1       1.188  -2.385 -13.422  0.00  0.00    -0.062 A 
ATOM     47  H   LIG d   1       2.719  -2.688 -14.883  0.00  0.00     0.062 H 
ATOM     48  C   LIG d   1       0.838  -1.748 -12.246  0.00  0.00    -0.061 A 
ATOM     49  H   LIG d   1       0.479  -3.030 -13.919  0.00  0.00     0.062 H 
ATOM     50  C   LIG d   1       1.746  -0.925 -11.608  0.00  0.00    -0.055 A 
ATOM     51  H   LIG d   1      -0.145  -1.898 -11.823  0.00  0.00     0.062 H 
ATOM     52  H   LIG d   1       1.474  -0.432 -10.687  0.00  0.00     0.062 H 
ENDBRANCH  39  42
ENDBRANCH  38  39
ENDBRANCH   6  38
TORSDOF 11
ENDMDL
MODEL 2
REMARK VINA RESULT:      -6.0      1.592      2.828
REMARK  11 active torsions:
REMARK  status: ('A' for Active; 'I' for Inactive)
REMARK    1  A    between atoms: C_1  and  C_2 
REMARK    2  A    between atoms: C_2  and  O_3 
REMARK    3  A    between atoms: O_3  and  C_4 
REMARK    4  A    between atoms: C_4  and  C_6 
REMARK    5  A    between atoms: C_6  and  C_7 
REMARK    6  A    between atoms: C_7  and  C_8 
REMARK    7  A    between atoms: C_9  and  C_28 
REMARK    8  A    between atoms: C_13  and  O_20 
REMARK    9  A    between atoms: C_14  and  C_19 
REMARK   10  A    between atoms: O_20  and  C_21 
REMARK   11  A    between atoms: C_21  and  C_22 
ROOT
ATOM      1  C   LIG d   1       6.020  -0.954  -4.155  0.00  0.00     0.041 A 
ATOM      2  C   LIG d   1       5.438  -1.741  -5.097  0.00  0.00    -0.030 A 
ATOM      3  C   LIG d   1       5.463  -1.287  -6.489  0.00  0.00     0.021 A 
ATOM      4  C   LIG d   1       4.881  -2.053  -7.506  0.00  0.00    -0.047 A 
ATOM      5  C   LIG d   1       4.917  -1.606  -8.796  0.00  0.00    -0.019 A 
ATOM      6  C   LIG d   1       5.531  -0.393  -9.105  0.00  0.00     0.127 A 
ATOM      7  C   LIG d   1       6.111   0.377  -8.111  0.00  0.00     0.034 A 
ATOM      8  C   LIG d   1       6.083  -0.062  -6.795  0.00  0.00     0.146 A 
ATOM      9  O   LIG d   1       6.643   0.673  -5.811  0.00  0.00    -0.422 OA
ATOM     10  C   LIG d   1       6.624   0.263  -4.533  0.00  0.00     0.341 A 
ATOM     11  O   LIG d   1       7.141   0.960  -3.679  0.00  0.00    -0.245 OA
ATOM     12  H   LIG d   1       4.405  -2.993  -7.272  0.00  0.00     0.063 H 
ATOM     13  H   LIG d   1       4.468  -2.196  -9.581  0.00  0.00     0.065 H 
ENDROOT
BRANCH   1  14
ATOM     14  C   LIG d   1       6.018  -1.378  -2.709  0.00  0.00    -0.011 C 
ATOM     15  H   LIG d   1       6.374  -2.407  -2.632  0.00  0.00     0.032 H 
ATOM     16  H   LIG d   1       6.676  -0.723  -2.137  0.00  0.00     0.032 H 
BRANCH  14  17
ATOM     17  C   LIG d   1       4.597  -1.286  -2.151  0.00  0.00     0.049 C 
ATOM     18  H   LIG d   1       3.905  -1.773  -2.838  0.00  0.00     0.038 H 
ATOM     19  H   LIG d   1       4.555  -1.782  -1.180  0.00  0.00     0.038 H 
BRANCH  17  20
ATOM     20  C   LIG d   1       4.212   0.162  -1.993  0.00  0.00     0.307 C 
ATOM     21  O   LIG d   1       4.877   0.891  -1.295  0.00  0.00    -0.251 OA
BRANCH  20  22
ATOM     22  O   LIG d   1       3.131   0.642  -2.628  0.00  0.00    -0.465 OA
BRANCH  22  23
ATOM     23  C   LIG d   1       2.494  -0.233  -3.595  0.00  0.00     0.090 C 
ATOM     24  H   LIG d   1       3.043  -1.173  -3.653  0.00  0.00     0.069 H 
ATOM     25  H   LIG d   1       1.467  -0.431  -3.287  0.00  0.00     0.069 H 
BRANCH  23  26
ATOM     26  C   LIG d   1       2.492   0.441  -4.969  0.00  0.00    -0.031 C 
ATOM     27  H   LIG d   1       1.641   0.082  -5.548  0.00  0.00     0.026 H 
ATOM     28  H   LIG d   1       2.417   1.520  -4.844  0.00  0.00     0.026 H 
ATOM     29  H   LIG d   1       3.417   0.199  -5.494  0.00  0.00     0.026 H 
ENDBRANCH  23  26
ENDBRANCH  22  23
ENDBRANCH  20  22
ENDBRANCH  17  20
ENDBRANCH  14  17
ENDBRANCH   1  14
BRANCH   2  30
ATOM     30  C   LIG d   1       4.786  -3.046  -4.719  0.00  0.00    -0.039 C 
ATOM     31  H   LIG d   1       3.806  -2.849  -4.283  0.00  0.00     0.028 H 
ATOM     32  H   LIG d   1       4.670  -3.665  -5.609  0.00  0.00     0.028 H 
ATOM     33  H   LIG d   1       5.408  -3.567  -3.992  0.00  0.00     0.028 H 
ENDBRANCH   2  30
BRANCH   7  34
ATOM     34  C   LIG d   1       6.772   1.686  -8.457  0.00  0.00    -0.033 C 
ATOM     35  H   LIG d   1       6.472   2.446  -7.736  0.00  0.00     0.028 H 
ATOM     36  H   LIG d   1       7.855   1.565  -8.428  0.00  0.00     0.028 H 
ATOM     37  H   LIG d   1       6.467   1.994  -9.458  0.00  0.00     0.028 H 
ENDBRANCH   7  34
BRANCH   6  38
ATOM     38  O   LIG d   1       5.558   0.037 -10.392  0.00  0.00    -0.487 OA
BRANCH  38  39
ATOM     39  C   LIG d   1       4.403   0.731 -10.870  0.00  0.00     0.115 C 
ATOM     40  H   LIG d   1       3.826   1.101 -10.023  0.00  0.00     0.075 H 
ATOM     41  H   LIG d   1       4.715   1.570 -11.492  0.00  0.00     0.075 H 
BRANCH  39  42
ATOM     42  C   LIG d   1       3.554  -0.211 -11.685  0.00  0.00    -0.010 A 
ATOM     43  C   LIG d   1       2.301  -0.578 -11.232  0.00  0.00    -0.055 A 
ATOM     44  C   LIG d   1       1.521  -1.441 -11.980  0.00  0.00    -0.061 A 
ATOM     45  H   LIG d   1       1.931  -0.193 -10.294  0.00  0.00     0.062 H 
ATOM     46  C   LIG d   1       1.994  -1.935 -13.182  0.00  0.00    -0.062 A 
ATOM     47  H   LIG d   1       0.542  -1.729 -11.626  0.00  0.00     0.062 H 
ATOM     48  C   LIG d   1       3.248  -1.566 -13.634  0.00  0.00    -0.061 A 
ATOM     49  H   LIG d   1       1.386  -2.610 -13.765  0.00  0.00     0.062 H 
ATOM     50  C   LIG d   1       4.025  -0.700 -12.889  0.00  0.00    -0.055 A 
ATOM     51  H   LIG d   1       3.618  -1.953 -14.572  0.00  0.00     0.062 H 
ATOM     52  H   LIG d   1       5.001  -0.408 -13.245  0.00  0.00     0.062 H 
ENDBRANCH  39  42
ENDBRANCH  38  39
ENDBRANCH   6  38
TORSDOF 11
ENDMDL
MODEL 3
REMARK VINA RESULT:      -6.0      3.115      8.501
REMARK  11 active torsions:
REMARK  status: ('A' for Active; 'I' for Inactive)
REMARK    1  A    between atoms: C_1  and  C_2 
REMARK    2  A    between atoms: C_2  and  O_3 
REMARK    3  A    between atoms: O_3  and  C_4 
REMARK    4  A    between atoms: C_4  and  C_6 
REMARK    5  A    between atoms: C_6  and  C_7 
REMARK    6  A    between atoms: C_7  and  C_8 
REMARK    7  A    between atoms: C_9  and  C_28 
REMARK    8  A    between atoms: C_13  and  O_20 
REMARK    9  A    between atoms: C_14  and  C_19 
REMARK   10  A    between atoms: O_20  and  C_21 
REMARK   11  A    between atoms: C_21  and  C_22 
ROOT
ATOM      1  C   LIG d   1       2.228  -3.279 -11.249  0.00  0.00     0.041 A 
ATOM      2  C   LIG d   1       1.856  -2.003 -10.971  0.00  0.00    -0.030 A 
ATOM      3  C   LIG d   1       2.358  -1.390  -9.739  0.00  0.00     0.021 A 
ATOM      4  C   LIG d   1       2.011  -0.077  -9.395  0.00  0.00    -0.047 A 
ATOM      5  C   LIG d   1       2.490   0.470  -8.241  0.00  0.00    -0.019 A 
ATOM      6  C   LIG d   1       3.324  -0.268  -7.403  0.00  0.00     0.127 A 
ATOM      7  C   LIG d   1       3.677  -1.568  -7.727  0.00  0.00     0.034 A 
ATOM      8  C   LIG d   1       3.198  -2.140  -8.897  0.00  0.00     0.146 A 
ATOM      9  O   LIG d   1       3.529  -3.405  -9.232  0.00  0.00    -0.422 OA
ATOM     10  C   LIG d   1       3.074  -3.974 -10.359  0.00  0.00     0.341 A 
ATOM     11  O   LIG d   1       3.399  -5.117 -10.621  0.00  0.00    -0.245 OA
ATOM     12  H   LIG d   1       1.366   0.500 -10.041  0.00  0.00     0.063 H 
ATOM     13  H   LIG d   1       2.223   1.482  -7.975  0.00  0.00     0.065 H 
ENDROOT
BRANCH   1  14
ATOM     14  C   LIG d   1       1.737  -3.953 -12.504  0.00  0.00    -0.011 C 
ATOM     15  H   LIG d   1       1.206  -3.228 -13.122  0.00  0.00     0.032 H 
ATOM     16  H   LIG d   1       2.586  -4.351 -13.060  0.00  0.00     0.032 H 
BRANCH  14  17
ATOM     17  C   LIG d   1       0.790  -5.097 -12.133  0.00  0.00     0.049 C 
ATOM     18  H   LIG d   1       0.707  -5.786 -12.973  0.00  0.00     0.038 H 
ATOM     19  H   LIG d   1       1.184  -5.626 -11.265  0.00  0.00     0.038 H 
BRANCH  17  20
ATOM     20  C   LIG d   1      -0.570  -4.536 -11.806  0.00  0.00     0.307 C 
ATOM     21  O   LIG d   1      -1.187  -3.920 -12.641  0.00  0.00    -0.251 OA
BRANCH  20  22
ATOM     22  O   LIG d   1      -1.096  -4.724 -10.584  0.00  0.00    -0.465 OA
BRANCH  22  23
ATOM     23  C   LIG d   1      -2.056  -5.804 -10.440  0.00  0.00     0.090 C 
ATOM     24  H   LIG d   1      -3.066  -5.409 -10.542  0.00  0.00     0.069 H 
ATOM     25  H   LIG d   1      -1.880  -6.553 -11.212  0.00  0.00     0.069 H 
BRANCH  23  26
ATOM     26  C   LIG d   1      -1.897  -6.447  -9.061  0.00  0.00    -0.031 C 
ATOM     27  H   LIG d   1      -2.136  -5.715  -8.289  0.00  0.00     0.026 H 
ATOM     28  H   LIG d   1      -2.572  -7.297  -8.976  0.00  0.00     0.026 H 
ATOM     29  H   LIG d   1      -0.868  -6.786  -8.934  0.00  0.00     0.026 H 
ENDBRANCH  23  26
ENDBRANCH  22  23
ENDBRANCH  20  22
ENDBRANCH  17  20
ENDBRANCH  14  17
ENDBRANCH   1  14
BRANCH   2  30
ATOM     30  C   LIG d   1       0.953  -1.239 -11.905  0.00  0.00    -0.039 C 
ATOM     31  H   LIG d   1       1.165  -1.530 -12.934  0.00  0.00     0.028 H 
ATOM     32  H   LIG d   1      -0.087  -1.467 -11.670  0.00  0.00     0.028 H 
ATOM     33  H   LIG d   1       1.126  -0.170 -11.785  0.00  0.00     0.028 H 
ENDBRANCH   2  30
BRANCH   7  34
ATOM     34  C   LIG d   1       4.579  -2.357  -6.814  0.00  0.00    -0.033 C 
ATOM     35  H   LIG d   1       4.129  -2.419  -5.823  0.00  0.00     0.028 H 
ATOM     36  H   LIG d   1       4.713  -3.362  -7.215  0.00  0.00     0.028 H 
ATOM     37  H   LIG d   1       5.548  -1.863  -6.743  0.00  0.00     0.028 H 
ENDBRANCH   7  34
BRANCH   6  38
ATOM     38  O   LIG d   1       3.793   0.290  -6.258  0.00  0.00    -0.487 OA
BRANCH  38  39
ATOM     39  C   LIG d   1       2.851   0.495  -5.203  0.00  0.00     0.115 C 
ATOM     40  H   LIG d   1       2.624   1.558  -5.121  0.00  0.00     0.075 H 
ATOM     41  H   LIG d   1       1.936  -0.057  -5.420  0.00  0.00     0.075 H 
BRANCH  39  42
ATOM     42  C   LIG d   1       3.437   0.004  -3.904  0.00  0.00    -0.010 A 
ATOM     43  C   LIG d   1       3.346  -1.334  -3.568  0.00  0.00    -0.055 A 
ATOM     44  C   LIG d   1       3.885  -1.785  -2.378  0.00  0.00    -0.061 A 
ATOM     45  H   LIG d   1       2.854  -2.026  -4.235  0.00  0.00     0.062 H 
ATOM     46  C   LIG d   1       4.515  -0.899  -1.523  0.00  0.00    -0.062 A 
ATOM     47  H   LIG d   1       3.813  -2.831  -2.115  0.00  0.00     0.062 H 
ATOM     48  C   LIG d   1       4.605   0.439  -1.860  0.00  0.00    -0.061 A 
ATOM     49  H   LIG d   1       4.934  -1.251  -0.593  0.00  0.00     0.062 H 
ATOM     50  C   LIG d   1       4.072   0.889  -3.053  0.00  0.00    -0.055 A 
ATOM     51  H   LIG d   1       5.096   1.131  -1.193  0.00  0.00     0.062 H 
ATOM     52  H   LIG d   1       4.147   1.933  -3.318  0.00  0.00     0.062 H 
ENDBRANCH  39  42
ENDBRANCH  38  39
ENDBRANCH   6  38
TORSDOF 11
ENDMDL
MODEL 4
REMARK VINA RESULT:      -5.9      2.443      7.530
REMARK  11 active torsions:
REMARK  status: ('A' for Active; 'I' for Inactive)
REMARK    1  A    between atoms: C_1  and  C_2 
REMARK    2  A    between atoms: C_2  and  O_3 
REMARK    3  A    between atoms: O_3  and  C_4 
REMARK    4  A    between atoms: C_4  and  C_6 
REMARK    5  A    between atoms: C_6  and  C_7 
REMARK    6  A    between atoms: C_7  and  C_8 
REMARK    7  A    between atoms: C_9  and  C_28 
REMARK    8  A    between atoms: C_13  and  O_20 
REMARK    9  A    between atoms: C_14  and  C_19 
REMARK   10  A    between atoms: O_20  and  C_21 
REMARK   11  A    between atoms: C_21  and  C_22 
ROOT
ATOM      1  C   LIG d   1       5.929   0.154  -9.583  0.00  0.00     0.041 A 
ATOM      2  C   LIG d   1       5.827  -1.071  -9.006  0.00  0.00    -0.030 A 
ATOM      3  C   LIG d   1       6.220  -1.208  -7.602  0.00  0.00     0.021 A 
ATOM      4  C   LIG d   1       6.140  -2.445  -6.949  0.00  0.00    -0.047 A 
ATOM      5  C   LIG d   1       6.514  -2.546  -5.640  0.00  0.00    -0.019 A 
ATOM      6  C   LIG d   1       6.973  -1.426  -4.950  0.00  0.00     0.127 A 
ATOM      7  C   LIG d   1       7.060  -0.195  -5.580  0.00  0.00     0.034 A 
ATOM      8  C   LIG d   1       6.684  -0.075  -6.910  0.00  0.00     0.146 A 
ATOM      9  O   LIG d   1       6.761   1.115  -7.543  0.00  0.00    -0.422 OA
ATOM     10  C   LIG d   1       6.402   1.248  -8.830  0.00  0.00     0.341 A 
ATOM     11  O   LIG d   1       6.488   2.341  -9.360  0.00  0.00    -0.245 OA
ATOM     12  H   LIG d   1       5.783  -3.315  -7.479  0.00  0.00     0.063 H 
ATOM     13  H   LIG d   1       6.452  -3.499  -5.137  0.00  0.00     0.065 H 
ENDROOT
BRANCH   1  14
ATOM     14  C   LIG d   1       5.537   0.345 -11.026  0.00  0.00    -0.011 C 
ATOM     15  H   LIG d   1       5.854   1.334 -11.361  0.00  0.00     0.032 H 
ATOM     16  H   LIG d   1       6.020  -0.417 -11.638  0.00  0.00     0.032 H 
BRANCH  14  17
ATOM     17  C   LIG d   1       4.019   0.221 -11.164  0.00  0.00     0.049 C 
ATOM     18  H   LIG d   1       3.732   0.400 -12.200  0.00  0.00     0.038 H 
ATOM     19  H   LIG d   1       3.708  -0.782 -10.870  0.00  0.00     0.038 H 
BRANCH  17  20
ATOM     20  C   LIG d   1       3.349   1.236 -10.274  0.00  0.00     0.307 C 
ATOM     21  O   LIG d   1       3.519   2.416 -10.469  0.00  0.00    -0.251 OA
BRANCH  20  22
ATOM     22  O   LIG d   1       2.562   0.828  -9.265  0.00  0.00    -0.465 OA
BRANCH  22  23
ATOM     23  C   LIG d   1       2.866   1.345  -7.943  0.00  0.00     0.090 C 
ATOM     24  H   LIG d   1       3.819   1.874  -7.969  0.00  0.00     0.069 H 
ATOM     25  H   LIG d   1       2.079   2.032  -7.631  0.00  0.00     0.069 H 
BRANCH  23  26
ATOM     26  C   LIG d   1       2.955   0.186  -6.949  0.00  0.00    -0.031 C 
ATOM     27  H   LIG d   1       3.876  -0.371  -7.122  0.00  0.00     0.026 H 
ATOM     28  H   LIG d   1       2.953   0.577  -5.933  0.00  0.00     0.026 H 
ATOM     29  H   LIG d   1       2.099  -0.476  -7.085  0.00  0.00     0.026 H 
ENDBRANCH  23  26
ENDBRANCH  22  23
ENDBRANCH  20  22
ENDBRANCH  17  20
ENDBRANCH  14  17
ENDBRANCH   1  14
BRANCH   2  30
ATOM     30  C   LIG d   1       5.325  -2.256  -9.789  0.00  0.00    -0.039 C 
ATOM     31  H   LIG d   1       4.629  -1.916 -10.557  0.00  0.00     0.028 H 
ATOM     32  H   LIG d   1       6.167  -2.763 -10.261  0.00  0.00     0.028 H 
ATOM     33  H   LIG d   1       4.816  -2.947  -9.118  0.00  0.00     0.028 H 
ENDBRANCH   2  30
BRANCH   7  34
ATOM     34  C   LIG d   1       7.558   1.009  -4.823  0.00  0.00    -0.033 C 
ATOM     35  H   LIG d   1       7.502   1.889  -5.464  0.00  0.00     0.028 H 
ATOM     36  H   LIG d   1       6.940   1.163  -3.939  0.00  0.00     0.028 H 
ATOM     37  H   LIG d   1       8.592   0.845  -4.520  0.00  0.00     0.028 H 
ENDBRANCH   7  34
BRANCH   6  38
ATOM     38  O   LIG d   1       7.341  -1.543  -3.648  0.00  0.00    -0.487 OA
BRANCH  38  39
ATOM     39  C   LIG d   1       6.380  -2.098  -2.749  0.00  0.00     0.115 C 
ATOM     40  H   LIG d   1       6.094  -3.092  -3.092  0.00  0.00     0.075 H 
ATOM     41  H   LIG d   1       6.815  -2.169  -1.751  0.00  0.00     0.075 H 
BRANCH  39  42
ATOM     42  C   LIG d   1       5.162  -1.211  -2.704  0.00  0.00    -0.010 A 
ATOM     43  C   LIG d   1       3.934  -1.703  -3.104  0.00  0.00    -0.055 A 
ATOM     44  C   LIG d   1       2.817  -0.890  -3.063  0.00  0.00    -0.061 A 
ATOM     45  H   LIG d   1       3.848  -2.722  -3.450  0.00  0.00     0.062 H 
ATOM     46  C   LIG d   1       2.928   0.415  -2.621  0.00  0.00    -0.062 A 
ATOM     47  H   LIG d   1       1.858  -1.275  -3.377  0.00  0.00     0.062 H 
ATOM     48  C   LIG d   1       4.157   0.907  -2.221  0.00  0.00    -0.061 A 
ATOM     49  H   LIG d   1       2.056   1.051  -2.590  0.00  0.00     0.062 H 
ATOM     50  C   LIG d   1       5.273   0.092  -2.257  0.00  0.00    -0.055 A 
ATOM     51  H   LIG d   1       4.244   1.927  -1.877  0.00  0.00     0.062 H 
ATOM     52  H   LIG d   1       6.231   0.475  -1.940  0.00  0.00     0.062 H 
ENDBRANCH  39  42
ENDBRANCH  38  39
ENDBRANCH   6  38
TORSDOF 11
ENDMDL
MODEL 5
REMARK VINA RESULT:      -5.8      2.120      8.572
REMARK  11 active torsions:
REMARK  status: ('A' for Active; 'I' for Inactive)
REMARK    1  A    between atoms: C_1  and  C_2 
REMARK    2  A    between atoms: C_2  and  O_3 
REMARK    3  A    between atoms: O_3  and  C_4 
REMARK    4  A    between atoms: C_4  and  C_6 
REMARK    5  A    between atoms: C_6  and  C_7 
REMARK    6  A    between atoms: C_7  and  C_8 
REMARK    7  A    between atoms: C_9  and  C_28 
REMARK    8  A    between atoms: C_13  and  O_20 
REMARK    9  A    between atoms: C_14  and  C_19 
REMARK   10  A    between atoms: O_20  and  C_21 
REMARK   11  A    between atoms: C_21  and  C_22 
ROOT
ATOM      1  C   LIG d   1       3.752  -0.881 -12.458  0.00  0.00     0.041 A 
ATOM      2  C   LIG d   1       2.728  -0.857 -11.567  0.00  0.00    -0.030 A 
ATOM      3  C   LIG d   1       3.030  -0.512 -10.176  0.00  0.00     0.021 A 
ATOM      4  C   LIG d   1       2.018  -0.470  -9.208  0.00  0.00    -0.047 A 
ATOM      5  C   LIG d   1       2.327  -0.148  -7.918  0.00  0.00    -0.019 A 
ATOM      6  C   LIG d   1       3.642   0.141  -7.559  0.00  0.00     0.127 A 
ATOM      7  C   LIG d   1       4.655   0.105  -8.503  0.00  0.00     0.034 A 
ATOM      8  C   LIG d   1       4.359  -0.222  -9.818  0.00  0.00     0.146 A 
ATOM      9  O   LIG d   1       5.331  -0.265 -10.754  0.00  0.00    -0.422 OA
ATOM     10  C   LIG d   1       5.062  -0.579 -12.031  0.00  0.00     0.341 A 
ATOM     11  O   LIG d   1       5.971  -0.605 -12.840  0.00  0.00    -0.245 OA
ATOM     12  H   LIG d   1       0.997  -0.692  -9.482  0.00  0.00     0.063 H 
ATOM     13  H   LIG d   1       1.547  -0.115  -7.172  0.00  0.00     0.065 H 
ENDROOT
BRANCH   1  14
ATOM     14  C   LIG d   1       3.491  -1.231 -13.901  0.00  0.00    -0.011 C 
ATOM     15  H   LIG d   1       2.419  -1.188 -14.096  0.00  0.00     0.032 H 
ATOM     16  H   LIG d   1       4.006  -0.521 -14.547  0.00  0.00     0.032 H 
BRANCH  14  17
ATOM     17  C   LIG d   1       4.005  -2.644 -14.185  0.00  0.00     0.049 C 
ATOM     18  H   LIG d   1       4.347  -2.704 -15.217  0.00  0.00     0.038 H 
ATOM     19  H   LIG d   1       4.834  -2.870 -13.513  0.00  0.00     0.038 H 
BRANCH  17  20
ATOM     20  C   LIG d   1       2.894  -3.637 -13.963  0.00  0.00     0.307 C 
ATOM     21  O   LIG d   1       1.917  -3.620 -14.675  0.00  0.00    -0.251 OA
BRANCH  20  22
ATOM     22  O   LIG d   1       2.990  -4.541 -12.975  0.00  0.00    -0.465 OA
BRANCH  22  23
ATOM     23  C   LIG d   1       4.210  -4.530 -12.189  0.00  0.00     0.090 C 
ATOM     24  H   LIG d   1       4.693  -5.506 -12.253  0.00  0.00     0.069 H 
ATOM     25  H   LIG d   1       4.885  -3.767 -12.575  0.00  0.00     0.069 H 
BRANCH  23  26
ATOM     26  C   LIG d   1       3.873  -4.223 -10.729  0.00  0.00    -0.031 C 
ATOM     27  H   LIG d   1       4.638  -4.653 -10.082  0.00  0.00     0.026 H 
ATOM     28  H   LIG d   1       3.840  -3.144 -10.583  0.00  0.00     0.026 H 
ATOM     29  H   LIG d   1       2.903  -4.653 -10.481  0.00  0.00     0.026 H 
ENDBRANCH  23  26
ENDBRANCH  22  23
ENDBRANCH  20  22
ENDBRANCH  17  20
ENDBRANCH  14  17
ENDBRANCH   1  14
BRANCH   2  30
ATOM     30  C   LIG d   1       1.319  -1.176 -11.998  0.00  0.00    -0.039 C 
ATOM     31  H   LIG d   1       1.248  -2.234 -12.252  0.00  0.00     0.028 H 
ATOM     32  H   LIG d   1       0.631  -0.950 -11.183  0.00  0.00     0.028 H 
ATOM     33  H   LIG d   1       1.060  -0.574 -12.868  0.00  0.00     0.028 H 
ENDBRANCH   2  30
BRANCH   7  34
ATOM     34  C   LIG d   1       6.074   0.419  -8.103  0.00  0.00    -0.033 C 
ATOM     35  H   LIG d   1       6.089   1.332  -7.508  0.00  0.00     0.028 H 
ATOM     36  H   LIG d   1       6.476  -0.405  -7.513  0.00  0.00     0.028 H 
ATOM     37  H   LIG d   1       6.681   0.557  -8.997  0.00  0.00     0.028 H 
ENDBRANCH   7  34
BRANCH   6  38
ATOM     38  O   LIG d   1       3.933   0.460  -6.272  0.00  0.00    -0.487 OA
BRANCH  38  39
ATOM     39  C   LIG d   1       2.877   0.335  -5.317  0.00  0.00     0.115 C 
ATOM     40  H   LIG d   1       2.370   1.294  -5.209  0.00  0.00     0.075 H 
ATOM     41  H   LIG d   1       2.164  -0.416  -5.661  0.00  0.00     0.075 H 
BRANCH  39  42
ATOM     42  C   LIG d   1       3.449  -0.086  -3.988  0.00  0.00    -0.010 A 
ATOM     43  C   LIG d   1       3.473  -1.423  -3.640  0.00  0.00    -0.055 A 
ATOM     44  C   LIG d   1       3.999  -1.811  -2.421  0.00  0.00    -0.061 A 
ATOM     45  H   LIG d   1       3.081  -2.166  -4.319  0.00  0.00     0.062 H 
ATOM     46  C   LIG d   1       4.500  -0.861  -1.551  0.00  0.00    -0.062 A 
ATOM     47  H   LIG d   1       4.016  -2.856  -2.149  0.00  0.00     0.062 H 
ATOM     48  C   LIG d   1       4.475   0.477  -1.900  0.00  0.00    -0.061 A 
ATOM     49  H   LIG d   1       4.909  -1.163  -0.599  0.00  0.00     0.062 H 
ATOM     50  C   LIG d   1       3.955   0.864  -3.121  0.00  0.00    -0.055 A 
ATOM     51  H   LIG d   1       4.866   1.219  -1.221  0.00  0.00     0.062 H 
ATOM     52  H   LIG d   1       3.941   1.907  -3.396  0.00  0.00     0.062 H 
ENDBRANCH  39  42
ENDBRANCH  38  39
ENDBRANCH   6  38
TORSDOF 11
ENDMDL
MODEL 6
REMARK VINA RESULT:      -5.8      5.294      9.048
REMARK  11 active torsions:
REMARK  status: ('A' for Active; 'I' for Inactive)
REMARK    1  A    between atoms: C_1  and  C_2 
REMARK    2  A    between atoms: C_2  and  O_3 
REMARK    3  A    between atoms: O_3  and  C_4 
REMARK    4  A    between atoms: C_4  and  C_6 
REMARK    5  A    between atoms: C_6  and  C_7 
REMARK    6  A    between atoms: C_7  and  C_8 
REMARK    7  A    between atoms: C_9  and  C_28 
REMARK    8  A    between atoms: C_13  and  O_20 
REMARK    9  A    between atoms: C_14  and  C_19 
REMARK   10  A    between atoms: O_20  and  C_21 
REMARK   11  A    between atoms: C_21  and  C_22 
ROOT
ATOM      1  C   LIG d   1       6.084  -7.897  -5.682  0.00  0.00     0.041 A 
ATOM      2  C   LIG d   1       7.198  -7.255  -5.243  0.00  0.00    -0.030 A 
ATOM      3  C   LIG d   1       7.184  -5.791  -5.208  0.00  0.00     0.021 A 
ATOM      4  C   LIG d   1       8.301  -5.071  -4.767  0.00  0.00    -0.047 A 
ATOM      5  C   LIG d   1       8.263  -3.706  -4.746  0.00  0.00    -0.019 A 
ATOM      6  C   LIG d   1       7.118  -3.027  -5.160  0.00  0.00     0.127 A 
ATOM      7  C   LIG d   1       6.005  -3.723  -5.600  0.00  0.00     0.034 A 
ATOM      8  C   LIG d   1       6.027  -5.110  -5.628  0.00  0.00     0.146 A 
ATOM      9  O   LIG d   1       4.953  -5.809  -6.054  0.00  0.00    -0.422 OA
ATOM     10  C   LIG d   1       4.959  -7.150  -6.088  0.00  0.00     0.341 A 
ATOM     11  O   LIG d   1       3.967  -7.738  -6.479  0.00  0.00    -0.245 OA
ATOM     12  H   LIG d   1       9.190  -5.592  -4.444  0.00  0.00     0.063 H 
ATOM     13  H   LIG d   1       9.123  -3.151  -4.405  0.00  0.00     0.065 H 
ENDROOT
BRANCH   1  14
ATOM     14  C   LIG d   1       6.052  -9.402  -5.736  0.00  0.00    -0.011 C 
ATOM     15  H   LIG d   1       5.269  -9.724  -6.425  0.00  0.00     0.032 H 
ATOM     16  H   LIG d   1       7.015  -9.775  -6.084  0.00  0.00     0.032 H 
BRANCH  14  17
ATOM     17  C   LIG d   1       5.764  -9.958  -4.340  0.00  0.00     0.049 C 
ATOM     18  H   LIG d   1       6.381 -10.839  -4.166  0.00  0.00     0.038 H 
ATOM     19  H   LIG d   1       5.994  -9.198  -3.593  0.00  0.00     0.038 H 
BRANCH  17  20
ATOM     20  C   LIG d   1       4.308 -10.336  -4.240  0.00  0.00     0.307 C 
ATOM     21  O   LIG d   1       3.501  -9.531  -3.842  0.00  0.00    -0.251 OA
BRANCH  20  22
ATOM     22  O   LIG d   1       3.910 -11.569  -4.595  0.00  0.00    -0.465 OA
BRANCH  22  23
ATOM     23  C   LIG d   1       3.808 -11.844  -6.017  0.00  0.00     0.090 C 
ATOM     24  H   LIG d   1       3.536 -10.930  -6.545  0.00  0.00     0.069 H 
ATOM     25  H   LIG d   1       4.767 -12.205  -6.388  0.00  0.00     0.069 H 
BRANCH  23  26
ATOM     26  C   LIG d   1       2.735 -12.908  -6.255  0.00  0.00    -0.031 C 
ATOM     27  H   LIG d   1       2.727 -13.609  -5.419  0.00  0.00     0.026 H 
ATOM     28  H   LIG d   1       1.760 -12.430  -6.336  0.00  0.00     0.026 H 
ATOM     29  H   LIG d   1       2.954 -13.445  -7.178  0.00  0.00     0.026 H 
ENDBRANCH  23  26
ENDBRANCH  22  23
ENDBRANCH  20  22
ENDBRANCH  17  20
ENDBRANCH  14  17
ENDBRANCH   1  14
BRANCH   2  30
ATOM     30  C   LIG d   1       8.415  -8.029  -4.804  0.00  0.00    -0.039 C 
ATOM     31  H   LIG d   1       8.848  -7.555  -3.923  0.00  0.00     0.028 H 
ATOM     32  H   LIG d   1       8.126  -9.052  -4.562  0.00  0.00     0.028 H 
ATOM     33  H   LIG d   1       9.148  -8.040  -5.609  0.00  0.00     0.028 H 
ENDBRANCH   2  30
BRANCH   7  34
ATOM     34  C   LIG d   1       4.773  -2.978  -6.045  0.00  0.00    -0.033 C 
ATOM     35  H   LIG d   1       4.331  -3.486  -6.902  0.00  0.00     0.028 H 
ATOM     36  H   LIG d   1       4.051  -2.949  -5.229  0.00  0.00     0.028 H 
ATOM     37  H   LIG d   1       5.046  -1.961  -6.326  0.00  0.00     0.028 H 
ENDBRANCH   7  34
BRANCH   6  38
ATOM     38  O   LIG d   1       7.096  -1.670  -5.133  0.00  0.00    -0.487 OA
BRANCH  38  39
ATOM     39  C   LIG d   1       7.449  -1.038  -3.900  0.00  0.00     0.115 C 
ATOM     40  H   LIG d   1       7.941  -1.762  -3.251  0.00  0.00     0.075 H 
ATOM     41  H   LIG d   1       8.128  -0.208  -4.100  0.00  0.00     0.075 H 
BRANCH  39  42
ATOM     42  C   LIG d   1       6.205  -0.520  -3.227  0.00  0.00    -0.010 A 
ATOM     43  C   LIG d   1       5.973   0.841  -3.159  0.00  0.00    -0.055 A 
ATOM     44  C   LIG d   1       4.831   1.317  -2.542  0.00  0.00    -0.061 A 
ATOM     45  H   LIG d   1       6.683   1.532  -3.587  0.00  0.00     0.062 H 
ATOM     46  C   LIG d   1       3.922   0.433  -1.993  0.00  0.00    -0.062 A 
ATOM     47  H   LIG d   1       4.650   2.381  -2.488  0.00  0.00     0.062 H 
ATOM     48  C   LIG d   1       4.154  -0.928  -2.061  0.00  0.00    -0.061 A 
ATOM     49  H   LIG d   1       3.030   0.805  -1.510  0.00  0.00     0.062 H 
ATOM     50  C   LIG d   1       5.293  -1.405  -2.683  0.00  0.00    -0.055 A 
ATOM     51  H   LIG d   1       3.444  -1.619  -1.632  0.00  0.00     0.062 H 
ATOM     52  H   LIG d   1       5.472  -2.468  -2.741  0.00  0.00     0.062 H 
ENDBRANCH  39  42
ENDBRANCH  38  39
ENDBRANCH   6  38
TORSDOF 11
ENDMDL
MODEL 7
REMARK VINA RESULT:      -5.8      3.317      8.022
REMARK  11 active torsions:
REMARK  status: ('A' for Active; 'I' for Inactive)
REMARK    1  A    between atoms: C_1  and  C_2 
REMARK    2  A    between atoms: C_2  and  O_3 
REMARK    3  A    between atoms: O_3  and  C_4 
REMARK    4  A    between atoms: C_4  and  C_6 
REMARK    5  A    between atoms: C_6  and  C_7 
REMARK    6  A    between atoms: C_7  and  C_8 
REMARK    7  A    between atoms: C_9  and  C_28 
REMARK    8  A    between atoms: C_13  and  O_20 
REMARK    9  A    between atoms: C_14  and  C_19 
REMARK   10  A    between atoms: O_20  and  C_21 
REMARK   11  A    between atoms: C_21  and  C_22 
ROOT
ATOM      1  C   LIG d   1       3.565  -4.115 -10.359  0.00  0.00     0.041 A 
ATOM      2  C   LIG d   1       2.718  -3.055 -10.283  0.00  0.00    -0.030 A 
ATOM      3  C   LIG d   1       2.929  -2.078  -9.212  0.00  0.00     0.021 A 
ATOM      4  C   LIG d   1       2.090  -0.965  -9.079  0.00  0.00    -0.047 A 
ATOM      5  C   LIG d   1       2.308  -0.070  -8.071  0.00  0.00    -0.019 A 
ATOM      6  C   LIG d   1       3.360  -0.257  -7.176  0.00  0.00     0.127 A 
ATOM      7  C   LIG d   1       4.199  -1.353  -7.294  0.00  0.00     0.034 A 
ATOM      8  C   LIG d   1       3.991  -2.273  -8.311  0.00  0.00     0.146 A 
ATOM      9  O   LIG d   1       4.796  -3.348  -8.443  0.00  0.00    -0.422 OA
ATOM     10  C   LIG d   1       4.609  -4.248  -9.422  0.00  0.00     0.341 A 
ATOM     11  O   LIG d   1       5.361  -5.202  -9.502  0.00  0.00    -0.245 OA
ATOM     12  H   LIG d   1       1.275  -0.814  -9.770  0.00  0.00     0.063 H 
ATOM     13  H   LIG d   1       1.662   0.789  -7.968  0.00  0.00     0.065 H 
ENDROOT
BRANCH   1  14
ATOM     14  C   LIG d   1       3.387  -5.147 -11.443  0.00  0.00    -0.011 C 
ATOM     15  H   LIG d   1       3.089  -4.654 -12.369  0.00  0.00     0.032 H 
ATOM     16  H   LIG d   1       4.327  -5.676 -11.600  0.00  0.00     0.032 H 
BRANCH  14  17
ATOM     17  C   LIG d   1       2.305  -6.145 -11.025  0.00  0.00     0.049 C 
ATOM     18  H   LIG d   1       1.659  -5.687 -10.277  0.00  0.00     0.038 H 
ATOM     19  H   LIG d   1       1.712  -6.423 -11.897  0.00  0.00     0.038 H 
BRANCH  17  20
ATOM     20  C   LIG d   1       2.953  -7.376 -10.446  0.00  0.00     0.307 C 
ATOM     21  O   LIG d   1       3.545  -8.144 -11.167  0.00  0.00    -0.251 OA
BRANCH  20  22
ATOM     22  O   LIG d   1       2.874  -7.618  -9.127  0.00  0.00    -0.465 OA
BRANCH  22  23
ATOM     23  C   LIG d   1       3.951  -8.390  -8.534  0.00  0.00     0.090 C 
ATOM     24  H   LIG d   1       3.583  -9.381  -8.268  0.00  0.00     0.069 H 
ATOM     25  H   LIG d   1       4.767  -8.486  -9.249  0.00  0.00     0.069 H 
BRANCH  23  26
ATOM     26  C   LIG d   1       4.455  -7.680  -7.276  0.00  0.00    -0.031 C 
ATOM     27  H   LIG d   1       4.737  -6.657  -7.525  0.00  0.00     0.026 H 
ATOM     28  H   LIG d   1       3.665  -7.666  -6.526  0.00  0.00     0.026 H 
ATOM     29  H   LIG d   1       5.322  -8.210  -6.881  0.00  0.00     0.026 H 
ENDBRANCH  23  26
ENDBRANCH  22  23
ENDBRANCH  20  22
ENDBRANCH  17  20
ENDBRANCH  14  17
ENDBRANCH   1  14
BRANCH   2  30
ATOM     30  C   LIG d   1       1.593  -2.891 -11.272  0.00  0.00    -0.039 C 
ATOM     31  H   LIG d   1       1.034  -1.984 -11.038  0.00  0.00     0.028 H 
ATOM     32  H   LIG d   1       2.003  -2.815 -12.279  0.00  0.00     0.028 H 
ATOM     33  H   LIG d   1       0.929  -3.753 -11.214  0.00  0.00     0.028 H 
ENDBRANCH   2  30
BRANCH   7  34
ATOM     34  C   LIG d   1       5.333  -1.545  -6.320  0.00  0.00    -0.033 C 
ATOM     35  H   LIG d   1       4.963  -2.053  -5.429  0.00  0.00     0.028 H 
ATOM     36  H   LIG d   1       6.112  -2.149  -6.785  0.00  0.00     0.028 H 
ATOM     37  H   LIG d   1       5.742  -0.574  -6.043  0.00  0.00     0.028 H 
ENDBRANCH   7  34
BRANCH   6  38
ATOM     38  O   LIG d   1       3.563   0.642  -6.180  0.00  0.00    -0.487 OA
BRANCH  38  39
ATOM     39  C   LIG d   1       2.618   0.647  -5.107  0.00  0.00     0.115 C 
ATOM     40  H   LIG d   1       2.269   1.665  -4.935  0.00  0.00     0.075 H 
ATOM     41  H   LIG d   1       1.772   0.011  -5.366  0.00  0.00     0.075 H 
BRANCH  39  42
ATOM     42  C   LIG d   1       3.276   0.122  -3.856  0.00  0.00    -0.010 A 
ATOM     43  C   LIG d   1       3.194  -1.222  -3.545  0.00  0.00    -0.055 A 
ATOM     44  C   LIG d   1       3.799  -1.704  -2.399  0.00  0.00    -0.061 A 
ATOM     45  H   LIG d   1       2.658  -1.896  -4.197  0.00  0.00     0.062 H 
ATOM     46  C   LIG d   1       4.485  -0.842  -1.564  0.00  0.00    -0.062 A 
ATOM     47  H   LIG d   1       3.733  -2.755  -2.156  0.00  0.00     0.062 H 
ATOM     48  C   LIG d   1       4.566   0.502  -1.876  0.00  0.00    -0.061 A 
ATOM     49  H   LIG d   1       4.955  -1.218  -0.668  0.00  0.00     0.062 H 
ATOM     50  C   LIG d   1       3.967   0.983  -3.025  0.00  0.00    -0.055 A 
ATOM     51  H   LIG d   1       5.102   1.176  -1.224  0.00  0.00     0.062 H 
ATOM     52  H   LIG d   1       4.035   2.032  -3.271  0.00  0.00     0.062 H 
ENDBRANCH  39  42
ENDBRANCH  38  39
ENDBRANCH   6  38
TORSDOF 11
ENDMDL
MODEL 8
REMARK VINA RESULT:      -5.7      4.690      7.921
REMARK  11 active torsions:
REMARK  status: ('A' for Active; 'I' for Inactive)
REMARK    1  A    between atoms: C_1  and  C_2 
REMARK    2  A    between atoms: C_2  and  O_3 
REMARK    3  A    between atoms: O_3  and  C_4 
REMARK    4  A    between atoms: C_4  and  C_6 
REMARK    5  A    between atoms: C_6  and  C_7 
REMARK    6  A    between atoms: C_7  and  C_8 
REMARK    7  A    between atoms: C_9  and  C_28 
REMARK    8  A    between atoms: C_13  and  O_20 
REMARK    9  A    between atoms: C_14  and  C_19 
REMARK   10  A    between atoms: O_20  and  C_21 
REMARK   11  A    between atoms: C_21  and  C_22 
ROOT
ATOM      1  C   LIG d   1       9.860   4.359  -4.577  0.00  0.00     0.041 A 
ATOM      2  C   LIG d   1       9.519   3.875  -5.799  0.00  0.00    -0.030 A 
ATOM      3  C   LIG d   1       8.763   2.622  -5.860  0.00  0.00     0.021 A 
ATOM      4  C   LIG d   1       8.381   2.070  -7.089  0.00  0.00    -0.047 A 
ATOM      5  C   LIG d   1       7.679   0.901  -7.118  0.00  0.00    -0.019 A 
ATOM      6  C   LIG d   1       7.337   0.253  -5.932  0.00  0.00     0.127 A 
ATOM      7  C   LIG d   1       7.707   0.785  -4.707  0.00  0.00     0.034 A 
ATOM      8  C   LIG d   1       8.422   1.973  -4.660  0.00  0.00     0.146 A 
ATOM      9  O   LIG d   1       8.793   2.508  -3.477  0.00  0.00    -0.422 OA
ATOM     10  C   LIG d   1       9.485   3.656  -3.414  0.00  0.00     0.341 A 
ATOM     11  O   LIG d   1       9.798   4.101  -2.324  0.00  0.00    -0.245 OA
ATOM     12  H   LIG d   1       8.642   2.568  -8.011  0.00  0.00     0.063 H 
ATOM     13  H   LIG d   1       7.384   0.475  -8.066  0.00  0.00     0.065 H 
ENDROOT
BRANCH   1  14
ATOM     14  C   LIG d   1      10.639   5.644  -4.464  0.00  0.00    -0.011 C 
ATOM     15  H   LIG d   1      11.310   5.588  -3.605  0.00  0.00     0.032 H 
ATOM     16  H   LIG d   1      11.223   5.797  -5.371  0.00  0.00     0.032 H 
BRANCH  14  17
ATOM     17  C   LIG d   1       9.671   6.814  -4.278  0.00  0.00     0.049 C 
ATOM     18  H   LIG d   1       9.726   7.472  -5.145  0.00  0.00     0.038 H 
ATOM     19  H   LIG d   1       8.655   6.431  -4.177  0.00  0.00     0.038 H 
BRANCH  17  20
ATOM     20  C   LIG d   1      10.044   7.584  -3.038  0.00  0.00     0.307 C 
ATOM     21  O   LIG d   1      10.811   8.515  -3.112  0.00  0.00    -0.251 OA
BRANCH  20  22
ATOM     22  O   LIG d   1       9.523   7.235  -1.850  0.00  0.00    -0.465 OA
BRANCH  22  23
ATOM     23  C   LIG d   1      10.216   7.705  -0.664  0.00  0.00     0.090 C 
ATOM     24  H   LIG d   1      11.020   8.381  -0.956  0.00  0.00     0.069 H 
ATOM     25  H   LIG d   1       9.515   8.234  -0.018  0.00  0.00     0.069 H 
BRANCH  23  26
ATOM     26  C   LIG d   1      10.804   6.511   0.090  0.00  0.00    -0.031 C 
ATOM     27  H   LIG d   1      11.749   6.220  -0.370  0.00  0.00     0.026 H 
ATOM     28  H   LIG d   1      10.976   6.787   1.130  0.00  0.00     0.026 H 
ATOM     29  H   LIG d   1      10.106   5.674   0.048  0.00  0.00     0.026 H 
ENDBRANCH  23  26
ENDBRANCH  22  23
ENDBRANCH  20  22
ENDBRANCH  17  20
ENDBRANCH  14  17
ENDBRANCH   1  14
BRANCH   2  30
ATOM     30  C   LIG d   1       9.908   4.607  -7.058  0.00  0.00    -0.039 C 
ATOM     31  H   LIG d   1       9.347   4.203  -7.901  0.00  0.00     0.028 H 
ATOM     32  H   LIG d   1       9.682   5.668  -6.945  0.00  0.00     0.028 H 
ATOM     33  H   LIG d   1      10.975   4.481  -7.237  0.00  0.00     0.028 H 
ENDBRANCH   2  30
BRANCH   7  34
ATOM     34  C   LIG d   1       7.333   0.076  -3.431  0.00  0.00    -0.033 C 
ATOM     35  H   LIG d   1       8.202   0.026  -2.776  0.00  0.00     0.028 H 
ATOM     36  H   LIG d   1       6.533   0.625  -2.932  0.00  0.00     0.028 H 
ATOM     37  H   LIG d   1       6.992  -0.933  -3.662  0.00  0.00     0.028 H 
ENDBRANCH   7  34
BRANCH   6  38
ATOM     38  O   LIG d   1       6.638  -0.909  -5.977  0.00  0.00    -0.487 OA
BRANCH  38  39
ATOM     39  C   LIG d   1       5.239  -0.815  -6.253  0.00  0.00     0.115 C 
ATOM     40  H   LIG d   1       5.017   0.166  -6.673  0.00  0.00     0.075 H 
ATOM     41  H   LIG d   1       4.957  -1.589  -6.968  0.00  0.00     0.075 H 
BRANCH  39  42
ATOM     42  C   LIG d   1       4.461  -1.005  -4.976  0.00  0.00    -0.010 A 
ATOM     43  C   LIG d   1       4.720  -2.094  -4.166  0.00  0.00    -0.055 A 
ATOM     44  C   LIG d   1       4.008  -2.268  -2.994  0.00  0.00    -0.061 A 
ATOM     45  H   LIG d   1       5.478  -2.809  -4.448  0.00  0.00     0.062 H 
ATOM     46  C   LIG d   1       3.038  -1.352  -2.632  0.00  0.00    -0.062 A 
ATOM     47  H   LIG d   1       4.210  -3.120  -2.361  0.00  0.00     0.062 H 
ATOM     48  C   LIG d   1       2.779  -0.263  -3.443  0.00  0.00    -0.061 A 
ATOM     49  H   LIG d   1       2.480  -1.489  -1.717  0.00  0.00     0.062 H 
ATOM     50  C   LIG d   1       3.495  -0.086  -4.612  0.00  0.00    -0.055 A 
ATOM     51  H   LIG d   1       2.021   0.452  -3.161  0.00  0.00     0.062 H 
ATOM     52  H   LIG d   1       3.297   0.767  -5.243  0.00  0.00     0.062 H 
ENDBRANCH  39  42
ENDBRANCH  38  39
ENDBRANCH   6  38
TORSDOF 11
ENDMDL
MODEL 9
REMARK VINA RESULT:      -5.7      3.656      7.976
REMARK  11 active torsions:
REMARK  status: ('A' for Active; 'I' for Inactive)
REMARK    1  A    between atoms: C_1  and  C_2 
REMARK    2  A    between atoms: C_2  and  O_3 
REMARK    3  A    between atoms: O_3  and  C_4 
REMARK    4  A    between atoms: C_4  and  C_6 
REMARK    5  A    between atoms: C_6  and  C_7 
REMARK    6  A    between atoms: C_7  and  C_8 
REMARK    7  A    between atoms: C_9  and  C_28 
REMARK    8  A    between atoms: C_13  and  O_20 
REMARK    9  A    between atoms: C_14  and  C_19 
REMARK   10  A    between atoms: O_20  and  C_21 
REMARK   11  A    between atoms: C_21  and  C_22 
ROOT
ATOM      1  C   LIG d   1       3.464  -0.129  -7.507  0.00  0.00     0.041 A 
ATOM      2  C   LIG d   1       4.332  -1.136  -7.785  0.00  0.00    -0.030 A 
ATOM      3  C   LIG d   1       5.225  -1.592  -6.718  0.00  0.00     0.021 A 
ATOM      4  C   LIG d   1       6.143  -2.626  -6.940  0.00  0.00    -0.047 A 
ATOM      5  C   LIG d   1       6.966  -3.031  -5.929  0.00  0.00    -0.019 A 
ATOM      6  C   LIG d   1       6.897  -2.424  -4.677  0.00  0.00     0.127 A 
ATOM      7  C   LIG d   1       5.995  -1.400  -4.439  0.00  0.00     0.034 A 
ATOM      8  C   LIG d   1       5.152  -0.975  -5.456  0.00  0.00     0.146 A 
ATOM      9  O   LIG d   1       4.266   0.022  -5.246  0.00  0.00    -0.422 OA
ATOM     10  C   LIG d   1       3.444   0.445  -6.219  0.00  0.00     0.341 A 
ATOM     11  O   LIG d   1       2.660   1.347  -5.984  0.00  0.00    -0.245 OA
ATOM     12  H   LIG d   1       6.200  -3.102  -7.908  0.00  0.00     0.063 H 
ATOM     13  H   LIG d   1       7.674  -3.829  -6.101  0.00  0.00     0.065 H 
ENDROOT
BRANCH   1  14
ATOM     14  C   LIG d   1       2.525   0.375  -8.573  0.00  0.00    -0.011 C 
ATOM     15  H   LIG d   1       2.613  -0.253  -9.461  0.00  0.00     0.032 H 
ATOM     16  H   LIG d   1       1.501   0.339  -8.203  0.00  0.00     0.032 H 
BRANCH  14  17
ATOM     17  C   LIG d   1       2.887   1.818  -8.931  0.00  0.00     0.049 C 
ATOM     18  H   LIG d   1       2.039   2.293  -9.425  0.00  0.00     0.038 H 
ATOM     19  H   LIG d   1       3.131   2.367  -8.021  0.00  0.00     0.038 H 
BRANCH  17  20
ATOM     20  C   LIG d   1       4.076   1.823  -9.856  0.00  0.00     0.307 C 
ATOM     21  O   LIG d   1       3.970   1.392 -10.980  0.00  0.00    -0.251 OA
BRANCH  20  22
ATOM     22  O   LIG d   1       5.254   2.308  -9.431  0.00  0.00    -0.465 OA
BRANCH  22  23
ATOM     23  C   LIG d   1       6.375   1.386  -9.406  0.00  0.00     0.090 C 
ATOM     24  H   LIG d   1       6.021   0.378  -9.621  0.00  0.00     0.069 H 
ATOM     25  H   LIG d   1       7.106   1.681 -10.159  0.00  0.00     0.069 H 
BRANCH  23  26
ATOM     26  C   LIG d   1       7.027   1.413  -8.022  0.00  0.00    -0.031 C 
ATOM     27  H   LIG d   1       6.494   0.735  -7.356  0.00  0.00     0.026 H 
ATOM     28  H   LIG d   1       8.067   1.098  -8.104  0.00  0.00     0.026 H 
ATOM     29  H   LIG d   1       6.986   2.426  -7.620  0.00  0.00     0.026 H 
ENDBRANCH  23  26
ENDBRANCH  22  23
ENDBRANCH  20  22
ENDBRANCH  17  20
ENDBRANCH  14  17
ENDBRANCH   1  14
BRANCH   2  30
ATOM     30  C   LIG d   1       4.374  -1.766  -9.153  0.00  0.00    -0.039 C 
ATOM     31  H   LIG d   1       4.350  -2.852  -9.054  0.00  0.00     0.028 H 
ATOM     32  H   LIG d   1       3.511  -1.435  -9.732  0.00  0.00     0.028 H 
ATOM     33  H   LIG d   1       5.289  -1.467  -9.663  0.00  0.00     0.028 H 
ENDBRANCH   2  30
BRANCH   7  34
ATOM     34  C   LIG d   1       5.929  -0.750  -3.082  0.00  0.00    -0.033 C 
ATOM     35  H   LIG d   1       5.071  -1.141  -2.533  0.00  0.00     0.028 H 
ATOM     36  H   LIG d   1       6.843  -0.968  -2.530  0.00  0.00     0.028 H 
ATOM     37  H   LIG d   1       5.823   0.329  -3.200  0.00  0.00     0.028 H 
ENDBRANCH   7  34
BRANCH   6  38
ATOM     38  O   LIG d   1       7.721  -2.838  -3.682  0.00  0.00    -0.487 OA
BRANCH  38  39
ATOM     39  C   LIG d   1       8.997  -3.355  -4.068  0.00  0.00     0.115 C 
ATOM     40  H   LIG d   1       9.035  -3.451  -5.153  0.00  0.00     0.075 H 
ATOM     41  H   LIG d   1       9.780  -2.674  -3.735  0.00  0.00     0.075 H 
BRANCH  39  42
ATOM     42  C   LIG d   1       9.203  -4.707  -3.435  0.00  0.00    -0.010 A 
ATOM     43  C   LIG d   1       8.918  -5.855  -4.149  0.00  0.00    -0.055 A 
ATOM     44  C   LIG d   1       9.108  -7.095  -3.569  0.00  0.00    -0.061 A 
ATOM     45  H   LIG d   1       8.545  -5.784  -5.160  0.00  0.00     0.062 H 
ATOM     46  C   LIG d   1       9.584  -7.187  -2.275  0.00  0.00    -0.062 A 
ATOM     47  H   LIG d   1       8.884  -7.993  -4.127  0.00  0.00     0.062 H 
ATOM     48  C   LIG d   1       9.870  -6.038  -1.560  0.00  0.00    -0.061 A 
ATOM     49  H   LIG d   1       9.732  -8.156  -1.821  0.00  0.00     0.062 H 
ATOM     50  C   LIG d   1       9.685  -4.798  -2.143  0.00  0.00    -0.055 A 
ATOM     51  H   LIG d   1      10.241  -6.110  -0.549  0.00  0.00     0.062 H 
ATOM     52  H   LIG d   1       9.913  -3.902  -1.587  0.00  0.00     0.062 H 
ENDBRANCH  39  42
ENDBRANCH  38  39
ENDBRANCH   6  38
TORSDOF 11
ENDMDL
