MODEL 1
REMARK VINA RESULT:      -6.1      0.000      0.000
REMARK  15 active torsions:
REMARK  status: ('A' for Active; 'I' for Inactive)
REMARK    1  A    between atoms: C_1  and  C_2 
REMARK    2  A    between atoms: C_2  and  C_9 
REMARK    3  A    between atoms: C_3  and  C_4 
REMARK    4  A    between atoms: C_4  and  O_5 
REMARK    5  A    between atoms: O_5  and  C_6 
REMARK    6  A    between atoms: C_6  and  C_8 
REMARK    7  A    between atoms: C_9  and  O_11 
REMARK    8  A    between atoms: O_11  and  C_12 
REMARK    9  A    between atoms: C_15  and  C_36 
REMARK   10  A    between atoms: C_16  and  O_35 
REMARK   11  A    between atoms: C_24  and  O_34 
REMARK   12  A    between atoms: C_26  and  C_28 
REMARK   13  A    between atoms: C_28  and  C_30 
REMARK   14  A    between atoms: C_30  and  O_32 
REMARK   15  A    between atoms: O_32  and  C_33 
ROOT
ATOM      1  C   LIG d   1       5.162  -1.965  -6.548  0.00  0.00     0.113 C 
ATOM      2  H   LIG d   1       4.179  -2.365  -6.312  0.00  0.00     0.074 H 
ATOM      3  C   LIG d   1       6.159  -2.296  -5.446  0.00  0.00    -0.006 C 
ATOM      4  C   LIG d   1       5.802  -1.640  -4.113  0.00  0.00     0.009 C 
ATOM      5  C   LIG d   1       4.704  -2.425  -3.413  0.00  0.00     0.062 C 
ATOM      6  H   LIG d   1       5.087  -3.443  -3.218  0.00  0.00     0.060 H 
ATOM      7  C   LIG d   1       4.318  -1.812  -2.070  0.00  0.00    -0.020 C 
ATOM      8  C   LIG d   1       3.846  -0.370  -2.262  0.00  0.00     0.009 C 
ATOM      9  C   LIG d   1       4.929   0.399  -2.981  0.00  0.00     0.140 C 
ATOM     10  O   LIG d   1       5.333   1.451  -2.538  0.00  0.00    -0.297 OA
ATOM     11  C   LIG d   1       5.501  -0.161  -4.265  0.00  0.00     0.052 C 
ATOM     12  H   LIG d   1       6.466   0.363  -4.446  0.00  0.00     0.041 H 
ATOM     13  C   LIG d   1       4.575   0.179  -5.423  0.00  0.00     0.076 C 
ATOM     14  H   LIG d   1       4.574   1.273  -5.555  0.00  0.00     0.061 H 
ATOM     15  C   LIG d   1       5.075  -0.449  -6.722  0.00  0.00     0.054 C 
ATOM     16  H   LIG d   1       6.062  -0.053  -6.963  0.00  0.00     0.041 H 
ATOM     17  H   LIG d   1       6.197  -3.381  -5.305  0.00  0.00     0.031 H 
ATOM     18  H   LIG d   1       7.157  -1.958  -5.747  0.00  0.00     0.031 H 
ATOM     19  H   LIG d   1       3.498  -2.396  -1.636  0.00  0.00     0.029 H 
ATOM     20  H   LIG d   1       5.157  -1.838  -1.378  0.00  0.00     0.029 H 
ATOM     21  H   LIG d   1       2.924  -0.353  -2.840  0.00  0.00     0.034 H 
ATOM     22  H   LIG d   1       3.666   0.086  -1.285  0.00  0.00     0.034 H 
ENDROOT
BRANCH   1  23
ATOM     23  O   LIG d   1       5.607  -2.550  -7.779  0.00  0.00    -0.457 OA
BRANCH  23  24
ATOM     24  C   LIG d   1       5.497  -3.888  -7.897  0.00  0.00     0.335 C 
ATOM     25  O   LIG d   1       6.496  -4.573  -7.993  0.00  0.00    -0.245 OA
BRANCH  24  26
ATOM     26  C   LIG d   1       4.169  -4.518  -7.909  0.00  0.00     0.033 C 
ATOM     27  C   LIG d   1       3.776  -5.260  -6.877  0.00  0.00    -0.037 C 
ATOM     28  H   LIG d   1       2.772  -5.657  -6.849  0.00  0.00     0.061 H 
BRANCH  26  29
ATOM     29  C   LIG d   1       3.254  -4.324  -9.090  0.00  0.00    -0.033 C 
ATOM     30  H   LIG d   1       3.553  -3.430  -9.638  0.00  0.00     0.028 H 
ATOM     31  H   LIG d   1       3.318  -5.191  -9.747  0.00  0.00     0.028 H 
ATOM     32  H   LIG d   1       2.228  -4.208  -8.739  0.00  0.00     0.028 H 
ENDBRANCH  26  29
BRANCH  27  33
ATOM     33  C   LIG d   1       4.732  -5.548  -5.748  0.00  0.00     0.111 C 
ATOM     34  H   LIG d   1       5.735  -5.693  -6.149  0.00  0.00     0.074 H 
ATOM     35  H   LIG d   1       4.736  -4.709  -5.053  0.00  0.00     0.074 H 
BRANCH  33  36
ATOM     36  O   LIG d   1       4.318  -6.732  -5.064  0.00  0.00    -0.461 OA
BRANCH  36  37
ATOM     37  C   LIG d   1       4.945  -7.874  -5.387  0.00  0.00     0.304 C 
ATOM     38  O   LIG d   1       4.303  -8.866  -5.636  0.00  0.00    -0.251 OA
BRANCH  37  39
ATOM     39  C   LIG d   1       6.451  -7.917  -5.439  0.00  0.00     0.033 C 
ATOM     40  H   LIG d   1       6.813  -8.751  -4.839  0.00  0.00     0.034 H 
ATOM     41  H   LIG d   1       6.775  -8.046  -6.473  0.00  0.00     0.034 H 
ATOM     42  H   LIG d   1       6.856  -6.984  -5.047  0.00  0.00     0.034 H 
ENDBRANCH  37  39
ENDBRANCH  36  37
ENDBRANCH  33  36
ENDBRANCH  27  33
ENDBRANCH  24  26
ENDBRANCH  23  24
ENDBRANCH   1  23
BRANCH  15  43
ATOM     43  C   LIG d   1       4.118  -0.124  -7.841  0.00  0.00     0.039 C 
ATOM     44  C   LIG d   1       3.046  -0.887  -8.041  0.00  0.00    -0.088 C 
ATOM     45  H   LIG d   1       2.361  -0.655  -8.843  0.00  0.00     0.054 H 
ATOM     46  H   LIG d   1       2.863  -1.738  -7.404  0.00  0.00     0.054 H 
BRANCH  43  47
ATOM     47  C   LIG d   1       4.368   1.035  -8.709  0.00  0.00     0.335 C 
ATOM     48  O   LIG d   1       5.365   1.711  -8.547  0.00  0.00    -0.245 OA
BRANCH  47  49
ATOM     49  O   LIG d   1       3.493   1.348  -9.685  0.00  0.00    -0.465 OA
BRANCH  49  50
ATOM     50  C   LIG d   1       3.937   1.182 -11.033  0.00  0.00     0.082 C 
ATOM     51  H   LIG d   1       3.116   0.810 -11.644  0.00  0.00     0.066 H 
ATOM     52  H   LIG d   1       4.277   2.140 -11.423  0.00  0.00     0.066 H 
ATOM     53  H   LIG d   1       4.760   0.466 -11.058  0.00  0.00     0.066 H 
ENDBRANCH  49  50
ENDBRANCH  47  49
ENDBRANCH  43  47
ENDBRANCH  15  43
BRANCH  13  54
ATOM     54  O   LIG d   1       3.236  -0.230  -5.163  0.00  0.00    -0.390 OA
ATOM     55  H   LIG d   1       2.784  -0.607  -5.931  0.00  0.00     0.210 HD
ENDBRANCH  13  54
BRANCH   4  56
ATOM     56  C   LIG d   1       7.075  -1.754  -3.234  0.00  0.00    -0.056 C 
ATOM     57  H   LIG d   1       7.934  -1.372  -3.787  0.00  0.00     0.024 H 
ATOM     58  H   LIG d   1       6.940  -1.172  -2.323  0.00  0.00     0.024 H 
ATOM     59  H   LIG d   1       7.246  -2.799  -2.975  0.00  0.00     0.024 H 
ENDBRANCH   4  56
BRANCH   5  60
ATOM     60  O   LIG d   1       3.545  -2.556  -4.232  0.00  0.00    -0.391 OA
ATOM     61  H   LIG d   1       3.174  -1.713  -4.528  0.00  0.00     0.210 HD
ENDBRANCH   5  60
TORSDOF 15
ENDMDL
MODEL 2
REMARK VINA RESULT:      -5.9      2.671      5.156
REMARK  15 active torsions:
REMARK  status: ('A' for Active; 'I' for Inactive)
REMARK    1  A    between atoms: C_1  and  C_2 
REMARK    2  A    between atoms: C_2  and  C_9 
REMARK    3  A    between atoms: C_3  and  C_4 
REMARK    4  A    between atoms: C_4  and  O_5 
REMARK    5  A    between atoms: O_5  and  C_6 
REMARK    6  A    between atoms: C_6  and  C_8 
REMARK    7  A    between atoms: C_9  and  O_11 
REMARK    8  A    between atoms: O_11  and  C_12 
REMARK    9  A    between atoms: C_15  and  C_36 
REMARK   10  A    between atoms: C_16  and  O_35 
REMARK   11  A    between atoms: C_24  and  O_34 
REMARK   12  A    between atoms: C_26  and  C_28 
REMARK   13  A    between atoms: C_28  and  C_30 
REMARK   14  A    between atoms: C_30  and  O_32 
REMARK   15  A    between atoms: O_32  and  C_33 
ROOT
ATOM      1  C   LIG d   1       4.919  -0.523  -6.551  0.00  0.00     0.113 C 
ATOM      2  H   LIG d   1       5.706   0.094  -6.124  0.00  0.00     0.074 H 
ATOM      3  C   LIG d   1       3.556  -0.111  -6.011  0.00  0.00    -0.006 C 
ATOM      4  C   LIG d   1       3.428  -0.334  -4.505  0.00  0.00     0.009 C 
ATOM      5  C   LIG d   1       4.117   0.787  -3.742  0.00  0.00     0.062 C 
ATOM      6  H   LIG d   1       3.614   1.734  -4.006  0.00  0.00     0.060 H 
ATOM      7  C   LIG d   1       4.008   0.613  -2.230  0.00  0.00    -0.020 C 
ATOM      8  C   LIG d   1       4.623  -0.722  -1.805  0.00  0.00     0.009 C 
ATOM      9  C   LIG d   1       3.956  -1.830  -2.585  0.00  0.00     0.140 C 
ATOM     10  O   LIG d   1       3.493  -2.791  -2.011  0.00  0.00    -0.297 OA
ATOM     11  C   LIG d   1       3.874  -1.724  -4.092  0.00  0.00     0.052 C 
ATOM     12  H   LIG d   1       3.092  -2.442  -4.425  0.00  0.00     0.041 H 
ATOM     13  C   LIG d   1       5.193  -2.172  -4.703  0.00  0.00     0.076 C 
ATOM     14  H   LIG d   1       5.325  -3.246  -4.491  0.00  0.00     0.061 H 
ATOM     15  C   LIG d   1       5.179  -1.993  -6.219  0.00  0.00     0.054 C 
ATOM     16  H   LIG d   1       4.389  -2.609  -6.652  0.00  0.00     0.041 H 
ATOM     17  H   LIG d   1       3.388   0.950  -6.225  0.00  0.00     0.031 H 
ATOM     18  H   LIG d   1       2.776  -0.688  -6.519  0.00  0.00     0.031 H 
ATOM     19  H   LIG d   1       4.556   1.426  -1.738  0.00  0.00     0.029 H 
ATOM     20  H   LIG d   1       2.970   0.660  -1.909  0.00  0.00     0.029 H 
ATOM     21  H   LIG d   1       5.694  -0.717  -1.999  0.00  0.00     0.034 H 
ATOM     22  H   LIG d   1       4.453  -0.876  -0.736  0.00  0.00     0.034 H 
ENDROOT
BRANCH   1  23
ATOM     23  O   LIG d   1       4.933  -0.358  -7.975  0.00  0.00    -0.457 OA
BRANCH  23  24
ATOM     24  C   LIG d   1       4.981   0.904  -8.444  0.00  0.00     0.335 C 
ATOM     25  O   LIG d   1       5.943   1.606  -8.201  0.00  0.00    -0.245 OA
BRANCH  24  26
ATOM     26  C   LIG d   1       3.872   1.431  -9.251  0.00  0.00     0.033 C 
ATOM     27  C   LIG d   1       3.763   1.095 -10.534  0.00  0.00    -0.037 C 
ATOM     28  H   LIG d   1       2.906   1.416 -11.106  0.00  0.00     0.061 H 
BRANCH  26  29
ATOM     29  C   LIG d   1       2.857   2.353  -8.626  0.00  0.00    -0.033 C 
ATOM     30  H   LIG d   1       2.761   2.121  -7.565  0.00  0.00     0.028 H 
ATOM     31  H   LIG d   1       3.182   3.387  -8.744  0.00  0.00     0.028 H 
ATOM     32  H   LIG d   1       1.892   2.217  -9.115  0.00  0.00     0.028 H 
ENDBRANCH  26  29
BRANCH  27  33
ATOM     33  C   LIG d   1       4.838   0.266 -11.189  0.00  0.00     0.111 C 
ATOM     34  H   LIG d   1       5.224   0.794 -12.061  0.00  0.00     0.074 H 
ATOM     35  H   LIG d   1       5.648   0.096 -10.480  0.00  0.00     0.074 H 
BRANCH  33  36
ATOM     36  O   LIG d   1       4.290  -0.989 -11.596  0.00  0.00    -0.461 OA
BRANCH  36  37
ATOM     37  C   LIG d   1       4.419  -2.016 -10.742  0.00  0.00     0.304 C 
ATOM     38  O   LIG d   1       5.510  -2.482 -10.518  0.00  0.00    -0.251 OA
BRANCH  37  39
ATOM     39  C   LIG d   1       3.200  -2.587 -10.062  0.00  0.00     0.033 C 
ATOM     40  H   LIG d   1       3.055  -3.619 -10.382  0.00  0.00     0.034 H 
ATOM     41  H   LIG d   1       3.341  -2.559  -8.981  0.00  0.00     0.034 H 
ATOM     42  H   LIG d   1       2.324  -1.996 -10.329  0.00  0.00     0.034 H 
ENDBRANCH  37  39
ENDBRANCH  36  37
ENDBRANCH  33  36
ENDBRANCH  27  33
ENDBRANCH  24  26
ENDBRANCH  23  24
ENDBRANCH   1  23
BRANCH  15  43
ATOM     43  C   LIG d   1       6.510  -2.411  -6.790  0.00  0.00     0.039 C 
ATOM     44  C   LIG d   1       6.746  -3.692  -7.058  0.00  0.00    -0.088 C 
ATOM     45  H   LIG d   1       7.700  -3.992  -7.467  0.00  0.00     0.054 H 
ATOM     46  H   LIG d   1       5.984  -4.433  -6.867  0.00  0.00     0.054 H 
BRANCH  43  47
ATOM     47  C   LIG d   1       7.546  -1.402  -7.050  0.00  0.00     0.335 C 
ATOM     48  O   LIG d   1       7.947  -1.220  -8.184  0.00  0.00    -0.245 OA
BRANCH  47  49
ATOM     49  O   LIG d   1       8.054  -0.678  -6.032  0.00  0.00    -0.465 OA
BRANCH  49  50
ATOM     50  C   LIG d   1       8.834   0.468  -6.378  0.00  0.00     0.082 C 
ATOM     51  H   LIG d   1       8.404   1.355  -5.913  0.00  0.00     0.066 H 
ATOM     52  H   LIG d   1       9.855   0.331  -6.025  0.00  0.00     0.066 H 
ATOM     53  H   LIG d   1       8.837   0.592  -7.461  0.00  0.00     0.066 H 
ENDBRANCH  49  50
ENDBRANCH  47  49
ENDBRANCH  43  47
ENDBRANCH  15  43
BRANCH  13  54
ATOM     54  O   LIG d   1       6.298  -1.476  -4.137  0.00  0.00    -0.390 OA
ATOM     55  H   LIG d   1       6.643  -0.764  -4.694  0.00  0.00     0.210 HD
ENDBRANCH  13  54
BRANCH   4  56
ATOM     56  C   LIG d   1       1.912  -0.233  -4.192  0.00  0.00    -0.056 C 
ATOM     57  H   LIG d   1       1.772  -0.050  -3.127  0.00  0.00     0.024 H 
ATOM     58  H   LIG d   1       1.478   0.588  -4.763  0.00  0.00     0.024 H 
ATOM     59  H   LIG d   1       1.421  -1.167  -4.468  0.00  0.00     0.024 H 
ENDBRANCH   4  56
BRANCH   5  60
ATOM     60  O   LIG d   1       5.487   0.914  -4.113  0.00  0.00    -0.391 OA
ATOM     61  H   LIG d   1       5.707   1.762  -4.523  0.00  0.00     0.210 HD
ENDBRANCH   5  60
TORSDOF 15
ENDMDL
MODEL 3
REMARK VINA RESULT:      -5.8      1.549      3.333
REMARK  15 active torsions:
REMARK  status: ('A' for Active; 'I' for Inactive)
REMARK    1  A    between atoms: C_1  and  C_2 
REMARK    2  A    between atoms: C_2  and  C_9 
REMARK    3  A    between atoms: C_3  and  C_4 
REMARK    4  A    between atoms: C_4  and  O_5 
REMARK    5  A    between atoms: O_5  and  C_6 
REMARK    6  A    between atoms: C_6  and  C_8 
REMARK    7  A    between atoms: C_9  and  O_11 
REMARK    8  A    between atoms: O_11  and  C_12 
REMARK    9  A    between atoms: C_15  and  C_36 
REMARK   10  A    between atoms: C_16  and  O_35 
REMARK   11  A    between atoms: C_24  and  O_34 
REMARK   12  A    between atoms: C_26  and  C_28 
REMARK   13  A    between atoms: C_28  and  C_30 
REMARK   14  A    between atoms: C_30  and  O_32 
REMARK   15  A    between atoms: O_32  and  C_33 
ROOT
ATOM      1  C   LIG d   1       5.255  -1.984  -6.478  0.00  0.00     0.113 C 
ATOM      2  H   LIG d   1       4.241  -2.314  -6.264  0.00  0.00     0.074 H 
ATOM      3  C   LIG d   1       6.203  -2.392  -5.360  0.00  0.00    -0.006 C 
ATOM      4  C   LIG d   1       5.868  -1.720  -4.029  0.00  0.00     0.009 C 
ATOM      5  C   LIG d   1       4.702  -2.428  -3.356  0.00  0.00     0.062 C 
ATOM      6  H   LIG d   1       5.008  -3.472  -3.161  0.00  0.00     0.060 H 
ATOM      7  C   LIG d   1       4.335  -1.797  -2.016  0.00  0.00    -0.020 C 
ATOM      8  C   LIG d   1       3.972  -0.324  -2.206  0.00  0.00     0.009 C 
ATOM      9  C   LIG d   1       5.121   0.369  -2.899  0.00  0.00     0.140 C 
ATOM     10  O   LIG d   1       5.591   1.387  -2.440  0.00  0.00    -0.297 OA
ATOM     11  C   LIG d   1       5.677  -0.223  -4.176  0.00  0.00     0.052 C 
ATOM     12  H   LIG d   1       6.680   0.231  -4.334  0.00  0.00     0.041 H 
ATOM     13  C   LIG d   1       4.801   0.190  -5.349  0.00  0.00     0.076 C 
ATOM     14  H   LIG d   1       4.881   1.282  -5.473  0.00  0.00     0.061 H 
ATOM     15  C   LIG d   1       5.280  -0.464  -6.643  0.00  0.00     0.054 C 
ATOM     16  H   LIG d   1       6.298  -0.139  -6.862  0.00  0.00     0.041 H 
ATOM     17  H   LIG d   1       6.160  -3.478  -5.226  0.00  0.00     0.031 H 
ATOM     18  H   LIG d   1       7.228  -2.126  -5.639  0.00  0.00     0.031 H 
ATOM     19  H   LIG d   1       3.466  -2.323  -1.602  0.00  0.00     0.029 H 
ATOM     20  H   LIG d   1       5.156  -1.888  -1.308  0.00  0.00     0.029 H 
ATOM     21  H   LIG d   1       3.065  -0.237  -2.802  0.00  0.00     0.034 H 
ATOM     22  H   LIG d   1       3.805   0.138  -1.230  0.00  0.00     0.034 H 
ENDROOT
BRANCH   1  23
ATOM     23  O   LIG d   1       5.681  -2.592  -7.704  0.00  0.00    -0.457 OA
BRANCH  23  24
ATOM     24  C   LIG d   1       5.580  -3.933  -7.791  0.00  0.00     0.335 C 
ATOM     25  O   LIG d   1       6.563  -4.601  -8.042  0.00  0.00    -0.245 OA
BRANCH  24  26
ATOM     26  C   LIG d   1       4.280  -4.588  -7.582  0.00  0.00     0.033 C 
ATOM     27  C   LIG d   1       3.345  -4.526  -8.526  0.00  0.00    -0.037 C 
ATOM     28  H   LIG d   1       2.422  -5.073  -8.408  0.00  0.00     0.061 H 
BRANCH  26  29
ATOM     29  C   LIG d   1       4.008  -5.328  -6.298  0.00  0.00    -0.033 C 
ATOM     30  H   LIG d   1       4.604  -6.241  -6.271  0.00  0.00     0.028 H 
ATOM     31  H   LIG d   1       4.273  -4.696  -5.450  0.00  0.00     0.028 H 
ATOM     32  H   LIG d   1       2.950  -5.584  -6.244  0.00  0.00     0.028 H 
ENDBRANCH  26  29
BRANCH  27  33
ATOM     33  C   LIG d   1       3.574  -3.692  -9.760  0.00  0.00     0.111 C 
ATOM     34  H   LIG d   1       4.339  -2.943  -9.556  0.00  0.00     0.074 H 
ATOM     35  H   LIG d   1       3.904  -4.335 -10.576  0.00  0.00     0.074 H 
BRANCH  33  36
ATOM     36  O   LIG d   1       2.357  -3.041 -10.128  0.00  0.00    -0.461 OA
BRANCH  36  37
ATOM     37  C   LIG d   1       2.419  -2.155 -11.134  0.00  0.00     0.304 C 
ATOM     38  O   LIG d   1       3.378  -2.140 -11.867  0.00  0.00    -0.251 OA
BRANCH  37  39
ATOM     39  C   LIG d   1       1.290  -1.180 -11.349  0.00  0.00     0.033 C 
ATOM     40  H   LIG d   1       1.501  -0.254 -10.814  0.00  0.00     0.034 H 
ATOM     41  H   LIG d   1       1.190  -0.968 -12.415  0.00  0.00     0.034 H 
ATOM     42  H   LIG d   1       0.360  -1.611 -10.977  0.00  0.00     0.034 H 
ENDBRANCH  37  39
ENDBRANCH  36  37
ENDBRANCH  33  36
ENDBRANCH  27  33
ENDBRANCH  24  26
ENDBRANCH  23  24
ENDBRANCH   1  23
BRANCH  15  43
ATOM     43  C   LIG d   1       4.371  -0.065  -7.777  0.00  0.00     0.039 C 
ATOM     44  C   LIG d   1       3.123  -0.523  -7.822  0.00  0.00    -0.088 C 
ATOM     45  H   LIG d   1       2.472  -0.237  -8.635  0.00  0.00     0.054 H 
ATOM     46  H   LIG d   1       2.761  -1.181  -7.046  0.00  0.00     0.054 H 
BRANCH  43  47
ATOM     47  C   LIG d   1       4.864   0.831  -8.833  0.00  0.00     0.335 C 
ATOM     48  O   LIG d   1       5.429   1.866  -8.537  0.00  0.00    -0.245 OA
BRANCH  47  49
ATOM     49  O   LIG d   1       4.691   0.504 -10.129  0.00  0.00    -0.465 OA
BRANCH  49  50
ATOM     50  C   LIG d   1       3.901   1.393 -10.922  0.00  0.00     0.082 C 
ATOM     51  H   LIG d   1       4.527   1.854 -11.685  0.00  0.00     0.066 H 
ATOM     52  H   LIG d   1       3.097   0.836 -11.400  0.00  0.00     0.066 H 
ATOM     53  H   LIG d   1       3.477   2.169 -10.284  0.00  0.00     0.066 H 
ENDBRANCH  49  50
ENDBRANCH  47  49
ENDBRANCH  43  47
ENDBRANCH  15  43
BRANCH  13  54
ATOM     54  O   LIG d   1       3.431  -0.123  -5.118  0.00  0.00    -0.390 OA
ATOM     55  H   LIG d   1       2.978  -0.496  -5.887  0.00  0.00     0.210 HD
ENDBRANCH  13  54
BRANCH   4  56
ATOM     56  C   LIG d   1       7.112  -1.932  -3.126  0.00  0.00    -0.056 C 
ATOM     57  H   LIG d   1       7.834  -1.137  -3.312  0.00  0.00     0.024 H 
ATOM     58  H   LIG d   1       6.808  -1.910  -2.079  0.00  0.00     0.024 H 
ATOM     59  H   LIG d   1       7.566  -2.896  -3.353  0.00  0.00     0.024 H 
ENDBRANCH   4  56
BRANCH   5  60
ATOM     60  O   LIG d   1       3.553  -2.470  -4.198  0.00  0.00    -0.391 OA
ATOM     61  H   LIG d   1       2.728  -2.654  -3.729  0.00  0.00     0.210 HD
ENDBRANCH   5  60
TORSDOF 15
ENDMDL
MODEL 4
REMARK VINA RESULT:      -5.8      2.215      4.771
REMARK  15 active torsions:
REMARK  status: ('A' for Active; 'I' for Inactive)
REMARK    1  A    between atoms: C_1  and  C_2 
REMARK    2  A    between atoms: C_2  and  C_9 
REMARK    3  A    between atoms: C_3  and  C_4 
REMARK    4  A    between atoms: C_4  and  O_5 
REMARK    5  A    between atoms: O_5  and  C_6 
REMARK    6  A    between atoms: C_6  and  C_8 
REMARK    7  A    between atoms: C_9  and  O_11 
REMARK    8  A    between atoms: O_11  and  C_12 
REMARK    9  A    between atoms: C_15  and  C_36 
REMARK   10  A    between atoms: C_16  and  O_35 
REMARK   11  A    between atoms: C_24  and  O_34 
REMARK   12  A    between atoms: C_26  and  C_28 
REMARK   13  A    between atoms: C_28  and  C_30 
REMARK   14  A    between atoms: C_30  and  O_32 
REMARK   15  A    between atoms: O_32  and  C_33 
ROOT
ATOM      1  C   LIG d   1       5.968  -2.386  -5.193  0.00  0.00     0.113 C 
ATOM      2  H   LIG d   1       5.434  -1.844  -5.970  0.00  0.00     0.074 H 
ATOM      3  C   LIG d   1       5.010  -2.865  -4.112  0.00  0.00    -0.006 C 
ATOM      4  C   LIG d   1       4.340  -1.712  -3.366  0.00  0.00     0.009 C 
ATOM      5  C   LIG d   1       3.194  -1.143  -4.188  0.00  0.00     0.062 C 
ATOM      6  H   LIG d   1       2.453  -1.949  -4.339  0.00  0.00     0.060 H 
ATOM      7  C   LIG d   1       2.486   0.008  -3.479  0.00  0.00    -0.020 C 
ATOM      8  C   LIG d   1       3.479   1.132  -3.174  0.00  0.00     0.009 C 
ATOM      9  C   LIG d   1       4.628   0.557  -2.381  0.00  0.00     0.140 C 
ATOM     10  O   LIG d   1       4.975   1.073  -1.341  0.00  0.00    -0.297 OA
ATOM     11  C   LIG d   1       5.341  -0.671  -2.903  0.00  0.00     0.052 C 
ATOM     12  H   LIG d   1       5.907  -1.105  -2.048  0.00  0.00     0.041 H 
ATOM     13  C   LIG d   1       6.356  -0.258  -3.957  0.00  0.00     0.076 C 
ATOM     14  H   LIG d   1       7.136   0.349  -3.468  0.00  0.00     0.061 H 
ATOM     15  C   LIG d   1       7.032  -1.482  -4.571  0.00  0.00     0.054 C 
ATOM     16  H   LIG d   1       7.568  -2.030  -3.796  0.00  0.00     0.041 H 
ATOM     17  H   LIG d   1       4.233  -3.489  -4.567  0.00  0.00     0.031 H 
ATOM     18  H   LIG d   1       5.557  -3.479  -3.389  0.00  0.00     0.031 H 
ATOM     19  H   LIG d   1       1.701   0.401  -4.137  0.00  0.00     0.029 H 
ATOM     20  H   LIG d   1       2.019  -0.334  -2.559  0.00  0.00     0.029 H 
ATOM     21  H   LIG d   1       3.843   1.570  -4.102  0.00  0.00     0.034 H 
ATOM     22  H   LIG d   1       2.981   1.905  -2.583  0.00  0.00     0.034 H 
ENDROOT
BRANCH   1  23
ATOM     23  O   LIG d   1       6.612  -3.519  -5.790  0.00  0.00    -0.457 OA
BRANCH  23  24
ATOM     24  C   LIG d   1       6.188  -3.889  -7.015  0.00  0.00     0.335 C 
ATOM     25  O   LIG d   1       6.986  -3.999  -7.926  0.00  0.00    -0.245 OA
BRANCH  24  26
ATOM     26  C   LIG d   1       4.763  -4.160  -7.250  0.00  0.00     0.033 C 
ATOM     27  C   LIG d   1       4.050  -3.347  -8.025  0.00  0.00    -0.037 C 
ATOM     28  H   LIG d   1       3.026  -3.588  -8.264  0.00  0.00     0.061 H 
BRANCH  26  29
ATOM     29  C   LIG d   1       4.109  -5.358  -6.613  0.00  0.00    -0.033 C 
ATOM     30  H   LIG d   1       3.471  -5.856  -7.344  0.00  0.00     0.028 H 
ATOM     31  H   LIG d   1       4.877  -6.052  -6.268  0.00  0.00     0.028 H 
ATOM     32  H   LIG d   1       3.505  -5.034  -5.765  0.00  0.00     0.028 H 
ENDBRANCH  26  29
BRANCH  27  33
ATOM     33  C   LIG d   1       4.674  -2.088  -8.571  0.00  0.00     0.111 C 
ATOM     34  H   LIG d   1       5.593  -1.871  -8.026  0.00  0.00     0.074 H 
ATOM     35  H   LIG d   1       4.902  -2.223  -9.628  0.00  0.00     0.074 H 
BRANCH  33  36
ATOM     36  O   LIG d   1       3.762  -0.999  -8.416  0.00  0.00    -0.461 OA
BRANCH  36  37
ATOM     37  C   LIG d   1       4.231   0.231  -8.676  0.00  0.00     0.304 C 
ATOM     38  O   LIG d   1       4.602   0.940  -7.772  0.00  0.00    -0.251 OA
BRANCH  37  39
ATOM     39  C   LIG d   1       4.296   0.727 -10.098  0.00  0.00     0.033 C 
ATOM     40  H   LIG d   1       4.893   0.040 -10.697  0.00  0.00     0.034 H 
ATOM     41  H   LIG d   1       3.288   0.784 -10.510  0.00  0.00     0.034 H 
ATOM     42  H   LIG d   1       4.752   1.717 -10.118  0.00  0.00     0.034 H 
ENDBRANCH  37  39
ENDBRANCH  36  37
ENDBRANCH  33  36
ENDBRANCH  27  33
ENDBRANCH  24  26
ENDBRANCH  23  24
ENDBRANCH   1  23
BRANCH  15  43
ATOM     43  C   LIG d   1       8.004  -1.041  -5.636  0.00  0.00     0.039 C 
ATOM     44  C   LIG d   1       7.556  -0.663  -6.830  0.00  0.00    -0.088 C 
ATOM     45  H   LIG d   1       8.252  -0.347  -7.593  0.00  0.00     0.054 H 
ATOM     46  H   LIG d   1       6.496  -0.673  -7.037  0.00  0.00     0.054 H 
BRANCH  43  47
ATOM     47  C   LIG d   1       9.446  -1.028  -5.354  0.00  0.00     0.335 C 
ATOM     48  O   LIG d   1       9.989  -2.022  -4.911  0.00  0.00    -0.245 OA
BRANCH  47  49
ATOM     49  O   LIG d   1      10.169   0.086  -5.588  0.00  0.00    -0.465 OA
BRANCH  49  50
ATOM     50  C   LIG d   1       9.943   1.199  -4.720  0.00  0.00     0.082 C 
ATOM     51  H   LIG d   1       9.646   0.839  -3.736  0.00  0.00     0.066 H 
ATOM     52  H   LIG d   1      10.859   1.782  -4.633  0.00  0.00     0.066 H 
ATOM     53  H   LIG d   1       9.151   1.825  -5.132  0.00  0.00     0.066 H 
ENDBRANCH  49  50
ENDBRANCH  47  49
ENDBRANCH  43  47
ENDBRANCH  15  43
BRANCH  13  54
ATOM     54  O   LIG d   1       5.761   0.538  -4.977  0.00  0.00    -0.390 OA
ATOM     55  H   LIG d   1       6.014   1.471  -4.945  0.00  0.00     0.210 HD
ENDBRANCH  13  54
BRANCH   4  56
ATOM     56  C   LIG d   1       3.717  -2.341  -2.092  0.00  0.00    -0.056 C 
ATOM     57  H   LIG d   1       4.508  -2.766  -1.473  0.00  0.00     0.024 H 
ATOM     58  H   LIG d   1       3.189  -1.571  -1.528  0.00  0.00     0.024 H 
ATOM     59  H   LIG d   1       3.018  -3.126  -2.378  0.00  0.00     0.024 H 
ENDBRANCH   4  56
BRANCH   5  60
ATOM     60  O   LIG d   1       3.629  -0.718  -5.477  0.00  0.00    -0.391 OA
ATOM     61  H   LIG d   1       3.211  -1.192  -6.210  0.00  0.00     0.210 HD
ENDBRANCH   5  60
TORSDOF 15
ENDMDL
MODEL 5
REMARK VINA RESULT:      -5.7      2.195      5.858
REMARK  15 active torsions:
REMARK  status: ('A' for Active; 'I' for Inactive)
REMARK    1  A    between atoms: C_1  and  C_2 
REMARK    2  A    between atoms: C_2  and  C_9 
REMARK    3  A    between atoms: C_3  and  C_4 
REMARK    4  A    between atoms: C_4  and  O_5 
REMARK    5  A    between atoms: O_5  and  C_6 
REMARK    6  A    between atoms: C_6  and  C_8 
REMARK    7  A    between atoms: C_9  and  O_11 
REMARK    8  A    between atoms: O_11  and  C_12 
REMARK    9  A    between atoms: C_15  and  C_36 
REMARK   10  A    between atoms: C_16  and  O_35 
REMARK   11  A    between atoms: C_24  and  O_34 
REMARK   12  A    between atoms: C_26  and  C_28 
REMARK   13  A    between atoms: C_28  and  C_30 
REMARK   14  A    between atoms: C_30  and  O_32 
REMARK   15  A    between atoms: O_32  and  C_33 
ROOT
ATOM      1  C   LIG d   1       4.131  -0.500  -6.713  0.00  0.00     0.113 C 
ATOM      2  H   LIG d   1       3.346  -1.249  -6.789  0.00  0.00     0.074 H 
ATOM      3  C   LIG d   1       5.372  -0.938  -7.477  0.00  0.00    -0.006 C 
ATOM      4  C   LIG d   1       6.006  -2.201  -6.896  0.00  0.00     0.009 C 
ATOM      5  C   LIG d   1       5.240  -3.435  -7.347  0.00  0.00     0.062 C 
ATOM      6  H   LIG d   1       5.296  -3.483  -8.449  0.00  0.00     0.060 H 
ATOM      7  C   LIG d   1       5.843  -4.725  -6.797  0.00  0.00    -0.020 C 
ATOM      8  C   LIG d   1       5.863  -4.690  -5.268  0.00  0.00     0.009 C 
ATOM      9  C   LIG d   1       6.601  -3.449  -4.825  0.00  0.00     0.140 C 
ATOM     10  O   LIG d   1       7.506  -3.526  -4.023  0.00  0.00    -0.297 OA
ATOM     11  C   LIG d   1       6.193  -2.108  -5.393  0.00  0.00     0.052 C 
ATOM     12  H   LIG d   1       7.035  -1.405  -5.202  0.00  0.00     0.041 H 
ATOM     13  C   LIG d   1       4.982  -1.584  -4.637  0.00  0.00     0.076 C 
ATOM     14  H   LIG d   1       5.285  -1.382  -3.597  0.00  0.00     0.061 H 
ATOM     15  C   LIG d   1       4.488  -0.272  -5.243  0.00  0.00     0.054 C 
ATOM     16  H   LIG d   1       5.272   0.482  -5.172  0.00  0.00     0.041 H 
ATOM     17  H   LIG d   1       5.105  -1.128  -8.523  0.00  0.00     0.031 H 
ATOM     18  H   LIG d   1       6.113  -0.132  -7.457  0.00  0.00     0.031 H 
ATOM     19  H   LIG d   1       5.225  -5.571  -7.122  0.00  0.00     0.029 H 
ATOM     20  H   LIG d   1       6.850  -4.874  -7.178  0.00  0.00     0.029 H 
ATOM     21  H   LIG d   1       4.846  -4.683  -4.882  0.00  0.00     0.034 H 
ATOM     22  H   LIG d   1       6.383  -5.575  -4.893  0.00  0.00     0.034 H 
ENDROOT
BRANCH   1  23
ATOM     23  O   LIG d   1       3.643   0.728  -7.268  0.00  0.00    -0.457 OA
BRANCH  23  24
ATOM     24  C   LIG d   1       2.989   0.652  -8.444  0.00  0.00     0.335 C 
ATOM     25  O   LIG d   1       2.001  -0.049  -8.545  0.00  0.00    -0.245 OA
BRANCH  24  26
ATOM     26  C   LIG d   1       3.471   1.415  -9.604  0.00  0.00     0.033 C 
ATOM     27  C   LIG d   1       3.764   0.786 -10.739  0.00  0.00    -0.037 C 
ATOM     28  H   LIG d   1       4.040   1.352 -11.615  0.00  0.00     0.061 H 
BRANCH  26  29
ATOM     29  C   LIG d   1       3.633   2.910  -9.508  0.00  0.00    -0.033 C 
ATOM     30  H   LIG d   1       2.650   3.380  -9.467  0.00  0.00     0.028 H 
ATOM     31  H   LIG d   1       4.192   3.158  -8.605  0.00  0.00     0.028 H 
ATOM     32  H   LIG d   1       4.173   3.274 -10.382  0.00  0.00     0.028 H 
ENDBRANCH  26  29
BRANCH  27  33
ATOM     33  C   LIG d   1       3.711  -0.719 -10.802  0.00  0.00     0.111 C 
ATOM     34  H   LIG d   1       4.712  -1.111 -10.981  0.00  0.00     0.074 H 
ATOM     35  H   LIG d   1       3.332  -1.109  -9.857  0.00  0.00     0.074 H 
BRANCH  33  36
ATOM     36  O   LIG d   1       2.846  -1.122 -11.865  0.00  0.00    -0.461 OA
BRANCH  36  37
ATOM     37  C   LIG d   1       1.638  -1.595 -11.522  0.00  0.00     0.304 C 
ATOM     38  O   LIG d   1       0.639  -1.041 -11.912  0.00  0.00    -0.251 OA
BRANCH  37  39
ATOM     39  C   LIG d   1       1.529  -2.821 -10.650  0.00  0.00     0.033 C 
ATOM     40  H   LIG d   1       1.155  -3.656 -11.241  0.00  0.00     0.034 H 
ATOM     41  H   LIG d   1       2.512  -3.070 -10.250  0.00  0.00     0.034 H 
ATOM     42  H   LIG d   1       0.843  -2.621  -9.827  0.00  0.00     0.034 H 
ENDBRANCH  37  39
ENDBRANCH  36  37
ENDBRANCH  33  36
ENDBRANCH  27  33
ENDBRANCH  24  26
ENDBRANCH  23  24
ENDBRANCH   1  23
BRANCH  15  43
ATOM     43  C   LIG d   1       3.267   0.201  -4.496  0.00  0.00     0.039 C 
ATOM     44  C   LIG d   1       2.058  -0.213  -4.866  0.00  0.00    -0.088 C 
ATOM     45  H   LIG d   1       1.184   0.126  -4.331  0.00  0.00     0.054 H 
ATOM     46  H   LIG d   1       1.951  -0.887  -5.703  0.00  0.00     0.054 H 
BRANCH  43  47
ATOM     47  C   LIG d   1       3.413   1.118  -3.357  0.00  0.00     0.335 C 
ATOM     48  O   LIG d   1       3.559   2.310  -3.551  0.00  0.00    -0.245 OA
BRANCH  47  49
ATOM     49  O   LIG d   1       3.384   0.640  -2.098  0.00  0.00    -0.465 OA
BRANCH  49  50
ATOM     50  C   LIG d   1       4.628   0.220  -1.534  0.00  0.00     0.082 C 
ATOM     51  H   LIG d   1       4.655  -0.868  -1.479  0.00  0.00     0.066 H 
ATOM     52  H   LIG d   1       5.447   0.573  -2.159  0.00  0.00     0.066 H 
ATOM     53  H   LIG d   1       4.731   0.636  -0.531  0.00  0.00     0.066 H 
ENDBRANCH  49  50
ENDBRANCH  47  49
ENDBRANCH  43  47
ENDBRANCH  15  43
BRANCH  13  54
ATOM     54  O   LIG d   1       3.927  -2.540  -4.606  0.00  0.00    -0.390 OA
ATOM     55  H   LIG d   1       3.521  -2.705  -5.468  0.00  0.00     0.210 HD
ENDBRANCH  13  54
BRANCH   4  56
ATOM     56  C   LIG d   1       7.421  -2.288  -7.525  0.00  0.00    -0.056 C 
ATOM     57  H   LIG d   1       7.789  -1.283  -7.733  0.00  0.00     0.024 H 
ATOM     58  H   LIG d   1       8.097  -2.785  -6.829  0.00  0.00     0.024 H 
ATOM     59  H   LIG d   1       7.373  -2.857  -8.453  0.00  0.00     0.024 H 
ENDBRANCH   4  56
BRANCH   5  60
ATOM     60  O   LIG d   1       3.862  -3.360  -6.993  0.00  0.00    -0.391 OA
ATOM     61  H   LIG d   1       3.311  -2.907  -7.646  0.00  0.00     0.210 HD
ENDBRANCH   5  60
TORSDOF 15
ENDMDL
MODEL 6
REMARK VINA RESULT:      -5.7      2.233      3.642
REMARK  15 active torsions:
REMARK  status: ('A' for Active; 'I' for Inactive)
REMARK    1  A    between atoms: C_1  and  C_2 
REMARK    2  A    between atoms: C_2  and  C_9 
REMARK    3  A    between atoms: C_3  and  C_4 
REMARK    4  A    between atoms: C_4  and  O_5 
REMARK    5  A    between atoms: O_5  and  C_6 
REMARK    6  A    between atoms: C_6  and  C_8 
REMARK    7  A    between atoms: C_9  and  O_11 
REMARK    8  A    between atoms: O_11  and  C_12 
REMARK    9  A    between atoms: C_15  and  C_36 
REMARK   10  A    between atoms: C_16  and  O_35 
REMARK   11  A    between atoms: C_24  and  O_34 
REMARK   12  A    between atoms: C_26  and  C_28 
REMARK   13  A    between atoms: C_28  and  C_30 
REMARK   14  A    between atoms: C_30  and  O_32 
REMARK   15  A    between atoms: O_32  and  C_33 
ROOT
ATOM      1  C   LIG d   1       5.945  -2.612  -5.039  0.00  0.00     0.113 C 
ATOM      2  H   LIG d   1       5.465  -2.091  -5.864  0.00  0.00     0.074 H 
ATOM      3  C   LIG d   1       4.931  -2.967  -3.960  0.00  0.00    -0.006 C 
ATOM      4  C   LIG d   1       4.310  -1.732  -3.308  0.00  0.00     0.009 C 
ATOM      5  C   LIG d   1       3.223  -1.152  -4.198  0.00  0.00     0.062 C 
ATOM      6  H   LIG d   1       2.440  -1.922  -4.322  0.00  0.00     0.060 H 
ATOM      7  C   LIG d   1       2.565   0.080  -3.583  0.00  0.00    -0.020 C 
ATOM      8  C   LIG d   1       3.613   1.163  -3.317  0.00  0.00     0.009 C 
ATOM      9  C   LIG d   1       4.704   0.574  -2.455  0.00  0.00     0.140 C 
ATOM     10  O   LIG d   1       5.053   1.134  -1.439  0.00  0.00    -0.297 OA
ATOM     11  C   LIG d   1       5.358  -0.723  -2.878  0.00  0.00     0.052 C 
ATOM     12  H   LIG d   1       5.874  -1.134  -1.982  0.00  0.00     0.041 H 
ATOM     13  C   LIG d   1       6.424  -0.436  -3.924  0.00  0.00     0.076 C 
ATOM     14  H   LIG d   1       7.225   0.155  -3.449  0.00  0.00     0.061 H 
ATOM     15  C   LIG d   1       7.044  -1.733  -4.441  0.00  0.00     0.054 C 
ATOM     16  H   LIG d   1       7.525  -2.261  -3.617  0.00  0.00     0.041 H 
ATOM     17  H   LIG d   1       4.131  -3.572  -4.400  0.00  0.00     0.031 H 
ATOM     18  H   LIG d   1       5.422  -3.564  -3.185  0.00  0.00     0.031 H 
ATOM     19  H   LIG d   1       1.823   0.475  -4.287  0.00  0.00     0.029 H 
ATOM     20  H   LIG d   1       2.054  -0.176  -2.658  0.00  0.00     0.029 H 
ATOM     21  H   LIG d   1       4.027   1.520  -4.258  0.00  0.00     0.034 H 
ATOM     22  H   LIG d   1       3.146   1.998  -2.790  0.00  0.00     0.034 H 
ENDROOT
BRANCH   1  23
ATOM     23  O   LIG d   1       6.537  -3.816  -5.545  0.00  0.00    -0.457 OA
BRANCH  23  24
ATOM     24  C   LIG d   1       6.174  -4.202  -6.784  0.00  0.00     0.335 C 
ATOM     25  O   LIG d   1       7.015  -4.323  -7.653  0.00  0.00    -0.245 OA
BRANCH  24  26
ATOM     26  C   LIG d   1       4.762  -4.478  -7.085  0.00  0.00     0.033 C 
ATOM     27  C   LIG d   1       4.177  -5.566  -6.592  0.00  0.00    -0.037 C 
ATOM     28  H   LIG d   1       3.121  -5.729  -6.744  0.00  0.00     0.061 H 
BRANCH  26  29
ATOM     29  C   LIG d   1       3.977  -3.528  -7.952  0.00  0.00    -0.033 C 
ATOM     30  H   LIG d   1       2.999  -3.352  -7.505  0.00  0.00     0.028 H 
ATOM     31  H   LIG d   1       4.514  -2.583  -8.036  0.00  0.00     0.028 H 
ATOM     32  H   LIG d   1       3.850  -3.963  -8.944  0.00  0.00     0.028 H 
ENDBRANCH  26  29
BRANCH  27  33
ATOM     33  C   LIG d   1       4.990  -6.574  -5.819  0.00  0.00     0.111 C 
ATOM     34  H   LIG d   1       5.975  -6.674  -6.276  0.00  0.00     0.074 H 
ATOM     35  H   LIG d   1       5.100  -6.239  -4.788  0.00  0.00     0.074 H 
BRANCH  33  36
ATOM     36  O   LIG d   1       4.326  -7.838  -5.841  0.00  0.00    -0.461 OA
BRANCH  36  37
ATOM     37  C   LIG d   1       4.739  -8.759  -4.956  0.00  0.00     0.304 C 
ATOM     38  O   LIG d   1       3.939  -9.499  -4.437  0.00  0.00    -0.251 OA
BRANCH  37  39
ATOM     39  C   LIG d   1       6.202  -8.870  -4.612  0.00  0.00     0.033 C 
ATOM     40  H   LIG d   1       6.516  -7.980  -4.066  0.00  0.00     0.034 H 
ATOM     41  H   LIG d   1       6.364  -9.752  -3.991  0.00  0.00     0.034 H 
ATOM     42  H   LIG d   1       6.786  -8.959  -5.528  0.00  0.00     0.034 H 
ENDBRANCH  37  39
ENDBRANCH  36  37
ENDBRANCH  33  36
ENDBRANCH  27  33
ENDBRANCH  24  26
ENDBRANCH  23  24
ENDBRANCH   1  23
BRANCH  15  43
ATOM     43  C   LIG d   1       8.068  -1.416  -5.500  0.00  0.00     0.039 C 
ATOM     44  C   LIG d   1       7.696  -0.812  -6.626  0.00  0.00    -0.088 C 
ATOM     45  H   LIG d   1       8.430  -0.586  -7.385  0.00  0.00     0.054 H 
ATOM     46  H   LIG d   1       6.660  -0.550  -6.781  0.00  0.00     0.054 H 
BRANCH  43  47
ATOM     47  C   LIG d   1       9.478  -1.773  -5.289  0.00  0.00     0.335 C 
ATOM     48  O   LIG d   1      10.355  -1.136  -5.839  0.00  0.00    -0.245 OA
BRANCH  47  49
ATOM     49  O   LIG d   1       9.799  -2.806  -4.485  0.00  0.00    -0.465 OA
BRANCH  49  50
ATOM     50  C   LIG d   1      10.047  -4.065  -5.115  0.00  0.00     0.082 C 
ATOM     51  H   LIG d   1       9.105  -4.494  -5.457  0.00  0.00     0.066 H 
ATOM     52  H   LIG d   1      10.711  -3.920  -5.966  0.00  0.00     0.066 H 
ATOM     53  H   LIG d   1      10.515  -4.742  -4.400  0.00  0.00     0.066 H 
ENDBRANCH  49  50
ENDBRANCH  47  49
ENDBRANCH  43  47
ENDBRANCH  15  43
BRANCH  13  54
ATOM     54  O   LIG d   1       5.905   0.327  -5.009  0.00  0.00    -0.390 OA
ATOM     55  H   LIG d   1       6.199   0.024  -5.879  0.00  0.00     0.210 HD
ENDBRANCH  13  54
BRANCH   4  56
ATOM     56  C   LIG d   1       3.617  -2.243  -2.017  0.00  0.00    -0.056 C 
ATOM     57  H   LIG d   1       4.352  -2.741  -1.383  0.00  0.00     0.024 H 
ATOM     58  H   LIG d   1       3.185  -1.399  -1.479  0.00  0.00     0.024 H 
ATOM     59  H   LIG d   1       2.829  -2.947  -2.281  0.00  0.00     0.024 H 
ENDBRANCH   4  56
BRANCH   5  60
ATOM     60  O   LIG d   1       3.717  -0.835  -5.497  0.00  0.00    -0.391 OA
ATOM     61  H   LIG d   1       4.640  -0.546  -5.507  0.00  0.00     0.210 HD
ENDBRANCH   5  60
TORSDOF 15
ENDMDL
MODEL 7
REMARK VINA RESULT:      -5.6      1.665      2.561
REMARK  15 active torsions:
REMARK  status: ('A' for Active; 'I' for Inactive)
REMARK    1  A    between atoms: C_1  and  C_2 
REMARK    2  A    between atoms: C_2  and  C_9 
REMARK    3  A    between atoms: C_3  and  C_4 
REMARK    4  A    between atoms: C_4  and  O_5 
REMARK    5  A    between atoms: O_5  and  C_6 
REMARK    6  A    between atoms: C_6  and  C_8 
REMARK    7  A    between atoms: C_9  and  O_11 
REMARK    8  A    between atoms: O_11  and  C_12 
REMARK    9  A    between atoms: C_15  and  C_36 
REMARK   10  A    between atoms: C_16  and  O_35 
REMARK   11  A    between atoms: C_24  and  O_34 
REMARK   12  A    between atoms: C_26  and  C_28 
REMARK   13  A    between atoms: C_28  and  C_30 
REMARK   14  A    between atoms: C_30  and  O_32 
REMARK   15  A    between atoms: O_32  and  C_33 
ROOT
ATOM      1  C   LIG d   1       4.764  -2.439  -6.207  0.00  0.00     0.113 C 
ATOM      2  H   LIG d   1       3.726  -2.428  -5.884  0.00  0.00     0.074 H 
ATOM      3  C   LIG d   1       5.685  -2.820  -5.057  0.00  0.00    -0.006 C 
ATOM      4  C   LIG d   1       5.661  -1.798  -3.921  0.00  0.00     0.009 C 
ATOM      5  C   LIG d   1       4.428  -1.996  -3.055  0.00  0.00     0.062 C 
ATOM      6  H   LIG d   1       4.479  -3.011  -2.620  0.00  0.00     0.060 H 
ATOM      7  C   LIG d   1       4.364  -1.002  -1.898  0.00  0.00    -0.020 C 
ATOM      8  C   LIG d   1       4.365   0.431  -2.432  0.00  0.00     0.009 C 
ATOM      9  C   LIG d   1       5.577   0.616  -3.314  0.00  0.00     0.140 C 
ATOM     10  O   LIG d   1       6.329   1.548  -3.136  0.00  0.00    -0.297 OA
ATOM     11  C   LIG d   1       5.838  -0.378  -4.425  0.00  0.00     0.052 C 
ATOM     12  H   LIG d   1       6.903  -0.257  -4.725  0.00  0.00     0.041 H 
ATOM     13  C   LIG d   1       4.982  -0.025  -5.631  0.00  0.00     0.076 C 
ATOM     14  H   LIG d   1       5.321   0.948  -6.023  0.00  0.00     0.061 H 
ATOM     15  C   LIG d   1       5.153  -1.060  -6.741  0.00  0.00     0.054 C 
ATOM     16  H   LIG d   1       6.193  -1.077  -7.069  0.00  0.00     0.041 H 
ATOM     17  H   LIG d   1       5.384  -3.795  -4.659  0.00  0.00     0.031 H 
ATOM     18  H   LIG d   1       6.711  -2.907  -5.429  0.00  0.00     0.031 H 
ATOM     19  H   LIG d   1       3.436  -1.169  -1.338  0.00  0.00     0.029 H 
ATOM     20  H   LIG d   1       5.201  -1.145  -1.220  0.00  0.00     0.029 H 
ATOM     21  H   LIG d   1       3.454   0.619  -2.999  0.00  0.00     0.034 H 
ATOM     22  H   LIG d   1       4.416   1.130  -1.594  0.00  0.00     0.034 H 
ENDROOT
BRANCH   1  23
ATOM     23  O   LIG d   1       4.901  -3.401  -7.261  0.00  0.00    -0.457 OA
BRANCH  23  24
ATOM     24  C   LIG d   1       4.562  -4.674  -6.976  0.00  0.00     0.335 C 
ATOM     25  O   LIG d   1       3.455  -4.925  -6.542  0.00  0.00    -0.245 OA
BRANCH  24  26
ATOM     26  C   LIG d   1       5.531  -5.759  -7.191  0.00  0.00     0.033 C 
ATOM     27  C   LIG d   1       5.728  -6.242  -8.415  0.00  0.00    -0.037 C 
ATOM     28  H   LIG d   1       6.495  -6.981  -8.587  0.00  0.00     0.061 H 
BRANCH  26  29
ATOM     29  C   LIG d   1       6.300  -6.323  -6.025  0.00  0.00    -0.033 C 
ATOM     30  H   LIG d   1       6.291  -5.607  -5.202  0.00  0.00     0.028 H 
ATOM     31  H   LIG d   1       5.838  -7.256  -5.701  0.00  0.00     0.028 H 
ATOM     32  H   LIG d   1       7.330  -6.514  -6.328  0.00  0.00     0.028 H 
ENDBRANCH  26  29
BRANCH  27  33
ATOM     33  C   LIG d   1       4.879  -5.757  -9.562  0.00  0.00     0.111 C 
ATOM     34  H   LIG d   1       4.506  -4.757  -9.341  0.00  0.00     0.074 H 
ATOM     35  H   LIG d   1       5.479  -5.729 -10.471  0.00  0.00     0.074 H 
BRANCH  33  36
ATOM     36  O   LIG d   1       3.776  -6.646  -9.746  0.00  0.00    -0.461 OA
BRANCH  36  37
ATOM     37  C   LIG d   1       2.551  -6.098  -9.779  0.00  0.00     0.304 C 
ATOM     38  O   LIG d   1       1.575  -6.789  -9.610  0.00  0.00    -0.251 OA
BRANCH  37  39
ATOM     39  C   LIG d   1       2.393  -4.619 -10.027  0.00  0.00     0.033 C 
ATOM     40  H   LIG d   1       2.337  -4.094  -9.073  0.00  0.00     0.034 H 
ATOM     41  H   LIG d   1       3.250  -4.252 -10.593  0.00  0.00     0.034 H 
ATOM     42  H   LIG d   1       1.480  -4.441 -10.594  0.00  0.00     0.034 H 
ENDBRANCH  37  39
ENDBRANCH  36  37
ENDBRANCH  33  36
ENDBRANCH  27  33
ENDBRANCH  24  26
ENDBRANCH  23  24
ENDBRANCH   1  23
BRANCH  15  43
ATOM     43  C   LIG d   1       4.266  -0.702  -7.906  0.00  0.00     0.039 C 
ATOM     44  C   LIG d   1       3.167  -1.411  -8.148  0.00  0.00    -0.088 C 
ATOM     45  H   LIG d   1       2.531  -1.155  -8.983  0.00  0.00     0.054 H 
ATOM     46  H   LIG d   1       2.910  -2.244  -7.510  0.00  0.00     0.054 H 
BRANCH  43  47
ATOM     47  C   LIG d   1       4.615   0.430  -8.775  0.00  0.00     0.335 C 
ATOM     48  O   LIG d   1       4.481   1.570  -8.372  0.00  0.00    -0.245 OA
BRANCH  47  49
ATOM     49  O   LIG d   1       5.085   0.207 -10.019  0.00  0.00    -0.465 OA
BRANCH  49  50
ATOM     50  C   LIG d   1       4.286   0.675 -11.107  0.00  0.00     0.082 C 
ATOM     51  H   LIG d   1       4.606   1.678 -11.389  0.00  0.00     0.066 H 
ATOM     52  H   LIG d   1       4.401   0.003 -11.957  0.00  0.00     0.066 H 
ATOM     53  H   LIG d   1       3.238   0.701 -10.804  0.00  0.00     0.066 H 
ENDBRANCH  49  50
ENDBRANCH  47  49
ENDBRANCH  43  47
ENDBRANCH  15  43
BRANCH  13  54
ATOM     54  O   LIG d   1       3.607   0.100  -5.283  0.00  0.00    -0.390 OA
ATOM     55  H   LIG d   1       3.231  -0.693  -4.877  0.00  0.00     0.210 HD
ENDBRANCH  13  54
BRANCH   4  56
ATOM     56  C   LIG d   1       6.895  -2.122  -3.038  0.00  0.00    -0.056 C 
ATOM     57  H   LIG d   1       7.615  -2.700  -3.618  0.00  0.00     0.024 H 
ATOM     58  H   LIG d   1       7.358  -1.192  -2.707  0.00  0.00     0.024 H 
ATOM     59  H   LIG d   1       6.579  -2.700  -2.170  0.00  0.00     0.024 H 
ENDBRANCH   4  56
BRANCH   5  60
ATOM     60  O   LIG d   1       3.227  -1.921  -3.820  0.00  0.00    -0.391 OA
ATOM     61  H   LIG d   1       2.617  -2.655  -3.668  0.00  0.00     0.210 HD
ENDBRANCH   5  60
TORSDOF 15
ENDMDL
MODEL 8
REMARK VINA RESULT:      -5.5      1.709      6.284
REMARK  15 active torsions:
REMARK  status: ('A' for Active; 'I' for Inactive)
REMARK    1  A    between atoms: C_1  and  C_2 
REMARK    2  A    between atoms: C_2  and  C_9 
REMARK    3  A    between atoms: C_3  and  C_4 
REMARK    4  A    between atoms: C_4  and  O_5 
REMARK    5  A    between atoms: O_5  and  C_6 
REMARK    6  A    between atoms: C_6  and  C_8 
REMARK    7  A    between atoms: C_9  and  O_11 
REMARK    8  A    between atoms: O_11  and  C_12 
REMARK    9  A    between atoms: C_15  and  C_36 
REMARK   10  A    between atoms: C_16  and  O_35 
REMARK   11  A    between atoms: C_24  and  O_34 
REMARK   12  A    between atoms: C_26  and  C_28 
REMARK   13  A    between atoms: C_28  and  C_30 
REMARK   14  A    between atoms: C_30  and  O_32 
REMARK   15  A    between atoms: O_32  and  C_33 
ROOT
ATOM      1  C   LIG d   1       4.699  -2.217  -6.633  0.00  0.00     0.113 C 
ATOM      2  H   LIG d   1       3.705  -2.580  -6.382  0.00  0.00     0.074 H 
ATOM      3  C   LIG d   1       5.290  -3.014  -7.787  0.00  0.00    -0.006 C 
ATOM      4  C   LIG d   1       5.509  -4.484  -7.436  0.00  0.00     0.009 C 
ATOM      5  C   LIG d   1       4.199  -5.251  -7.522  0.00  0.00     0.062 C 
ATOM      6  H   LIG d   1       3.835  -5.184  -8.563  0.00  0.00     0.060 H 
ATOM      7  C   LIG d   1       4.369  -6.731  -7.188  0.00  0.00    -0.020 C 
ATOM      8  C   LIG d   1       4.943  -6.893  -5.779  0.00  0.00     0.009 C 
ATOM      9  C   LIG d   1       6.230  -6.107  -5.690  0.00  0.00     0.140 C 
ATOM     10  O   LIG d   1       7.242  -6.632  -5.281  0.00  0.00    -0.297 OA
ATOM     11  C   LIG d   1       6.238  -4.655  -6.116  0.00  0.00     0.052 C 
ATOM     12  H   LIG d   1       7.301  -4.371  -6.279  0.00  0.00     0.041 H 
ATOM     13  C   LIG d   1       5.704  -3.792  -4.984  0.00  0.00     0.076 C 
ATOM     14  H   LIG d   1       6.410  -3.854  -4.140  0.00  0.00     0.061 H 
ATOM     15  C   LIG d   1       5.613  -2.329  -5.411  0.00  0.00     0.054 C 
ATOM     16  H   LIG d   1       6.607  -1.960  -5.666  0.00  0.00     0.041 H 
ATOM     17  H   LIG d   1       4.617  -2.954  -8.650  0.00  0.00     0.031 H 
ATOM     18  H   LIG d   1       6.251  -2.575  -8.075  0.00  0.00     0.031 H 
ATOM     19  H   LIG d   1       3.388  -7.219  -7.227  0.00  0.00     0.029 H 
ATOM     20  H   LIG d   1       5.020  -7.218  -7.911  0.00  0.00     0.029 H 
ATOM     21  H   LIG d   1       4.229  -6.531  -5.042  0.00  0.00     0.034 H 
ATOM     22  H   LIG d   1       5.149  -7.949  -5.591  0.00  0.00     0.034 H 
ENDROOT
BRANCH   1  23
ATOM     23  O   LIG d   1       4.597  -0.839  -7.012  0.00  0.00    -0.457 OA
BRANCH  23  24
ATOM     24  C   LIG d   1       3.378  -0.390  -7.371  0.00  0.00     0.335 C 
ATOM     25  O   LIG d   1       2.604   0.008  -6.522  0.00  0.00    -0.245 OA
BRANCH  24  26
ATOM     26  C   LIG d   1       2.983  -0.384  -8.787  0.00  0.00     0.033 C 
ATOM     27  C   LIG d   1       3.294   0.654  -9.559  0.00  0.00    -0.037 C 
ATOM     28  H   LIG d   1       3.076   0.625 -10.616  0.00  0.00     0.061 H 
BRANCH  26  29
ATOM     29  C   LIG d   1       2.227  -1.553  -9.363  0.00  0.00    -0.033 C 
ATOM     30  H   LIG d   1       1.159  -1.416  -9.191  0.00  0.00     0.028 H 
ATOM     31  H   LIG d   1       2.417  -1.617 -10.435  0.00  0.00     0.028 H 
ATOM     32  H   LIG d   1       2.557  -2.473  -8.880  0.00  0.00     0.028 H 
ENDBRANCH  26  29
BRANCH  27  33
ATOM     33  C   LIG d   1       3.949   1.871  -8.958  0.00  0.00     0.111 C 
ATOM     34  H   LIG d   1       3.311   2.741  -9.113  0.00  0.00     0.074 H 
ATOM     35  H   LIG d   1       4.096   1.714  -7.889  0.00  0.00     0.074 H 
BRANCH  33  36
ATOM     36  O   LIG d   1       5.214   2.089  -9.585  0.00  0.00    -0.461 OA
BRANCH  36  37
ATOM     37  C   LIG d   1       6.278   1.478  -9.042  0.00  0.00     0.304 C 
ATOM     38  O   LIG d   1       6.566   1.681  -7.886  0.00  0.00    -0.251 OA
BRANCH  37  39
ATOM     39  C   LIG d   1       7.113   0.538  -9.873  0.00  0.00     0.033 C 
ATOM     40  H   LIG d   1       8.150   0.874  -9.871  0.00  0.00     0.034 H 
ATOM     41  H   LIG d   1       7.056  -0.467  -9.453  0.00  0.00     0.034 H 
ATOM     42  H   LIG d   1       6.736   0.525 -10.896  0.00  0.00     0.034 H 
ENDBRANCH  37  39
ENDBRANCH  36  37
ENDBRANCH  33  36
ENDBRANCH  27  33
ENDBRANCH  24  26
ENDBRANCH  23  24
ENDBRANCH   1  23
BRANCH  15  43
ATOM     43  C   LIG d   1       5.047  -1.507  -4.282  0.00  0.00     0.039 C 
ATOM     44  C   LIG d   1       3.833  -1.774  -3.808  0.00  0.00    -0.088 C 
ATOM     45  H   LIG d   1       3.427  -1.184  -2.999  0.00  0.00     0.054 H 
ATOM     46  H   LIG d   1       3.252  -2.578  -4.233  0.00  0.00     0.054 H 
BRANCH  43  47
ATOM     47  C   LIG d   1       5.838  -0.412  -3.703  0.00  0.00     0.335 C 
ATOM     48  O   LIG d   1       6.900  -0.649  -3.161  0.00  0.00    -0.245 OA
BRANCH  47  49
ATOM     49  O   LIG d   1       5.385   0.856  -3.772  0.00  0.00    -0.465 OA
BRANCH  49  50
ATOM     50  C   LIG d   1       4.852   1.421  -2.573  0.00  0.00     0.082 C 
ATOM     51  H   LIG d   1       4.417   2.396  -2.791  0.00  0.00     0.066 H 
ATOM     52  H   LIG d   1       4.084   0.762  -2.171  0.00  0.00     0.066 H 
ATOM     53  H   LIG d   1       5.651   1.538  -1.840  0.00  0.00     0.066 H 
ENDBRANCH  49  50
ENDBRANCH  47  49
ENDBRANCH  43  47
ENDBRANCH  15  43
BRANCH  13  54
ATOM     54  O   LIG d   1       4.436  -4.250  -4.526  0.00  0.00    -0.390 OA
ATOM     55  H   LIG d   1       3.743  -4.229  -5.200  0.00  0.00     0.210 HD
ENDBRANCH  13  54
BRANCH   4  56
ATOM     56  C   LIG d   1       6.440  -5.046  -8.543  0.00  0.00    -0.056 C 
ATOM     57  H   LIG d   1       7.473  -5.023  -8.196  0.00  0.00     0.024 H 
ATOM     58  H   LIG d   1       6.155  -6.074  -8.769  0.00  0.00     0.024 H 
ATOM     59  H   LIG d   1       6.345  -4.437  -9.442  0.00  0.00     0.024 H 
ENDBRANCH   4  56
BRANCH   5  60
ATOM     60  O   LIG d   1       3.198  -4.682  -6.683  0.00  0.00    -0.391 OA
ATOM     61  H   LIG d   1       2.533  -5.314  -6.378  0.00  0.00     0.210 HD
ENDBRANCH   5  60
TORSDOF 15
ENDMDL
MODEL 9
REMARK VINA RESULT:      -5.5      2.645      6.014
REMARK  15 active torsions:
REMARK  status: ('A' for Active; 'I' for Inactive)
REMARK    1  A    between atoms: C_1  and  C_2 
REMARK    2  A    between atoms: C_2  and  C_9 
REMARK    3  A    between atoms: C_3  and  C_4 
REMARK    4  A    between atoms: C_4  and  O_5 
REMARK    5  A    between atoms: O_5  and  C_6 
REMARK    6  A    between atoms: C_6  and  C_8 
REMARK    7  A    between atoms: C_9  and  O_11 
REMARK    8  A    between atoms: O_11  and  C_12 
REMARK    9  A    between atoms: C_15  and  C_36 
REMARK   10  A    between atoms: C_16  and  O_35 
REMARK   11  A    between atoms: C_24  and  O_34 
REMARK   12  A    between atoms: C_26  and  C_28 
REMARK   13  A    between atoms: C_28  and  C_30 
REMARK   14  A    between atoms: C_30  and  O_32 
REMARK   15  A    between atoms: O_32  and  C_33 
ROOT
ATOM      1  C   LIG d   1       5.513  -1.091  -6.459  0.00  0.00     0.113 C 
ATOM      2  H   LIG d   1       6.361  -0.593  -5.994  0.00  0.00     0.074 H 
ATOM      3  C   LIG d   1       4.210  -0.395  -6.094  0.00  0.00    -0.006 C 
ATOM      4  C   LIG d   1       3.905  -0.463  -4.598  0.00  0.00     0.009 C 
ATOM      5  C   LIG d   1       4.721   0.575  -3.843  0.00  0.00     0.062 C 
ATOM      6  H   LIG d   1       4.431   1.572  -4.221  0.00  0.00     0.060 H 
ATOM      7  C   LIG d   1       4.443   0.552  -2.342  0.00  0.00    -0.020 C 
ATOM      8  C   LIG d   1       4.754  -0.831  -1.768  0.00  0.00     0.009 C 
ATOM      9  C   LIG d   1       3.964  -1.862  -2.539  0.00  0.00     0.140 C 
ATOM     10  O   LIG d   1       3.277  -2.671  -1.955  0.00  0.00    -0.297 OA
ATOM     11  C   LIG d   1       4.041  -1.871  -4.050  0.00  0.00     0.052 C 
ATOM     12  H   LIG d   1       3.171  -2.460  -4.415  0.00  0.00     0.041 H 
ATOM     13  C   LIG d   1       5.302  -2.600  -4.487  0.00  0.00     0.076 C 
ATOM     14  H   LIG d   1       5.210  -3.658  -4.192  0.00  0.00     0.061 H 
ATOM     15  C   LIG d   1       5.460  -2.551  -6.006  0.00  0.00     0.054 C 
ATOM     16  H   LIG d   1       4.612  -3.047  -6.478  0.00  0.00     0.041 H 
ATOM     17  H   LIG d   1       4.265   0.657  -6.394  0.00  0.00     0.031 H 
ATOM     18  H   LIG d   1       3.385  -0.862  -6.642  0.00  0.00     0.031 H 
ATOM     19  H   LIG d   1       5.088   1.290  -1.851  0.00  0.00     0.029 H 
ATOM     20  H   LIG d   1       3.408   0.814  -2.137  0.00  0.00     0.029 H 
ATOM     21  H   LIG d   1       5.820  -1.037  -1.848  0.00  0.00     0.034 H 
ATOM     22  H   LIG d   1       4.461  -0.861  -0.715  0.00  0.00     0.034 H 
ENDROOT
BRANCH   1  23
ATOM     23  O   LIG d   1       5.688  -1.052  -7.881  0.00  0.00    -0.457 OA
BRANCH  23  24
ATOM     24  C   LIG d   1       6.759  -0.380  -8.349  0.00  0.00     0.335 C 
ATOM     25  O   LIG d   1       7.632  -0.974  -8.951  0.00  0.00    -0.245 OA
BRANCH  24  26
ATOM     26  C   LIG d   1       6.871   1.069  -8.131  0.00  0.00     0.033 C 
ATOM     27  C   LIG d   1       6.096   1.906  -8.816  0.00  0.00    -0.037 C 
ATOM     28  H   LIG d   1       6.120   2.963  -8.600  0.00  0.00     0.061 H 
BRANCH  26  29
ATOM     29  C   LIG d   1       7.862   1.606  -7.132  0.00  0.00    -0.033 C 
ATOM     30  H   LIG d   1       8.771   1.004  -7.162  0.00  0.00     0.028 H 
ATOM     31  H   LIG d   1       8.103   2.640  -7.378  0.00  0.00     0.028 H 
ATOM     32  H   LIG d   1       7.431   1.561  -6.131  0.00  0.00     0.028 H 
ENDBRANCH  26  29
BRANCH  27  33
ATOM     33  C   LIG d   1       5.186   1.379  -9.895  0.00  0.00     0.111 C 
ATOM     34  H   LIG d   1       5.654   1.524 -10.869  0.00  0.00     0.074 H 
ATOM     35  H   LIG d   1       5.008   0.316  -9.733  0.00  0.00     0.074 H 
BRANCH  33  36
ATOM     36  O   LIG d   1       3.943   2.081  -9.855  0.00  0.00    -0.461 OA
BRANCH  36  37
ATOM     37  C   LIG d   1       3.040   1.672  -8.950  0.00  0.00     0.304 C 
ATOM     38  O   LIG d   1       2.804   2.353  -7.982  0.00  0.00    -0.251 OA
BRANCH  37  39
ATOM     39  C   LIG d   1       2.320   0.361  -9.144  0.00  0.00     0.033 C 
ATOM     40  H   LIG d   1       1.772   0.109  -8.237  0.00  0.00     0.034 H 
ATOM     41  H   LIG d   1       1.622   0.450  -9.978  0.00  0.00     0.034 H 
ATOM     42  H   LIG d   1       3.045  -0.424  -9.361  0.00  0.00     0.034 H 
ENDBRANCH  37  39
ENDBRANCH  36  37
ENDBRANCH  33  36
ENDBRANCH  27  33
ENDBRANCH  24  26
ENDBRANCH  23  24
ENDBRANCH   1  23
BRANCH  15  43
ATOM     43  C   LIG d   1       6.735  -3.249  -6.404  0.00  0.00     0.039 C 
ATOM     44  C   LIG d   1       6.726  -4.134  -7.398  0.00  0.00    -0.088 C 
ATOM     45  H   LIG d   1       7.640  -4.634  -7.683  0.00  0.00     0.054 H 
ATOM     46  H   LIG d   1       5.806  -4.352  -7.918  0.00  0.00     0.054 H 
BRANCH  43  47
ATOM     47  C   LIG d   1       7.987  -2.952  -5.695  0.00  0.00     0.335 C 
ATOM     48  O   LIG d   1       8.543  -1.883  -5.864  0.00  0.00    -0.245 OA
BRANCH  47  49
ATOM     49  O   LIG d   1       8.521  -3.863  -4.858  0.00  0.00    -0.465 OA
BRANCH  49  50
ATOM     50  C   LIG d   1       9.738  -3.506  -4.201  0.00  0.00     0.082 C 
ATOM     51  H   LIG d   1       9.535  -2.747  -3.446  0.00  0.00     0.066 H 
ATOM     52  H   LIG d   1      10.167  -4.387  -3.725  0.00  0.00     0.066 H 
ATOM     53  H   LIG d   1      10.443  -3.109  -4.933  0.00  0.00     0.066 H 
ENDBRANCH  49  50
ENDBRANCH  47  49
ENDBRANCH  43  47
ENDBRANCH  15  43
BRANCH  13  54
ATOM     54  O   LIG d   1       6.463  -2.071  -3.855  0.00  0.00    -0.390 OA
ATOM     55  H   LIG d   1       6.389  -1.136  -3.616  0.00  0.00     0.210 HD
ENDBRANCH  13  54
BRANCH   4  56
ATOM     56  C   LIG d   1       2.413  -0.063  -4.455  0.00  0.00    -0.056 C 
ATOM     57  H   LIG d   1       2.126   0.572  -5.292  0.00  0.00     0.024 H 
ATOM     58  H   LIG d   1       1.796  -0.961  -4.451  0.00  0.00     0.024 H 
ATOM     59  H   LIG d   1       2.270   0.480  -3.520  0.00  0.00     0.024 H 
ENDBRANCH   4  56
BRANCH   5  60
ATOM     60  O   LIG d   1       6.118   0.420  -4.076  0.00  0.00    -0.391 OA
ATOM     61  H   LIG d   1       6.639   1.212  -3.883  0.00  0.00     0.210 HD
ENDBRANCH   5  60
TORSDOF 15
ENDMDL
MODEL 10
REMARK VINA RESULT:      -5.4      2.223      3.885
REMARK  15 active torsions:
REMARK  status: ('A' for Active; 'I' for Inactive)
REMARK    1  A    between atoms: C_1  and  C_2 
REMARK    2  A    between atoms: C_2  and  C_9 
REMARK    3  A    between atoms: C_3  and  C_4 
REMARK    4  A    between atoms: C_4  and  O_5 
REMARK    5  A    between atoms: O_5  and  C_6 
REMARK    6  A    between atoms: C_6  and  C_8 
REMARK    7  A    between atoms: C_9  and  O_11 
REMARK    8  A    between atoms: O_11  and  C_12 
REMARK    9  A    between atoms: C_15  and  C_36 
REMARK   10  A    between atoms: C_16  and  O_35 
REMARK   11  A    between atoms: C_24  and  O_34 
REMARK   12  A    between atoms: C_26  and  C_28 
REMARK   13  A    between atoms: C_28  and  C_30 
REMARK   14  A    between atoms: C_30  and  O_32 
REMARK   15  A    between atoms: O_32  and  C_33 
ROOT
ATOM      1  C   LIG d   1       4.564  -1.949  -6.461  0.00  0.00     0.113 C 
ATOM      2  H   LIG d   1       3.547  -2.055  -6.093  0.00  0.00     0.074 H 
ATOM      3  C   LIG d   1       5.564  -2.502  -5.456  0.00  0.00    -0.006 C 
ATOM      4  C   LIG d   1       5.564  -1.728  -4.139  0.00  0.00     0.009 C 
ATOM      5  C   LIG d   1       4.391  -2.157  -3.272  0.00  0.00     0.062 C 
ATOM      6  H   LIG d   1       4.508  -3.234  -3.053  0.00  0.00     0.060 H 
ATOM      7  C   LIG d   1       4.353  -1.417  -1.938  0.00  0.00    -0.020 C 
ATOM      8  C   LIG d   1       4.266   0.092  -2.173  0.00  0.00     0.009 C 
ATOM      9  C   LIG d   1       5.417   0.509  -3.056  0.00  0.00     0.140 C 
ATOM     10  O   LIG d   1       6.141   1.425  -2.731  0.00  0.00    -0.297 OA
ATOM     11  C   LIG d   1       5.654  -0.230  -4.355  0.00  0.00     0.052 C 
ATOM     12  H   LIG d   1       6.694   0.003  -4.675  0.00  0.00     0.041 H 
ATOM     13  C   LIG d   1       4.717   0.311  -5.424  0.00  0.00     0.076 C 
ATOM     14  H   LIG d   1       4.994   1.359  -5.628  0.00  0.00     0.061 H 
ATOM     15  C   LIG d   1       4.866  -0.473  -6.726  0.00  0.00     0.054 C 
ATOM     16  H   LIG d   1       5.885  -0.372  -7.100  0.00  0.00     0.041 H 
ATOM     17  H   LIG d   1       5.326  -3.551  -5.248  0.00  0.00     0.031 H 
ATOM     18  H   LIG d   1       6.570  -2.462  -5.887  0.00  0.00     0.031 H 
ATOM     19  H   LIG d   1       3.467  -1.738  -1.378  0.00  0.00     0.029 H 
ATOM     20  H   LIG d   1       5.233  -1.649  -1.342  0.00  0.00     0.029 H 
ATOM     21  H   LIG d   1       3.318   0.342  -2.646  0.00  0.00     0.034 H 
ATOM     22  H   LIG d   1       4.337   0.613  -1.214  0.00  0.00     0.034 H 
ENDROOT
BRANCH   1  23
ATOM     23  O   LIG d   1       4.680  -2.675  -7.692  0.00  0.00    -0.457 OA
BRANCH  23  24
ATOM     24  C   LIG d   1       5.903  -3.137  -8.018  0.00  0.00     0.335 C 
ATOM     25  O   LIG d   1       6.203  -4.288  -7.770  0.00  0.00    -0.245 OA
BRANCH  24  26
ATOM     26  C   LIG d   1       6.874  -2.249  -8.673  0.00  0.00     0.033 C 
ATOM     27  C   LIG d   1       6.689  -1.878  -9.937  0.00  0.00    -0.037 C 
ATOM     28  H   LIG d   1       7.356  -1.163 -10.394  0.00  0.00     0.061 H 
BRANCH  26  29
ATOM     29  C   LIG d   1       8.080  -1.760  -7.913  0.00  0.00    -0.033 C 
ATOM     30  H   LIG d   1       8.522  -0.914  -8.439  0.00  0.00     0.028 H 
ATOM     31  H   LIG d   1       7.778  -1.448  -6.913  0.00  0.00     0.028 H 
ATOM     32  H   LIG d   1       8.812  -2.564  -7.838  0.00  0.00     0.028 H 
ENDBRANCH  26  29
BRANCH  27  33
ATOM     33  C   LIG d   1       5.546  -2.456 -10.732  0.00  0.00     0.111 C 
ATOM     34  H   LIG d   1       5.927  -3.212 -11.420  0.00  0.00     0.074 H 
ATOM     35  H   LIG d   1       4.826  -2.913 -10.054  0.00  0.00     0.074 H 
BRANCH  33  36
ATOM     36  O   LIG d   1       4.908  -1.416 -11.475  0.00  0.00    -0.461 OA
BRANCH  36  37
ATOM     37  C   LIG d   1       3.572  -1.329 -11.379  0.00  0.00     0.304 C 
ATOM     38  O   LIG d   1       3.022  -0.268 -11.550  0.00  0.00    -0.251 OA
BRANCH  37  39
ATOM     39  C   LIG d   1       2.759  -2.558 -11.060  0.00  0.00     0.033 C 
ATOM     40  H   LIG d   1       1.762  -2.456 -11.488  0.00  0.00     0.034 H 
ATOM     41  H   LIG d   1       3.248  -3.437 -11.481  0.00  0.00     0.034 H 
ATOM     42  H   LIG d   1       2.680  -2.671  -9.978  0.00  0.00     0.034 H 
ENDBRANCH  37  39
ENDBRANCH  36  37
ENDBRANCH  33  36
ENDBRANCH  27  33
ENDBRANCH  24  26
ENDBRANCH  23  24
ENDBRANCH   1  23
BRANCH  15  43
ATOM     43  C   LIG d   1       3.901   0.063  -7.751  0.00  0.00     0.039 C 
ATOM     44  C   LIG d   1       2.726  -0.534  -7.935  0.00  0.00    -0.088 C 
ATOM     45  H   LIG d   1       2.034  -0.150  -8.671  0.00  0.00     0.054 H 
ATOM     46  H   LIG d   1       2.465  -1.403  -7.350  0.00  0.00     0.054 H 
BRANCH  43  47
ATOM     47  C   LIG d   1       4.256   1.246  -8.548  0.00  0.00     0.335 C 
ATOM     48  O   LIG d   1       3.589   2.259  -8.463  0.00  0.00    -0.245 OA
BRANCH  47  49
ATOM     49  O   LIG d   1       5.322   1.208  -9.372  0.00  0.00    -0.465 OA
BRANCH  49  50
ATOM     50  C   LIG d   1       6.518   1.843  -8.915  0.00  0.00     0.082 C 
ATOM     51  H   LIG d   1       7.234   1.086  -8.596  0.00  0.00     0.066 H 
ATOM     52  H   LIG d   1       6.948   2.433  -9.724  0.00  0.00     0.066 H 
ATOM     53  H   LIG d   1       6.283   2.497  -8.074  0.00  0.00     0.066 H 
ENDBRANCH  49  50
ENDBRANCH  47  49
ENDBRANCH  43  47
ENDBRANCH  15  43
BRANCH  13  54
ATOM     54  O   LIG d   1       3.361   0.295  -4.993  0.00  0.00    -0.390 OA
ATOM     55  H   LIG d   1       3.037  -0.583  -4.747  0.00  0.00     0.210 HD
ENDBRANCH  13  54
BRANCH   4  56
ATOM     56  C   LIG d   1       6.858  -2.158  -3.399  0.00  0.00    -0.056 C 
ATOM     57  H   LIG d   1       7.726  -1.761  -3.926  0.00  0.00     0.024 H 
ATOM     58  H   LIG d   1       6.841  -1.767  -2.381  0.00  0.00     0.024 H 
ATOM     59  H   LIG d   1       6.917  -3.246  -3.370  0.00  0.00     0.024 H 
ENDBRANCH   4  56
BRANCH   5  60
ATOM     60  O   LIG d   1       3.147  -1.993  -3.948  0.00  0.00    -0.391 OA
ATOM     61  H   LIG d   1       2.803  -1.089  -3.925  0.00  0.00     0.210 HD
ENDBRANCH   5  60
TORSDOF 15
ENDMDL
