MODEL 1
REMARK VINA RESULT:      -8.0      0.000      0.000
REMARK  4 active torsions:
REMARK  status: ('A' for Active; 'I' for Inactive)
REMARK    1  A    between atoms: C_1  and  O_2 
REMARK    2  A    between atoms: O_2  and  C_3 
REMARK    3  A    between atoms: C_6  and  C_9 
REMARK    4  A    between atoms: N_21  and  C_24 
ROOT
ATOM      1  C   LIG d   1      10.626   6.454  -4.496  0.00  0.00    -0.001 A 
ATOM      2  C   LIG d   1      10.699   6.560  -3.119  0.00  0.00     0.031 A 
ATOM      3  C   LIG d   1      10.219   5.512  -2.318  0.00  0.00     0.338 A 
ATOM      4  O   LIG d   1      10.288   5.614  -1.105  0.00  0.00    -0.245 OA
ATOM      5  O   LIG d   1       9.685   4.401  -2.850  0.00  0.00    -0.422 OA
ATOM      6  C   LIG d   1       9.584   4.227  -4.185  0.00  0.00     0.147 A 
ATOM      7  C   LIG d   1      10.034   5.229  -5.060  0.00  0.00     0.026 A 
ATOM      8  C   LIG d   1       9.923   5.054  -6.441  0.00  0.00    -0.047 A 
ATOM      9  C   LIG d   1       9.371   3.907  -6.937  0.00  0.00    -0.019 A 
ATOM     10  C   LIG d   1       8.917   2.908  -6.075  0.00  0.00     0.130 A 
ATOM     11  C   LIG d   1       9.032   3.063  -4.704  0.00  0.00     0.051 A 
ATOM     12  C   LIG d   1       8.554   1.988  -3.762  0.00  0.00     0.035 C 
ATOM     13  N   LIG d   1       7.659   1.068  -4.478  0.00  0.00    -0.259 N 
ATOM     14  C   LIG d   1       8.279   0.637  -5.741  0.00  0.00     0.144 C 
ATOM     15  O   LIG d   1       8.371   1.781  -6.603  0.00  0.00    -0.476 OA
ATOM     16  H   LIG d   1      11.123   7.444  -2.663  0.00  0.00     0.070 H 
ATOM     17  H   LIG d   1      10.272   5.822  -7.115  0.00  0.00     0.063 H 
ATOM     18  H   LIG d   1       9.284   3.773  -8.004  0.00  0.00     0.065 H 
ATOM     19  H   LIG d   1       9.410   1.435  -3.377  0.00  0.00     0.048 H 
ATOM     20  H   LIG d   1       8.015   2.446  -2.932  0.00  0.00     0.048 H 
ATOM     21  H   LIG d   1       9.270   0.230  -5.542  0.00  0.00     0.087 H 
ATOM     22  H   LIG d   1       7.656  -0.122  -6.214  0.00  0.00     0.087 H 
ENDROOT
BRANCH  13  23
ATOM     23  C   LIG d   1       7.314  -0.089  -3.639  0.00  0.00     0.039 C 
ATOM     24  H   LIG d   1       7.930  -0.078  -2.740  0.00  0.00     0.051 H 
ATOM     25  C   LIG d   1       5.862  -0.003  -3.248  0.00  0.00    -0.027 A 
ATOM     26  C   LIG d   1       5.027  -1.098  -3.251  0.00  0.00    -0.043 A 
ATOM     27  C   LIG d   1       5.366   1.238  -2.871  0.00  0.00    -0.057 A 
ATOM     28  C   LIG d   1       5.494  -2.471  -3.656  0.00  0.00    -0.027 C 
ATOM     29  C   LIG d   1       3.699  -0.952  -2.872  0.00  0.00    -0.058 A 
ATOM     30  C   LIG d   1       7.018  -2.554  -3.619  0.00  0.00    -0.047 C 
ATOM     31  H   LIG d   1       5.146  -2.686  -4.666  0.00  0.00     0.031 H 
ATOM     32  H   LIG d   1       5.077  -3.209  -2.969  0.00  0.00     0.031 H 
ATOM     33  C   LIG d   1       7.585  -1.374  -4.419  0.00  0.00    -0.033 C 
ATOM     34  H   LIG d   1       7.347  -3.492  -4.066  0.00  0.00     0.027 H 
ATOM     35  H   LIG d   1       7.365  -2.497  -2.587  0.00  0.00     0.027 H 
ATOM     36  H   LIG d   1       7.097  -1.322  -5.392  0.00  0.00     0.028 H 
ATOM     37  H   LIG d   1       8.659  -1.503  -4.552  0.00  0.00     0.028 H 
ATOM     38  C   LIG d   1       3.209   0.281  -2.498  0.00  0.00    -0.061 A 
ATOM     39  H   LIG d   1       3.044  -1.810  -2.872  0.00  0.00     0.062 H 
ATOM     40  C   LIG d   1       4.045   1.381  -2.497  0.00  0.00    -0.061 A 
ATOM     41  H   LIG d   1       2.175   0.387  -2.203  0.00  0.00     0.062 H 
ATOM     42  H   LIG d   1       3.667   2.350  -2.206  0.00  0.00     0.062 H 
ATOM     43  H   LIG d   1       6.020   2.098  -2.870  0.00  0.00     0.062 H 
ENDBRANCH  13  23
BRANCH   1  44
ATOM     44  C   LIG d   1      11.120   7.536  -5.373  0.00  0.00    -0.017 A 
ATOM     45  C   LIG d   1      12.451   7.540  -5.799  0.00  0.00    -0.051 A 
ATOM     46  C   LIG d   1      12.907   8.551  -6.616  0.00  0.00    -0.019 A 
ATOM     47  H   LIG d   1      13.120   6.752  -5.489  0.00  0.00     0.062 H 
ATOM     48  C   LIG d   1      12.046   9.565  -7.016  0.00  0.00     0.120 A 
ATOM     49  H   LIG d   1      13.935   8.553  -6.946  0.00  0.00     0.065 H 
ATOM     50  C   LIG d   1      10.724   9.568  -6.591  0.00  0.00    -0.019 A 
ATOM     51  C   LIG d   1      10.258   8.558  -5.777  0.00  0.00    -0.051 A 
ATOM     52  H   LIG d   1      10.059  10.361  -6.901  0.00  0.00     0.065 H 
ATOM     53  H   LIG d   1       9.228   8.558  -5.450  0.00  0.00     0.062 H 
BRANCH  48  54
ATOM     54  O   LIG d   1      12.501  10.560  -7.822  0.00  0.00    -0.495 OA
BRANCH  54  55
ATOM     55  C   LIG d   1      11.525  11.452  -8.364  0.00  0.00     0.079 C 
ATOM     56  H   LIG d   1      11.879  11.841  -9.318  0.00  0.00     0.066 H 
ATOM     57  H   LIG d   1      10.588  10.916  -8.516  0.00  0.00     0.066 H 
ATOM     58  H   LIG d   1      11.363  12.277  -7.672  0.00  0.00     0.066 H 
ENDBRANCH  54  55
ENDBRANCH  48  54
ENDBRANCH   1  44
TORSDOF 4
ENDMDL
MODEL 2
REMARK VINA RESULT:      -7.4      2.370      3.011
REMARK  4 active torsions:
REMARK  status: ('A' for Active; 'I' for Inactive)
REMARK    1  A    between atoms: C_1  and  O_2 
REMARK    2  A    between atoms: O_2  and  C_3 
REMARK    3  A    between atoms: C_6  and  C_9 
REMARK    4  A    between atoms: N_21  and  C_24 
ROOT
ATOM      1  C   LIG d   1      10.311   4.936  -7.498  0.00  0.00    -0.001 A 
ATOM      2  C   LIG d   1      10.998   5.014  -6.299  0.00  0.00     0.031 A 
ATOM      3  C   LIG d   1      10.779   4.042  -5.311  0.00  0.00     0.338 A 
ATOM      4  O   LIG d   1      11.389   4.118  -4.259  0.00  0.00    -0.245 OA
ATOM      5  O   LIG d   1       9.916   3.029  -5.493  0.00  0.00    -0.422 OA
ATOM      6  C   LIG d   1       9.213   2.887  -6.637  0.00  0.00     0.147 A 
ATOM      7  C   LIG d   1       9.367   3.820  -7.676  0.00  0.00     0.026 A 
ATOM      8  C   LIG d   1       8.635   3.679  -8.857  0.00  0.00    -0.047 A 
ATOM      9  C   LIG d   1       7.766   2.634  -8.995  0.00  0.00    -0.019 A 
ATOM     10  C   LIG d   1       7.604   1.705  -7.967  0.00  0.00     0.130 A 
ATOM     11  C   LIG d   1       8.333   1.826  -6.795  0.00  0.00     0.051 A 
ATOM     12  C   LIG d   1       8.174   0.824  -5.681  0.00  0.00     0.035 C 
ATOM     13  N   LIG d   1       6.936   0.057  -5.879  0.00  0.00    -0.259 N 
ATOM     14  C   LIG d   1       6.868  -0.447  -7.260  0.00  0.00     0.144 C 
ATOM     15  O   LIG d   1       6.730   0.679  -8.138  0.00  0.00    -0.476 OA
ATOM     16  H   LIG d   1      11.698   5.819  -6.125  0.00  0.00     0.070 H 
ATOM     17  H   LIG d   1       8.754   4.394  -9.657  0.00  0.00     0.063 H 
ATOM     18  H   LIG d   1       7.200   2.527  -9.908  0.00  0.00     0.065 H 
ATOM     19  H   LIG d   1       9.025   0.144  -5.678  0.00  0.00     0.048 H 
ATOM     20  H   LIG d   1       8.126   1.349  -4.726  0.00  0.00     0.048 H 
ATOM     21  H   LIG d   1       7.778  -1.001  -7.492  0.00  0.00     0.087 H 
ATOM     22  H   LIG d   1       6.001  -1.099  -7.369  0.00  0.00     0.087 H 
ENDROOT
BRANCH  13  23
ATOM     23  C   LIG d   1       6.838  -1.044  -4.911  0.00  0.00     0.039 C 
ATOM     24  H   LIG d   1       7.824  -1.241  -4.489  0.00  0.00     0.051 H 
ATOM     25  C   LIG d   1       5.894  -0.650  -3.805  0.00  0.00    -0.027 A 
ATOM     26  C   LIG d   1       4.961  -1.516  -3.282  0.00  0.00    -0.043 A 
ATOM     27  C   LIG d   1       5.988   0.643  -3.306  0.00  0.00    -0.057 A 
ATOM     28  C   LIG d   1       4.799  -2.928  -3.780  0.00  0.00    -0.027 C 
ATOM     29  C   LIG d   1       4.126  -1.092  -2.257  0.00  0.00    -0.058 A 
ATOM     30  C   LIG d   1       6.032  -3.367  -4.566  0.00  0.00    -0.047 C 
ATOM     31  H   LIG d   1       3.922  -2.984  -4.426  0.00  0.00     0.031 H 
ATOM     32  H   LIG d   1       4.659  -3.596  -2.928  0.00  0.00     0.031 H 
ATOM     33  C   LIG d   1       6.336  -2.298  -5.624  0.00  0.00    -0.033 C 
ATOM     34  H   LIG d   1       5.837  -4.321  -5.055  0.00  0.00     0.027 H 
ATOM     35  H   LIG d   1       6.882  -3.466  -3.891  0.00  0.00     0.027 H 
ATOM     36  H   LIG d   1       5.428  -2.065  -6.180  0.00  0.00     0.028 H 
ATOM     37  H   LIG d   1       7.102  -2.664  -6.306  0.00  0.00     0.028 H 
ATOM     38  C   LIG d   1       4.220   0.192  -1.763  0.00  0.00    -0.061 A 
ATOM     39  H   LIG d   1       3.394  -1.772  -1.846  0.00  0.00     0.062 H 
ATOM     40  C   LIG d   1       5.154   1.063  -2.288  0.00  0.00    -0.061 A 
ATOM     41  H   LIG d   1       3.567   0.514  -0.965  0.00  0.00     0.062 H 
ATOM     42  H   LIG d   1       5.232   2.070  -1.906  0.00  0.00     0.062 H 
ATOM     43  H   LIG d   1       6.718   1.324  -3.716  0.00  0.00     0.062 H 
ENDBRANCH  13  23
BRANCH   1  44
ATOM     44  C   LIG d   1      10.514   5.941  -8.561  0.00  0.00    -0.017 A 
ATOM     45  C   LIG d   1       9.723   7.092  -8.600  0.00  0.00    -0.051 A 
ATOM     46  C   LIG d   1       9.917   8.026  -9.593  0.00  0.00    -0.019 A 
ATOM     47  H   LIG d   1       8.961   7.249  -7.851  0.00  0.00     0.062 H 
ATOM     48  C   LIG d   1      10.897   7.824 -10.557  0.00  0.00     0.120 A 
ATOM     49  H   LIG d   1       9.306   8.916  -9.622  0.00  0.00     0.065 H 
ATOM     50  C   LIG d   1      11.683   6.679 -10.526  0.00  0.00    -0.019 A 
ATOM     51  C   LIG d   1      11.499   5.742  -9.533  0.00  0.00    -0.051 A 
ATOM     52  H   LIG d   1      12.441   6.525 -11.280  0.00  0.00     0.065 H 
ATOM     53  H   LIG d   1      12.113   4.854  -9.507  0.00  0.00     0.062 H 
BRANCH  48  54
ATOM     54  O   LIG d   1      11.084   8.748 -11.535  0.00  0.00    -0.495 OA
BRANCH  54  55
ATOM     55  C   LIG d   1      10.093   8.816 -12.562  0.00  0.00     0.079 C 
ATOM     56  H   LIG d   1       9.699   7.818 -12.752  0.00  0.00     0.066 H 
ATOM     57  H   LIG d   1       9.284   9.472 -12.243  0.00  0.00     0.066 H 
ATOM     58  H   LIG d   1      10.542   9.210 -13.473  0.00  0.00     0.066 H 
ENDBRANCH  54  55
ENDBRANCH  48  54
ENDBRANCH   1  44
TORSDOF 4
ENDMDL
MODEL 3
REMARK VINA RESULT:      -7.3      8.362     13.509
REMARK  4 active torsions:
REMARK  status: ('A' for Active; 'I' for Inactive)
REMARK    1  A    between atoms: C_1  and  O_2 
REMARK    2  A    between atoms: O_2  and  C_3 
REMARK    3  A    between atoms: C_6  and  C_9 
REMARK    4  A    between atoms: N_21  and  C_24 
ROOT
ATOM      1  C   LIG d   1       4.766  -8.005  -6.387  0.00  0.00    -0.001 A 
ATOM      2  C   LIG d   1       4.327  -8.712  -7.492  0.00  0.00     0.031 A 
ATOM      3  C   LIG d   1       3.849  -8.017  -8.614  0.00  0.00     0.338 A 
ATOM      4  O   LIG d   1       3.465  -8.648  -9.583  0.00  0.00    -0.245 OA
ATOM      5  O   LIG d   1       3.802  -6.676  -8.648  0.00  0.00    -0.422 OA
ATOM      6  C   LIG d   1       4.216  -5.920  -7.608  0.00  0.00     0.147 A 
ATOM      7  C   LIG d   1       4.703  -6.535  -6.444  0.00  0.00     0.026 A 
ATOM      8  C   LIG d   1       5.124  -5.755  -5.365  0.00  0.00    -0.047 A 
ATOM      9  C   LIG d   1       5.055  -4.394  -5.445  0.00  0.00    -0.019 A 
ATOM     10  C   LIG d   1       4.568  -3.774  -6.597  0.00  0.00     0.130 A 
ATOM     11  C   LIG d   1       4.159  -4.535  -7.679  0.00  0.00     0.051 A 
ATOM     12  C   LIG d   1       3.640  -3.878  -8.932  0.00  0.00     0.035 C 
ATOM     13  N   LIG d   1       3.285  -2.481  -8.646  0.00  0.00    -0.259 N 
ATOM     14  C   LIG d   1       4.387  -1.813  -7.936  0.00  0.00     0.144 C 
ATOM     15  O   LIG d   1       4.512  -2.417  -6.640  0.00  0.00    -0.476 OA
ATOM     16  H   LIG d   1       4.353  -9.793  -7.491  0.00  0.00     0.070 H 
ATOM     17  H   LIG d   1       5.502  -6.227  -4.470  0.00  0.00     0.063 H 
ATOM     18  H   LIG d   1       5.380  -3.791  -4.609  0.00  0.00     0.065 H 
ATOM     19  H   LIG d   1       4.410  -3.906  -9.703  0.00  0.00     0.048 H 
ATOM     20  H   LIG d   1       2.756  -4.413  -9.282  0.00  0.00     0.048 H 
ATOM     21  H   LIG d   1       5.312  -1.931  -8.502  0.00  0.00     0.087 H 
ATOM     22  H   LIG d   1       4.158  -0.753  -7.820  0.00  0.00     0.087 H 
ENDROOT
BRANCH  13  23
ATOM     23  C   LIG d   1       2.941  -1.762  -9.881  0.00  0.00     0.039 C 
ATOM     24  H   LIG d   1       1.905  -1.974 -10.144  0.00  0.00     0.051 H 
ATOM     25  C   LIG d   1       3.105  -0.282  -9.656  0.00  0.00    -0.027 A 
ATOM     26  C   LIG d   1       3.682   0.551 -10.588  0.00  0.00    -0.043 A 
ATOM     27  C   LIG d   1       2.647   0.244  -8.454  0.00  0.00    -0.057 A 
ATOM     28  C   LIG d   1       4.207   0.049 -11.907  0.00  0.00    -0.027 C 
ATOM     29  C   LIG d   1       3.795   1.909 -10.321  0.00  0.00    -0.058 A 
ATOM     30  C   LIG d   1       3.632  -1.329 -12.226  0.00  0.00    -0.047 C 
ATOM     31  H   LIG d   1       5.294  -0.016 -11.861  0.00  0.00     0.031 H 
ATOM     32  H   LIG d   1       3.924   0.748 -12.696  0.00  0.00     0.031 H 
ATOM     33  C   LIG d   1       3.854  -2.238 -11.010  0.00  0.00    -0.033 C 
ATOM     34  H   LIG d   1       4.140  -1.748 -13.094  0.00  0.00     0.027 H 
ATOM     35  H   LIG d   1       2.564  -1.244 -12.430  0.00  0.00     0.027 H 
ATOM     36  H   LIG d   1       4.894  -2.176 -10.691  0.00  0.00     0.028 H 
ATOM     37  H   LIG d   1       3.609  -3.267 -11.271  0.00  0.00     0.028 H 
ATOM     38  C   LIG d   1       3.340   2.429  -9.128  0.00  0.00    -0.061 A 
ATOM     39  H   LIG d   1       4.246   2.563 -11.053  0.00  0.00     0.062 H 
ATOM     40  C   LIG d   1       2.764   1.594  -8.191  0.00  0.00    -0.061 A 
ATOM     41  H   LIG d   1       3.432   3.486  -8.928  0.00  0.00     0.062 H 
ATOM     42  H   LIG d   1       2.406   1.995  -7.254  0.00  0.00     0.062 H 
ATOM     43  H   LIG d   1       2.196  -0.409  -7.721  0.00  0.00     0.062 H 
ENDBRANCH  13  23
BRANCH   1  44
ATOM     44  C   LIG d   1       5.276  -8.701  -5.188  0.00  0.00    -0.017 A 
ATOM     45  C   LIG d   1       4.399  -9.411  -4.363  0.00  0.00    -0.051 A 
ATOM     46  C   LIG d   1       4.880 -10.059  -3.246  0.00  0.00    -0.019 A 
ATOM     47  H   LIG d   1       3.347  -9.453  -4.601  0.00  0.00     0.062 H 
ATOM     48  C   LIG d   1       6.234 -10.006  -2.939  0.00  0.00     0.120 A 
ATOM     49  H   LIG d   1       4.202 -10.608  -2.610  0.00  0.00     0.065 H 
ATOM     50  C   LIG d   1       7.108  -9.298  -3.754  0.00  0.00    -0.019 A 
ATOM     51  C   LIG d   1       6.637  -8.651  -4.875  0.00  0.00    -0.051 A 
ATOM     52  H   LIG d   1       8.159  -9.256  -3.509  0.00  0.00     0.065 H 
ATOM     53  H   LIG d   1       7.318  -8.103  -5.510  0.00  0.00     0.062 H 
BRANCH  48  54
ATOM     54  O   LIG d   1       6.703 -10.647  -1.837  0.00  0.00    -0.495 OA
BRANCH  54  55
ATOM     55  C   LIG d   1       7.781 -10.025  -1.135  0.00  0.00     0.079 C 
ATOM     56  H   LIG d   1       8.639  -9.929  -1.800  0.00  0.00     0.066 H 
ATOM     57  H   LIG d   1       7.472  -9.037  -0.796  0.00  0.00     0.066 H 
ATOM     58  H   LIG d   1       8.054 -10.635  -0.275  0.00  0.00     0.066 H 
ENDBRANCH  54  55
ENDBRANCH  48  54
ENDBRANCH   1  44
TORSDOF 4
ENDMDL
MODEL 4
REMARK VINA RESULT:      -7.0      6.528     10.491
REMARK  4 active torsions:
REMARK  status: ('A' for Active; 'I' for Inactive)
REMARK    1  A    between atoms: C_1  and  O_2 
REMARK    2  A    between atoms: O_2  and  C_3 
REMARK    3  A    between atoms: C_6  and  C_9 
REMARK    4  A    between atoms: N_21  and  C_24 
ROOT
ATOM      1  C   LIG d   1       2.666  -0.796 -10.560  0.00  0.00    -0.001 A 
ATOM      2  C   LIG d   1       2.462   0.533 -10.235  0.00  0.00     0.031 A 
ATOM      3  C   LIG d   1       2.792   0.990  -8.950  0.00  0.00     0.338 A 
ATOM      4  O   LIG d   1       2.610   2.163  -8.673  0.00  0.00    -0.245 OA
ATOM      5  O   LIG d   1       3.304   0.171  -8.017  0.00  0.00    -0.422 OA
ATOM      6  C   LIG d   1       3.533  -1.137  -8.263  0.00  0.00     0.147 A 
ATOM      7  C   LIG d   1       3.225  -1.678  -9.521  0.00  0.00     0.026 A 
ATOM      8  C   LIG d   1       3.454  -3.032  -9.775  0.00  0.00    -0.047 A 
ATOM      9  C   LIG d   1       3.973  -3.827  -8.794  0.00  0.00    -0.019 A 
ATOM     10  C   LIG d   1       4.279  -3.298  -7.540  0.00  0.00     0.130 A 
ATOM     11  C   LIG d   1       4.068  -1.955  -7.278  0.00  0.00     0.051 A 
ATOM     12  C   LIG d   1       4.402  -1.370  -5.930  0.00  0.00     0.035 C 
ATOM     13  N   LIG d   1       4.554  -2.451  -4.946  0.00  0.00    -0.259 N 
ATOM     14  C   LIG d   1       5.448  -3.494  -5.473  0.00  0.00     0.144 C 
ATOM     15  O   LIG d   1       4.793  -4.120  -6.587  0.00  0.00    -0.476 OA
ATOM     16  H   LIG d   1       2.051   1.215 -10.966  0.00  0.00     0.070 H 
ATOM     17  H   LIG d   1       3.220  -3.449 -10.744  0.00  0.00     0.063 H 
ATOM     18  H   LIG d   1       4.149  -4.874  -8.991  0.00  0.00     0.065 H 
ATOM     19  H   LIG d   1       5.334  -0.808  -5.998  0.00  0.00     0.048 H 
ATOM     20  H   LIG d   1       3.599  -0.703  -5.616  0.00  0.00     0.048 H 
ATOM     21  H   LIG d   1       6.389  -3.044  -5.790  0.00  0.00     0.087 H 
ATOM     22  H   LIG d   1       5.637  -4.239  -4.700  0.00  0.00     0.087 H 
ENDROOT
BRANCH  13  23
ATOM     23  C   LIG d   1       5.050  -1.930  -3.665  0.00  0.00     0.039 C 
ATOM     24  H   LIG d   1       5.559  -2.728  -3.125  0.00  0.00     0.051 H 
ATOM     25  C   LIG d   1       6.022  -0.809  -3.928  0.00  0.00    -0.027 A 
ATOM     26  C   LIG d   1       6.028   0.355  -3.192  0.00  0.00    -0.043 A 
ATOM     27  C   LIG d   1       6.941  -0.978  -4.955  0.00  0.00    -0.057 A 
ATOM     28  C   LIG d   1       5.057   0.609  -2.070  0.00  0.00    -0.027 C 
ATOM     29  C   LIG d   1       6.957   1.346  -3.481  0.00  0.00    -0.058 A 
ATOM     30  C   LIG d   1       4.420  -0.698  -1.604  0.00  0.00    -0.047 C 
ATOM     31  H   LIG d   1       4.276   1.286  -2.416  0.00  0.00     0.031 H 
ATOM     32  H   LIG d   1       5.586   1.069  -1.234  0.00  0.00     0.031 H 
ATOM     33  C   LIG d   1       3.870  -1.433  -2.833  0.00  0.00    -0.033 C 
ATOM     34  H   LIG d   1       3.607  -0.484  -0.910  0.00  0.00     0.027 H 
ATOM     35  H   LIG d   1       5.170  -1.318  -1.112  0.00  0.00     0.027 H 
ATOM     36  H   LIG d   1       3.264  -0.749  -3.428  0.00  0.00     0.028 H 
ATOM     37  H   LIG d   1       3.263  -2.279  -2.513  0.00  0.00     0.028 H 
ATOM     38  C   LIG d   1       7.869   1.177  -4.501  0.00  0.00    -0.061 A 
ATOM     39  H   LIG d   1       6.964   2.259  -2.904  0.00  0.00     0.062 H 
ATOM     40  C   LIG d   1       7.861   0.010  -5.241  0.00  0.00    -0.061 A 
ATOM     41  H   LIG d   1       8.588   1.953  -4.720  0.00  0.00     0.062 H 
ATOM     42  H   LIG d   1       8.572  -0.128  -6.043  0.00  0.00     0.062 H 
ATOM     43  H   LIG d   1       6.937  -1.890  -5.534  0.00  0.00     0.062 H 
ENDBRANCH  13  23
BRANCH   1  44
ATOM     44  C   LIG d   1       2.330  -1.314 -11.902  0.00  0.00    -0.017 A 
ATOM     45  C   LIG d   1       3.288  -1.301 -12.919  0.00  0.00    -0.051 A 
ATOM     46  C   LIG d   1       2.970  -1.786 -14.169  0.00  0.00    -0.019 A 
ATOM     47  H   LIG d   1       4.277  -0.912 -12.725  0.00  0.00     0.062 H 
ATOM     48  C   LIG d   1       1.699  -2.286 -14.418  0.00  0.00     0.120 A 
ATOM     49  H   LIG d   1       3.711  -1.776 -14.954  0.00  0.00     0.065 H 
ATOM     50  C   LIG d   1       0.742  -2.297 -13.412  0.00  0.00    -0.019 A 
ATOM     51  C   LIG d   1       1.053  -1.819 -12.158  0.00  0.00    -0.051 A 
ATOM     52  H   LIG d   1      -0.247  -2.684 -13.612  0.00  0.00     0.065 H 
ATOM     53  H   LIG d   1       0.309  -1.831 -11.374  0.00  0.00     0.062 H 
BRANCH  48  54
ATOM     54  O   LIG d   1       1.390  -2.763 -15.652  0.00  0.00    -0.495 OA
BRANCH  54  55
ATOM     55  C   LIG d   1       1.748  -1.949 -16.771  0.00  0.00     0.079 C 
ATOM     56  H   LIG d   1       1.404  -0.929 -16.602  0.00  0.00     0.066 H 
ATOM     57  H   LIG d   1       2.832  -1.952 -16.890  0.00  0.00     0.066 H 
ATOM     58  H   LIG d   1       1.283  -2.346 -17.672  0.00  0.00     0.066 H 
ENDBRANCH  54  55
ENDBRANCH  48  54
ENDBRANCH   1  44
TORSDOF 4
ENDMDL
MODEL 5
REMARK VINA RESULT:      -7.0      2.651      3.329
REMARK  4 active torsions:
REMARK  status: ('A' for Active; 'I' for Inactive)
REMARK    1  A    between atoms: C_1  and  O_2 
REMARK    2  A    between atoms: O_2  and  C_3 
REMARK    3  A    between atoms: C_6  and  C_9 
REMARK    4  A    between atoms: N_21  and  C_24 
ROOT
ATOM      1  C   LIG d   1      10.374   8.185  -2.043  0.00  0.00    -0.001 A 
ATOM      2  C   LIG d   1      10.537   7.706  -0.755  0.00  0.00     0.031 A 
ATOM      3  C   LIG d   1      10.442   6.326  -0.513  0.00  0.00     0.338 A 
ATOM      4  O   LIG d   1      10.588   5.913   0.624  0.00  0.00    -0.245 OA
ATOM      5  O   LIG d   1      10.193   5.450  -1.499  0.00  0.00    -0.422 OA
ATOM      6  C   LIG d   1      10.026   5.844  -2.779  0.00  0.00     0.147 A 
ATOM      7  C   LIG d   1      10.099   7.207  -3.109  0.00  0.00     0.026 A 
ATOM      8  C   LIG d   1       9.918   7.618  -4.432  0.00  0.00    -0.047 A 
ATOM      9  C   LIG d   1       9.665   6.690  -5.401  0.00  0.00    -0.019 A 
ATOM     10  C   LIG d   1       9.587   5.334  -5.081  0.00  0.00     0.130 A 
ATOM     11  C   LIG d   1       9.776   4.912  -3.777  0.00  0.00     0.051 A 
ATOM     12  C   LIG d   1       9.702   3.449  -3.420  0.00  0.00     0.035 C 
ATOM     13  N   LIG d   1       9.039   2.710  -4.503  0.00  0.00    -0.259 N 
ATOM     14  C   LIG d   1       9.638   3.063  -5.799  0.00  0.00     0.144 C 
ATOM     15  O   LIG d   1       9.331   4.439  -6.071  0.00  0.00    -0.476 OA
ATOM     16  H   LIG d   1      10.737   8.389   0.059  0.00  0.00     0.070 H 
ATOM     17  H   LIG d   1       9.977   8.666  -4.687  0.00  0.00     0.063 H 
ATOM     18  H   LIG d   1       9.524   7.009  -6.423  0.00  0.00     0.065 H 
ATOM     19  H   LIG d   1      10.710   3.058  -3.278  0.00  0.00     0.048 H 
ATOM     20  H   LIG d   1       9.134   3.329  -2.497  0.00  0.00     0.048 H 
ATOM     21  H   LIG d   1      10.718   2.916  -5.756  0.00  0.00     0.087 H 
ATOM     22  H   LIG d   1       9.212   2.436  -6.583  0.00  0.00     0.087 H 
ENDROOT
BRANCH  13  23
ATOM     23  C   LIG d   1       9.106   1.261  -4.269  0.00  0.00     0.039 C 
ATOM     24  H   LIG d   1       9.676   1.069  -3.360  0.00  0.00     0.051 H 
ATOM     25  C   LIG d   1       7.710   0.719  -4.104  0.00  0.00    -0.027 A 
ATOM     26  C   LIG d   1       7.300  -0.463  -4.678  0.00  0.00    -0.043 A 
ATOM     27  C   LIG d   1       6.817   1.456  -3.337  0.00  0.00    -0.057 A 
ATOM     28  C   LIG d   1       8.212  -1.309  -5.528  0.00  0.00    -0.027 C 
ATOM     29  C   LIG d   1       6.001  -0.910  -4.480  0.00  0.00    -0.058 A 
ATOM     30  C   LIG d   1       9.672  -0.928  -5.295  0.00  0.00    -0.047 C 
ATOM     31  H   LIG d   1       7.964  -1.160  -6.579  0.00  0.00     0.031 H 
ATOM     32  H   LIG d   1       8.069  -2.360  -5.272  0.00  0.00     0.031 H 
ATOM     33  C   LIG d   1       9.805   0.592  -5.451  0.00  0.00    -0.033 C 
ATOM     34  H   LIG d   1      10.304  -1.429  -6.028  0.00  0.00     0.027 H 
ATOM     35  H   LIG d   1       9.972  -1.221  -4.288  0.00  0.00     0.027 H 
ATOM     36  H   LIG d   1       9.334   0.908  -6.382  0.00  0.00     0.028 H 
ATOM     37  H   LIG d   1      10.859   0.869  -5.459  0.00  0.00     0.028 H 
ATOM     38  C   LIG d   1       5.116  -0.177  -3.718  0.00  0.00    -0.061 A 
ATOM     39  H   LIG d   1       5.680  -1.839  -4.929  0.00  0.00     0.062 H 
ATOM     40  C   LIG d   1       5.525   1.010  -3.144  0.00  0.00    -0.061 A 
ATOM     41  H   LIG d   1       4.107  -0.532  -3.569  0.00  0.00     0.062 H 
ATOM     42  H   LIG d   1       4.836   1.590  -2.547  0.00  0.00     0.062 H 
ATOM     43  H   LIG d   1       7.137   2.385  -2.887  0.00  0.00     0.062 H 
ENDBRANCH  13  23
BRANCH   1  44
ATOM     44  C   LIG d   1      10.467   9.630  -2.337  0.00  0.00    -0.017 A 
ATOM     45  C   LIG d   1      11.679  10.182  -2.761  0.00  0.00    -0.051 A 
ATOM     46  C   LIG d   1      11.760  11.530  -3.035  0.00  0.00    -0.019 A 
ATOM     47  H   LIG d   1      12.549   9.554  -2.875  0.00  0.00     0.062 H 
ATOM     48  C   LIG d   1      10.641  12.339  -2.888  0.00  0.00     0.120 A 
ATOM     49  H   LIG d   1      12.696  11.957  -3.363  0.00  0.00     0.065 H 
ATOM     50  C   LIG d   1       9.435  11.795  -2.463  0.00  0.00    -0.019 A 
ATOM     51  C   LIG d   1       9.344  10.448  -2.191  0.00  0.00    -0.051 A 
ATOM     52  H   LIG d   1       8.569  12.429  -2.346  0.00  0.00     0.065 H 
ATOM     53  H   LIG d   1       8.405  10.025  -1.864  0.00  0.00     0.062 H 
BRANCH  48  54
ATOM     54  O   LIG d   1      10.726  13.668  -3.159  0.00  0.00    -0.495 OA
BRANCH  54  55
ATOM     55  C   LIG d   1       9.577  14.465  -2.867  0.00  0.00     0.079 C 
ATOM     56  H   LIG d   1       8.826  13.851  -2.369  0.00  0.00     0.066 H 
ATOM     57  H   LIG d   1       9.863  15.289  -2.213  0.00  0.00     0.066 H 
ATOM     58  H   LIG d   1       9.166  14.863  -3.794  0.00  0.00     0.066 H 
ENDBRANCH  54  55
ENDBRANCH  48  54
ENDBRANCH   1  44
TORSDOF 4
ENDMDL
MODEL 6
REMARK VINA RESULT:      -6.8      7.599     10.428
REMARK  4 active torsions:
REMARK  status: ('A' for Active; 'I' for Inactive)
REMARK    1  A    between atoms: C_1  and  O_2 
REMARK    2  A    between atoms: O_2  and  C_3 
REMARK    3  A    between atoms: C_6  and  C_9 
REMARK    4  A    between atoms: N_21  and  C_24 
ROOT
ATOM      1  C   LIG d   1       4.127  -1.895 -12.710  0.00  0.00    -0.001 A 
ATOM      2  C   LIG d   1       4.112  -3.263 -12.499  0.00  0.00     0.031 A 
ATOM      3  C   LIG d   1       3.984  -3.760 -11.193  0.00  0.00     0.338 A 
ATOM      4  O   LIG d   1       3.970  -4.966 -11.017  0.00  0.00    -0.245 OA
ATOM      5  O   LIG d   1       3.875  -2.944 -10.132  0.00  0.00    -0.422 OA
ATOM      6  C   LIG d   1       3.879  -1.600 -10.262  0.00  0.00     0.147 A 
ATOM      7  C   LIG d   1       4.009  -1.018 -11.533  0.00  0.00     0.026 A 
ATOM      8  C   LIG d   1       4.021   0.372 -11.669  0.00  0.00    -0.047 A 
ATOM      9  C   LIG d   1       3.911   1.162 -10.561  0.00  0.00    -0.019 A 
ATOM     10  C   LIG d   1       3.784   0.592  -9.293  0.00  0.00     0.130 A 
ATOM     11  C   LIG d   1       3.758  -0.784  -9.145  0.00  0.00     0.051 A 
ATOM     12  C   LIG d   1       3.613  -1.412  -7.783  0.00  0.00     0.035 C 
ATOM     13  N   LIG d   1       3.914  -0.415  -6.746  0.00  0.00    -0.259 N 
ATOM     14  C   LIG d   1       3.167   0.826  -7.004  0.00  0.00     0.144 C 
ATOM     15  O   LIG d   1       3.678   1.409  -8.212  0.00  0.00    -0.476 OA
ATOM     16  H   LIG d   1       4.199  -3.943 -13.335  0.00  0.00     0.070 H 
ATOM     17  H   LIG d   1       4.119   0.820 -12.646  0.00  0.00     0.063 H 
ATOM     18  H   LIG d   1       3.921   2.236 -10.666  0.00  0.00     0.065 H 
ATOM     19  H   LIG d   1       2.593  -1.772  -7.655  0.00  0.00     0.048 H 
ATOM     20  H   LIG d   1       4.307  -2.249  -7.694  0.00  0.00     0.048 H 
ATOM     21  H   LIG d   1       2.106   0.600  -7.111  0.00  0.00     0.087 H 
ATOM     22  H   LIG d   1       3.315   1.521  -6.177  0.00  0.00     0.087 H 
ENDROOT
BRANCH  13  23
ATOM     23  C   LIG d   1       3.613  -0.942  -5.407  0.00  0.00     0.039 C 
ATOM     24  H   LIG d   1       2.966  -1.814  -5.501  0.00  0.00     0.051 H 
ATOM     25  C   LIG d   1       4.898  -1.346  -4.733  0.00  0.00    -0.027 A 
ATOM     26  C   LIG d   1       5.158  -1.074  -3.408  0.00  0.00    -0.043 A 
ATOM     27  C   LIG d   1       5.843  -2.020  -5.495  0.00  0.00    -0.057 A 
ATOM     28  C   LIG d   1       4.183  -0.341  -2.526  0.00  0.00    -0.027 C 
ATOM     29  C   LIG d   1       6.360  -1.482  -2.845  0.00  0.00    -0.058 A 
ATOM     30  C   LIG d   1       2.786  -0.352  -3.142  0.00  0.00    -0.047 C 
ATOM     31  H   LIG d   1       4.514   0.691  -2.403  0.00  0.00     0.031 H 
ATOM     32  H   LIG d   1       4.148  -0.824  -1.549  0.00  0.00     0.031 H 
ATOM     33  C   LIG d   1       2.894   0.133  -4.593  0.00  0.00    -0.033 C 
ATOM     34  H   LIG d   1       2.131   0.315  -2.581  0.00  0.00     0.027 H 
ATOM     35  H   LIG d   1       2.383  -1.365  -3.123  0.00  0.00     0.027 H 
ATOM     36  H   LIG d   1       3.464   1.061  -4.628  0.00  0.00     0.028 H 
ATOM     37  H   LIG d   1       1.897   0.297  -5.001  0.00  0.00     0.028 H 
ATOM     38  C   LIG d   1       7.297  -2.151  -3.603  0.00  0.00    -0.061 A 
ATOM     39  H   LIG d   1       6.564  -1.270  -1.806  0.00  0.00     0.062 H 
ATOM     40  C   LIG d   1       7.039  -2.422  -4.933  0.00  0.00    -0.061 A 
ATOM     41  H   LIG d   1       8.230  -2.465  -3.157  0.00  0.00     0.062 H 
ATOM     42  H   LIG d   1       7.769  -2.945  -5.532  0.00  0.00     0.062 H 
ATOM     43  H   LIG d   1       5.642  -2.233  -6.534  0.00  0.00     0.062 H 
ENDBRANCH  13  23
BRANCH   1  44
ATOM     44  C   LIG d   1       4.261  -1.334 -14.071  0.00  0.00    -0.017 A 
ATOM     45  C   LIG d   1       5.479  -0.794 -14.489  0.00  0.00    -0.051 A 
ATOM     46  C   LIG d   1       5.599  -0.272 -15.759  0.00  0.00    -0.019 A 
ATOM     47  H   LIG d   1       6.326  -0.786 -13.820  0.00  0.00     0.062 H 
ATOM     48  C   LIG d   1       4.510  -0.282 -16.621  0.00  0.00     0.120 A 
ATOM     49  H   LIG d   1       6.541   0.144 -16.083  0.00  0.00     0.065 H 
ATOM     50  C   LIG d   1       3.295  -0.814 -16.208  0.00  0.00    -0.019 A 
ATOM     51  C   LIG d   1       3.168  -1.342 -14.942  0.00  0.00    -0.051 A 
ATOM     52  H   LIG d   1       2.450  -0.816 -16.880  0.00  0.00     0.065 H 
ATOM     53  H   LIG d   1       2.224  -1.759 -14.622  0.00  0.00     0.062 H 
BRANCH  48  54
ATOM     54  O   LIG d   1       4.633   0.233 -17.872  0.00  0.00    -0.495 OA
BRANCH  54  55
ATOM     55  C   LIG d   1       5.581   1.288 -18.049  0.00  0.00     0.079 C 
ATOM     56  H   LIG d   1       6.517   1.021 -17.560  0.00  0.00     0.066 H 
ATOM     57  H   LIG d   1       5.758   1.442 -19.113  0.00  0.00     0.066 H 
ATOM     58  H   LIG d   1       5.189   2.205 -17.609  0.00  0.00     0.066 H 
ENDBRANCH  54  55
ENDBRANCH  48  54
ENDBRANCH   1  44
TORSDOF 4
ENDMDL
MODEL 7
REMARK VINA RESULT:      -6.8      2.645      9.686
REMARK  4 active torsions:
REMARK  status: ('A' for Active; 'I' for Inactive)
REMARK    1  A    between atoms: C_1  and  O_2 
REMARK    2  A    between atoms: O_2  and  C_3 
REMARK    3  A    between atoms: C_6  and  C_9 
REMARK    4  A    between atoms: N_21  and  C_24 
ROOT
ATOM      1  C   LIG d   1       7.068  -1.154  -3.925  0.00  0.00    -0.001 A 
ATOM      2  C   LIG d   1       6.061  -0.760  -3.062  0.00  0.00     0.031 A 
ATOM      3  C   LIG d   1       5.909   0.600  -2.750  0.00  0.00     0.338 A 
ATOM      4  O   LIG d   1       5.018   0.937  -1.990  0.00  0.00    -0.245 OA
ATOM      5  O   LIG d   1       6.718   1.539  -3.265  0.00  0.00    -0.422 OA
ATOM      6  C   LIG d   1       7.720   1.230  -4.116  0.00  0.00     0.147 A 
ATOM      7  C   LIG d   1       7.946  -0.108  -4.477  0.00  0.00     0.026 A 
ATOM      8  C   LIG d   1       8.987  -0.431  -5.350  0.00  0.00    -0.047 A 
ATOM      9  C   LIG d   1       9.786   0.558  -5.847  0.00  0.00    -0.019 A 
ATOM     10  C   LIG d   1       9.571   1.890  -5.491  0.00  0.00     0.130 A 
ATOM     11  C   LIG d   1       8.535   2.226  -4.636  0.00  0.00     0.051 A 
ATOM     12  C   LIG d   1       8.287   3.661  -4.250  0.00  0.00     0.035 C 
ATOM     13  N   LIG d   1       9.474   4.469  -4.564  0.00  0.00    -0.259 N 
ATOM     14  C   LIG d   1       9.918   4.204  -5.941  0.00  0.00     0.144 C 
ATOM     15  O   LIG d   1      10.387   2.849  -6.003  0.00  0.00    -0.476 OA
ATOM     16  H   LIG d   1       5.395  -1.496  -2.632  0.00  0.00     0.070 H 
ATOM     17  H   LIG d   1       9.160  -1.459  -5.630  0.00  0.00     0.063 H 
ATOM     18  H   LIG d   1      10.591   0.308  -6.522  0.00  0.00     0.065 H 
ATOM     19  H   LIG d   1       7.430   4.044  -4.805  0.00  0.00     0.048 H 
ATOM     20  H   LIG d   1       8.081   3.719  -3.181  0.00  0.00     0.048 H 
ATOM     21  H   LIG d   1       9.085   4.350  -6.629  0.00  0.00     0.087 H 
ATOM     22  H   LIG d   1      10.733   4.880  -6.200  0.00  0.00     0.087 H 
ENDROOT
BRANCH  13  23
ATOM     23  C   LIG d   1       9.204   5.900  -4.364  0.00  0.00     0.039 C 
ATOM     24  H   LIG d   1       8.137   6.045  -4.196  0.00  0.00     0.051 H 
ATOM     25  C   LIG d   1       9.968   6.385  -3.160  0.00  0.00    -0.027 A 
ATOM     26  C   LIG d   1      10.631   7.592  -3.139  0.00  0.00    -0.043 A 
ATOM     27  C   LIG d   1       9.990   5.569  -2.036  0.00  0.00    -0.057 A 
ATOM     28  C   LIG d   1      10.656   8.523  -4.322  0.00  0.00    -0.027 C 
ATOM     29  C   LIG d   1      11.310   7.984  -1.993  0.00  0.00    -0.058 A 
ATOM     30  C   LIG d   1       9.543   8.171  -5.307  0.00  0.00    -0.047 C 
ATOM     31  H   LIG d   1      11.620   8.440  -4.824  0.00  0.00     0.031 H 
ATOM     32  H   LIG d   1      10.519   9.548  -3.976  0.00  0.00     0.031 H 
ATOM     33  C   LIG d   1       9.625   6.671  -5.614  0.00  0.00    -0.033 C 
ATOM     34  H   LIG d   1       9.672   8.741  -6.227  0.00  0.00     0.027 H 
ATOM     35  H   LIG d   1       8.574   8.402  -4.864  0.00  0.00     0.027 H 
ATOM     36  H   LIG d   1      10.649   6.406  -5.879  0.00  0.00     0.028 H 
ATOM     37  H   LIG d   1       8.956   6.427  -6.438  0.00  0.00     0.028 H 
ATOM     38  C   LIG d   1      11.331   7.172  -0.878  0.00  0.00    -0.061 A 
ATOM     39  H   LIG d   1      11.829   8.931  -1.975  0.00  0.00     0.062 H 
ATOM     40  C   LIG d   1      10.668   5.961  -0.899  0.00  0.00    -0.061 A 
ATOM     41  H   LIG d   1      11.861   7.485   0.010  0.00  0.00     0.062 H 
ATOM     42  H   LIG d   1      10.681   5.320  -0.030  0.00  0.00     0.062 H 
ATOM     43  H   LIG d   1       9.472   4.622  -2.052  0.00  0.00     0.062 H 
ENDBRANCH  13  23
BRANCH   1  44
ATOM     44  C   LIG d   1       7.260  -2.576  -4.277  0.00  0.00    -0.017 A 
ATOM     45  C   LIG d   1       6.320  -3.233  -5.076  0.00  0.00    -0.051 A 
ATOM     46  C   LIG d   1       6.503  -4.559  -5.402  0.00  0.00    -0.019 A 
ATOM     47  H   LIG d   1       5.452  -2.702  -5.437  0.00  0.00     0.062 H 
ATOM     48  C   LIG d   1       7.620  -5.242  -4.937  0.00  0.00     0.120 A 
ATOM     49  H   LIG d   1       5.777  -5.066  -6.020  0.00  0.00     0.065 H 
ATOM     50  C   LIG d   1       8.554  -4.595  -4.139  0.00  0.00    -0.019 A 
ATOM     51  C   LIG d   1       8.381  -3.268  -3.812  0.00  0.00    -0.051 A 
ATOM     52  H   LIG d   1       9.418  -5.131  -3.776  0.00  0.00     0.065 H 
ATOM     53  H   LIG d   1       9.110  -2.763  -3.195  0.00  0.00     0.062 H 
BRANCH  48  54
ATOM     54  O   LIG d   1       7.796  -6.550  -5.261  0.00  0.00    -0.495 OA
BRANCH  54  55
ATOM     55  C   LIG d   1       6.626  -7.369  -5.312  0.00  0.00     0.079 C 
ATOM     56  H   LIG d   1       6.851  -8.290  -5.849  0.00  0.00     0.066 H 
ATOM     57  H   LIG d   1       6.307  -7.609  -4.298  0.00  0.00     0.066 H 
ATOM     58  H   LIG d   1       5.829  -6.833  -5.826  0.00  0.00     0.066 H 
ENDBRANCH  54  55
ENDBRANCH  48  54
ENDBRANCH   1  44
TORSDOF 4
ENDMDL
MODEL 8
REMARK VINA RESULT:      -6.7      3.001      5.871
REMARK  4 active torsions:
REMARK  status: ('A' for Active; 'I' for Inactive)
REMARK    1  A    between atoms: C_1  and  O_2 
REMARK    2  A    between atoms: O_2  and  C_3 
REMARK    3  A    between atoms: C_6  and  C_9 
REMARK    4  A    between atoms: N_21  and  C_24 
ROOT
ATOM      1  C   LIG d   1       9.410   2.459  -5.120  0.00  0.00    -0.001 A 
ATOM      2  C   LIG d   1      10.240   2.178  -6.191  0.00  0.00     0.031 A 
ATOM      3  C   LIG d   1      10.047   0.996  -6.924  0.00  0.00     0.338 A 
ATOM      4  O   LIG d   1      10.782   0.756  -7.866  0.00  0.00    -0.245 OA
ATOM      5  O   LIG d   1       9.076   0.121  -6.615  0.00  0.00    -0.422 OA
ATOM      6  C   LIG d   1       8.228   0.331  -5.585  0.00  0.00     0.147 A 
ATOM      7  C   LIG d   1       8.354   1.486  -4.796  0.00  0.00     0.026 A 
ATOM      8  C   LIG d   1       7.482   1.701  -3.726  0.00  0.00    -0.047 A 
ATOM      9  C   LIG d   1       6.511   0.782  -3.448  0.00  0.00    -0.019 A 
ATOM     10  C   LIG d   1       6.381  -0.371  -4.225  0.00  0.00     0.130 A 
ATOM     11  C   LIG d   1       7.231  -0.590  -5.296  0.00  0.00     0.051 A 
ATOM     12  C   LIG d   1       7.095  -1.826  -6.148  0.00  0.00     0.035 C 
ATOM     13  N   LIG d   1       6.285  -2.827  -5.440  0.00  0.00    -0.259 N 
ATOM     14  C   LIG d   1       5.047  -2.212  -4.935  0.00  0.00     0.144 C 
ATOM     15  O   LIG d   1       5.405  -1.264  -3.918  0.00  0.00    -0.476 OA
ATOM     16  H   LIG d   1      11.031   2.863  -6.462  0.00  0.00     0.070 H 
ATOM     17  H   LIG d   1       7.577   2.589  -3.120  0.00  0.00     0.063 H 
ATOM     18  H   LIG d   1       5.839   0.948  -2.620  0.00  0.00     0.065 H 
ATOM     19  H   LIG d   1       6.612  -1.567  -7.090  0.00  0.00     0.048 H 
ATOM     20  H   LIG d   1       8.085  -2.237  -6.350  0.00  0.00     0.048 H 
ATOM     21  H   LIG d   1       4.526  -1.713  -5.753  0.00  0.00     0.087 H 
ATOM     22  H   LIG d   1       4.406  -2.980  -4.503  0.00  0.00     0.087 H 
ENDROOT
BRANCH  13  23
ATOM     23  C   LIG d   1       5.986  -3.972  -6.311  0.00  0.00     0.039 C 
ATOM     24  H   LIG d   1       6.382  -3.780  -7.308  0.00  0.00     0.051 H 
ATOM     25  C   LIG d   1       6.638  -5.207  -5.746  0.00  0.00    -0.027 A 
ATOM     26  C   LIG d   1       6.003  -6.428  -5.704  0.00  0.00    -0.043 A 
ATOM     27  C   LIG d   1       7.932  -5.089  -5.256  0.00  0.00    -0.057 A 
ATOM     28  C   LIG d   1       4.599  -6.628  -6.209  0.00  0.00    -0.027 C 
ATOM     29  C   LIG d   1       6.664  -7.530  -5.177  0.00  0.00    -0.058 A 
ATOM     30  C   LIG d   1       4.187  -5.478  -7.124  0.00  0.00    -0.047 C 
ATOM     31  H   LIG d   1       3.915  -6.676  -5.362  0.00  0.00     0.031 H 
ATOM     32  H   LIG d   1       4.547  -7.566  -6.765  0.00  0.00     0.031 H 
ATOM     33  C   LIG d   1       4.472  -4.157  -6.398  0.00  0.00    -0.033 C 
ATOM     34  H   LIG d   1       3.124  -5.549  -7.351  0.00  0.00     0.027 H 
ATOM     35  H   LIG d   1       4.764  -5.519  -8.049  0.00  0.00     0.027 H 
ATOM     36  H   LIG d   1       4.049  -4.192  -5.394  0.00  0.00     0.028 H 
ATOM     37  H   LIG d   1       4.033  -3.330  -6.954  0.00  0.00     0.028 H 
ATOM     38  C   LIG d   1       7.949  -7.410  -4.692  0.00  0.00    -0.061 A 
ATOM     39  H   LIG d   1       6.167  -8.488  -5.145  0.00  0.00     0.062 H 
ATOM     40  C   LIG d   1       8.586  -6.185  -4.731  0.00  0.00    -0.061 A 
ATOM     41  H   LIG d   1       8.457  -8.272  -4.284  0.00  0.00     0.062 H 
ATOM     42  H   LIG d   1       9.592  -6.085  -4.351  0.00  0.00     0.062 H 
ATOM     43  H   LIG d   1       8.431  -4.131  -5.288  0.00  0.00     0.062 H 
ENDBRANCH  13  23
BRANCH   1  44
ATOM     44  C   LIG d   1       9.582   3.693  -4.325  0.00  0.00    -0.017 A 
ATOM     45  C   LIG d   1      10.114   3.627  -3.035  0.00  0.00    -0.051 A 
ATOM     46  C   LIG d   1      10.273   4.780  -2.298  0.00  0.00    -0.019 A 
ATOM     47  H   LIG d   1      10.402   2.674  -2.617  0.00  0.00     0.062 H 
ATOM     48  C   LIG d   1       9.903   6.007  -2.836  0.00  0.00     0.120 A 
ATOM     49  H   LIG d   1      10.685   4.729  -1.301  0.00  0.00     0.065 H 
ATOM     50  C   LIG d   1       9.369   6.076  -4.116  0.00  0.00    -0.019 A 
ATOM     51  C   LIG d   1       9.212   4.928  -4.862  0.00  0.00    -0.051 A 
ATOM     52  H   LIG d   1       9.079   7.031  -4.529  0.00  0.00     0.065 H 
ATOM     53  H   LIG d   1       8.800   4.983  -5.859  0.00  0.00     0.062 H 
BRANCH  48  54
ATOM     54  O   LIG d   1      10.061   7.141  -2.105  0.00  0.00    -0.495 OA
BRANCH  54  55
ATOM     55  C   LIG d   1      10.307   6.983  -0.706  0.00  0.00     0.079 C 
ATOM     56  H   LIG d   1      10.528   7.953  -0.265  0.00  0.00     0.066 H 
ATOM     57  H   LIG d   1       9.424   6.559  -0.228  0.00  0.00     0.066 H 
ATOM     58  H   LIG d   1      11.155   6.314  -0.560  0.00  0.00     0.066 H 
ENDBRANCH  54  55
ENDBRANCH  48  54
ENDBRANCH   1  44
TORSDOF 4
ENDMDL
MODEL 9
REMARK VINA RESULT:      -6.7      7.554     11.729
REMARK  4 active torsions:
REMARK  status: ('A' for Active; 'I' for Inactive)
REMARK    1  A    between atoms: C_1  and  O_2 
REMARK    2  A    between atoms: O_2  and  C_3 
REMARK    3  A    between atoms: C_6  and  C_9 
REMARK    4  A    between atoms: N_21  and  C_24 
ROOT
ATOM      1  C   LIG d   1       2.150  -3.171 -11.534  0.00  0.00    -0.001 A 
ATOM      2  C   LIG d   1       2.710  -4.415 -11.299  0.00  0.00     0.031 A 
ATOM      3  C   LIG d   1       3.401  -4.648 -10.100  0.00  0.00     0.338 A 
ATOM      4  O   LIG d   1       3.890  -5.746  -9.902  0.00  0.00    -0.245 OA
ATOM      5  O   LIG d   1       3.537  -3.694  -9.165  0.00  0.00    -0.422 OA
ATOM      6  C   LIG d   1       3.015  -2.459  -9.323  0.00  0.00     0.147 A 
ATOM      7  C   LIG d   1       2.313  -2.139 -10.497  0.00  0.00     0.026 A 
ATOM      8  C   LIG d   1       1.779  -0.859 -10.666  0.00  0.00    -0.047 A 
ATOM      9  C   LIG d   1       1.946   0.079  -9.688  0.00  0.00    -0.019 A 
ATOM     10  C   LIG d   1       2.645  -0.229  -8.520  0.00  0.00     0.130 A 
ATOM     11  C   LIG d   1       3.169  -1.497  -8.334  0.00  0.00     0.051 A 
ATOM     12  C   LIG d   1       3.918  -1.845  -7.074  0.00  0.00     0.035 C 
ATOM     13  N   LIG d   1       4.312  -0.613  -6.377  0.00  0.00    -0.259 N 
ATOM     14  C   LIG d   1       3.157   0.290  -6.253  0.00  0.00     0.144 C 
ATOM     15  O   LIG d   1       2.793   0.731  -7.570  0.00  0.00    -0.476 OA
ATOM     16  H   LIG d   1       2.616  -5.201 -12.035  0.00  0.00     0.070 H 
ATOM     17  H   LIG d   1       1.238  -0.613 -11.567  0.00  0.00     0.063 H 
ATOM     18  H   LIG d   1       1.533   1.068  -9.820  0.00  0.00     0.065 H 
ATOM     19  H   LIG d   1       3.278  -2.441  -6.423  0.00  0.00     0.048 H 
ATOM     20  H   LIG d   1       4.810  -2.419  -7.329  0.00  0.00     0.048 H 
ATOM     21  H   LIG d   1       2.326  -0.239  -5.786  0.00  0.00     0.087 H 
ATOM     22  H   LIG d   1       3.431   1.154  -5.646  0.00  0.00     0.087 H 
ENDROOT
BRANCH  13  23
ATOM     23  C   LIG d   1       4.889  -0.914  -5.060  0.00  0.00     0.039 C 
ATOM     24  H   LIG d   1       5.223  -1.952  -5.042  0.00  0.00     0.051 H 
ATOM     25  C   LIG d   1       6.067  -0.008  -4.815  0.00  0.00    -0.027 A 
ATOM     26  C   LIG d   1       6.297   0.597  -3.599  0.00  0.00    -0.043 A 
ATOM     27  C   LIG d   1       6.944   0.212  -5.868  0.00  0.00    -0.057 A 
ATOM     28  C   LIG d   1       5.384   0.410  -2.416  0.00  0.00    -0.027 C 
ATOM     29  C   LIG d   1       7.407   1.415  -3.437  0.00  0.00    -0.058 A 
ATOM     30  C   LIG d   1       4.495  -0.816  -2.611  0.00  0.00    -0.047 C 
ATOM     31  H   LIG d   1       4.757   1.294  -2.302  0.00  0.00     0.031 H 
ATOM     32  H   LIG d   1       5.986   0.278  -1.515  0.00  0.00     0.031 H 
ATOM     33  C   LIG d   1       3.822  -0.712  -3.985  0.00  0.00    -0.033 C 
ATOM     34  H   LIG d   1       3.734  -0.847  -1.831  0.00  0.00     0.027 H 
ATOM     35  H   LIG d   1       5.102  -1.721  -2.567  0.00  0.00     0.027 H 
ATOM     36  H   LIG d   1       3.371   0.273  -4.098  0.00  0.00     0.028 H 
ATOM     37  H   LIG d   1       3.056  -1.481  -4.078  0.00  0.00     0.028 H 
ATOM     38  C   LIG d   1       8.277   1.632  -4.485  0.00  0.00    -0.061 A 
ATOM     39  H   LIG d   1       7.589   1.888  -2.483  0.00  0.00     0.062 H 
ATOM     40  C   LIG d   1       8.045   1.028  -5.705  0.00  0.00    -0.061 A 
ATOM     41  H   LIG d   1       9.138   2.270  -4.350  0.00  0.00     0.062 H 
ATOM     42  H   LIG d   1       8.722   1.194  -6.530  0.00  0.00     0.062 H 
ATOM     43  H   LIG d   1       6.764  -0.261  -6.823  0.00  0.00     0.062 H 
ENDBRANCH  13  23
BRANCH   1  44
ATOM     44  C   LIG d   1       1.416  -2.888 -12.784  0.00  0.00    -0.017 A 
ATOM     45  C   LIG d   1       2.116  -2.595 -13.958  0.00  0.00    -0.051 A 
ATOM     46  C   LIG d   1       1.426  -2.333 -15.121  0.00  0.00    -0.019 A 
ATOM     47  H   LIG d   1       3.195  -2.577 -13.952  0.00  0.00     0.062 H 
ATOM     48  C   LIG d   1       0.038  -2.357 -15.128  0.00  0.00     0.120 A 
ATOM     49  H   LIG d   1       1.968  -2.108 -16.028  0.00  0.00     0.065 H 
ATOM     50  C   LIG d   1      -0.663  -2.643 -13.963  0.00  0.00    -0.019 A 
ATOM     51  C   LIG d   1       0.019  -2.911 -12.796  0.00  0.00    -0.051 A 
ATOM     52  H   LIG d   1      -1.743  -2.657 -13.973  0.00  0.00     0.065 H 
ATOM     53  H   LIG d   1      -0.527  -3.138 -11.891  0.00  0.00     0.062 H 
BRANCH  48  54
ATOM     54  O   LIG d   1      -0.638  -2.097 -16.278  0.00  0.00    -0.495 OA
BRANCH  54  55
ATOM     55  C   LIG d   1      -1.769  -1.230 -16.184  0.00  0.00     0.079 C 
ATOM     56  H   LIG d   1      -1.587  -0.331 -16.772  0.00  0.00     0.066 H 
ATOM     57  H   LIG d   1      -2.652  -1.741 -16.567  0.00  0.00     0.066 H 
ATOM     58  H   LIG d   1      -1.931  -0.956 -15.142  0.00  0.00     0.066 H 
ENDBRANCH  54  55
ENDBRANCH  48  54
ENDBRANCH   1  44
TORSDOF 4
ENDMDL
