MODEL 1
REMARK VINA RESULT:      -8.7      0.000      0.000
REMARK  5 active torsions:
REMARK  status: ('A' for Active; 'I' for Inactive)
REMARK    1  A    between atoms: C_4  and  O_7 
REMARK    2  A    between atoms: O_7  and  C_8 
REMARK    3  A    between atoms: C_8  and  C_9 
REMARK       I    between atoms: C_9  and  N_11 
REMARK    4  A    between atoms: C_22  and  C_27 
REMARK    5  A    between atoms: C_31  and  C_33 
ROOT
ATOM      1  C   LIG d   1       6.636   0.644  -3.477  0.00  0.00     0.253 C 
ATOM      2  O   LIG d   1       6.403   1.833  -3.422  0.00  0.00    -0.272 OA
ATOM      3  N   LIG d   1       5.842  -0.229  -2.827  0.00  0.00    -0.298 N 
ATOM      4  C   LIG d   1       4.691   0.240  -2.046  0.00  0.00     0.019 C 
ATOM      5  C   LIG d   1       3.439  -0.535  -2.434  0.00  0.00    -0.006 C 
ATOM      6  H   LIG d   1       2.665  -0.319  -1.700  0.00  0.00     0.033 H 
ATOM      7  C   LIG d   1       3.696  -2.042  -2.403  0.00  0.00    -0.037 C 
ATOM      8  C   LIG d   1       4.827  -2.361  -3.385  0.00  0.00     0.016 C 
ATOM      9  H   LIG d   1       4.981  -3.436  -3.460  0.00  0.00     0.038 H 
ATOM     10  C   LIG d   1       6.110  -1.675  -2.883  0.00  0.00     0.023 C 
ATOM     11  C   LIG d   1       4.500  -1.786  -4.744  0.00  0.00     0.027 C 
ATOM     12  C   LIG d   1       5.055  -2.397  -5.827  0.00  0.00    -0.041 C 
ATOM     13  C   LIG d   1       4.888  -1.869  -7.108  0.00  0.00    -0.047 C 
ATOM     14  C   LIG d   1       4.154  -0.701  -7.256  0.00  0.00     0.047 C 
ATOM     15  C   LIG d   1       3.597  -0.100  -6.106  0.00  0.00     0.259 C 
ATOM     16  O   LIG d   1       2.999   0.959  -6.206  0.00  0.00    -0.267 OA
ATOM     17  N   LIG d   1       3.716  -0.693  -4.893  0.00  0.00    -0.311 N 
ATOM     18  C   LIG d   1       2.920  -0.128  -3.802  0.00  0.00     0.031 C 
ATOM     19  H   LIG d   1       4.890   0.095  -0.985  0.00  0.00     0.047 H 
ATOM     20  H   LIG d   1       4.531   1.301  -2.242  0.00  0.00     0.047 H 
ATOM     21  H   LIG d   1       2.792  -2.574  -2.700  0.00  0.00     0.028 H 
ATOM     22  H   LIG d   1       3.987  -2.344  -1.398  0.00  0.00     0.028 H 
ATOM     23  H   LIG d   1       6.363  -2.044  -1.890  0.00  0.00     0.047 H 
ATOM     24  H   LIG d   1       6.930  -1.874  -3.572  0.00  0.00     0.047 H 
ATOM     25  H   LIG d   1       5.628  -3.302  -5.693  0.00  0.00     0.064 H 
ATOM     26  H   LIG d   1       5.317  -2.362  -7.967  0.00  0.00     0.063 H 
ATOM     27  H   LIG d   1       2.938   0.959  -3.877  0.00  0.00     0.050 H 
ATOM     28  H   LIG d   1       1.890  -0.469  -3.904  0.00  0.00     0.050 H 
ENDROOT
BRANCH   1  29
ATOM     29  C   LIG d   1       7.813   0.144  -4.274  0.00  0.00     0.165 C 
ATOM     30  H   LIG d   1       8.642  -0.073  -3.601  0.00  0.00     0.080 H 
ATOM     31  H   LIG d   1       7.531  -0.765  -4.806  0.00  0.00     0.080 H 
BRANCH  29  32
ATOM     32  O   LIG d   1       8.211   1.143  -5.215  0.00  0.00    -0.483 OA
BRANCH  32  33
ATOM     33  C   LIG d   1       8.114   0.824  -6.532  0.00  0.00     0.121 A 
ATOM     34  C   LIG d   1       8.228  -0.498  -6.937  0.00  0.00    -0.020 A 
ATOM     35  C   LIG d   1       8.128  -0.820  -8.277  0.00  0.00    -0.058 A 
ATOM     36  H   LIG d   1       8.393  -1.275  -6.206  0.00  0.00     0.065 H 
ATOM     37  C   LIG d   1       7.915   0.175  -9.214  0.00  0.00    -0.061 A 
ATOM     38  H   LIG d   1       8.216  -1.849  -8.593  0.00  0.00     0.062 H 
ATOM     39  C   LIG d   1       7.801   1.494  -8.812  0.00  0.00    -0.058 A 
ATOM     40  H   LIG d   1       7.838  -0.078 -10.261  0.00  0.00     0.062 H 
ATOM     41  C   LIG d   1       7.894   1.819  -7.473  0.00  0.00    -0.020 A 
ATOM     42  H   LIG d   1       7.634   2.267  -9.546  0.00  0.00     0.062 H 
ATOM     43  H   LIG d   1       7.801   2.848  -7.160  0.00  0.00     0.065 H 
ENDBRANCH  32  33
ENDBRANCH  29  32
ENDBRANCH   1  29
BRANCH  14  44
ATOM     44  C   LIG d   1       3.965  -0.093  -8.594  0.00  0.00    -0.012 A 
ATOM     45  C   LIG d   1       3.401  -0.840  -9.628  0.00  0.00    -0.042 A 
ATOM     46  C   LIG d   1       3.226  -0.268 -10.872  0.00  0.00     0.055 A 
ATOM     47  H   LIG d   1       3.104  -1.864  -9.457  0.00  0.00     0.063 H 
ATOM     48  C   LIG d   1       3.608   1.043 -11.094  0.00  0.00    -0.050 A 
ATOM     49  C   LIG d   1       4.167   1.789 -10.070  0.00  0.00    -0.061 A 
ATOM     50  H   LIG d   1       3.469   1.487 -12.068  0.00  0.00     0.062 H 
ATOM     51  C   LIG d   1       4.342   1.229  -8.821  0.00  0.00    -0.054 A 
ATOM     52  H   LIG d   1       4.462   2.812 -10.250  0.00  0.00     0.062 H 
ATOM     53  H   LIG d   1       4.774   1.815  -8.023  0.00  0.00     0.062 H 
BRANCH  46  54
ATOM     54  C   LIG d   1       2.618  -1.072 -11.991  0.00  0.00     0.417 C 
ATOM     55  F   LIG d   1       3.208  -0.705 -13.204  0.00  0.00    -0.166 F 
ATOM     56  F   LIG d   1       2.836  -2.434 -11.759  0.00  0.00    -0.166 F 
ATOM     57  F   LIG d   1       1.242  -0.825 -12.049  0.00  0.00    -0.166 F 
ENDBRANCH  46  54
ENDBRANCH  14  44
TORSDOF 5
ENDMDL
MODEL 2
REMARK VINA RESULT:      -8.6      0.727      1.386
REMARK  5 active torsions:
REMARK  status: ('A' for Active; 'I' for Inactive)
REMARK    1  A    between atoms: C_4  and  O_7 
REMARK    2  A    between atoms: O_7  and  C_8 
REMARK    3  A    between atoms: C_8  and  C_9 
REMARK       I    between atoms: C_9  and  N_11 
REMARK    4  A    between atoms: C_22  and  C_27 
REMARK    5  A    between atoms: C_31  and  C_33 
ROOT
ATOM      1  C   LIG d   1       6.484   0.845  -3.378  0.00  0.00     0.253 C 
ATOM      2  O   LIG d   1       6.131   2.004  -3.321  0.00  0.00    -0.272 OA
ATOM      3  N   LIG d   1       5.766  -0.110  -2.757  0.00  0.00    -0.298 N 
ATOM      4  C   LIG d   1       4.551   0.233  -2.006  0.00  0.00     0.019 C 
ATOM      5  C   LIG d   1       3.396  -0.661  -2.436  0.00  0.00    -0.006 C 
ATOM      6  H   LIG d   1       2.584  -0.531  -1.722  0.00  0.00     0.033 H 
ATOM      7  C   LIG d   1       3.803  -2.134  -2.408  0.00  0.00    -0.037 C 
ATOM      8  C   LIG d   1       4.987  -2.328  -3.359  0.00  0.00     0.016 C 
ATOM      9  H   LIG d   1       5.252  -3.381  -3.437  0.00  0.00     0.038 H 
ATOM     10  C   LIG d   1       6.180  -1.521  -2.816  0.00  0.00     0.023 C 
ATOM     11  C   LIG d   1       4.642  -1.775  -4.723  0.00  0.00     0.027 C 
ATOM     12  C   LIG d   1       5.286  -2.317  -5.793  0.00  0.00    -0.041 C 
ATOM     13  C   LIG d   1       5.102  -1.796  -7.075  0.00  0.00    -0.047 C 
ATOM     14  C   LIG d   1       4.258  -0.707  -7.236  0.00  0.00     0.047 C 
ATOM     15  C   LIG d   1       3.612  -0.176  -6.099  0.00  0.00     0.259 C 
ATOM     16  O   LIG d   1       2.912   0.817  -6.208  0.00  0.00    -0.267 OA
ATOM     17  N   LIG d   1       3.756  -0.766  -4.886  0.00  0.00    -0.311 N 
ATOM     18  C   LIG d   1       2.877  -0.295  -3.814  0.00  0.00     0.031 C 
ATOM     19  H   LIG d   1       4.735   0.098  -0.941  0.00  0.00     0.047 H 
ATOM     20  H   LIG d   1       4.291   1.274  -2.199  0.00  0.00     0.047 H 
ATOM     21  H   LIG d   1       2.967  -2.752  -2.734  0.00  0.00     0.028 H 
ATOM     22  H   LIG d   1       4.095  -2.416  -1.397  0.00  0.00     0.028 H 
ATOM     23  H   LIG d   1       6.441  -1.873  -1.818  0.00  0.00     0.047 H 
ATOM     24  H   LIG d   1       7.035  -1.630  -3.482  0.00  0.00     0.047 H 
ATOM     25  H   LIG d   1       5.944  -3.160  -5.649  0.00  0.00     0.064 H 
ATOM     26  H   LIG d   1       5.603  -2.234  -7.925  0.00  0.00     0.063 H 
ATOM     27  H   LIG d   1       2.787   0.788  -3.882  0.00  0.00     0.050 H 
ATOM     28  H   LIG d   1       1.889  -0.738  -3.949  0.00  0.00     0.050 H 
ENDROOT
BRANCH   1  29
ATOM     29  C   LIG d   1       7.728   0.474  -4.144  0.00  0.00     0.165 C 
ATOM     30  H   LIG d   1       8.514   1.199  -3.934  0.00  0.00     0.080 H 
ATOM     31  H   LIG d   1       8.060  -0.518  -3.839  0.00  0.00     0.080 H 
BRANCH  29  32
ATOM     32  O   LIG d   1       7.443   0.472  -5.544  0.00  0.00    -0.483 OA
BRANCH  32  33
ATOM     33  C   LIG d   1       8.050   1.424  -6.300  0.00  0.00     0.121 A 
ATOM     34  C   LIG d   1       8.918   2.330  -5.709  0.00  0.00    -0.020 A 
ATOM     35  C   LIG d   1       9.534   3.298  -6.479  0.00  0.00    -0.058 A 
ATOM     36  H   LIG d   1       9.113   2.280  -4.648  0.00  0.00     0.065 H 
ATOM     37  C   LIG d   1       9.285   3.363  -7.839  0.00  0.00    -0.061 A 
ATOM     38  H   LIG d   1      10.210   4.004  -6.020  0.00  0.00     0.062 H 
ATOM     39  C   LIG d   1       8.420   2.460  -8.429  0.00  0.00    -0.058 A 
ATOM     40  H   LIG d   1       9.767   4.120  -8.439  0.00  0.00     0.062 H 
ATOM     41  C   LIG d   1       7.807   1.487  -7.664  0.00  0.00    -0.020 A 
ATOM     42  H   LIG d   1       8.229   2.513  -9.491  0.00  0.00     0.062 H 
ATOM     43  H   LIG d   1       7.135   0.780  -8.127  0.00  0.00     0.065 H 
ENDBRANCH  32  33
ENDBRANCH  29  32
ENDBRANCH   1  29
BRANCH  14  44
ATOM     44  C   LIG d   1       4.046  -0.108  -8.574  0.00  0.00    -0.012 A 
ATOM     45  C   LIG d   1       3.400  -0.837  -9.573  0.00  0.00    -0.042 A 
ATOM     46  C   LIG d   1       3.205  -0.274 -10.817  0.00  0.00     0.055 A 
ATOM     47  H   LIG d   1       3.057  -1.842  -9.373  0.00  0.00     0.063 H 
ATOM     48  C   LIG d   1       3.645   1.012 -11.075  0.00  0.00    -0.050 A 
ATOM     49  C   LIG d   1       4.286   1.740 -10.088  0.00  0.00    -0.061 A 
ATOM     50  H   LIG d   1       3.490   1.449 -12.050  0.00  0.00     0.062 H 
ATOM     51  C   LIG d   1       4.483   1.189  -8.838  0.00  0.00    -0.054 A 
ATOM     52  H   LIG d   1       4.627   2.744 -10.295  0.00  0.00     0.062 H 
ATOM     53  H   LIG d   1       4.978   1.761  -8.067  0.00  0.00     0.062 H 
BRANCH  46  54
ATOM     54  C   LIG d   1       2.508  -1.060 -11.897  0.00  0.00     0.417 C 
ATOM     55  F   LIG d   1       1.153  -0.716 -11.924  0.00  0.00    -0.166 F 
ATOM     56  F   LIG d   1       3.088  -0.767 -13.136  0.00  0.00    -0.166 F 
ATOM     57  F   LIG d   1       2.636  -2.428 -11.635  0.00  0.00    -0.166 F 
ENDBRANCH  46  54
ENDBRANCH  14  44
TORSDOF 5
ENDMDL
MODEL 3
REMARK VINA RESULT:      -7.8      4.202      7.519
REMARK  5 active torsions:
REMARK  status: ('A' for Active; 'I' for Inactive)
REMARK    1  A    between atoms: C_4  and  O_7 
REMARK    2  A    between atoms: O_7  and  C_8 
REMARK    3  A    between atoms: C_8  and  C_9 
REMARK       I    between atoms: C_9  and  N_11 
REMARK    4  A    between atoms: C_22  and  C_27 
REMARK    5  A    between atoms: C_31  and  C_33 
ROOT
ATOM      1  C   LIG d   1       2.683  -3.157 -10.268  0.00  0.00     0.253 C 
ATOM      2  O   LIG d   1       1.511  -3.106  -9.959  0.00  0.00    -0.272 OA
ATOM      3  N   LIG d   1       3.242  -2.148 -10.964  0.00  0.00    -0.298 N 
ATOM      4  C   LIG d   1       2.448  -0.978 -11.358  0.00  0.00     0.019 C 
ATOM      5  C   LIG d   1       3.166   0.304 -10.960  0.00  0.00    -0.006 C 
ATOM      6  H   LIG d   1       2.665   1.139 -11.449  0.00  0.00     0.033 H 
ATOM      7  C   LIG d   1       4.617   0.292 -11.439  0.00  0.00    -0.037 C 
ATOM      8  C   LIG d   1       5.324  -0.913 -10.812  0.00  0.00     0.016 C 
ATOM      9  H   LIG d   1       6.385  -0.909 -11.057  0.00  0.00     0.038 H 
ATOM     10  C   LIG d   1       4.662  -2.195 -11.347  0.00  0.00     0.023 C 
ATOM     11  C   LIG d   1       5.136  -0.890  -9.312  0.00  0.00     0.027 C 
ATOM     12  C   LIG d   1       6.090  -1.502  -8.558  0.00  0.00    -0.041 C 
ATOM     13  C   LIG d   1       5.941  -1.617  -7.175  0.00  0.00    -0.047 C 
ATOM     14  C   LIG d   1       4.795  -1.104  -6.584  0.00  0.00     0.047 C 
ATOM     15  C   LIG d   1       3.832  -0.478  -7.404  0.00  0.00     0.259 C 
ATOM     16  O   LIG d   1       2.791  -0.074  -6.914  0.00  0.00    -0.267 OA
ATOM     17  N   LIG d   1       4.057  -0.317  -8.731  0.00  0.00    -0.311 N 
ATOM     18  C   LIG d   1       3.119   0.539  -9.460  0.00  0.00     0.031 C 
ATOM     19  H   LIG d   1       2.299  -0.988 -12.437  0.00  0.00     0.047 H 
ATOM     20  H   LIG d   1       1.478  -1.016 -10.860  0.00  0.00     0.047 H 
ATOM     21  H   LIG d   1       5.114   1.211 -11.129  0.00  0.00     0.028 H 
ATOM     22  H   LIG d   1       4.644   0.208 -12.525  0.00  0.00     0.028 H 
ATOM     23  H   LIG d   1       4.752  -2.232 -12.433  0.00  0.00     0.047 H 
ATOM     24  H   LIG d   1       5.138  -3.070 -10.905  0.00  0.00     0.047 H 
ATOM     25  H   LIG d   1       6.972  -1.902  -9.034  0.00  0.00     0.064 H 
ATOM     26  H   LIG d   1       6.704  -2.092  -6.576  0.00  0.00     0.063 H 
ATOM     27  H   LIG d   1       2.110   0.342  -9.103  0.00  0.00     0.050 H 
ATOM     28  H   LIG d   1       3.365   1.582  -9.259  0.00  0.00     0.050 H 
ENDROOT
BRANCH   1  29
ATOM     29  C   LIG d   1       3.514  -4.351  -9.873  0.00  0.00     0.165 C 
ATOM     30  H   LIG d   1       3.327  -5.170 -10.567  0.00  0.00     0.080 H 
ATOM     31  H   LIG d   1       4.570  -4.084  -9.902  0.00  0.00     0.080 H 
BRANCH  29  32
ATOM     32  O   LIG d   1       3.163  -4.759  -8.548  0.00  0.00    -0.483 OA
BRANCH  32  33
ATOM     33  C   LIG d   1       4.184  -5.084  -7.713  0.00  0.00     0.121 A 
ATOM     34  C   LIG d   1       5.493  -5.057  -8.171  0.00  0.00    -0.020 A 
ATOM     35  C   LIG d   1       6.528  -5.388  -7.319  0.00  0.00    -0.058 A 
ATOM     36  H   LIG d   1       5.703  -4.775  -9.192  0.00  0.00     0.065 H 
ATOM     37  C   LIG d   1       6.261  -5.748  -6.010  0.00  0.00    -0.061 A 
ATOM     38  H   LIG d   1       7.548  -5.366  -7.674  0.00  0.00     0.062 H 
ATOM     39  C   LIG d   1       4.957  -5.776  -5.551  0.00  0.00    -0.058 A 
ATOM     40  H   LIG d   1       7.072  -6.008  -5.346  0.00  0.00     0.062 H 
ATOM     41  C   LIG d   1       3.918  -5.440  -6.398  0.00  0.00    -0.020 A 
ATOM     42  H   LIG d   1       4.751  -6.057  -4.529  0.00  0.00     0.062 H 
ATOM     43  H   LIG d   1       2.901  -5.458  -6.038  0.00  0.00     0.065 H 
ENDBRANCH  32  33
ENDBRANCH  29  32
ENDBRANCH   1  29
BRANCH  14  44
ATOM     44  C   LIG d   1       4.585  -1.218  -5.122  0.00  0.00    -0.012 A 
ATOM     45  C   LIG d   1       4.617  -0.078  -4.319  0.00  0.00    -0.042 A 
ATOM     46  C   LIG d   1       4.419  -0.191  -2.958  0.00  0.00     0.055 A 
ATOM     47  H   LIG d   1       4.798   0.891  -4.762  0.00  0.00     0.063 H 
ATOM     48  C   LIG d   1       4.188  -1.430  -2.389  0.00  0.00    -0.050 A 
ATOM     49  C   LIG d   1       4.155  -2.565  -3.182  0.00  0.00    -0.061 A 
ATOM     50  H   LIG d   1       4.033  -1.513  -1.325  0.00  0.00     0.062 H 
ATOM     51  C   LIG d   1       4.346  -2.464  -4.544  0.00  0.00    -0.054 A 
ATOM     52  H   LIG d   1       3.973  -3.530  -2.732  0.00  0.00     0.062 H 
ATOM     53  H   LIG d   1       4.314  -3.350  -5.161  0.00  0.00     0.062 H 
BRANCH  46  54
ATOM     54  C   LIG d   1       4.454   1.040  -2.089  0.00  0.00     0.417 C 
ATOM     55  F   LIG d   1       5.318   1.984  -2.651  0.00  0.00    -0.166 F 
ATOM     56  F   LIG d   1       3.168   1.582  -1.996  0.00  0.00    -0.166 F 
ATOM     57  F   LIG d   1       4.907   0.695  -0.811  0.00  0.00    -0.166 F 
ENDBRANCH  46  54
ENDBRANCH  14  44
TORSDOF 5
ENDMDL
MODEL 4
REMARK VINA RESULT:      -7.7      4.231      7.433
REMARK  5 active torsions:
REMARK  status: ('A' for Active; 'I' for Inactive)
REMARK    1  A    between atoms: C_4  and  O_7 
REMARK    2  A    between atoms: O_7  and  C_8 
REMARK    3  A    between atoms: C_8  and  C_9 
REMARK       I    between atoms: C_9  and  N_11 
REMARK    4  A    between atoms: C_22  and  C_27 
REMARK    5  A    between atoms: C_31  and  C_33 
ROOT
ATOM      1  C   LIG d   1       2.900   0.849  -7.482  0.00  0.00     0.253 C 
ATOM      2  O   LIG d   1       2.853   2.052  -7.630  0.00  0.00    -0.272 OA
ATOM      3  N   LIG d   1       3.221   0.053  -8.521  0.00  0.00    -0.298 N 
ATOM      4  C   LIG d   1       3.517   0.625  -9.840  0.00  0.00     0.019 C 
ATOM      5  C   LIG d   1       4.830   0.068 -10.373  0.00  0.00    -0.006 C 
ATOM      6  H   LIG d   1       4.911   0.340 -11.425  0.00  0.00     0.033 H 
ATOM      7  C   LIG d   1       4.854  -1.457 -10.288  0.00  0.00    -0.037 C 
ATOM      8  C   LIG d   1       4.678  -1.863  -8.822  0.00  0.00     0.016 C 
ATOM      9  H   LIG d   1       4.778  -2.941  -8.704  0.00  0.00     0.038 H 
ATOM     10  C   LIG d   1       3.282  -1.408  -8.358  0.00  0.00     0.023 C 
ATOM     11  C   LIG d   1       5.701  -1.149  -7.968  0.00  0.00     0.027 C 
ATOM     12  C   LIG d   1       6.070  -1.753  -6.805  0.00  0.00    -0.041 C 
ATOM     13  C   LIG d   1       6.930  -1.113  -5.910  0.00  0.00    -0.047 C 
ATOM     14  C   LIG d   1       7.393   0.156  -6.225  0.00  0.00     0.047 C 
ATOM     15  C   LIG d   1       6.985   0.744  -7.441  0.00  0.00     0.259 C 
ATOM     16  O   LIG d   1       7.333   1.883  -7.710  0.00  0.00    -0.267 OA
ATOM     17  N   LIG d   1       6.215   0.053  -8.317  0.00  0.00    -0.311 N 
ATOM     18  C   LIG d   1       6.030   0.645  -9.643  0.00  0.00     0.031 C 
ATOM     19  H   LIG d   1       2.712   0.376 -10.531  0.00  0.00     0.047 H 
ATOM     20  H   LIG d   1       3.595   1.710  -9.754  0.00  0.00     0.047 H 
ATOM     21  H   LIG d   1       5.808  -1.831 -10.658  0.00  0.00     0.028 H 
ATOM     22  H   LIG d   1       4.041  -1.871 -10.882  0.00  0.00     0.028 H 
ATOM     23  H   LIG d   1       2.516  -1.881  -8.971  0.00  0.00     0.047 H 
ATOM     24  H   LIG d   1       3.135  -1.672  -7.312  0.00  0.00     0.047 H 
ATOM     25  H   LIG d   1       5.694  -2.738  -6.573  0.00  0.00     0.064 H 
ATOM     26  H   LIG d   1       7.231  -1.598  -4.994  0.00  0.00     0.063 H 
ATOM     27  H   LIG d   1       5.893   1.720  -9.534  0.00  0.00     0.050 H 
ATOM     28  H   LIG d   1       6.926   0.464 -10.238  0.00  0.00     0.050 H 
ENDROOT
BRANCH   1  29
ATOM     29  C   LIG d   1       2.600   0.245  -6.134  0.00  0.00     0.165 C 
ATOM     30  H   LIG d   1       1.521   0.215  -5.982  0.00  0.00     0.080 H 
ATOM     31  H   LIG d   1       3.000  -0.769  -6.094  0.00  0.00     0.080 H 
BRANCH  29  32
ATOM     32  O   LIG d   1       3.205   1.037  -5.110  0.00  0.00    -0.483 OA
BRANCH  32  33
ATOM     33  C   LIG d   1       3.614   0.388  -3.989  0.00  0.00     0.121 A 
ATOM     34  C   LIG d   1       4.138   1.105  -2.924  0.00  0.00    -0.020 A 
ATOM     35  C   LIG d   1       4.553   0.443  -1.785  0.00  0.00    -0.058 A 
ATOM     36  H   LIG d   1       4.222   2.180  -2.984  0.00  0.00     0.065 H 
ATOM     37  C   LIG d   1       4.447  -0.934  -1.706  0.00  0.00    -0.061 A 
ATOM     38  H   LIG d   1       4.962   1.001  -0.955  0.00  0.00     0.062 H 
ATOM     39  C   LIG d   1       3.923  -1.651  -2.766  0.00  0.00    -0.058 A 
ATOM     40  H   LIG d   1       4.772  -1.450  -0.815  0.00  0.00     0.062 H 
ATOM     41  C   LIG d   1       3.502  -0.993  -3.905  0.00  0.00    -0.020 A 
ATOM     42  H   LIG d   1       3.840  -2.725  -2.701  0.00  0.00     0.062 H 
ATOM     43  H   LIG d   1       3.090  -1.553  -4.731  0.00  0.00     0.065 H 
ENDBRANCH  32  33
ENDBRANCH  29  32
ENDBRANCH   1  29
BRANCH  14  44
ATOM     44  C   LIG d   1       8.294   0.881  -5.299  0.00  0.00    -0.012 A 
ATOM     45  C   LIG d   1       9.659   0.595  -5.282  0.00  0.00    -0.042 A 
ATOM     46  C   LIG d   1      10.493   1.274  -4.418  0.00  0.00     0.055 A 
ATOM     47  H   LIG d   1      10.062  -0.158  -5.943  0.00  0.00     0.063 H 
ATOM     48  C   LIG d   1       9.978   2.238  -3.569  0.00  0.00    -0.050 A 
ATOM     49  C   LIG d   1       8.624   2.526  -3.582  0.00  0.00    -0.061 A 
ATOM     50  H   LIG d   1      10.634   2.767  -2.896  0.00  0.00     0.062 H 
ATOM     51  C   LIG d   1       7.782   1.857  -4.445  0.00  0.00    -0.054 A 
ATOM     52  H   LIG d   1       8.229   3.280  -2.918  0.00  0.00     0.062 H 
ATOM     53  H   LIG d   1       6.726   2.087  -4.457  0.00  0.00     0.062 H 
BRANCH  46  54
ATOM     54  C   LIG d   1      11.968   0.967  -4.398  0.00  0.00     0.417 C 
ATOM     55  F   LIG d   1      12.505   1.176  -5.673  0.00  0.00    -0.166 F 
ATOM     56  F   LIG d   1      12.607   1.804  -3.479  0.00  0.00    -0.166 F 
ATOM     57  F   LIG d   1      12.161  -0.368  -4.025  0.00  0.00    -0.166 F 
ENDBRANCH  46  54
ENDBRANCH  14  44
TORSDOF 5
ENDMDL
MODEL 5
REMARK VINA RESULT:      -7.5      4.028      7.258
REMARK  5 active torsions:
REMARK  status: ('A' for Active; 'I' for Inactive)
REMARK    1  A    between atoms: C_4  and  O_7 
REMARK    2  A    between atoms: O_7  and  C_8 
REMARK    3  A    between atoms: C_8  and  C_9 
REMARK       I    between atoms: C_9  and  N_11 
REMARK    4  A    between atoms: C_22  and  C_27 
REMARK    5  A    between atoms: C_31  and  C_33 
ROOT
ATOM      1  C   LIG d   1       2.816   0.735  -7.471  0.00  0.00     0.253 C 
ATOM      2  O   LIG d   1       2.661   1.937  -7.423  0.00  0.00    -0.272 OA
ATOM      3  N   LIG d   1       2.816   0.103  -8.662  0.00  0.00    -0.298 N 
ATOM      4  C   LIG d   1       2.632   0.853  -9.910  0.00  0.00     0.019 C 
ATOM      5  C   LIG d   1       3.723   0.490 -10.908  0.00  0.00    -0.006 C 
ATOM      6  H   LIG d   1       3.439   0.891 -11.880  0.00  0.00     0.033 H 
ATOM      7  C   LIG d   1       3.851  -1.026 -11.055  0.00  0.00    -0.037 C 
ATOM      8  C   LIG d   1       4.188  -1.618  -9.683  0.00  0.00     0.016 C 
ATOM      9  H   LIG d   1       4.376  -2.688  -9.760  0.00  0.00     0.038 H 
ATOM     10  C   LIG d   1       3.002  -1.355  -8.738  0.00  0.00     0.023 C 
ATOM     11  C   LIG d   1       5.397  -0.917  -9.108  0.00  0.00     0.027 C 
ATOM     12  C   LIG d   1       6.158  -1.617  -8.223  0.00  0.00    -0.041 C 
ATOM     13  C   LIG d   1       7.231  -1.010  -7.567  0.00  0.00    -0.047 C 
ATOM     14  C   LIG d   1       7.501   0.325  -7.829  0.00  0.00     0.047 C 
ATOM     15  C   LIG d   1       6.686   1.013  -8.753  0.00  0.00     0.259 C 
ATOM     16  O   LIG d   1       6.868   2.203  -8.952  0.00  0.00    -0.267 OA
ATOM     17  N   LIG d   1       5.706   0.362  -9.426  0.00  0.00    -0.311 N 
ATOM     18  C   LIG d   1       5.065   1.087 -10.525  0.00  0.00     0.031 C 
ATOM     19  H   LIG d   1       1.659   0.612 -10.336  0.00  0.00     0.047 H 
ATOM     20  H   LIG d   1       2.679   1.922  -9.698  0.00  0.00     0.047 H 
ATOM     21  H   LIG d   1       4.648  -1.261 -11.760  0.00  0.00     0.028 H 
ATOM     22  H   LIG d   1       2.909  -1.441 -11.411  0.00  0.00     0.028 H 
ATOM     23  H   LIG d   1       2.101  -1.823  -9.136  0.00  0.00     0.047 H 
ATOM     24  H   LIG d   1       3.221  -1.755  -7.749  0.00  0.00     0.047 H 
ATOM     25  H   LIG d   1       5.931  -2.654  -8.026  0.00  0.00     0.064 H 
ATOM     26  H   LIG d   1       7.842  -1.570  -6.875  0.00  0.00     0.063 H 
ATOM     27  H   LIG d   1       4.918   2.124 -10.225  0.00  0.00     0.050 H 
ATOM     28  H   LIG d   1       5.723   1.064 -11.394  0.00  0.00     0.050 H 
ENDROOT
BRANCH   1  29
ATOM     29  C   LIG d   1       3.006  -0.051  -6.200  0.00  0.00     0.165 C 
ATOM     30  H   LIG d   1       2.264  -0.847  -6.150  0.00  0.00     0.080 H 
ATOM     31  H   LIG d   1       4.006  -0.487  -6.189  0.00  0.00     0.080 H 
BRANCH  29  32
ATOM     32  O   LIG d   1       2.852   0.816  -5.075  0.00  0.00    -0.483 OA
BRANCH  32  33
ATOM     33  C   LIG d   1       3.387   0.400  -3.897  0.00  0.00     0.121 A 
ATOM     34  C   LIG d   1       3.372  -0.946  -3.564  0.00  0.00    -0.020 A 
ATOM     35  C   LIG d   1       3.918  -1.366  -2.366  0.00  0.00    -0.058 A 
ATOM     36  H   LIG d   1       2.936  -1.666  -4.241  0.00  0.00     0.065 H 
ATOM     37  C   LIG d   1       4.477  -0.445  -1.499  0.00  0.00    -0.061 A 
ATOM     38  H   LIG d   1       3.907  -2.414  -2.106  0.00  0.00     0.062 H 
ATOM     39  C   LIG d   1       4.494   0.898  -1.830  0.00  0.00    -0.058 A 
ATOM     40  H   LIG d   1       4.903  -0.775  -0.563  0.00  0.00     0.062 H 
ATOM     41  C   LIG d   1       3.955   1.322  -3.029  0.00  0.00    -0.020 A 
ATOM     42  H   LIG d   1       4.932   1.614  -1.151  0.00  0.00     0.062 H 
ATOM     43  H   LIG d   1       3.972   2.370  -3.288  0.00  0.00     0.065 H 
ENDBRANCH  32  33
ENDBRANCH  29  32
ENDBRANCH   1  29
BRANCH  14  44
ATOM     44  C   LIG d   1       8.618   1.017  -7.144  0.00  0.00    -0.012 A 
ATOM     45  C   LIG d   1       8.445   1.522  -5.856  0.00  0.00    -0.042 A 
ATOM     46  C   LIG d   1       9.490   2.164  -5.224  0.00  0.00     0.055 A 
ATOM     47  H   LIG d   1       7.494   1.413  -5.355  0.00  0.00     0.063 H 
ATOM     48  C   LIG d   1      10.708   2.306  -5.864  0.00  0.00    -0.050 A 
ATOM     49  C   LIG d   1      10.886   1.806  -7.143  0.00  0.00    -0.061 A 
ATOM     50  H   LIG d   1      11.523   2.809  -5.366  0.00  0.00     0.062 H 
ATOM     51  C   LIG d   1       9.850   1.158  -7.783  0.00  0.00    -0.054 A 
ATOM     52  H   LIG d   1      11.839   1.920  -7.637  0.00  0.00     0.062 H 
ATOM     53  H   LIG d   1       9.992   0.764  -8.778  0.00  0.00     0.062 H 
BRANCH  46  54
ATOM     54  C   LIG d   1       9.305   2.711  -3.832  0.00  0.00     0.417 C 
ATOM     55  F   LIG d   1      10.358   2.282  -3.018  0.00  0.00    -0.166 F 
ATOM     56  F   LIG d   1       9.291   4.109  -3.878  0.00  0.00    -0.166 F 
ATOM     57  F   LIG d   1       8.093   2.250  -3.307  0.00  0.00    -0.166 F 
ENDBRANCH  46  54
ENDBRANCH  14  44
TORSDOF 5
ENDMDL
MODEL 6
REMARK VINA RESULT:      -7.5      4.331      6.999
REMARK  5 active torsions:
REMARK  status: ('A' for Active; 'I' for Inactive)
REMARK    1  A    between atoms: C_4  and  O_7 
REMARK    2  A    between atoms: O_7  and  C_8 
REMARK    3  A    between atoms: C_8  and  C_9 
REMARK       I    between atoms: C_9  and  N_11 
REMARK    4  A    between atoms: C_22  and  C_27 
REMARK    5  A    between atoms: C_31  and  C_33 
ROOT
ATOM      1  C   LIG d   1       5.490  -2.953 -11.365  0.00  0.00     0.253 C 
ATOM      2  O   LIG d   1       6.534  -3.517 -11.117  0.00  0.00    -0.272 OA
ATOM      3  N   LIG d   1       4.331  -3.642 -11.352  0.00  0.00    -0.298 N 
ATOM      4  C   LIG d   1       4.315  -5.076 -11.039  0.00  0.00     0.019 C 
ATOM      5  C   LIG d   1       3.277  -5.370  -9.965  0.00  0.00    -0.006 C 
ATOM      6  H   LIG d   1       3.140  -6.449  -9.912  0.00  0.00     0.033 H 
ATOM      7  C   LIG d   1       1.926  -4.750 -10.323  0.00  0.00    -0.037 C 
ATOM      8  C   LIG d   1       2.110  -3.237 -10.465  0.00  0.00     0.016 C 
ATOM      9  H   LIG d   1       1.153  -2.745 -10.632  0.00  0.00     0.038 H 
ATOM     10  C   LIG d   1       3.055  -2.973 -11.651  0.00  0.00     0.023 C 
ATOM     11  C   LIG d   1       2.769  -2.684  -9.221  0.00  0.00     0.027 C 
ATOM     12  C   LIG d   1       2.523  -1.380  -8.916  0.00  0.00    -0.041 C 
ATOM     13  C   LIG d   1       3.173  -0.763  -7.845  0.00  0.00    -0.047 C 
ATOM     14  C   LIG d   1       4.082  -1.503  -7.103  0.00  0.00     0.047 C 
ATOM     15  C   LIG d   1       4.306  -2.851  -7.455  0.00  0.00     0.259 C 
ATOM     16  O   LIG d   1       5.145  -3.502  -6.854  0.00  0.00    -0.267 OA
ATOM     17  N   LIG d   1       3.593  -3.432  -8.451  0.00  0.00    -0.311 N 
ATOM     18  C   LIG d   1       3.722  -4.883  -8.597  0.00  0.00     0.031 C 
ATOM     19  H   LIG d   1       4.072  -5.640 -11.939  0.00  0.00     0.047 H 
ATOM     20  H   LIG d   1       5.300  -5.378 -10.680  0.00  0.00     0.047 H 
ATOM     21  H   LIG d   1       1.206  -4.959  -9.532  0.00  0.00     0.028 H 
ATOM     22  H   LIG d   1       1.570  -5.166 -11.264  0.00  0.00     0.028 H 
ATOM     23  H   LIG d   1       2.626  -3.385 -12.564  0.00  0.00     0.047 H 
ATOM     24  H   LIG d   1       3.215  -1.902 -11.766  0.00  0.00     0.047 H 
ATOM     25  H   LIG d   1       1.817  -0.817  -9.508  0.00  0.00     0.064 H 
ATOM     26  H   LIG d   1       2.968   0.267  -7.596  0.00  0.00     0.063 H 
ATOM     27  H   LIG d   1       4.764  -5.161  -8.445  0.00  0.00     0.050 H 
ATOM     28  H   LIG d   1       3.114  -5.369  -7.834  0.00  0.00     0.050 H 
ENDROOT
BRANCH   1  29
ATOM     29  C   LIG d   1       5.487  -1.481 -11.688  0.00  0.00     0.165 C 
ATOM     30  H   LIG d   1       6.035  -1.311 -12.614  0.00  0.00     0.080 H 
ATOM     31  H   LIG d   1       4.459  -1.137 -11.806  0.00  0.00     0.080 H 
BRANCH  29  32
ATOM     32  O   LIG d   1       6.112  -0.759 -10.625  0.00  0.00    -0.483 OA
BRANCH  32  33
ATOM     33  C   LIG d   1       5.513   0.394 -10.227  0.00  0.00     0.121 A 
ATOM     34  C   LIG d   1       6.103   1.183  -9.250  0.00  0.00    -0.020 A 
ATOM     35  C   LIG d   1       5.492   2.354  -8.848  0.00  0.00    -0.058 A 
ATOM     36  H   LIG d   1       7.040   0.881  -8.805  0.00  0.00     0.065 H 
ATOM     37  C   LIG d   1       4.293   2.741  -9.417  0.00  0.00    -0.061 A 
ATOM     38  H   LIG d   1       5.952   2.969  -8.087  0.00  0.00     0.062 H 
ATOM     39  C   LIG d   1       3.703   1.957 -10.391  0.00  0.00    -0.058 A 
ATOM     40  H   LIG d   1       3.817   3.657  -9.100  0.00  0.00     0.062 H 
ATOM     41  C   LIG d   1       4.312   0.788 -10.801  0.00  0.00    -0.020 A 
ATOM     42  H   LIG d   1       2.767   2.263 -10.834  0.00  0.00     0.062 H 
ATOM     43  H   LIG d   1       3.853   0.178 -11.565  0.00  0.00     0.065 H 
ENDBRANCH  32  33
ENDBRANCH  29  32
ENDBRANCH   1  29
BRANCH  14  44
ATOM     44  C   LIG d   1       4.808  -0.887  -5.968  0.00  0.00    -0.012 A 
ATOM     45  C   LIG d   1       4.220  -0.836  -4.705  0.00  0.00    -0.042 A 
ATOM     46  C   LIG d   1       4.901  -0.262  -3.652  0.00  0.00     0.055 A 
ATOM     47  H   LIG d   1       3.231  -1.244  -4.551  0.00  0.00     0.063 H 
ATOM     48  C   LIG d   1       6.167   0.262  -3.846  0.00  0.00    -0.050 A 
ATOM     49  C   LIG d   1       6.756   0.215  -5.098  0.00  0.00    -0.061 A 
ATOM     50  H   LIG d   1       6.696   0.710  -3.020  0.00  0.00     0.062 H 
ATOM     51  C   LIG d   1       6.086  -0.362  -6.157  0.00  0.00    -0.054 A 
ATOM     52  H   LIG d   1       7.744   0.625  -5.243  0.00  0.00     0.062 H 
ATOM     53  H   LIG d   1       6.549  -0.403  -7.132  0.00  0.00     0.062 H 
BRANCH  46  54
ATOM     54  C   LIG d   1       4.267  -0.207  -2.286  0.00  0.00     0.417 C 
ATOM     55  F   LIG d   1       4.495  -1.413  -1.616  0.00  0.00    -0.166 F 
ATOM     56  F   LIG d   1       4.826   0.846  -1.554  0.00  0.00    -0.166 F 
ATOM     57  F   LIG d   1       2.890  -0.001  -2.420  0.00  0.00    -0.166 F 
ENDBRANCH  46  54
ENDBRANCH  14  44
TORSDOF 5
ENDMDL
MODEL 7
REMARK VINA RESULT:      -7.4      3.096      6.021
REMARK  5 active torsions:
REMARK  status: ('A' for Active; 'I' for Inactive)
REMARK    1  A    between atoms: C_4  and  O_7 
REMARK    2  A    between atoms: O_7  and  C_8 
REMARK    3  A    between atoms: C_8  and  C_9 
REMARK       I    between atoms: C_9  and  N_11 
REMARK    4  A    between atoms: C_22  and  C_27 
REMARK    5  A    between atoms: C_31  and  C_33 
ROOT
ATOM      1  C   LIG d   1       8.994   1.918  -7.846  0.00  0.00     0.253 C 
ATOM      2  O   LIG d   1       8.434   2.990  -7.760  0.00  0.00    -0.272 OA
ATOM      3  N   LIG d   1      10.131   1.693  -7.159  0.00  0.00    -0.298 N 
ATOM      4  C   LIG d   1      10.706   2.735  -6.300  0.00  0.00     0.019 C 
ATOM      5  C   LIG d   1      11.007   2.173  -4.918  0.00  0.00    -0.006 C 
ATOM      6  H   LIG d   1      11.621   2.896  -4.383  0.00  0.00     0.033 H 
ATOM      7  C   LIG d   1      11.807   0.874  -5.016  0.00  0.00    -0.037 C 
ATOM      8  C   LIG d   1      10.987  -0.139  -5.820  0.00  0.00     0.016 C 
ATOM      9  H   LIG d   1      11.482  -1.110  -5.838  0.00  0.00     0.038 H 
ATOM     10  C   LIG d   1      10.824   0.398  -7.253  0.00  0.00     0.023 C 
ATOM     11  C   LIG d   1       9.606  -0.271  -5.219  0.00  0.00     0.027 C 
ATOM     12  C   LIG d   1       8.955  -1.451  -5.412  0.00  0.00    -0.041 C 
ATOM     13  C   LIG d   1       7.638  -1.618  -4.979  0.00  0.00    -0.047 C 
ATOM     14  C   LIG d   1       7.002  -0.553  -4.357  0.00  0.00     0.047 C 
ATOM     15  C   LIG d   1       7.715   0.651  -4.178  0.00  0.00     0.259 C 
ATOM     16  O   LIG d   1       7.156   1.618  -3.687  0.00  0.00    -0.267 OA
ATOM     17  N   LIG d   1       9.018   0.741  -4.540  0.00  0.00    -0.311 N 
ATOM     18  C   LIG d   1       9.742   1.940  -4.112  0.00  0.00     0.031 C 
ATOM     19  H   LIG d   1      11.629   3.104  -6.748  0.00  0.00     0.047 H 
ATOM     20  H   LIG d   1       9.996   3.558  -6.207  0.00  0.00     0.047 H 
ATOM     21  H   LIG d   1      11.995   0.482  -4.017  0.00  0.00     0.028 H 
ATOM     22  H   LIG d   1      12.753   1.062  -5.521  0.00  0.00     0.028 H 
ATOM     23  H   LIG d   1      11.803   0.534  -7.711  0.00  0.00     0.047 H 
ATOM     24  H   LIG d   1      10.231  -0.298  -7.845  0.00  0.00     0.047 H 
ATOM     25  H   LIG d   1       9.462  -2.266  -5.904  0.00  0.00     0.064 H 
ATOM     26  H   LIG d   1       7.126  -2.557  -5.122  0.00  0.00     0.063 H 
ATOM     27  H   LIG d   1       9.088   2.805  -4.222  0.00  0.00     0.050 H 
ATOM     28  H   LIG d   1      10.008   1.834  -3.060  0.00  0.00     0.050 H 
ENDROOT
BRANCH   1  29
ATOM     29  C   LIG d   1       8.418   0.836  -8.723  0.00  0.00     0.165 C 
ATOM     30  H   LIG d   1       8.368   1.189  -9.752  0.00  0.00     0.080 H 
ATOM     31  H   LIG d   1       9.054  -0.049  -8.674  0.00  0.00     0.080 H 
BRANCH  29  32
ATOM     32  O   LIG d   1       7.104   0.503  -8.269  0.00  0.00    -0.483 OA
BRANCH  32  33
ATOM     33  C   LIG d   1       6.072   0.778  -9.109  0.00  0.00     0.121 A 
ATOM     34  C   LIG d   1       5.871   0.001 -10.240  0.00  0.00    -0.020 A 
ATOM     35  C   LIG d   1       4.822   0.282 -11.093  0.00  0.00    -0.058 A 
ATOM     36  H   LIG d   1       6.534  -0.825 -10.454  0.00  0.00     0.065 H 
ATOM     37  C   LIG d   1       3.972   1.339 -10.820  0.00  0.00    -0.061 A 
ATOM     38  H   LIG d   1       4.664  -0.323 -11.974  0.00  0.00     0.062 H 
ATOM     39  C   LIG d   1       4.170   2.115  -9.693  0.00  0.00    -0.058 A 
ATOM     40  H   LIG d   1       3.152   1.558 -11.488  0.00  0.00     0.062 H 
ATOM     41  C   LIG d   1       5.215   1.834  -8.834  0.00  0.00    -0.020 A 
ATOM     42  H   LIG d   1       3.505   2.939  -9.482  0.00  0.00     0.062 H 
ATOM     43  H   LIG d   1       5.367   2.438  -7.952  0.00  0.00     0.065 H 
ENDBRANCH  32  33
ENDBRANCH  29  32
ENDBRANCH   1  29
BRANCH  14  44
ATOM     44  C   LIG d   1       5.599  -0.678  -3.896  0.00  0.00    -0.012 A 
ATOM     45  C   LIG d   1       4.564  -0.116  -4.643  0.00  0.00    -0.042 A 
ATOM     46  C   LIG d   1       3.260  -0.236  -4.210  0.00  0.00     0.055 A 
ATOM     47  H   LIG d   1       4.784   0.415  -5.559  0.00  0.00     0.063 H 
ATOM     48  C   LIG d   1       2.977  -0.913  -3.037  0.00  0.00    -0.050 A 
ATOM     49  C   LIG d   1       4.000  -1.473  -2.292  0.00  0.00    -0.061 A 
ATOM     50  H   LIG d   1       1.955  -1.005  -2.702  0.00  0.00     0.062 H 
ATOM     51  C   LIG d   1       5.308  -1.364  -2.718  0.00  0.00    -0.054 A 
ATOM     52  H   LIG d   1       3.773  -2.001  -1.378  0.00  0.00     0.062 H 
ATOM     53  H   LIG d   1       6.104  -1.806  -2.138  0.00  0.00     0.062 H 
BRANCH  46  54
ATOM     54  C   LIG d   1       2.141   0.371  -5.016  0.00  0.00     0.417 C 
ATOM     55  F   LIG d   1       0.916  -0.134  -4.567  0.00  0.00    -0.166 F 
ATOM     56  F   LIG d   1       2.156   1.761  -4.863  0.00  0.00    -0.166 F 
ATOM     57  F   LIG d   1       2.311   0.049  -6.366  0.00  0.00    -0.166 F 
ENDBRANCH  46  54
ENDBRANCH  14  44
TORSDOF 5
ENDMDL
MODEL 8
REMARK VINA RESULT:      -7.4      4.188      7.404
REMARK  5 active torsions:
REMARK  status: ('A' for Active; 'I' for Inactive)
REMARK    1  A    between atoms: C_4  and  O_7 
REMARK    2  A    between atoms: O_7  and  C_8 
REMARK    3  A    between atoms: C_8  and  C_9 
REMARK       I    between atoms: C_9  and  N_11 
REMARK    4  A    between atoms: C_22  and  C_27 
REMARK    5  A    between atoms: C_31  and  C_33 
ROOT
ATOM      1  C   LIG d   1       3.458  -4.029 -10.721  0.00  0.00     0.253 C 
ATOM      2  O   LIG d   1       2.272  -4.246 -10.598  0.00  0.00    -0.272 OA
ATOM      3  N   LIG d   1       3.886  -3.092 -11.590  0.00  0.00    -0.298 N 
ATOM      4  C   LIG d   1       2.929  -2.324 -12.396  0.00  0.00     0.019 C 
ATOM      5  C   LIG d   1       3.219  -0.833 -12.279  0.00  0.00    -0.006 C 
ATOM      6  H   LIG d   1       2.641  -0.315 -13.043  0.00  0.00     0.033 H 
ATOM      7  C   LIG d   1       4.696  -0.539 -12.539  0.00  0.00    -0.037 C 
ATOM      8  C   LIG d   1       5.531  -1.311 -11.513  0.00  0.00     0.016 C 
ATOM      9  H   LIG d   1       6.586  -1.059 -11.606  0.00  0.00     0.038 H 
ATOM     10  C   LIG d   1       5.323  -2.816 -11.753  0.00  0.00     0.023 C 
ATOM     11  C   LIG d   1       5.042  -0.996 -10.117  0.00  0.00     0.027 C 
ATOM     12  C   LIG d   1       5.942  -1.116  -9.102  0.00  0.00    -0.041 C 
ATOM     13  C   LIG d   1       5.546  -0.945  -7.774  0.00  0.00    -0.047 C 
ATOM     14  C   LIG d   1       4.215  -0.660  -7.508  0.00  0.00     0.047 C 
ATOM     15  C   LIG d   1       3.317  -0.545  -8.590  0.00  0.00     0.259 C 
ATOM     16  O   LIG d   1       2.131  -0.354  -8.375  0.00  0.00    -0.267 OA
ATOM     17  N   LIG d   1       3.761  -0.638  -9.868  0.00  0.00    -0.311 N 
ATOM     18  C   LIG d   1       2.812  -0.281 -10.924  0.00  0.00     0.031 C 
ATOM     19  H   LIG d   1       3.010  -2.626 -13.440  0.00  0.00     0.047 H 
ATOM     20  H   LIG d   1       1.918  -2.522 -12.040  0.00  0.00     0.047 H 
ATOM     21  H   LIG d   1       4.882   0.529 -12.433  0.00  0.00     0.028 H 
ATOM     22  H   LIG d   1       4.963  -0.861 -13.544  0.00  0.00     0.028 H 
ATOM     23  H   LIG d   1       5.638  -3.077 -12.763  0.00  0.00     0.047 H 
ATOM     24  H   LIG d   1       5.896  -3.390 -11.026  0.00  0.00     0.047 H 
ATOM     25  H   LIG d   1       6.972  -1.345  -9.327  0.00  0.00     0.064 H 
ATOM     26  H   LIG d   1       6.263  -1.028  -6.971  0.00  0.00     0.063 H 
ATOM     27  H   LIG d   1       1.830  -0.671 -10.664  0.00  0.00     0.050 H 
ATOM     28  H   LIG d   1       2.752   0.806 -10.990  0.00  0.00     0.050 H 
ENDROOT
BRANCH   1  29
ATOM     29  C   LIG d   1       4.456  -4.808  -9.902  0.00  0.00     0.165 C 
ATOM     30  H   LIG d   1       4.685  -5.747 -10.405  0.00  0.00     0.080 H 
ATOM     31  H   LIG d   1       5.369  -4.224  -9.791  0.00  0.00     0.080 H 
BRANCH  29  32
ATOM     32  O   LIG d   1       3.904  -5.080  -8.612  0.00  0.00    -0.483 OA
BRANCH  32  33
ATOM     33  C   LIG d   1       4.703  -4.845  -7.538  0.00  0.00     0.121 A 
ATOM     34  C   LIG d   1       6.046  -4.549  -7.722  0.00  0.00    -0.020 A 
ATOM     35  C   LIG d   1       6.855  -4.311  -6.628  0.00  0.00    -0.058 A 
ATOM     36  H   LIG d   1       6.458  -4.504  -8.719  0.00  0.00     0.065 H 
ATOM     37  C   LIG d   1       6.328  -4.368  -5.351  0.00  0.00    -0.061 A 
ATOM     38  H   LIG d   1       7.901  -4.080  -6.770  0.00  0.00     0.062 H 
ATOM     39  C   LIG d   1       4.989  -4.662  -5.165  0.00  0.00    -0.058 A 
ATOM     40  H   LIG d   1       6.962  -4.182  -4.497  0.00  0.00     0.062 H 
ATOM     41  C   LIG d   1       4.175  -4.896  -6.256  0.00  0.00    -0.020 A 
ATOM     42  H   LIG d   1       4.581  -4.705  -4.167  0.00  0.00     0.062 H 
ATOM     43  H   LIG d   1       3.129  -5.122  -6.111  0.00  0.00     0.065 H 
ENDBRANCH  32  33
ENDBRANCH  29  32
ENDBRANCH   1  29
BRANCH  14  44
ATOM     44  C   LIG d   1       3.745  -0.487  -6.113  0.00  0.00    -0.012 A 
ATOM     45  C   LIG d   1       4.326  -1.225  -5.082  0.00  0.00    -0.042 A 
ATOM     46  C   LIG d   1       3.885  -1.059  -3.786  0.00  0.00     0.055 A 
ATOM     47  H   LIG d   1       5.118  -1.927  -5.299  0.00  0.00     0.063 H 
ATOM     48  C   LIG d   1       2.869  -0.161  -3.506  0.00  0.00    -0.050 A 
ATOM     49  C   LIG d   1       2.290   0.574  -4.526  0.00  0.00    -0.061 A 
ATOM     50  H   LIG d   1       2.528  -0.034  -2.491  0.00  0.00     0.062 H 
ATOM     51  C   LIG d   1       2.726   0.420  -5.826  0.00  0.00    -0.054 A 
ATOM     52  H   LIG d   1       1.498   1.273  -4.302  0.00  0.00     0.062 H 
ATOM     53  H   LIG d   1       2.276   0.998  -6.619  0.00  0.00     0.062 H 
BRANCH  46  54
ATOM     54  C   LIG d   1       4.511  -1.855  -2.670  0.00  0.00     0.417 C 
ATOM     55  F   LIG d   1       3.836  -3.072  -2.530  0.00  0.00    -0.166 F 
ATOM     56  F   LIG d   1       5.855  -2.099  -2.968  0.00  0.00    -0.166 F 
ATOM     57  F   LIG d   1       4.422  -1.133  -1.475  0.00  0.00    -0.166 F 
ENDBRANCH  46  54
ENDBRANCH  14  44
TORSDOF 5
ENDMDL
MODEL 9
REMARK VINA RESULT:      -7.2      4.369      7.540
REMARK  5 active torsions:
REMARK  status: ('A' for Active; 'I' for Inactive)
REMARK    1  A    between atoms: C_4  and  O_7 
REMARK    2  A    between atoms: O_7  and  C_8 
REMARK    3  A    between atoms: C_8  and  C_9 
REMARK       I    between atoms: C_9  and  N_11 
REMARK    4  A    between atoms: C_22  and  C_27 
REMARK    5  A    between atoms: C_31  and  C_33 
ROOT
ATOM      1  C   LIG d   1       3.977   0.142  -7.654  0.00  0.00     0.253 C 
ATOM      2  O   LIG d   1       4.847   0.986  -7.631  0.00  0.00    -0.272 OA
ATOM      3  N   LIG d   1       3.760  -0.573  -8.776  0.00  0.00    -0.298 N 
ATOM      4  C   LIG d   1       4.567  -0.343  -9.980  0.00  0.00     0.019 C 
ATOM      5  C   LIG d   1       5.112  -1.662 -10.509  0.00  0.00    -0.006 C 
ATOM      6  H   LIG d   1       5.517  -1.486 -11.505  0.00  0.00     0.033 H 
ATOM      7  C   LIG d   1       4.000  -2.702 -10.641  0.00  0.00    -0.037 C 
ATOM      8  C   LIG d   1       3.372  -2.918  -9.261  0.00  0.00     0.016 C 
ATOM      9  H   LIG d   1       2.634  -3.718  -9.293  0.00  0.00     0.038 H 
ATOM     10  C   LIG d   1       2.708  -1.602  -8.820  0.00  0.00     0.023 C 
ATOM     11  C   LIG d   1       4.452  -3.247  -8.256  0.00  0.00     0.027 C 
ATOM     12  C   LIG d   1       4.087  -3.985  -7.172  0.00  0.00    -0.041 C 
ATOM     13  C   LIG d   1       4.998  -4.245  -6.146  0.00  0.00    -0.047 C 
ATOM     14  C   LIG d   1       6.280  -3.727  -6.248  0.00  0.00     0.047 C 
ATOM     15  C   LIG d   1       6.616  -2.967  -7.389  0.00  0.00     0.259 C 
ATOM     16  O   LIG d   1       7.719  -2.453  -7.471  0.00  0.00    -0.267 OA
ATOM     17  N   LIG d   1       5.725  -2.809  -8.398  0.00  0.00    -0.311 N 
ATOM     18  C   LIG d   1       6.227  -2.208  -9.635  0.00  0.00     0.031 C 
ATOM     19  H   LIG d   1       3.949   0.125 -10.745  0.00  0.00     0.047 H 
ATOM     20  H   LIG d   1       5.400   0.318  -9.735  0.00  0.00     0.047 H 
ATOM     21  H   LIG d   1       4.416  -3.641 -11.005  0.00  0.00     0.028 H 
ATOM     22  H   LIG d   1       3.241  -2.342 -11.336  0.00  0.00     0.028 H 
ATOM     23  H   LIG d   1       1.941  -1.315  -9.539  0.00  0.00     0.047 H 
ATOM     24  H   LIG d   1       2.265  -1.723  -7.833  0.00  0.00     0.047 H 
ATOM     25  H   LIG d   1       3.083  -4.374  -7.105  0.00  0.00     0.064 H 
ATOM     26  H   LIG d   1       4.711  -4.840  -5.292  0.00  0.00     0.063 H 
ATOM     27  H   LIG d   1       6.907  -1.395  -9.382  0.00  0.00     0.050 H 
ATOM     28  H   LIG d   1       6.778  -2.963 -10.196  0.00  0.00     0.050 H 
ENDROOT
BRANCH   1  29
ATOM     29  C   LIG d   1       3.138  -0.109  -6.427  0.00  0.00     0.165 C 
ATOM     30  H   LIG d   1       2.112   0.201  -6.619  0.00  0.00     0.080 H 
ATOM     31  H   LIG d   1       3.157  -1.171  -6.185  0.00  0.00     0.080 H 
BRANCH  29  32
ATOM     32  O   LIG d   1       3.665   0.639  -5.329  0.00  0.00    -0.483 OA
BRANCH  32  33
ATOM     33  C   LIG d   1       3.905  -0.041  -4.178  0.00  0.00     0.121 A 
ATOM     34  C   LIG d   1       3.876  -1.428  -4.171  0.00  0.00    -0.020 A 
ATOM     35  C   LIG d   1       4.121  -2.117  -2.999  0.00  0.00    -0.058 A 
ATOM     36  H   LIG d   1       3.662  -1.969  -5.081  0.00  0.00     0.065 H 
ATOM     37  C   LIG d   1       4.395  -1.425  -1.833  0.00  0.00    -0.061 A 
ATOM     38  H   LIG d   1       4.098  -3.197  -2.993  0.00  0.00     0.062 H 
ATOM     39  C   LIG d   1       4.426  -0.043  -1.838  0.00  0.00    -0.058 A 
ATOM     40  H   LIG d   1       4.586  -1.966  -0.918  0.00  0.00     0.062 H 
ATOM     41  C   LIG d   1       4.187   0.651  -3.008  0.00  0.00    -0.020 A 
ATOM     42  H   LIG d   1       4.641   0.494  -0.926  0.00  0.00     0.062 H 
ATOM     43  H   LIG d   1       4.215   1.730  -3.012  0.00  0.00     0.065 H 
ENDBRANCH  32  33
ENDBRANCH  29  32
ENDBRANCH   1  29
BRANCH  14  44
ATOM     44  C   LIG d   1       7.276  -3.962  -5.176  0.00  0.00    -0.012 A 
ATOM     45  C   LIG d   1       7.960  -5.175  -5.109  0.00  0.00    -0.042 A 
ATOM     46  C   LIG d   1       8.886  -5.387  -4.109  0.00  0.00     0.055 A 
ATOM     47  H   LIG d   1       7.762  -5.949  -5.837  0.00  0.00     0.063 H 
ATOM     48  C   LIG d   1       9.140  -4.399  -3.175  0.00  0.00    -0.050 A 
ATOM     49  C   LIG d   1       8.464  -3.192  -3.237  0.00  0.00    -0.061 A 
ATOM     50  H   LIG d   1       9.865  -4.569  -2.395  0.00  0.00     0.062 H 
ATOM     51  C   LIG d   1       7.539  -2.967  -4.235  0.00  0.00    -0.054 A 
ATOM     52  H   LIG d   1       8.666  -2.424  -2.505  0.00  0.00     0.062 H 
ATOM     53  H   LIG d   1       7.017  -2.022  -4.285  0.00  0.00     0.062 H 
BRANCH  46  54
ATOM     54  C   LIG d   1       9.626  -6.698  -4.035  0.00  0.00     0.417 C 
ATOM     55  F   LIG d   1      10.231  -6.963  -5.267  0.00  0.00    -0.166 F 
ATOM     56  F   LIG d   1      10.606  -6.626  -3.040  0.00  0.00    -0.166 F 
ATOM     57  F   LIG d   1       8.726  -7.724  -3.727  0.00  0.00    -0.166 F 
ENDBRANCH  46  54
ENDBRANCH  14  44
TORSDOF 5
ENDMDL
