MODEL 1
REMARK VINA RESULT:      -7.5      0.000      0.000
REMARK  5 active torsions:
REMARK  status: ('A' for Active; 'I' for Inactive)
REMARK    1  A    between atoms: C_7  and  C_13 
REMARK    2  A    between atoms: C_13  and  O_15 
REMARK    3  A    between atoms: O_15  and  C_16 
REMARK    4  A    between atoms: C_16  and  C_17 
REMARK    5  A    between atoms: C_21  and  N_23 
ROOT
ATOM      1  C   LIG d   1       7.980   1.639  -4.337  0.00  0.00     0.340 C 
ATOM      2  O   LIG d   1       7.742   2.230  -5.370  0.00  0.00    -0.245 OA
ENDROOT
BRANCH   1   3
ATOM      3  C   LIG d   1       7.516   0.243  -4.157  0.00  0.00     0.073 A 
ATOM      4  C   LIG d   1       6.319  -0.054  -3.356  0.00  0.00     0.013 A 
ATOM      5  C   LIG d   1       5.902  -1.388  -3.203  0.00  0.00     0.050 A 
ATOM      6  C   LIG d   1       5.595   0.975  -2.746  0.00  0.00    -0.052 A 
ATOM      7  C   LIG d   1       4.768  -1.666  -2.443  0.00  0.00    -0.038 A 
ATOM      8  N   LIG d   1       6.610  -2.409  -3.800  0.00  0.00    -0.322 N 
ATOM      9  C   LIG d   1       4.071  -0.635  -1.852  0.00  0.00    -0.060 A 
ATOM     10  H   LIG d   1       4.437  -2.686  -2.318  0.00  0.00     0.064 H 
ATOM     11  C   LIG d   1       4.486   0.680  -2.004  0.00  0.00    -0.061 A 
ATOM     12  H   LIG d   1       3.192  -0.854  -1.262  0.00  0.00     0.062 H 
ATOM     13  H   LIG d   1       3.927   1.477  -1.538  0.00  0.00     0.062 H 
ATOM     14  C   LIG d   1       7.706  -2.162  -4.538  0.00  0.00     0.250 A 
ATOM     15  H   LIG d   1       6.310  -3.324  -3.686  0.00  0.00     0.169 HD
ATOM     16  C   LIG d   1       8.190  -0.796  -4.733  0.00  0.00     0.017 A 
ATOM     17  O   LIG d   1       8.306  -3.090  -5.050  0.00  0.00    -0.268 OA
ATOM     18  H   LIG d   1       9.071  -0.611  -5.328  0.00  0.00     0.068 H 
ATOM     19  H   LIG d   1       5.913   2.001  -2.860  0.00  0.00     0.062 H 
ENDBRANCH   1   3
BRANCH   1  20
ATOM     20  O   LIG d   1       8.668   2.251  -3.355  0.00  0.00    -0.456 OA
BRANCH  20  21
ATOM     21  C   LIG d   1       9.925   2.834  -3.709  0.00  0.00     0.118 C 
ATOM     22  H   LIG d   1      10.705   2.434  -3.062  0.00  0.00     0.075 H 
ATOM     23  H   LIG d   1      10.157   2.596  -4.747  0.00  0.00     0.075 H 
BRANCH  21  24
ATOM     24  C   LIG d   1       9.851   4.329  -3.541  0.00  0.00    -0.004 A 
ATOM     25  C   LIG d   1       9.991   4.892  -2.286  0.00  0.00     0.022 A 
ATOM     26  C   LIG d   1       9.927   6.264  -2.133  0.00  0.00     0.274 A 
ATOM     27  H   LIG d   1      10.153   4.259  -1.426  0.00  0.00     0.069 H 
ATOM     28  C   LIG d   1       9.714   7.073  -3.233  0.00  0.00     0.016 A 
ATOM     29  C   LIG d   1       9.569   6.511  -4.488  0.00  0.00    -0.055 A 
ATOM     30  H   LIG d   1       9.661   8.146  -3.113  0.00  0.00     0.069 H 
ATOM     31  C   LIG d   1       9.637   5.139  -4.641  0.00  0.00    -0.055 A 
ATOM     32  H   LIG d   1       9.402   7.143  -5.347  0.00  0.00     0.062 H 
ATOM     33  H   LIG d   1       9.523   4.699  -5.622  0.00  0.00     0.062 H 
BRANCH  26  34
ATOM     34  N   LIG d   1      10.082   6.868  -0.791  0.00  0.00     0.080 N 
ATOM     35  O   LIG d   1       9.902   8.052  -0.635  0.00  0.00     0.041 OA
ATOM     36  O   LIG d   1      10.390   6.174   0.151  0.00  0.00    -0.576 OA
ENDBRANCH  26  34
ENDBRANCH  21  24
ENDBRANCH  20  21
ENDBRANCH   1  20
TORSDOF 5
ENDMDL
MODEL 2
REMARK VINA RESULT:      -7.4      5.205      7.332
REMARK  5 active torsions:
REMARK  status: ('A' for Active; 'I' for Inactive)
REMARK    1  A    between atoms: C_7  and  C_13 
REMARK    2  A    between atoms: C_13  and  O_15 
REMARK    3  A    between atoms: O_15  and  C_16 
REMARK    4  A    between atoms: C_16  and  C_17 
REMARK    5  A    between atoms: C_21  and  N_23 
ROOT
ATOM      1  C   LIG d   1       7.158  -0.156  -5.954  0.00  0.00     0.340 C 
ATOM      2  O   LIG d   1       8.322  -0.475  -5.823  0.00  0.00    -0.245 OA
ENDROOT
BRANCH   1   3
ATOM      3  C   LIG d   1       6.091  -0.976  -5.332  0.00  0.00     0.073 A 
ATOM      4  C   LIG d   1       5.442  -0.544  -4.084  0.00  0.00     0.013 A 
ATOM      5  C   LIG d   1       4.433  -1.342  -3.518  0.00  0.00     0.050 A 
ATOM      6  C   LIG d   1       5.821   0.647  -3.458  0.00  0.00    -0.052 A 
ATOM      7  C   LIG d   1       3.821  -0.932  -2.337  0.00  0.00    -0.038 A 
ATOM      8  N   LIG d   1       4.053  -2.519  -4.129  0.00  0.00    -0.322 N 
ATOM      9  C   LIG d   1       4.210   0.246  -1.737  0.00  0.00    -0.060 A 
ATOM     10  H   LIG d   1       3.044  -1.535  -1.891  0.00  0.00     0.064 H 
ATOM     11  C   LIG d   1       5.208   1.030  -2.299  0.00  0.00    -0.061 A 
ATOM     12  H   LIG d   1       3.734   0.562  -0.820  0.00  0.00     0.062 H 
ATOM     13  H   LIG d   1       5.499   1.953  -1.819  0.00  0.00     0.062 H 
ATOM     14  C   LIG d   1       4.631  -2.933  -5.270  0.00  0.00     0.250 A 
ATOM     15  H   LIG d   1       3.355  -3.059  -3.727  0.00  0.00     0.169 HD
ATOM     16  C   LIG d   1       5.687  -2.147  -5.906  0.00  0.00     0.017 A 
ATOM     17  O   LIG d   1       4.270  -3.978  -5.780  0.00  0.00    -0.268 OA
ATOM     18  H   LIG d   1       6.143  -2.490  -6.823  0.00  0.00     0.068 H 
ATOM     19  H   LIG d   1       6.597   1.262  -3.889  0.00  0.00     0.062 H 
ENDBRANCH   1   3
BRANCH   1  20
ATOM     20  O   LIG d   1       6.837   0.942  -6.662  0.00  0.00    -0.456 OA
BRANCH  20  21
ATOM     21  C   LIG d   1       6.873   0.829  -8.087  0.00  0.00     0.118 C 
ATOM     22  H   LIG d   1       7.539   1.589  -8.495  0.00  0.00     0.075 H 
ATOM     23  H   LIG d   1       7.237  -0.160  -8.364  0.00  0.00     0.075 H 
BRANCH  21  24
ATOM     24  C   LIG d   1       5.486   1.028  -8.642  0.00  0.00    -0.004 A 
ATOM     25  C   LIG d   1       4.611  -0.040  -8.711  0.00  0.00     0.022 A 
ATOM     26  C   LIG d   1       3.337   0.142  -9.217  0.00  0.00     0.274 A 
ATOM     27  H   LIG d   1       4.921  -1.015  -8.367  0.00  0.00     0.069 H 
ATOM     28  C   LIG d   1       2.942   1.390  -9.662  0.00  0.00     0.016 A 
ATOM     29  C   LIG d   1       3.820   2.457  -9.598  0.00  0.00    -0.055 A 
ATOM     30  H   LIG d   1       1.948   1.533 -10.061  0.00  0.00     0.069 H 
ATOM     31  C   LIG d   1       5.091   2.275  -9.088  0.00  0.00    -0.055 A 
ATOM     32  H   LIG d   1       3.512   3.431  -9.946  0.00  0.00     0.062 H 
ATOM     33  H   LIG d   1       5.777   3.109  -9.039  0.00  0.00     0.062 H 
BRANCH  26  34
ATOM     34  N   LIG d   1       2.397  -0.998  -9.286  0.00  0.00     0.080 N 
ATOM     35  O   LIG d   1       2.745  -2.093  -8.911  0.00  0.00     0.041 OA
ATOM     36  O   LIG d   1       1.279  -0.834  -9.719  0.00  0.00    -0.576 OA
ENDBRANCH  26  34
ENDBRANCH  21  24
ENDBRANCH  20  21
ENDBRANCH   1  20
TORSDOF 5
ENDMDL
MODEL 3
REMARK VINA RESULT:      -7.2      6.298      8.961
REMARK  5 active torsions:
REMARK  status: ('A' for Active; 'I' for Inactive)
REMARK    1  A    between atoms: C_7  and  C_13 
REMARK    2  A    between atoms: C_13  and  O_15 
REMARK    3  A    between atoms: O_15  and  C_16 
REMARK    4  A    between atoms: C_16  and  C_17 
REMARK    5  A    between atoms: C_21  and  N_23 
ROOT
ATOM      1  C   LIG d   1       4.302   0.269  -6.974  0.00  0.00     0.340 C 
ATOM      2  O   LIG d   1       5.342   0.791  -7.320  0.00  0.00    -0.245 OA
ENDROOT
BRANCH   1   3
ATOM      3  C   LIG d   1       4.328  -1.013  -6.229  0.00  0.00     0.073 A 
ATOM      4  C   LIG d   1       4.222  -1.032  -4.762  0.00  0.00     0.013 A 
ATOM      5  C   LIG d   1       4.249  -2.263  -4.083  0.00  0.00     0.050 A 
ATOM      6  C   LIG d   1       4.097   0.159  -4.040  0.00  0.00    -0.052 A 
ATOM      7  C   LIG d   1       4.149  -2.278  -2.694  0.00  0.00    -0.038 A 
ATOM      8  N   LIG d   1       4.373  -3.442  -4.787  0.00  0.00    -0.322 N 
ATOM      9  C   LIG d   1       4.025  -1.092  -2.003  0.00  0.00    -0.060 A 
ATOM     10  H   LIG d   1       4.168  -3.216  -2.160  0.00  0.00     0.064 H 
ATOM     11  C   LIG d   1       4.000   0.121  -2.678  0.00  0.00    -0.061 A 
ATOM     12  H   LIG d   1       3.949  -1.107  -0.926  0.00  0.00     0.062 H 
ATOM     13  H   LIG d   1       3.900   1.041  -2.123  0.00  0.00     0.062 H 
ATOM     14  C   LIG d   1       4.470  -3.449  -6.128  0.00  0.00     0.250 A 
ATOM     15  H   LIG d   1       4.389  -4.283  -4.305  0.00  0.00     0.169 HD
ATOM     16  C   LIG d   1       4.449  -2.202  -6.890  0.00  0.00     0.017 A 
ATOM     17  O   LIG d   1       4.579  -4.510  -6.715  0.00  0.00    -0.268 OA
ATOM     18  H   LIG d   1       4.528  -2.221  -7.967  0.00  0.00     0.068 H 
ATOM     19  H   LIG d   1       4.077   1.106  -4.558  0.00  0.00     0.062 H 
ENDBRANCH   1   3
BRANCH   1  20
ATOM     20  O   LIG d   1       3.126   0.853  -7.267  0.00  0.00    -0.456 OA
BRANCH  20  21
ATOM     21  C   LIG d   1       3.091   1.702  -8.416  0.00  0.00     0.118 C 
ATOM     22  H   LIG d   1       2.188   2.312  -8.390  0.00  0.00     0.075 H 
ATOM     23  H   LIG d   1       3.967   2.351  -8.416  0.00  0.00     0.075 H 
BRANCH  21  24
ATOM     24  C   LIG d   1       3.091   0.858  -9.665  0.00  0.00    -0.004 A 
ATOM     25  C   LIG d   1       2.172  -0.164  -9.808  0.00  0.00     0.022 A 
ATOM     26  C   LIG d   1       2.170  -0.936 -10.955  0.00  0.00     0.274 A 
ATOM     27  H   LIG d   1       1.454  -0.357  -9.025  0.00  0.00     0.069 H 
ATOM     28  C   LIG d   1       3.093  -0.691 -11.954  0.00  0.00     0.016 A 
ATOM     29  C   LIG d   1       4.016   0.328 -11.809  0.00  0.00    -0.055 A 
ATOM     30  H   LIG d   1       3.093  -1.296 -12.850  0.00  0.00     0.069 H 
ATOM     31  C   LIG d   1       4.015   1.102 -10.664  0.00  0.00    -0.055 A 
ATOM     32  H   LIG d   1       4.737   0.519 -12.589  0.00  0.00     0.062 H 
ATOM     33  H   LIG d   1       4.737   1.898 -10.550  0.00  0.00     0.062 H 
BRANCH  26  34
ATOM     34  N   LIG d   1       1.182  -2.027 -11.112  0.00  0.00     0.080 N 
ATOM     35  O   LIG d   1       0.517  -2.100 -12.118  0.00  0.00     0.041 OA
ATOM     36  O   LIG d   1       1.041  -2.844 -10.232  0.00  0.00    -0.576 OA
ENDBRANCH  26  34
ENDBRANCH  21  24
ENDBRANCH  20  21
ENDBRANCH   1  20
TORSDOF 5
ENDMDL
MODEL 4
REMARK VINA RESULT:      -7.2      4.494      7.576
REMARK  5 active torsions:
REMARK  status: ('A' for Active; 'I' for Inactive)
REMARK    1  A    between atoms: C_7  and  C_13 
REMARK    2  A    between atoms: C_13  and  O_15 
REMARK    3  A    between atoms: O_15  and  C_16 
REMARK    4  A    between atoms: C_16  and  C_17 
REMARK    5  A    between atoms: C_21  and  N_23 
ROOT
ATOM      1  C   LIG d   1       5.985  -3.032  -5.263  0.00  0.00     0.340 C 
ATOM      2  O   LIG d   1       6.717  -3.924  -4.886  0.00  0.00    -0.245 OA
ENDROOT
BRANCH   1   3
ATOM      3  C   LIG d   1       6.312  -1.621  -4.947  0.00  0.00     0.073 A 
ATOM      4  C   LIG d   1       5.684  -0.941  -3.804  0.00  0.00     0.013 A 
ATOM      5  C   LIG d   1       6.015   0.398  -3.530  0.00  0.00     0.050 A 
ATOM      6  C   LIG d   1       4.763  -1.610  -2.993  0.00  0.00    -0.052 A 
ATOM      7  C   LIG d   1       5.418   1.040  -2.447  0.00  0.00    -0.038 A 
ATOM      8  N   LIG d   1       6.921   1.067  -4.324  0.00  0.00    -0.322 N 
ATOM      9  C   LIG d   1       4.513   0.360  -1.661  0.00  0.00    -0.060 A 
ATOM     10  H   LIG d   1       5.663   2.068  -2.225  0.00  0.00     0.064 H 
ATOM     11  C   LIG d   1       4.189  -0.961  -1.937  0.00  0.00    -0.061 A 
ATOM     12  H   LIG d   1       4.051   0.861  -0.823  0.00  0.00     0.062 H 
ATOM     13  H   LIG d   1       3.481  -1.482  -1.310  0.00  0.00     0.062 H 
ATOM     14  C   LIG d   1       7.509   0.465  -5.373  0.00  0.00     0.250 A 
ATOM     15  H   LIG d   1       7.140   1.990  -4.122  0.00  0.00     0.169 HD
ATOM     16  C   LIG d   1       7.205  -0.925  -5.710  0.00  0.00     0.017 A 
ATOM     17  O   LIG d   1       8.305   1.088  -6.053  0.00  0.00    -0.268 OA
ATOM     18  H   LIG d   1       7.685  -1.397  -6.555  0.00  0.00     0.068 H 
ATOM     19  H   LIG d   1       4.505  -2.638  -3.202  0.00  0.00     0.062 H 
ENDBRANCH   1   3
BRANCH   1  20
ATOM     20  O   LIG d   1       4.876  -3.324  -5.968  0.00  0.00    -0.456 OA
BRANCH  20  21
ATOM     21  C   LIG d   1       4.981  -3.276  -7.393  0.00  0.00     0.118 C 
ATOM     22  H   LIG d   1       5.990  -2.973  -7.672  0.00  0.00     0.075 H 
ATOM     23  H   LIG d   1       4.771  -4.263  -7.806  0.00  0.00     0.075 H 
BRANCH  21  24
ATOM     24  C   LIG d   1       3.989  -2.282  -7.938  0.00  0.00    -0.004 A 
ATOM     25  C   LIG d   1       3.872  -1.033  -7.356  0.00  0.00     0.022 A 
ATOM     26  C   LIG d   1       2.964  -0.119  -7.858  0.00  0.00     0.274 A 
ATOM     27  H   LIG d   1       4.492  -0.771  -6.511  0.00  0.00     0.069 H 
ATOM     28  C   LIG d   1       2.168  -0.457  -8.936  0.00  0.00     0.016 A 
ATOM     29  C   LIG d   1       2.281  -1.708  -9.515  0.00  0.00    -0.055 A 
ATOM     30  H   LIG d   1       1.456   0.256  -9.327  0.00  0.00     0.069 H 
ATOM     31  C   LIG d   1       3.192  -2.619  -9.015  0.00  0.00    -0.055 A 
ATOM     32  H   LIG d   1       1.658  -1.972 -10.356  0.00  0.00     0.062 H 
ATOM     33  H   LIG d   1       3.279  -3.597  -9.467  0.00  0.00     0.062 H 
BRANCH  26  34
ATOM     34  N   LIG d   1       2.843   1.220  -7.240  0.00  0.00     0.080 N 
ATOM     35  O   LIG d   1       2.793   2.206  -7.937  0.00  0.00     0.041 OA
ATOM     36  O   LIG d   1       2.793   1.327  -6.036  0.00  0.00    -0.576 OA
ENDBRANCH  26  34
ENDBRANCH  21  24
ENDBRANCH  20  21
ENDBRANCH   1  20
TORSDOF 5
ENDMDL
MODEL 5
REMARK VINA RESULT:      -7.1      5.555      7.700
REMARK  5 active torsions:
REMARK  status: ('A' for Active; 'I' for Inactive)
REMARK    1  A    between atoms: C_7  and  C_13 
REMARK    2  A    between atoms: C_13  and  O_15 
REMARK    3  A    between atoms: O_15  and  C_16 
REMARK    4  A    between atoms: C_16  and  C_17 
REMARK    5  A    between atoms: C_21  and  N_23 
ROOT
ATOM      1  C   LIG d   1       5.136  -2.356  -7.996  0.00  0.00     0.340 C 
ATOM      2  O   LIG d   1       5.420  -3.180  -8.841  0.00  0.00    -0.245 OA
ENDROOT
BRANCH   1   3
ATOM      3  C   LIG d   1       5.600  -0.955  -8.141  0.00  0.00     0.073 A 
ATOM      4  C   LIG d   1       4.674   0.102  -8.575  0.00  0.00     0.013 A 
ATOM      5  C   LIG d   1       5.142   1.422  -8.703  0.00  0.00     0.050 A 
ATOM      6  C   LIG d   1       3.338  -0.193  -8.863  0.00  0.00    -0.052 A 
ATOM      7  C   LIG d   1       4.263   2.420  -9.116  0.00  0.00    -0.038 A 
ATOM      8  N   LIG d   1       6.458   1.722  -8.423  0.00  0.00    -0.322 N 
ATOM      9  C   LIG d   1       2.951   2.106  -9.393  0.00  0.00    -0.060 A 
ATOM     10  H   LIG d   1       4.610   3.438  -9.218  0.00  0.00     0.064 H 
ATOM     11  C   LIG d   1       2.493   0.802  -9.266  0.00  0.00    -0.061 A 
ATOM     12  H   LIG d   1       2.272   2.883  -9.713  0.00  0.00     0.062 H 
ATOM     13  H   LIG d   1       1.461   0.572  -9.484  0.00  0.00     0.062 H 
ATOM     14  C   LIG d   1       7.322   0.773  -8.023  0.00  0.00     0.250 A 
ATOM     15  H   LIG d   1       6.767   2.637  -8.515  0.00  0.00     0.169 HD
ATOM     16  C   LIG d   1       6.895  -0.617  -7.872  0.00  0.00     0.017 A 
ATOM     17  O   LIG d   1       8.477   1.076  -7.784  0.00  0.00    -0.268 OA
ATOM     18  H   LIG d   1       7.599  -1.371  -7.549  0.00  0.00     0.068 H 
ATOM     19  H   LIG d   1       2.975  -1.206  -8.767  0.00  0.00     0.062 H 
ENDBRANCH   1   3
BRANCH   1  20
ATOM     20  O   LIG d   1       4.400  -2.714  -6.928  0.00  0.00    -0.456 OA
BRANCH  20  21
ATOM     21  C   LIG d   1       5.107  -3.013  -5.722  0.00  0.00     0.118 C 
ATOM     22  H   LIG d   1       5.000  -4.073  -5.491  0.00  0.00     0.075 H 
ATOM     23  H   LIG d   1       6.163  -2.775  -5.852  0.00  0.00     0.075 H 
BRANCH  21  24
ATOM     24  C   LIG d   1       4.544  -2.193  -4.591  0.00  0.00    -0.004 A 
ATOM     25  C   LIG d   1       4.158  -0.884  -4.812  0.00  0.00     0.022 A 
ATOM     26  C   LIG d   1       3.638  -0.132  -3.775  0.00  0.00     0.274 A 
ATOM     27  H   LIG d   1       4.262  -0.450  -5.795  0.00  0.00     0.069 H 
ATOM     28  C   LIG d   1       3.511  -0.687  -2.516  0.00  0.00     0.016 A 
ATOM     29  C   LIG d   1       3.901  -1.995  -2.293  0.00  0.00    -0.055 A 
ATOM     30  H   LIG d   1       3.106  -0.099  -1.704  0.00  0.00     0.069 H 
ATOM     31  C   LIG d   1       4.417  -2.747  -3.331  0.00  0.00    -0.055 A 
ATOM     32  H   LIG d   1       3.802  -2.427  -1.309  0.00  0.00     0.062 H 
ATOM     33  H   LIG d   1       4.723  -3.768  -3.156  0.00  0.00     0.062 H 
BRANCH  26  34
ATOM     34  N   LIG d   1       3.219   1.267  -4.012  0.00  0.00     0.080 N 
ATOM     35  O   LIG d   1       3.565   2.139  -3.251  0.00  0.00     0.041 OA
ATOM     36  O   LIG d   1       2.531   1.538  -4.970  0.00  0.00    -0.576 OA
ENDBRANCH  26  34
ENDBRANCH  21  24
ENDBRANCH  20  21
ENDBRANCH   1  20
TORSDOF 5
ENDMDL
MODEL 6
REMARK VINA RESULT:      -7.0      6.185      8.906
REMARK  5 active torsions:
REMARK  status: ('A' for Active; 'I' for Inactive)
REMARK    1  A    between atoms: C_7  and  C_13 
REMARK    2  A    between atoms: C_13  and  O_15 
REMARK    3  A    between atoms: O_15  and  C_16 
REMARK    4  A    between atoms: C_16  and  C_17 
REMARK    5  A    between atoms: C_21  and  N_23 
ROOT
ATOM      1  C   LIG d   1       4.141  -0.093  -6.850  0.00  0.00     0.340 C 
ATOM      2  O   LIG d   1       5.101   0.550  -7.222  0.00  0.00    -0.245 OA
ENDROOT
BRANCH   1   3
ATOM      3  C   LIG d   1       4.319  -1.197  -5.877  0.00  0.00     0.073 A 
ATOM      4  C   LIG d   1       4.279  -0.938  -4.430  0.00  0.00     0.013 A 
ATOM      5  C   LIG d   1       4.451  -2.005  -3.532  0.00  0.00     0.050 A 
ATOM      6  C   LIG d   1       4.074   0.356  -3.942  0.00  0.00    -0.052 A 
ATOM      7  C   LIG d   1       4.413  -1.756  -2.162  0.00  0.00    -0.038 A 
ATOM      8  N   LIG d   1       4.655  -3.284  -4.003  0.00  0.00    -0.322 N 
ATOM      9  C   LIG d   1       4.209  -0.473  -1.704  0.00  0.00    -0.060 A 
ATOM     10  H   LIG d   1       4.544  -2.567  -1.460  0.00  0.00     0.064 H 
ATOM     11  C   LIG d   1       4.040   0.578  -2.595  0.00  0.00    -0.061 A 
ATOM     12  H   LIG d   1       4.181  -0.283  -0.640  0.00  0.00     0.062 H 
ATOM     13  H   LIG d   1       3.878   1.577  -2.221  0.00  0.00     0.062 H 
ATOM     14  C   LIG d   1       4.695  -3.546  -5.322  0.00  0.00     0.250 A 
ATOM     15  H   LIG d   1       4.772  -4.011  -3.372  0.00  0.00     0.169 HD
ATOM     16  C   LIG d   1       4.523  -2.478  -6.305  0.00  0.00     0.017 A 
ATOM     17  O   LIG d   1       4.877  -4.688  -5.701  0.00  0.00    -0.268 OA
ATOM     18  H   LIG d   1       4.556  -2.701  -7.361  0.00  0.00     0.068 H 
ATOM     19  H   LIG d   1       3.942   1.179  -4.629  0.00  0.00     0.062 H 
ENDBRANCH   1   3
BRANCH   1  20
ATOM     20  O   LIG d   1       2.914   0.198  -7.321  0.00  0.00    -0.456 OA
BRANCH  20  21
ATOM     21  C   LIG d   1       2.840   1.091  -8.434  0.00  0.00     0.118 C 
ATOM     22  H   LIG d   1       2.005   1.777  -8.295  0.00  0.00     0.075 H 
ATOM     23  H   LIG d   1       3.768   1.659  -8.507  0.00  0.00     0.075 H 
BRANCH  21  24
ATOM     24  C   LIG d   1       2.635   0.300  -9.701  0.00  0.00    -0.004 A 
ATOM     25  C   LIG d   1       3.625   0.271 -10.665  0.00  0.00     0.022 A 
ATOM     26  C   LIG d   1       3.439  -0.457 -11.825  0.00  0.00     0.274 A 
ATOM     27  H   LIG d   1       4.545   0.815 -10.510  0.00  0.00     0.069 H 
ATOM     28  C   LIG d   1       2.259  -1.149 -12.025  0.00  0.00     0.016 A 
ATOM     29  C   LIG d   1       1.266  -1.116 -11.062  0.00  0.00    -0.055 A 
ATOM     30  H   LIG d   1       2.112  -1.716 -12.933  0.00  0.00     0.069 H 
ATOM     31  C   LIG d   1       1.455  -0.391  -9.901  0.00  0.00    -0.055 A 
ATOM     32  H   LIG d   1       0.344  -1.656 -11.219  0.00  0.00     0.062 H 
ATOM     33  H   LIG d   1       0.679  -0.365  -9.150  0.00  0.00     0.062 H 
BRANCH  26  34
ATOM     34  N   LIG d   1       4.500  -0.494 -12.855  0.00  0.00     0.080 N 
ATOM     35  O   LIG d   1       4.208  -0.447 -14.027  0.00  0.00     0.041 OA
ATOM     36  O   LIG d   1       5.661  -0.570 -12.523  0.00  0.00    -0.576 OA
ENDBRANCH  26  34
ENDBRANCH  21  24
ENDBRANCH  20  21
ENDBRANCH   1  20
TORSDOF 5
ENDMDL
MODEL 7
REMARK VINA RESULT:      -7.0      5.327      7.714
REMARK  5 active torsions:
REMARK  status: ('A' for Active; 'I' for Inactive)
REMARK    1  A    between atoms: C_7  and  C_13 
REMARK    2  A    between atoms: C_13  and  O_15 
REMARK    3  A    between atoms: O_15  and  C_16 
REMARK    4  A    between atoms: C_16  and  C_17 
REMARK    5  A    between atoms: C_21  and  N_23 
ROOT
ATOM      1  C   LIG d   1       4.705  -3.813  -5.374  0.00  0.00     0.340 C 
ATOM      2  O   LIG d   1       4.680  -4.936  -4.914  0.00  0.00    -0.245 OA
ENDROOT
BRANCH   1   3
ATOM      3  C   LIG d   1       5.590  -2.786  -4.774  0.00  0.00     0.073 A 
ATOM      4  C   LIG d   1       5.049  -1.768  -3.861  0.00  0.00     0.013 A 
ATOM      5  C   LIG d   1       5.913  -0.807  -3.307  0.00  0.00     0.050 A 
ATOM      6  C   LIG d   1       3.688  -1.747  -3.542  0.00  0.00    -0.052 A 
ATOM      7  C   LIG d   1       5.397   0.156  -2.443  0.00  0.00    -0.038 A 
ATOM      8  N   LIG d   1       7.256  -0.819  -3.617  0.00  0.00    -0.322 N 
ATOM      9  C   LIG d   1       4.053   0.157  -2.142  0.00  0.00    -0.060 A 
ATOM     10  H   LIG d   1       6.050   0.900  -2.011  0.00  0.00     0.064 H 
ATOM     11  C   LIG d   1       3.204  -0.793  -2.692  0.00  0.00    -0.061 A 
ATOM     12  H   LIG d   1       3.656   0.906  -1.472  0.00  0.00     0.062 H 
ATOM     13  H   LIG d   1       2.153  -0.781  -2.444  0.00  0.00     0.062 H 
ATOM     14  C   LIG d   1       7.774  -1.741  -4.449  0.00  0.00     0.250 A 
ATOM     15  H   LIG d   1       7.840  -0.151  -3.227  0.00  0.00     0.169 HD
ATOM     16  C   LIG d   1       6.926  -2.765  -5.057  0.00  0.00     0.017 A 
ATOM     17  O   LIG d   1       8.965  -1.720  -4.699  0.00  0.00    -0.268 OA
ATOM     18  H   LIG d   1       7.354  -3.500  -5.722  0.00  0.00     0.068 H 
ATOM     19  H   LIG d   1       3.021  -2.483  -3.966  0.00  0.00     0.062 H 
ENDBRANCH   1   3
BRANCH   1  20
ATOM     20  O   LIG d   1       3.931  -3.500  -6.430  0.00  0.00    -0.456 OA
BRANCH  20  21
ATOM     21  C   LIG d   1       4.598  -3.096  -7.628  0.00  0.00     0.118 C 
ATOM     22  H   LIG d   1       5.585  -2.705  -7.379  0.00  0.00     0.075 H 
ATOM     23  H   LIG d   1       4.705  -3.954  -8.292  0.00  0.00     0.075 H 
BRANCH  21  24
ATOM     24  C   LIG d   1       3.792  -2.026  -8.316  0.00  0.00    -0.004 A 
ATOM     25  C   LIG d   1       4.062  -0.692  -8.071  0.00  0.00     0.022 A 
ATOM     26  C   LIG d   1       3.324   0.290  -8.705  0.00  0.00     0.274 A 
ATOM     27  H   LIG d   1       4.850  -0.418  -7.386  0.00  0.00     0.069 H 
ATOM     28  C   LIG d   1       2.311  -0.061  -9.578  0.00  0.00     0.016 A 
ATOM     29  C   LIG d   1       2.038  -1.395  -9.820  0.00  0.00    -0.055 A 
ATOM     30  H   LIG d   1       1.733   0.706 -10.072  0.00  0.00     0.069 H 
ATOM     31  C   LIG d   1       2.778  -2.377  -9.188  0.00  0.00    -0.055 A 
ATOM     32  H   LIG d   1       1.247  -1.670 -10.501  0.00  0.00     0.062 H 
ATOM     33  H   LIG d   1       2.564  -3.419  -9.377  0.00  0.00     0.062 H 
BRANCH  26  34
ATOM     34  N   LIG d   1       3.616   1.718  -8.448  0.00  0.00     0.080 N 
ATOM     35  O   LIG d   1       4.696   2.176  -8.736  0.00  0.00     0.041 OA
ATOM     36  O   LIG d   1       2.772   2.426  -7.950  0.00  0.00    -0.576 OA
ENDBRANCH  26  34
ENDBRANCH  21  24
ENDBRANCH  20  21
ENDBRANCH   1  20
TORSDOF 5
ENDMDL
MODEL 8
REMARK VINA RESULT:      -6.7      4.589      8.580
REMARK  5 active torsions:
REMARK  status: ('A' for Active; 'I' for Inactive)
REMARK    1  A    between atoms: C_7  and  C_13 
REMARK    2  A    between atoms: C_13  and  O_15 
REMARK    3  A    between atoms: O_15  and  C_16 
REMARK    4  A    between atoms: C_16  and  C_17 
REMARK    5  A    between atoms: C_21  and  N_23 
ROOT
ATOM      1  C   LIG d   1       6.978  -2.064  -5.943  0.00  0.00     0.340 C 
ATOM      2  O   LIG d   1       7.709  -2.964  -5.583  0.00  0.00    -0.245 OA
ENDROOT
BRANCH   1   3
ATOM      3  C   LIG d   1       6.808  -0.861  -5.093  0.00  0.00     0.073 A 
ATOM      4  C   LIG d   1       5.885  -0.874  -3.949  0.00  0.00     0.013 A 
ATOM      5  C   LIG d   1       5.744   0.282  -3.161  0.00  0.00     0.050 A 
ATOM      6  C   LIG d   1       5.147  -2.021  -3.640  0.00  0.00    -0.052 A 
ATOM      7  C   LIG d   1       4.869   0.267  -2.078  0.00  0.00    -0.038 A 
ATOM      8  N   LIG d   1       6.467   1.417  -3.458  0.00  0.00    -0.322 N 
ATOM      9  C   LIG d   1       4.153  -0.875  -1.791  0.00  0.00    -0.060 A 
ATOM     10  H   LIG d   1       4.752   1.147  -1.464  0.00  0.00     0.064 H 
ATOM     11  C   LIG d   1       4.294  -2.013  -2.573  0.00  0.00    -0.061 A 
ATOM     12  H   LIG d   1       3.474  -0.883  -0.951  0.00  0.00     0.062 H 
ATOM     13  H   LIG d   1       3.728  -2.901  -2.334  0.00  0.00     0.062 H 
ATOM     14  C   LIG d   1       7.318   1.452  -4.499  0.00  0.00     0.250 A 
ATOM     15  H   LIG d   1       6.361   2.207  -2.906  0.00  0.00     0.169 HD
ATOM     16  C   LIG d   1       7.506   0.283  -5.356  0.00  0.00     0.017 A 
ATOM     17  O   LIG d   1       7.939   2.473  -4.732  0.00  0.00    -0.268 OA
ATOM     18  H   LIG d   1       8.193   0.323  -6.188  0.00  0.00     0.068 H 
ATOM     19  H   LIG d   1       5.251  -2.910  -4.243  0.00  0.00     0.062 H 
ENDBRANCH   1   3
BRANCH   1  20
ATOM     20  O   LIG d   1       6.323  -2.158  -7.115  0.00  0.00    -0.456 OA
BRANCH  20  21
ATOM     21  C   LIG d   1       5.048  -2.803  -7.097  0.00  0.00     0.118 C 
ATOM     22  H   LIG d   1       5.103  -3.733  -7.663  0.00  0.00     0.075 H 
ATOM     23  H   LIG d   1       4.766  -3.022  -6.066  0.00  0.00     0.075 H 
BRANCH  21  24
ATOM     24  C   LIG d   1       4.016  -1.897  -7.717  0.00  0.00    -0.004 A 
ATOM     25  C   LIG d   1       3.318  -2.310  -8.837  0.00  0.00     0.022 A 
ATOM     26  C   LIG d   1       2.369  -1.480  -9.404  0.00  0.00     0.274 A 
ATOM     27  H   LIG d   1       3.513  -3.281  -9.266  0.00  0.00     0.069 H 
ATOM     28  C   LIG d   1       2.124  -0.235  -8.857  0.00  0.00     0.016 A 
ATOM     29  C   LIG d   1       2.826   0.180  -7.740  0.00  0.00    -0.055 A 
ATOM     30  H   LIG d   1       1.384   0.415  -9.302  0.00  0.00     0.069 H 
ATOM     31  C   LIG d   1       3.772  -0.651  -7.171  0.00  0.00    -0.055 A 
ATOM     32  H   LIG d   1       2.635   1.153  -7.313  0.00  0.00     0.062 H 
ATOM     33  H   LIG d   1       4.321  -0.327  -6.299  0.00  0.00     0.062 H 
BRANCH  26  34
ATOM     34  N   LIG d   1       1.617  -1.924 -10.599  0.00  0.00     0.080 N 
ATOM     35  O   LIG d   1       0.926  -2.914 -10.546  0.00  0.00     0.041 OA
ATOM     36  O   LIG d   1       1.694  -1.294 -11.629  0.00  0.00    -0.576 OA
ENDBRANCH  26  34
ENDBRANCH  21  24
ENDBRANCH  20  21
ENDBRANCH   1  20
TORSDOF 5
ENDMDL
MODEL 9
REMARK VINA RESULT:      -6.6      5.345      8.438
REMARK  5 active torsions:
REMARK  status: ('A' for Active; 'I' for Inactive)
REMARK    1  A    between atoms: C_7  and  C_13 
REMARK    2  A    between atoms: C_13  and  O_15 
REMARK    3  A    between atoms: O_15  and  C_16 
REMARK    4  A    between atoms: C_16  and  C_17 
REMARK    5  A    between atoms: C_21  and  N_23 
ROOT
ATOM      1  C   LIG d   1       7.467  -1.401  -4.537  0.00  0.00     0.340 C 
ATOM      2  O   LIG d   1       8.398  -0.699  -4.874  0.00  0.00    -0.245 OA
ENDROOT
BRANCH   1   3
ATOM      3  C   LIG d   1       6.085  -1.041  -4.937  0.00  0.00     0.073 A 
ATOM      4  C   LIG d   1       5.210  -0.289  -4.024  0.00  0.00     0.013 A 
ATOM      5  C   LIG d   1       3.905   0.038  -4.431  0.00  0.00     0.050 A 
ATOM      6  C   LIG d   1       5.664   0.101  -2.761  0.00  0.00    -0.052 A 
ATOM      7  C   LIG d   1       3.079   0.750  -3.564  0.00  0.00    -0.038 A 
ATOM      8  N   LIG d   1       3.449  -0.343  -5.675  0.00  0.00    -0.322 N 
ATOM      9  C   LIG d   1       3.547   1.124  -2.324  0.00  0.00    -0.060 A 
ATOM     10  H   LIG d   1       2.074   1.008  -3.864  0.00  0.00     0.064 H 
ATOM     11  C   LIG d   1       4.836   0.798  -1.926  0.00  0.00    -0.061 A 
ATOM     12  H   LIG d   1       2.903   1.675  -1.654  0.00  0.00     0.062 H 
ATOM     13  H   LIG d   1       5.190   1.101  -0.952  0.00  0.00     0.062 H 
ATOM     14  C   LIG d   1       4.230  -1.030  -6.526  0.00  0.00     0.250 A 
ATOM     15  H   LIG d   1       2.546  -0.110  -5.942  0.00  0.00     0.169 HD
ATOM     16  C   LIG d   1       5.597  -1.400  -6.161  0.00  0.00     0.017 A 
ATOM     17  O   LIG d   1       3.793  -1.349  -7.617  0.00  0.00    -0.268 OA
ATOM     18  H   LIG d   1       6.215  -1.951  -6.854  0.00  0.00     0.068 H 
ATOM     19  H   LIG d   1       6.665  -0.150  -2.444  0.00  0.00     0.062 H 
ENDBRANCH   1   3
BRANCH   1  20
ATOM     20  O   LIG d   1       7.688  -2.506  -3.802  0.00  0.00    -0.456 OA
BRANCH  20  21
ATOM     21  C   LIG d   1       8.520  -3.515  -4.381  0.00  0.00     0.118 C 
ATOM     22  H   LIG d   1       9.416  -3.053  -4.794  0.00  0.00     0.075 H 
ATOM     23  H   LIG d   1       8.803  -4.237  -3.615  0.00  0.00     0.075 H 
BRANCH  21  24
ATOM     24  C   LIG d   1       7.766  -4.219  -5.480  0.00  0.00    -0.004 A 
ATOM     25  C   LIG d   1       6.536  -4.791  -5.217  0.00  0.00     0.022 A 
ATOM     26  C   LIG d   1       5.842  -5.434  -6.225  0.00  0.00     0.274 A 
ATOM     27  H   LIG d   1       6.115  -4.734  -4.224  0.00  0.00     0.069 H 
ATOM     28  C   LIG d   1       6.383  -5.511  -7.495  0.00  0.00     0.016 A 
ATOM     29  C   LIG d   1       7.617  -4.943  -7.758  0.00  0.00    -0.055 A 
ATOM     30  H   LIG d   1       5.843  -6.016  -8.283  0.00  0.00     0.069 H 
ATOM     31  C   LIG d   1       8.307  -4.297  -6.750  0.00  0.00    -0.055 A 
ATOM     32  H   LIG d   1       8.039  -5.005  -8.749  0.00  0.00     0.062 H 
ATOM     33  H   LIG d   1       9.271  -3.854  -6.955  0.00  0.00     0.062 H 
BRANCH  26  34
ATOM     34  N   LIG d   1       4.522  -6.041  -5.946  0.00  0.00     0.080 N 
ATOM     35  O   LIG d   1       4.045  -6.834  -6.723  0.00  0.00     0.041 OA
ATOM     36  O   LIG d   1       3.922  -5.744  -4.939  0.00  0.00    -0.576 OA
ENDBRANCH  26  34
ENDBRANCH  21  24
ENDBRANCH  20  21
ENDBRANCH   1  20
TORSDOF 5
ENDMDL
