MODEL 1
REMARK VINA RESULT:      -6.8      0.000      0.000
REMARK  7 active torsions:
REMARK  status: ('A' for Active; 'I' for Inactive)
REMARK    1  A    between atoms: C_1  and  C_2 
REMARK    2  A    between atoms: C_6  and  O_20 
REMARK    3  A    between atoms: C_12  and  C_13 
REMARK    4  A    between atoms: O_20  and  C_21 
REMARK    5  A    between atoms: C_21  and  C_23 
REMARK    6  A    between atoms: C_26  and  O_29 
REMARK    7  A    between atoms: O_29  and  C_30 
ROOT
ATOM      1  C   LIG d   1       9.915   6.355  -3.333  0.00  0.00    -0.025 A 
ATOM      2  C   LIG d   1       9.921   4.981  -3.684  0.00  0.00     0.021 A 
ATOM      3  C   LIG d   1       9.526   4.579  -4.970  0.00  0.00    -0.047 A 
ATOM      4  C   LIG d   1       9.533   3.257  -5.302  0.00  0.00    -0.018 A 
ATOM      5  C   LIG d   1       9.928   2.298  -4.373  0.00  0.00     0.136 A 
ATOM      6  C   LIG d   1      10.320   2.673  -3.099  0.00  0.00     0.024 A 
ATOM      7  C   LIG d   1      10.320   4.016  -2.743  0.00  0.00     0.143 A 
ATOM      8  O   LIG d   1      10.697   4.382  -1.497  0.00  0.00    -0.422 OA
ATOM      9  C   LIG d   1      10.711   5.673  -1.126  0.00  0.00     0.345 A 
ATOM     10  O   LIG d   1      11.060   5.977  -0.000  0.00  0.00    -0.244 OA
ATOM     11  C   LIG d   1      10.304   6.716  -2.071  0.00  0.00     0.070 A 
ATOM     12  H   LIG d   1       9.219   5.317  -5.695  0.00  0.00     0.063 H 
ATOM     13  H   LIG d   1       9.229   2.952  -6.293  0.00  0.00     0.065 H 
ATOM     14  H   LIG d   1      10.626   1.924  -2.384  0.00  0.00     0.069 H 
ENDROOT
BRANCH   5  15
ATOM     15  O   LIG d   1       9.930   0.985  -4.718  0.00  0.00    -0.422 OA
BRANCH  15  16
ATOM     16  C   LIG d   1       8.794   0.490  -5.250  0.00  0.00     0.344 C 
ATOM     17  O   LIG d   1       8.700   0.344  -6.452  0.00  0.00    -0.244 OA
BRANCH  16  18
ATOM     18  C   LIG d   1       7.666   0.127  -4.373  0.00  0.00     0.060 A 
ATOM     19  C   LIG d   1       6.882   1.127  -3.789  0.00  0.00    -0.044 A 
ATOM     20  C   LIG d   1       5.830   0.784  -2.970  0.00  0.00    -0.019 A 
ATOM     21  H   LIG d   1       7.103   2.167  -3.979  0.00  0.00     0.063 H 
ATOM     22  C   LIG d   1       5.546  -0.554  -2.724  0.00  0.00     0.120 A 
ATOM     23  H   LIG d   1       5.225   1.555  -2.519  0.00  0.00     0.065 H 
ATOM     24  C   LIG d   1       6.323  -1.552  -3.302  0.00  0.00    -0.019 A 
ATOM     25  C   LIG d   1       7.373  -1.217  -4.127  0.00  0.00    -0.044 A 
ATOM     26  H   LIG d   1       6.099  -2.590  -3.108  0.00  0.00     0.065 H 
ATOM     27  H   LIG d   1       7.974  -1.993  -4.579  0.00  0.00     0.063 H 
BRANCH  22  28
ATOM     28  O   LIG d   1       4.508  -0.889  -1.916  0.00  0.00    -0.495 OA
BRANCH  28  29
ATOM     29  C   LIG d   1       3.743  -2.037  -2.284  0.00  0.00     0.079 C 
ATOM     30  H   LIG d   1       4.417  -2.847  -2.566  0.00  0.00     0.066 H 
ATOM     31  H   LIG d   1       3.131  -2.352  -1.439  0.00  0.00     0.066 H 
ATOM     32  H   LIG d   1       3.099  -1.790  -3.127  0.00  0.00     0.066 H 
ENDBRANCH  28  29
ENDBRANCH  22  28
ENDBRANCH  16  18
ENDBRANCH  15  16
ENDBRANCH   5  15
BRANCH   1  33
ATOM     33  C   LIG d   1       9.489   7.399  -4.332  0.00  0.00    -0.038 C 
ATOM     34  H   LIG d   1       8.781   8.083  -3.863  0.00  0.00     0.028 H 
ATOM     35  H   LIG d   1      10.362   7.956  -4.671  0.00  0.00     0.028 H 
ATOM     36  H   LIG d   1       9.014   6.914  -5.184  0.00  0.00     0.028 H 
ENDBRANCH   1  33
BRANCH  11  37
ATOM     37  C   LIG d   1      10.311   8.142  -1.666  0.00  0.00    -0.011 A 
ATOM     38  C   LIG d   1       9.195   8.697  -1.041  0.00  0.00    -0.052 A 
ATOM     39  C   LIG d   1       9.208  10.025  -0.666  0.00  0.00    -0.043 A 
ATOM     40  H   LIG d   1       8.323   8.090  -0.851  0.00  0.00     0.062 H 
ATOM     41  C   LIG d   1      10.326  10.805  -0.909  0.00  0.00     0.041 A 
ATOM     42  H   LIG d   1       8.344  10.456  -0.182  0.00  0.00     0.063 H 
ATOM     43  C   LIG d   1      11.436  10.258  -1.530  0.00  0.00    -0.043 A 
ATOM     44 CL   LIG d   1      10.335  12.474  -0.434  0.00  0.00    -0.084 Cl
ATOM     45  C   LIG d   1      11.436   8.930  -1.904  0.00  0.00    -0.052 A 
ATOM     46  H   LIG d   1      12.306  10.871  -1.717  0.00  0.00     0.063 H 
ATOM     47  H   LIG d   1      12.305   8.504  -2.384  0.00  0.00     0.062 H 
ENDBRANCH  11  37
TORSDOF 7
ENDMDL
MODEL 2
REMARK VINA RESULT:      -6.5      1.403      1.948
REMARK  7 active torsions:
REMARK  status: ('A' for Active; 'I' for Inactive)
REMARK    1  A    between atoms: C_1  and  C_2 
REMARK    2  A    between atoms: C_6  and  O_20 
REMARK    3  A    between atoms: C_12  and  C_13 
REMARK    4  A    between atoms: O_20  and  C_21 
REMARK    5  A    between atoms: C_21  and  C_23 
REMARK    6  A    between atoms: C_26  and  O_29 
REMARK    7  A    between atoms: O_29  and  C_30 
ROOT
ATOM      1  C   LIG d   1      10.374   6.111  -2.118  0.00  0.00    -0.025 A 
ATOM      2  C   LIG d   1      10.114   4.966  -2.915  0.00  0.00     0.021 A 
ATOM      3  C   LIG d   1      10.298   3.680  -2.384  0.00  0.00    -0.047 A 
ATOM      4  C   LIG d   1      10.047   2.584  -3.154  0.00  0.00    -0.018 A 
ATOM      5  C   LIG d   1       9.609   2.730  -4.469  0.00  0.00     0.136 A 
ATOM      6  C   LIG d   1       9.423   3.990  -5.011  0.00  0.00     0.024 A 
ATOM      7  C   LIG d   1       9.673   5.119  -4.241  0.00  0.00     0.143 A 
ATOM      8  O   LIG d   1       9.496   6.349  -4.772  0.00  0.00    -0.422 OA
ATOM      9  C   LIG d   1       9.726   7.458  -4.049  0.00  0.00     0.345 A 
ATOM     10  O   LIG d   1       9.555   8.554  -4.549  0.00  0.00    -0.244 OA
ATOM     11  C   LIG d   1      10.187   7.352  -2.662  0.00  0.00     0.070 A 
ATOM     12  H   LIG d   1      10.637   3.559  -1.366  0.00  0.00     0.063 H 
ATOM     13  H   LIG d   1      10.189   1.595  -2.743  0.00  0.00     0.065 H 
ATOM     14  H   LIG d   1       9.083   4.096  -6.031  0.00  0.00     0.069 H 
ENDROOT
BRANCH   5  15
ATOM     15  O   LIG d   1       9.363   1.629  -5.225  0.00  0.00    -0.422 OA
BRANCH  15  16
ATOM     16  C   LIG d   1       8.078   1.386  -5.552  0.00  0.00     0.344 C 
ATOM     17  O   LIG d   1       7.655   1.720  -6.640  0.00  0.00    -0.244 OA
BRANCH  16  18
ATOM     18  C   LIG d   1       7.186   0.714  -4.588  0.00  0.00     0.060 A 
ATOM     19  C   LIG d   1       6.480   1.467  -3.646  0.00  0.00    -0.044 A 
ATOM     20  C   LIG d   1       5.649   0.835  -2.748  0.00  0.00    -0.019 A 
ATOM     21  H   LIG d   1       6.587   2.541  -3.621  0.00  0.00     0.063 H 
ATOM     22  C   LIG d   1       5.512  -0.547  -2.777  0.00  0.00     0.120 A 
ATOM     23  H   LIG d   1       5.102   1.416  -2.020  0.00  0.00     0.065 H 
ATOM     24  C   LIG d   1       6.213  -1.299  -3.713  0.00  0.00    -0.019 A 
ATOM     25  C   LIG d   1       7.042  -0.676  -4.618  0.00  0.00    -0.044 A 
ATOM     26  H   LIG d   1       6.104  -2.374  -3.732  0.00  0.00     0.065 H 
ATOM     27  H   LIG d   1       7.584  -1.260  -5.347  0.00  0.00     0.063 H 
BRANCH  22  28
ATOM     28  O   LIG d   1       4.692  -1.166  -1.890  0.00  0.00    -0.495 OA
BRANCH  28  29
ATOM     29  C   LIG d   1       3.857  -2.209  -2.397  0.00  0.00     0.079 C 
ATOM     30  H   LIG d   1       4.361  -3.168  -2.279  0.00  0.00     0.066 H 
ATOM     31  H   LIG d   1       2.917  -2.222  -1.844  0.00  0.00     0.066 H 
ATOM     32  H   LIG d   1       3.655  -2.032  -3.453  0.00  0.00     0.066 H 
ENDBRANCH  28  29
ENDBRANCH  22  28
ENDBRANCH  16  18
ENDBRANCH  15  16
ENDBRANCH   5  15
BRANCH   1  33
ATOM     33  C   LIG d   1      10.848   5.961  -0.695  0.00  0.00    -0.038 C 
ATOM     34  H   LIG d   1      11.246   6.913  -0.343  0.00  0.00     0.028 H 
ATOM     35  H   LIG d   1      10.012   5.662  -0.063  0.00  0.00     0.028 H 
ATOM     36  H   LIG d   1      11.629   5.202  -0.650  0.00  0.00     0.028 H 
ENDBRANCH   1  33
BRANCH  11  37
ATOM     37  C   LIG d   1      10.449   8.571  -1.862  0.00  0.00    -0.011 A 
ATOM     38  C   LIG d   1       9.445   9.107  -1.055  0.00  0.00    -0.052 A 
ATOM     39  C   LIG d   1       9.694  10.243  -0.312  0.00  0.00    -0.043 A 
ATOM     40  H   LIG d   1       8.475   8.635  -1.012  0.00  0.00     0.062 H 
ATOM     41  C   LIG d   1      10.938  10.849  -0.365  0.00  0.00     0.041 A 
ATOM     42  H   LIG d   1       8.918  10.658   0.313  0.00  0.00     0.063 H 
ATOM     43  C   LIG d   1      11.937  10.321  -1.165  0.00  0.00    -0.043 A 
ATOM     44 CL   LIG d   1      11.245  12.276   0.573  0.00  0.00    -0.084 Cl
ATOM     45  C   LIG d   1      11.700   9.183  -1.908  0.00  0.00    -0.052 A 
ATOM     46  H   LIG d   1      12.906  10.798  -1.203  0.00  0.00     0.063 H 
ATOM     47  H   LIG d   1      12.483   8.769  -2.528  0.00  0.00     0.062 H 
ENDBRANCH  11  37
TORSDOF 7
ENDMDL
MODEL 3
REMARK VINA RESULT:      -6.2      9.599     14.683
REMARK  7 active torsions:
REMARK  status: ('A' for Active; 'I' for Inactive)
REMARK    1  A    between atoms: C_1  and  C_2 
REMARK    2  A    between atoms: C_6  and  O_20 
REMARK    3  A    between atoms: C_12  and  C_13 
REMARK    4  A    between atoms: O_20  and  C_21 
REMARK    5  A    between atoms: C_21  and  C_23 
REMARK    6  A    between atoms: C_26  and  O_29 
REMARK    7  A    between atoms: O_29  and  C_30 
ROOT
ATOM      1  C   LIG d   1       0.886  -4.171 -10.711  0.00  0.00    -0.025 A 
ATOM      2  C   LIG d   1       1.678  -3.110 -10.202  0.00  0.00     0.021 A 
ATOM      3  C   LIG d   1       1.350  -1.779 -10.499  0.00  0.00    -0.047 A 
ATOM      4  C   LIG d   1       2.114  -0.763 -10.007  0.00  0.00    -0.018 A 
ATOM      5  C   LIG d   1       3.225  -1.037  -9.211  0.00  0.00     0.136 A 
ATOM      6  C   LIG d   1       3.566  -2.344  -8.908  0.00  0.00     0.024 A 
ATOM      7  C   LIG d   1       2.798  -3.392  -9.399  0.00  0.00     0.143 A 
ATOM      8  O   LIG d   1       3.135  -4.668  -9.108  0.00  0.00    -0.422 OA
ATOM      9  C   LIG d   1       2.408  -5.701  -9.566  0.00  0.00     0.345 A 
ATOM     10  O   LIG d   1       2.729  -6.841  -9.285  0.00  0.00    -0.244 OA
ATOM     11  C   LIG d   1       1.232  -5.460 -10.406  0.00  0.00     0.070 A 
ATOM     12  H   LIG d   1       0.491  -1.559 -11.115  0.00  0.00     0.063 H 
ATOM     13  H   LIG d   1       1.858   0.261 -10.237  0.00  0.00     0.065 H 
ATOM     14  H   LIG d   1       4.427  -2.549  -8.290  0.00  0.00     0.069 H 
ENDROOT
BRANCH   5  15
ATOM     15  O   LIG d   1       3.977  -0.015  -8.729  0.00  0.00    -0.422 OA
BRANCH  15  16
ATOM     16  C   LIG d   1       3.462   0.694  -7.704  0.00  0.00     0.344 C 
ATOM     17  O   LIG d   1       3.017   1.807  -7.900  0.00  0.00    -0.244 OA
BRANCH  16  18
ATOM     18  C   LIG d   1       3.436   0.117  -6.347  0.00  0.00     0.060 A 
ATOM     19  C   LIG d   1       2.396   0.436  -5.470  0.00  0.00    -0.044 A 
ATOM     20  C   LIG d   1       2.377  -0.104  -4.204  0.00  0.00    -0.019 A 
ATOM     21  H   LIG d   1       1.610   1.107  -5.784  0.00  0.00     0.063 H 
ATOM     22  C   LIG d   1       3.389  -0.966  -3.797  0.00  0.00     0.120 A 
ATOM     23  H   LIG d   1       1.574   0.142  -3.525  0.00  0.00     0.065 H 
ATOM     24  C   LIG d   1       4.425  -1.285  -4.667  0.00  0.00    -0.019 A 
ATOM     25  C   LIG d   1       4.450  -0.754  -5.937  0.00  0.00    -0.044 A 
ATOM     26  H   LIG d   1       5.210  -1.955  -4.347  0.00  0.00     0.065 H 
ATOM     27  H   LIG d   1       5.253  -1.006  -6.613  0.00  0.00     0.063 H 
BRANCH  22  28
ATOM     28  O   LIG d   1       3.366  -1.496  -2.548  0.00  0.00    -0.495 OA
BRANCH  28  29
ATOM     29  C   LIG d   1       4.517  -1.280  -1.731  0.00  0.00     0.079 C 
ATOM     30  H   LIG d   1       4.698  -0.209  -1.633  0.00  0.00     0.066 H 
ATOM     31  H   LIG d   1       4.348  -1.712  -0.744  0.00  0.00     0.066 H 
ATOM     32  H   LIG d   1       5.384  -1.755  -2.190  0.00  0.00     0.066 H 
ENDBRANCH  28  29
ENDBRANCH  22  28
ENDBRANCH  16  18
ENDBRANCH  15  16
ENDBRANCH   5  15
BRANCH   1  33
ATOM     33  C   LIG d   1      -0.316  -3.884 -11.573  0.00  0.00    -0.038 C 
ATOM     34  H   LIG d   1      -0.198  -4.379 -12.538  0.00  0.00     0.028 H 
ATOM     35  H   LIG d   1      -1.214  -4.258 -11.081  0.00  0.00     0.028 H 
ATOM     36  H   LIG d   1      -0.405  -2.809 -11.726  0.00  0.00     0.028 H 
ENDBRANCH   1  33
BRANCH  11  37
ATOM     37  C   LIG d   1       0.429  -6.595 -10.920  0.00  0.00    -0.011 A 
ATOM     38  C   LIG d   1       0.722  -7.152 -12.164  0.00  0.00    -0.052 A 
ATOM     39  C   LIG d   1      -0.029  -8.209 -12.637  0.00  0.00    -0.043 A 
ATOM     40  H   LIG d   1       1.534  -6.758 -12.757  0.00  0.00     0.062 H 
ATOM     41  C   LIG d   1      -1.069  -8.717 -11.878  0.00  0.00     0.041 A 
ATOM     42  H   LIG d   1       0.197  -8.641 -13.601  0.00  0.00     0.063 H 
ATOM     43  C   LIG d   1      -1.364  -8.167 -10.642  0.00  0.00    -0.043 A 
ATOM     44 CL   LIG d   1      -2.008 -10.047 -12.478  0.00  0.00    -0.084 Cl
ATOM     45  C   LIG d   1      -0.616  -7.113 -10.157  0.00  0.00    -0.052 A 
ATOM     46  H   LIG d   1      -2.176  -8.567 -10.054  0.00  0.00     0.063 H 
ATOM     47  H   LIG d   1      -0.844  -6.689  -9.190  0.00  0.00     0.062 H 
ENDBRANCH  11  37
TORSDOF 7
ENDMDL
MODEL 4
REMARK VINA RESULT:      -6.1      7.317     11.676
REMARK  7 active torsions:
REMARK  status: ('A' for Active; 'I' for Inactive)
REMARK    1  A    between atoms: C_1  and  C_2 
REMARK    2  A    between atoms: C_6  and  O_20 
REMARK    3  A    between atoms: C_12  and  C_13 
REMARK    4  A    between atoms: O_20  and  C_21 
REMARK    5  A    between atoms: C_21  and  C_23 
REMARK    6  A    between atoms: C_26  and  O_29 
REMARK    7  A    between atoms: O_29  and  C_30 
ROOT
ATOM      1  C   LIG d   1       7.129  -4.700  -5.098  0.00  0.00    -0.025 A 
ATOM      2  C   LIG d   1       6.686  -6.027  -5.331  0.00  0.00     0.021 A 
ATOM      3  C   LIG d   1       7.613  -7.077  -5.412  0.00  0.00    -0.047 A 
ATOM      4  C   LIG d   1       7.182  -8.351  -5.636  0.00  0.00    -0.018 A 
ATOM      5  C   LIG d   1       5.823  -8.620  -5.787  0.00  0.00     0.136 A 
ATOM      6  C   LIG d   1       4.892  -7.597  -5.711  0.00  0.00     0.024 A 
ATOM      7  C   LIG d   1       5.313  -6.294  -5.482  0.00  0.00     0.143 A 
ATOM      8  O   LIG d   1       4.405  -5.295  -5.414  0.00  0.00    -0.422 OA
ATOM      9  C   LIG d   1       4.783  -4.025  -5.190  0.00  0.00     0.345 A 
ATOM     10  O   LIG d   1       3.945  -3.145  -5.127  0.00  0.00    -0.244 OA
ATOM     11  C   LIG d   1       6.202  -3.696  -5.025  0.00  0.00     0.070 A 
ATOM     12  H   LIG d   1       8.668  -6.876  -5.297  0.00  0.00     0.063 H 
ATOM     13  H   LIG d   1       7.899  -9.157  -5.698  0.00  0.00     0.065 H 
ATOM     14  H   LIG d   1       3.841  -7.813  -5.828  0.00  0.00     0.069 H 
ENDROOT
BRANCH   5  15
ATOM     15  O   LIG d   1       5.408  -9.893  -6.010  0.00  0.00    -0.422 OA
BRANCH  15  16
ATOM     16  C   LIG d   1       4.791 -10.523  -4.989  0.00  0.00     0.344 C 
ATOM     17  O   LIG d   1       3.599 -10.749  -5.047  0.00  0.00    -0.244 OA
BRANCH  16  18
ATOM     18  C   LIG d   1       5.564 -10.937  -3.804  0.00  0.00     0.060 A 
ATOM     19  C   LIG d   1       5.231 -10.438  -2.541  0.00  0.00    -0.044 A 
ATOM     20  C   LIG d   1       5.956 -10.828  -1.437  0.00  0.00    -0.019 A 
ATOM     21  H   LIG d   1       4.409  -9.748  -2.433  0.00  0.00     0.063 H 
ATOM     22  C   LIG d   1       7.016 -11.716  -1.576  0.00  0.00     0.120 A 
ATOM     23  H   LIG d   1       5.699 -10.443  -0.461  0.00  0.00     0.065 H 
ATOM     24  C   LIG d   1       7.350 -12.214  -2.830  0.00  0.00    -0.019 A 
ATOM     25  C   LIG d   1       6.628 -11.834  -3.939  0.00  0.00    -0.044 A 
ATOM     26  H   LIG d   1       8.175 -12.904  -2.934  0.00  0.00     0.065 H 
ATOM     27  H   LIG d   1       6.885 -12.225  -4.913  0.00  0.00     0.063 H 
BRANCH  22  28
ATOM     28  O   LIG d   1       7.727 -12.097  -0.486  0.00  0.00    -0.495 OA
BRANCH  28  29
ATOM     29  C   LIG d   1       8.879 -12.911  -0.714  0.00  0.00     0.079 C 
ATOM     30  H   LIG d   1       8.564 -13.913  -1.007  0.00  0.00     0.066 H 
ATOM     31  H   LIG d   1       9.481 -12.472  -1.510  0.00  0.00     0.066 H 
ATOM     32  H   LIG d   1       9.470 -12.969   0.199  0.00  0.00     0.066 H 
ENDBRANCH  28  29
ENDBRANCH  22  28
ENDBRANCH  16  18
ENDBRANCH  15  16
ENDBRANCH   5  15
BRANCH   1  33
ATOM     33  C   LIG d   1       8.597  -4.401  -4.935  0.00  0.00    -0.038 C 
ATOM     34  H   LIG d   1       9.181  -5.119  -5.511  0.00  0.00     0.028 H 
ATOM     35  H   LIG d   1       8.805  -3.393  -5.295  0.00  0.00     0.028 H 
ATOM     36  H   LIG d   1       8.868  -4.474  -3.882  0.00  0.00     0.028 H 
ENDBRANCH   1  33
BRANCH  11  37
ATOM     37  C   LIG d   1       6.626  -2.297  -4.784  0.00  0.00    -0.011 A 
ATOM     38  C   LIG d   1       6.633  -1.782  -3.488  0.00  0.00    -0.052 A 
ATOM     39  C   LIG d   1       7.029  -0.478  -3.270  0.00  0.00    -0.043 A 
ATOM     40  H   LIG d   1       6.329  -2.401  -2.657  0.00  0.00     0.062 H 
ATOM     41  C   LIG d   1       7.419   0.317  -4.334  0.00  0.00     0.041 A 
ATOM     42  H   LIG d   1       7.034  -0.078  -2.267  0.00  0.00     0.063 H 
ATOM     43  C   LIG d   1       7.413  -0.190  -5.622  0.00  0.00    -0.043 A 
ATOM     44 CL   LIG d   1       7.917   1.956  -4.052  0.00  0.00    -0.084 Cl
ATOM     45  C   LIG d   1       7.024  -1.494  -5.851  0.00  0.00    -0.052 A 
ATOM     46  H   LIG d   1       7.719   0.435  -6.449  0.00  0.00     0.063 H 
ATOM     47  H   LIG d   1       7.025  -1.889  -6.857  0.00  0.00     0.062 H 
ENDBRANCH  11  37
TORSDOF 7
ENDMDL
MODEL 5
REMARK VINA RESULT:      -6.0      3.512      4.817
REMARK  7 active torsions:
REMARK  status: ('A' for Active; 'I' for Inactive)
REMARK    1  A    between atoms: C_1  and  C_2 
REMARK    2  A    between atoms: C_6  and  O_20 
REMARK    3  A    between atoms: C_12  and  C_13 
REMARK    4  A    between atoms: O_20  and  C_21 
REMARK    5  A    between atoms: C_21  and  C_23 
REMARK    6  A    between atoms: C_26  and  O_29 
REMARK    7  A    between atoms: O_29  and  C_30 
ROOT
ATOM      1  C   LIG d   1       9.617   4.675  -6.951  0.00  0.00    -0.025 A 
ATOM      2  C   LIG d   1       9.198   3.659  -6.053  0.00  0.00     0.021 A 
ATOM      3  C   LIG d   1       8.787   2.410  -6.543  0.00  0.00    -0.047 A 
ATOM      4  C   LIG d   1       8.385   1.438  -5.676  0.00  0.00    -0.018 A 
ATOM      5  C   LIG d   1       8.379   1.675  -4.303  0.00  0.00     0.136 A 
ATOM      6  C   LIG d   1       8.781   2.901  -3.800  0.00  0.00     0.024 A 
ATOM      7  C   LIG d   1       9.194   3.903  -4.668  0.00  0.00     0.143 A 
ATOM      8  O   LIG d   1       9.581   5.102  -4.177  0.00  0.00    -0.422 OA
ATOM      9  C   LIG d   1       9.989   6.088  -4.993  0.00  0.00     0.345 A 
ATOM     10  O   LIG d   1      10.337   7.157  -4.526  0.00  0.00    -0.244 OA
ATOM     11  C   LIG d   1      10.012   5.884  -6.444  0.00  0.00     0.070 A 
ATOM     12  H   LIG d   1       8.789   2.220  -7.606  0.00  0.00     0.063 H 
ATOM     13  H   LIG d   1       8.069   0.477  -6.056  0.00  0.00     0.065 H 
ATOM     14  H   LIG d   1       8.775   3.077  -2.735  0.00  0.00     0.069 H 
ENDROOT
BRANCH   5  15
ATOM     15  O   LIG d   1       7.977   0.697  -3.451  0.00  0.00    -0.422 OA
BRANCH  15  16
ATOM     16  C   LIG d   1       6.648   0.527  -3.299  0.00  0.00     0.344 C 
ATOM     17  O   LIG d   1       5.962   1.441  -2.889  0.00  0.00    -0.244 OA
BRANCH  16  18
ATOM     18  C   LIG d   1       6.028  -0.769  -3.630  0.00  0.00     0.060 A 
ATOM     19  C   LIG d   1       6.605  -1.594  -4.601  0.00  0.00    -0.044 A 
ATOM     20  C   LIG d   1       6.022  -2.802  -4.908  0.00  0.00    -0.019 A 
ATOM     21  H   LIG d   1       7.504  -1.281  -5.110  0.00  0.00     0.063 H 
ATOM     22  C   LIG d   1       4.863  -3.205  -4.255  0.00  0.00     0.120 A 
ATOM     23  H   LIG d   1       6.467  -3.440  -5.658  0.00  0.00     0.065 H 
ATOM     24  C   LIG d   1       4.287  -2.388  -3.289  0.00  0.00    -0.019 A 
ATOM     25  C   LIG d   1       4.865  -1.179  -2.972  0.00  0.00    -0.044 A 
ATOM     26  H   LIG d   1       3.386  -2.703  -2.783  0.00  0.00     0.065 H 
ATOM     27  H   LIG d   1       4.419  -0.547  -2.218  0.00  0.00     0.063 H 
BRANCH  22  28
ATOM     28  O   LIG d   1       4.292  -4.397  -4.560  0.00  0.00    -0.495 OA
BRANCH  28  29
ATOM     29  C   LIG d   1       4.690  -5.012  -5.787  0.00  0.00     0.079 C 
ATOM     30  H   LIG d   1       4.194  -4.513  -6.620  0.00  0.00     0.066 H 
ATOM     31  H   LIG d   1       5.771  -4.926  -5.902  0.00  0.00     0.066 H 
ATOM     32  H   LIG d   1       4.409  -6.064  -5.773  0.00  0.00     0.066 H 
ENDBRANCH  28  29
ENDBRANCH  22  28
ENDBRANCH  16  18
ENDBRANCH  15  16
ENDBRANCH   5  15
BRANCH   1  33
ATOM     33  C   LIG d   1       9.625   4.427  -8.437  0.00  0.00    -0.038 C 
ATOM     34  H   LIG d   1      10.524   3.872  -8.707  0.00  0.00     0.028 H 
ATOM     35  H   LIG d   1       8.744   3.848  -8.714  0.00  0.00     0.028 H 
ATOM     36  H   LIG d   1       9.615   5.380  -8.965  0.00  0.00     0.028 H 
ENDBRANCH   1  33
BRANCH  11  37
ATOM     37  C   LIG d   1      10.455   6.970  -7.350  0.00  0.00    -0.011 A 
ATOM     38  C   LIG d   1      11.794   7.065  -7.725  0.00  0.00    -0.052 A 
ATOM     39  C   LIG d   1      12.201   8.079  -8.568  0.00  0.00    -0.043 A 
ATOM     40  H   LIG d   1      12.513   6.348  -7.356  0.00  0.00     0.062 H 
ATOM     41  C   LIG d   1      11.282   8.999  -9.043  0.00  0.00     0.041 A 
ATOM     42  H   LIG d   1      13.238   8.153  -8.859  0.00  0.00     0.063 H 
ATOM     43  C   LIG d   1       9.950   8.908  -8.673  0.00  0.00    -0.043 A 
ATOM     44 CL   LIG d   1      11.800  10.270 -10.104  0.00  0.00    -0.084 Cl
ATOM     45  C   LIG d   1       9.532   7.896  -7.834  0.00  0.00    -0.052 A 
ATOM     46  H   LIG d   1       9.237   9.629  -9.046  0.00  0.00     0.063 H 
ATOM     47  H   LIG d   1       8.492   7.824  -7.550  0.00  0.00     0.062 H 
ENDBRANCH  11  37
TORSDOF 7
ENDMDL
MODEL 6
REMARK VINA RESULT:      -6.0      4.480      8.868
REMARK  7 active torsions:
REMARK  status: ('A' for Active; 'I' for Inactive)
REMARK    1  A    between atoms: C_1  and  C_2 
REMARK    2  A    between atoms: C_6  and  O_20 
REMARK    3  A    between atoms: C_12  and  C_13 
REMARK    4  A    between atoms: O_20  and  C_21 
REMARK    5  A    between atoms: C_21  and  C_23 
REMARK    6  A    between atoms: C_26  and  O_29 
REMARK    7  A    between atoms: O_29  and  C_30 
ROOT
ATOM      1  C   LIG d   1       8.060   1.654  -6.320  0.00  0.00    -0.025 A 
ATOM      2  C   LIG d   1       8.964   2.470  -7.049  0.00  0.00     0.021 A 
ATOM      3  C   LIG d   1       8.928   2.483  -8.452  0.00  0.00    -0.047 A 
ATOM      4  C   LIG d   1       9.798   3.268  -9.147  0.00  0.00    -0.018 A 
ATOM      5  C   LIG d   1      10.728   4.059  -8.475  0.00  0.00     0.136 A 
ATOM      6  C   LIG d   1      10.780   4.059  -7.092  0.00  0.00     0.024 A 
ATOM      7  C   LIG d   1       9.900   3.266  -6.366  0.00  0.00     0.143 A 
ATOM      8  O   LIG d   1       9.955   3.262  -5.015  0.00  0.00    -0.422 OA
ATOM      9  C   LIG d   1       9.114   2.507  -4.288  0.00  0.00     0.345 A 
ATOM     10  O   LIG d   1       9.180   2.525  -3.073  0.00  0.00    -0.244 OA
ATOM     11  C   LIG d   1       8.120   1.661  -4.953  0.00  0.00     0.070 A 
ATOM     12  H   LIG d   1       8.210   1.873  -8.979  0.00  0.00     0.063 H 
ATOM     13  H   LIG d   1       9.768   3.277 -10.227  0.00  0.00     0.065 H 
ATOM     14  H   LIG d   1      11.502   4.675  -6.577  0.00  0.00     0.069 H 
ENDROOT
BRANCH   5  15
ATOM     15  O   LIG d   1      11.589   4.836  -9.181  0.00  0.00    -0.422 OA
BRANCH  15  16
ATOM     16  C   LIG d   1      11.088   5.961  -9.730  0.00  0.00     0.344 C 
ATOM     17  O   LIG d   1      10.978   6.052 -10.936  0.00  0.00    -0.244 OA
BRANCH  16  18
ATOM     18  C   LIG d   1      10.674   7.082  -8.866  0.00  0.00     0.060 A 
ATOM     19  C   LIG d   1      11.623   7.760  -8.095  0.00  0.00    -0.044 A 
ATOM     20  C   LIG d   1      11.231   8.805  -7.289  0.00  0.00    -0.019 A 
ATOM     21  H   LIG d   1      12.660   7.463  -8.131  0.00  0.00     0.063 H 
ATOM     22  C   LIG d   1       9.896   9.187  -7.241  0.00  0.00     0.120 A 
ATOM     23  H   LIG d   1      11.964   9.330  -6.694  0.00  0.00     0.065 H 
ATOM     24  C   LIG d   1       8.949   8.515  -8.005  0.00  0.00    -0.019 A 
ATOM     25  C   LIG d   1       9.332   7.472  -8.818  0.00  0.00    -0.044 A 
ATOM     26  H   LIG d   1       7.912   8.814  -7.964  0.00  0.00     0.065 H 
ATOM     27  H   LIG d   1       8.596   6.953  -9.414  0.00  0.00     0.063 H 
BRANCH  22  28
ATOM     28  O   LIG d   1       9.514  10.218  -6.445  0.00  0.00    -0.495 OA
BRANCH  28  29
ATOM     29  C   LIG d   1       9.556   9.998  -5.034  0.00  0.00     0.079 C 
ATOM     30  H   LIG d   1       8.539   9.957  -4.642  0.00  0.00     0.066 H 
ATOM     31  H   LIG d   1      10.064   9.056  -4.828  0.00  0.00     0.066 H 
ATOM     32  H   LIG d   1      10.097  10.814  -4.555  0.00  0.00     0.066 H 
ENDBRANCH  28  29
ENDBRANCH  22  28
ENDBRANCH  16  18
ENDBRANCH  15  16
ENDBRANCH   5  15
BRANCH   1  33
ATOM     33  C   LIG d   1       7.053   0.796  -7.040  0.00  0.00    -0.038 C 
ATOM     34  H   LIG d   1       7.149  -0.237  -6.703  0.00  0.00     0.028 H 
ATOM     35  H   LIG d   1       6.047   1.155  -6.822  0.00  0.00     0.028 H 
ATOM     36  H   LIG d   1       7.232   0.846  -8.113  0.00  0.00     0.028 H 
ENDBRANCH   1  33
BRANCH  11  37
ATOM     37  C   LIG d   1       7.193   0.822  -4.156  0.00  0.00    -0.011 A 
ATOM     38  C   LIG d   1       6.123   1.409  -3.482  0.00  0.00    -0.052 A 
ATOM     39  C   LIG d   1       5.264   0.623  -2.741  0.00  0.00    -0.043 A 
ATOM     40  H   LIG d   1       5.967   2.476  -3.538  0.00  0.00     0.062 H 
ATOM     41  C   LIG d   1       5.462  -0.746  -2.669  0.00  0.00     0.041 A 
ATOM     42  H   LIG d   1       4.435   1.076  -2.218  0.00  0.00     0.063 H 
ATOM     43  C   LIG d   1       6.523  -1.333  -3.337  0.00  0.00    -0.043 A 
ATOM     44 CL   LIG d   1       4.376  -1.728  -1.737  0.00  0.00    -0.084 Cl
ATOM     45  C   LIG d   1       7.385  -0.557  -4.084  0.00  0.00    -0.052 A 
ATOM     46  H   LIG d   1       6.673  -2.401  -3.277  0.00  0.00     0.063 H 
ATOM     47  H   LIG d   1       8.210  -1.017  -4.609  0.00  0.00     0.062 H 
ENDBRANCH  11  37
TORSDOF 7
ENDMDL
MODEL 7
REMARK VINA RESULT:      -6.0      8.291     13.672
REMARK  7 active torsions:
REMARK  status: ('A' for Active; 'I' for Inactive)
REMARK    1  A    between atoms: C_1  and  C_2 
REMARK    2  A    between atoms: C_6  and  O_20 
REMARK    3  A    between atoms: C_12  and  C_13 
REMARK    4  A    between atoms: O_20  and  C_21 
REMARK    5  A    between atoms: C_21  and  C_23 
REMARK    6  A    between atoms: C_26  and  O_29 
REMARK    7  A    between atoms: O_29  and  C_30 
ROOT
ATOM      1  C   LIG d   1       7.262  -7.941  -4.605  0.00  0.00    -0.025 A 
ATOM      2  C   LIG d   1       6.891  -6.782  -5.334  0.00  0.00     0.021 A 
ATOM      3  C   LIG d   1       7.858  -5.825  -5.678  0.00  0.00    -0.047 A 
ATOM      4  C   LIG d   1       7.496  -4.713  -6.379  0.00  0.00    -0.018 A 
ATOM      5  C   LIG d   1       6.169  -4.518  -6.756  0.00  0.00     0.136 A 
ATOM      6  C   LIG d   1       5.200  -5.450  -6.426  0.00  0.00     0.024 A 
ATOM      7  C   LIG d   1       5.550  -6.589  -5.713  0.00  0.00     0.143 A 
ATOM      8  O   LIG d   1       4.603  -7.497  -5.385  0.00  0.00    -0.422 OA
ATOM      9  C   LIG d   1       4.915  -8.610  -4.700  0.00  0.00     0.345 A 
ATOM     10  O   LIG d   1       4.044  -9.414  -4.422  0.00  0.00    -0.244 OA
ATOM     11  C   LIG d   1       6.297  -8.857  -4.283  0.00  0.00     0.070 A 
ATOM     12  H   LIG d   1       8.888  -5.970  -5.389  0.00  0.00     0.063 H 
ATOM     13  H   LIG d   1       8.243  -3.978  -6.642  0.00  0.00     0.065 H 
ATOM     14  H   LIG d   1       4.174  -5.292  -6.722  0.00  0.00     0.069 H 
ENDROOT
BRANCH   5  15
ATOM     15  O   LIG d   1       5.823  -3.406  -7.453  0.00  0.00    -0.422 OA
BRANCH  15  16
ATOM     16  C   LIG d   1       6.262  -2.223  -6.976  0.00  0.00     0.344 C 
ATOM     17  O   LIG d   1       7.011  -1.539  -7.644  0.00  0.00    -0.244 OA
BRANCH  16  18
ATOM     18  C   LIG d   1       5.831  -1.760  -5.644  0.00  0.00     0.060 A 
ATOM     19  C   LIG d   1       4.516  -1.331  -5.443  0.00  0.00    -0.044 A 
ATOM     20  C   LIG d   1       4.119  -0.899  -4.197  0.00  0.00    -0.019 A 
ATOM     21  H   LIG d   1       3.814  -1.337  -6.263  0.00  0.00     0.063 H 
ATOM     22  C   LIG d   1       5.022  -0.890  -3.141  0.00  0.00     0.120 A 
ATOM     23  H   LIG d   1       3.103  -0.567  -4.041  0.00  0.00     0.065 H 
ATOM     24  C   LIG d   1       6.331  -1.316  -3.337  0.00  0.00    -0.019 A 
ATOM     25  C   LIG d   1       6.736  -1.754  -4.578  0.00  0.00    -0.044 A 
ATOM     26  H   LIG d   1       7.031  -1.306  -2.514  0.00  0.00     0.065 H 
ATOM     27  H   LIG d   1       7.752  -2.088  -4.729  0.00  0.00     0.063 H 
BRANCH  22  28
ATOM     28  O   LIG d   1       4.627  -0.463  -1.915  0.00  0.00    -0.495 OA
BRANCH  28  29
ATOM     29  C   LIG d   1       4.440   0.943  -1.746  0.00  0.00     0.079 C 
ATOM     30  H   LIG d   1       4.417   1.181  -0.683  0.00  0.00     0.066 H 
ATOM     31  H   LIG d   1       5.263   1.478  -2.221  0.00  0.00     0.066 H 
ATOM     32  H   LIG d   1       3.499   1.242  -2.207  0.00  0.00     0.066 H 
ENDBRANCH  28  29
ENDBRANCH  22  28
ENDBRANCH  16  18
ENDBRANCH  15  16
ENDBRANCH   5  15
BRANCH   1  33
ATOM     33  C   LIG d   1       8.695  -8.160  -4.193  0.00  0.00    -0.038 C 
ATOM     34  H   LIG d   1       8.893  -7.620  -3.267  0.00  0.00     0.028 H 
ATOM     35  H   LIG d   1       8.869  -9.225  -4.035  0.00  0.00     0.028 H 
ATOM     36  H   LIG d   1       9.359  -7.794  -4.975  0.00  0.00     0.028 H 
ENDBRANCH   1  33
BRANCH  11  37
ATOM     37  C   LIG d   1       6.646 -10.080  -3.522  0.00  0.00    -0.011 A 
ATOM     38  C   LIG d   1       7.041 -11.235  -4.196  0.00  0.00    -0.052 A 
ATOM     39  C   LIG d   1       7.364 -12.371  -3.482  0.00  0.00    -0.043 A 
ATOM     40  H   LIG d   1       7.094 -11.241  -5.275  0.00  0.00     0.062 H 
ATOM     41  C   LIG d   1       7.298 -12.364  -2.099  0.00  0.00     0.041 A 
ATOM     42  H   LIG d   1       7.670 -13.265  -4.003  0.00  0.00     0.063 H 
ATOM     43  C   LIG d   1       6.905 -11.219  -1.425  0.00  0.00    -0.043 A 
ATOM     44 CL   LIG d   1       7.707 -13.795  -1.207  0.00  0.00    -0.084 Cl
ATOM     45  C   LIG d   1       6.585 -10.077  -2.129  0.00  0.00    -0.052 A 
ATOM     46  H   LIG d   1       6.856 -11.220  -0.346  0.00  0.00     0.063 H 
ATOM     47  H   LIG d   1       6.284  -9.184  -1.601  0.00  0.00     0.062 H 
ENDBRANCH  11  37
TORSDOF 7
ENDMDL
MODEL 8
REMARK VINA RESULT:      -6.0      7.895     11.304
REMARK  7 active torsions:
REMARK  status: ('A' for Active; 'I' for Inactive)
REMARK    1  A    between atoms: C_1  and  C_2 
REMARK    2  A    between atoms: C_6  and  O_20 
REMARK    3  A    between atoms: C_12  and  C_13 
REMARK    4  A    between atoms: O_20  and  C_21 
REMARK    5  A    between atoms: C_21  and  C_23 
REMARK    6  A    between atoms: C_26  and  O_29 
REMARK    7  A    between atoms: O_29  and  C_30 
ROOT
ATOM      1  C   LIG d   1       3.257  -0.460  -7.626  0.00  0.00    -0.025 A 
ATOM      2  C   LIG d   1       3.081  -1.046  -8.905  0.00  0.00     0.021 A 
ATOM      3  C   LIG d   1       2.469  -0.318  -9.938  0.00  0.00    -0.047 A 
ATOM      4  C   LIG d   1       2.302  -0.887 -11.165  0.00  0.00    -0.018 A 
ATOM      5  C   LIG d   1       2.733  -2.190 -11.404  0.00  0.00     0.136 A 
ATOM      6  C   LIG d   1       3.338  -2.925 -10.399  0.00  0.00     0.024 A 
ATOM      7  C   LIG d   1       3.518  -2.362  -9.142  0.00  0.00     0.143 A 
ATOM      8  O   LIG d   1       4.103  -3.082  -8.159  0.00  0.00    -0.422 OA
ATOM      9  C   LIG d   1       4.293  -2.561  -6.935  0.00  0.00     0.345 A 
ATOM     10  O   LIG d   1       4.827  -3.228  -6.068  0.00  0.00    -0.244 OA
ATOM     11  C   LIG d   1       3.856  -1.194  -6.638  0.00  0.00     0.070 A 
ATOM     12  H   LIG d   1       2.133   0.692  -9.759  0.00  0.00     0.063 H 
ATOM     13  H   LIG d   1       1.831  -0.323 -11.958  0.00  0.00     0.065 H 
ATOM     14  H   LIG d   1       3.671  -3.934 -10.591  0.00  0.00     0.069 H 
ENDROOT
BRANCH   5  15
ATOM     15  O   LIG d   1       2.560  -2.743 -12.632  0.00  0.00    -0.422 OA
BRANCH  15  16
ATOM     16  C   LIG d   1       1.360  -3.303 -12.887  0.00  0.00     0.344 C 
ATOM     17  O   LIG d   1       0.726  -2.961 -13.864  0.00  0.00    -0.244 OA
BRANCH  16  18
ATOM     18  C   LIG d   1       0.819  -4.332 -11.979  0.00  0.00     0.060 A 
ATOM     19  C   LIG d   1      -0.232  -4.018 -11.113  0.00  0.00    -0.044 A 
ATOM     20  C   LIG d   1      -0.734  -4.982 -10.267  0.00  0.00    -0.019 A 
ATOM     21  H   LIG d   1      -0.649  -3.022 -11.106  0.00  0.00     0.063 H 
ATOM     22  C   LIG d   1      -0.198  -6.264 -10.273  0.00  0.00     0.120 A 
ATOM     23  H   LIG d   1      -1.547  -4.740  -9.597  0.00  0.00     0.065 H 
ATOM     24  C   LIG d   1       0.848  -6.579 -11.132  0.00  0.00    -0.019 A 
ATOM     25  C   LIG d   1       1.353  -5.624 -11.986  0.00  0.00    -0.044 A 
ATOM     26  H   LIG d   1       1.263  -7.577 -11.133  0.00  0.00     0.065 H 
ATOM     27  H   LIG d   1       2.163  -5.871 -12.656  0.00  0.00     0.063 H 
BRANCH  22  28
ATOM     28  O   LIG d   1      -0.695  -7.210  -9.437  0.00  0.00    -0.495 OA
BRANCH  28  29
ATOM     29  C   LIG d   1      -2.082  -7.120  -9.106  0.00  0.00     0.079 C 
ATOM     30  H   LIG d   1      -2.681  -7.441  -9.959  0.00  0.00     0.066 H 
ATOM     31  H   LIG d   1      -2.294  -7.762  -8.251  0.00  0.00     0.066 H 
ATOM     32  H   LIG d   1      -2.329  -6.089  -8.856  0.00  0.00     0.066 H 
ENDBRANCH  28  29
ENDBRANCH  22  28
ENDBRANCH  16  18
ENDBRANCH  15  16
ENDBRANCH   5  15
BRANCH   1  33
ATOM     33  C   LIG d   1       2.793   0.949  -7.359  0.00  0.00    -0.038 C 
ATOM     34  H   LIG d   1       3.271   1.629  -8.065  0.00  0.00     0.028 H 
ATOM     35  H   LIG d   1       1.711   1.004  -7.479  0.00  0.00     0.028 H 
ATOM     36  H   LIG d   1       3.061   1.234  -6.342  0.00  0.00     0.028 H 
ENDBRANCH   1  33
BRANCH  11  37
ATOM     37  C   LIG d   1       4.057  -0.616  -5.289  0.00  0.00    -0.011 A 
ATOM     38  C   LIG d   1       5.329  -0.212  -4.883  0.00  0.00    -0.052 A 
ATOM     39  C   LIG d   1       5.510   0.325  -3.625  0.00  0.00    -0.043 A 
ATOM     40  H   LIG d   1       6.170  -0.319  -5.552  0.00  0.00     0.062 H 
ATOM     41  C   LIG d   1       4.433   0.464  -2.767  0.00  0.00     0.041 A 
ATOM     42  H   LIG d   1       6.494   0.638  -3.310  0.00  0.00     0.063 H 
ATOM     43  C   LIG d   1       3.168   0.064  -3.165  0.00  0.00    -0.043 A 
ATOM     44 CL   LIG d   1       4.668   1.142  -1.187  0.00  0.00    -0.084 Cl
ATOM     45  C   LIG d   1       2.975  -0.470  -4.423  0.00  0.00    -0.052 A 
ATOM     46  H   LIG d   1       2.331   0.174  -2.491  0.00  0.00     0.063 H 
ATOM     47  H   LIG d   1       1.987  -0.777  -4.733  0.00  0.00     0.062 H 
ENDBRANCH  11  37
TORSDOF 7
ENDMDL
MODEL 9
REMARK VINA RESULT:      -5.9      5.150      9.430
REMARK  7 active torsions:
REMARK  status: ('A' for Active; 'I' for Inactive)
REMARK    1  A    between atoms: C_1  and  C_2 
REMARK    2  A    between atoms: C_6  and  O_20 
REMARK    3  A    between atoms: C_12  and  C_13 
REMARK    4  A    between atoms: O_20  and  C_21 
REMARK    5  A    between atoms: C_21  and  C_23 
REMARK    6  A    between atoms: C_26  and  O_29 
REMARK    7  A    between atoms: O_29  and  C_30 
ROOT
ATOM      1  C   LIG d   1       9.914   5.635  -6.010  0.00  0.00    -0.025 A 
ATOM      2  C   LIG d   1       9.887   5.949  -4.627  0.00  0.00     0.021 A 
ATOM      3  C   LIG d   1       9.934   4.925  -3.669  0.00  0.00    -0.047 A 
ATOM      4  C   LIG d   1       9.908   5.232  -2.342  0.00  0.00    -0.018 A 
ATOM      5  C   LIG d   1       9.833   6.560  -1.926  0.00  0.00     0.136 A 
ATOM      6  C   LIG d   1       9.786   7.585  -2.855  0.00  0.00     0.024 A 
ATOM      7  C   LIG d   1       9.812   7.291  -4.212  0.00  0.00     0.143 A 
ATOM      8  O   LIG d   1       9.759   8.291  -5.119  0.00  0.00    -0.422 OA
ATOM      9  C   LIG d   1       9.787   8.036  -6.438  0.00  0.00     0.345 A 
ATOM     10  O   LIG d   1       9.744   8.956  -7.235  0.00  0.00    -0.244 OA
ATOM     11  C   LIG d   1       9.866   6.655  -6.921  0.00  0.00     0.070 A 
ATOM     12  H   LIG d   1       9.991   3.893  -3.984  0.00  0.00     0.063 H 
ATOM     13  H   LIG d   1       9.944   4.441  -1.607  0.00  0.00     0.065 H 
ATOM     14  H   LIG d   1       9.729   8.612  -2.526  0.00  0.00     0.069 H 
ENDROOT
BRANCH   5  15
ATOM     15  O   LIG d   1       9.808   6.851  -0.600  0.00  0.00    -0.422 OA
BRANCH  15  16
ATOM     16  C   LIG d   1      10.959   7.285  -0.047  0.00  0.00     0.344 C 
ATOM     17  O   LIG d   1      11.897   6.525   0.078  0.00  0.00    -0.244 OA
BRANCH  16  18
ATOM     18  C   LIG d   1      11.077   8.684   0.405  0.00  0.00     0.060 A 
ATOM     19  C   LIG d   1      10.162   9.643  -0.038  0.00  0.00    -0.044 A 
ATOM     20  C   LIG d   1      10.277  10.948   0.387  0.00  0.00    -0.019 A 
ATOM     21  H   LIG d   1       9.368   9.362  -0.712  0.00  0.00     0.063 H 
ATOM     22  C   LIG d   1      11.300  11.312   1.254  0.00  0.00     0.120 A 
ATOM     23  H   LIG d   1       9.570  11.690   0.045  0.00  0.00     0.065 H 
ATOM     24  C   LIG d   1      12.212  10.361   1.697  0.00  0.00    -0.019 A 
ATOM     25  C   LIG d   1      12.102   9.053   1.282  0.00  0.00    -0.044 A 
ATOM     26  H   LIG d   1      13.007  10.648   2.370  0.00  0.00     0.065 H 
ATOM     27  H   LIG d   1      12.809   8.314   1.629  0.00  0.00     0.063 H 
BRANCH  22  28
ATOM     28  O   LIG d   1      11.410  12.599   1.670  0.00  0.00    -0.495 OA
BRANCH  28  29
ATOM     29  C   LIG d   1      12.707  13.044   2.069  0.00  0.00     0.079 C 
ATOM     30  H   LIG d   1      12.641  13.531   3.042  0.00  0.00     0.066 H 
ATOM     31  H   LIG d   1      13.380  12.188   2.135  0.00  0.00     0.066 H 
ATOM     32  H   LIG d   1      13.091  13.751   1.334  0.00  0.00     0.066 H 
ENDBRANCH  28  29
ENDBRANCH  22  28
ENDBRANCH  16  18
ENDBRANCH  15  16
ENDBRANCH   5  15
BRANCH   1  33
ATOM     33  C   LIG d   1       9.993   4.202  -6.468  0.00  0.00    -0.038 C 
ATOM     34  H   LIG d   1      10.085   3.547  -5.601  0.00  0.00     0.028 H 
ATOM     35  H   LIG d   1       9.089   3.946  -7.021  0.00  0.00     0.028 H 
ATOM     36  H   LIG d   1      10.862   4.073  -7.112  0.00  0.00     0.028 H 
ENDBRANCH   1  33
BRANCH  11  37
ATOM     37  C   LIG d   1       9.891   6.367  -8.374  0.00  0.00    -0.011 A 
ATOM     38  C   LIG d   1      11.108   6.253  -9.044  0.00  0.00    -0.052 A 
ATOM     39  C   LIG d   1      11.126   5.985 -10.398  0.00  0.00    -0.043 A 
ATOM     40  H   LIG d   1      12.037   6.376  -8.505  0.00  0.00     0.062 H 
ATOM     41  C   LIG d   1       9.937   5.828 -11.090  0.00  0.00     0.041 A 
ATOM     42  H   LIG d   1      12.068   5.897 -10.917  0.00  0.00     0.063 H 
ATOM     43  C   LIG d   1       8.725   5.940 -10.429  0.00  0.00    -0.043 A 
ATOM     44 CL   LIG d   1       9.966   5.489 -12.792  0.00  0.00    -0.084 Cl
ATOM     45  C   LIG d   1       8.697   6.203  -9.075  0.00  0.00    -0.052 A 
ATOM     46  H   LIG d   1       7.801   5.816 -10.974  0.00  0.00     0.063 H 
ATOM     47  H   LIG d   1       7.750   6.285  -8.560  0.00  0.00     0.062 H 
ENDBRANCH  11  37
TORSDOF 7
ENDMDL
MODEL 10
REMARK VINA RESULT:      -5.9      7.795     12.825
REMARK  7 active torsions:
REMARK  status: ('A' for Active; 'I' for Inactive)
REMARK    1  A    between atoms: C_1  and  C_2 
REMARK    2  A    between atoms: C_6  and  O_20 
REMARK    3  A    between atoms: C_12  and  C_13 
REMARK    4  A    between atoms: O_20  and  C_21 
REMARK    5  A    between atoms: C_21  and  C_23 
REMARK    6  A    between atoms: C_26  and  O_29 
REMARK    7  A    between atoms: O_29  and  C_30 
ROOT
ATOM      1  C   LIG d   1       8.842  -7.787  -3.312  0.00  0.00    -0.025 A 
ATOM      2  C   LIG d   1       8.986  -6.428  -3.692  0.00  0.00     0.021 A 
ATOM      3  C   LIG d   1       8.331  -5.941  -4.833  0.00  0.00    -0.047 A 
ATOM      4  C   LIG d   1       8.473  -4.634  -5.194  0.00  0.00    -0.018 A 
ATOM      5  C   LIG d   1       9.266  -3.775  -4.436  0.00  0.00     0.136 A 
ATOM      6  C   LIG d   1       9.920  -4.236  -3.307  0.00  0.00     0.024 A 
ATOM      7  C   LIG d   1       9.787  -5.565  -2.924  0.00  0.00     0.143 A 
ATOM      8  O   LIG d   1      10.431  -6.017  -1.825  0.00  0.00    -0.422 OA
ATOM      9  C   LIG d   1      10.317  -7.296  -1.429  0.00  0.00     0.345 A 
ATOM     10  O   LIG d   1      10.903  -7.676  -0.432  0.00  0.00    -0.244 OA
ATOM     11  C   LIG d   1       9.493  -8.234  -2.195  0.00  0.00     0.070 A 
ATOM     12  H   LIG d   1       7.715  -6.601  -5.425  0.00  0.00     0.063 H 
ATOM     13  H   LIG d   1       7.967  -4.262  -6.073  0.00  0.00     0.065 H 
ATOM     14  H   LIG d   1      10.533  -3.565  -2.724  0.00  0.00     0.069 H 
ENDROOT
BRANCH   5  15
ATOM     15  O   LIG d   1       9.398  -2.475  -4.807  0.00  0.00    -0.422 OA
BRANCH  15  16
ATOM     16  C   LIG d   1       8.299  -1.864  -5.294  0.00  0.00     0.344 C 
ATOM     17  O   LIG d   1       8.035  -1.941  -6.477  0.00  0.00    -0.244 OA
BRANCH  16  18
ATOM     18  C   LIG d   1       7.418  -1.101  -4.390  0.00  0.00     0.060 A 
ATOM     19  C   LIG d   1       6.462  -1.766  -3.617  0.00  0.00    -0.044 A 
ATOM     20  C   LIG d   1       5.642  -1.050  -2.775  0.00  0.00    -0.019 A 
ATOM     21  H   LIG d   1       6.367  -2.840  -3.682  0.00  0.00     0.063 H 
ATOM     22  C   LIG d   1       5.762   0.332  -2.692  0.00  0.00     0.120 A 
ATOM     23  H   LIG d   1       4.903  -1.564  -2.177  0.00  0.00     0.065 H 
ATOM     24  C   LIG d   1       6.711   0.998  -3.459  0.00  0.00    -0.019 A 
ATOM     25  C   LIG d   1       7.540   0.289  -4.300  0.00  0.00    -0.044 A 
ATOM     26  H   LIG d   1       6.801   2.072  -3.393  0.00  0.00     0.065 H 
ATOM     27  H   LIG d   1       8.279   0.807  -4.893  0.00  0.00     0.063 H 
BRANCH  22  28
ATOM     28  O   LIG d   1       4.951   1.034  -1.861  0.00  0.00    -0.495 OA
BRANCH  28  29
ATOM     29  C   LIG d   1       3.641   1.342  -2.340  0.00  0.00     0.079 C 
ATOM     30  H   LIG d   1       3.406   0.703  -3.191  0.00  0.00     0.066 H 
ATOM     31  H   LIG d   1       2.915   1.171  -1.545  0.00  0.00     0.066 H 
ATOM     32  H   LIG d   1       3.603   2.386  -2.648  0.00  0.00     0.066 H 
ENDBRANCH  28  29
ENDBRANCH  22  28
ENDBRANCH  16  18
ENDBRANCH  15  16
ENDBRANCH   5  15
BRANCH   1  33
ATOM     33  C   LIG d   1       7.987  -8.723  -4.127  0.00  0.00    -0.038 C 
ATOM     34  H   LIG d   1       7.594  -9.510  -3.483  0.00  0.00     0.028 H 
ATOM     35  H   LIG d   1       7.158  -8.168  -4.567  0.00  0.00     0.028 H 
ATOM     36  H   LIG d   1       8.587  -9.169  -4.919  0.00  0.00     0.028 H 
ENDBRANCH   1  33
BRANCH  11  37
ATOM     37  C   LIG d   1       9.368  -9.648  -1.767  0.00  0.00    -0.011 A 
ATOM     38  C   LIG d   1       8.318 -10.037  -0.936  0.00  0.00    -0.052 A 
ATOM     39  C   LIG d   1       8.207 -11.354  -0.540  0.00  0.00    -0.043 A 
ATOM     40  H   LIG d   1       7.593  -9.309  -0.602  0.00  0.00     0.062 H 
ATOM     41  C   LIG d   1       9.135 -12.289  -0.968  0.00  0.00     0.041 A 
ATOM     42  H   LIG d   1       7.395 -11.657   0.103  0.00  0.00     0.063 H 
ATOM     43  C   LIG d   1      10.180 -11.907  -1.793  0.00  0.00    -0.043 A 
ATOM     44 CL   LIG d   1       8.988 -13.944  -0.468  0.00  0.00    -0.084 Cl
ATOM     45  C   LIG d   1      10.297 -10.593  -2.199  0.00  0.00    -0.052 A 
ATOM     46  H   LIG d   1      10.901 -12.640  -2.124  0.00  0.00     0.063 H 
ATOM     47  H   LIG d   1      11.110 -10.298  -2.846  0.00  0.00     0.062 H 
ENDBRANCH  11  37
TORSDOF 7
ENDMDL
