MODEL 1
REMARK VINA RESULT:      -5.7      0.000      0.000
REMARK  9 active torsions:
REMARK  status: ('A' for Active; 'I' for Inactive)
REMARK    1  A    between atoms: C_1  and  C_2 
REMARK    2  A    between atoms: C_2  and  C_3 
REMARK    3  A    between atoms: C_3  and  N_4 
REMARK       I    between atoms: N_4  and  C_5 
REMARK    4  A    between atoms: C_5  and  C_7 
REMARK    5  A    between atoms: C_9  and  C_12 
REMARK       I    between atoms: C_12  and  N_14 
REMARK       I    between atoms: N_14  and  CA_16 
REMARK    6  A    between atoms: CA_16  and  CB_18 
REMARK       I    between atoms: CA_16  and  C_23 
REMARK    7  A    between atoms: CB_18  and  CG2_20 
REMARK    8  A    between atoms: CB_18  and  CG1_21 
REMARK    9  A    between atoms: CG1_21  and  CD1_22 
REMARK       I    between atoms: C_23  and  N_25 
REMARK       I    between atoms: CA_29  and  C_31 
ROOT
ATOM      1  C   UNK d   0       5.388  -0.551  -9.323  0.00  0.00     0.246 C 
ATOM      2  O   UNK d   0       5.567  -1.744  -9.444  0.00  0.00    -0.273 OA
ATOM      3  N   ILE d   1       5.215  -0.017  -8.097  0.00  0.00    -0.301 N 
ATOM      4  H   ILE d   1       5.005   0.925  -8.004  0.00  0.00     0.149 HD
ATOM      5  CA  ILE d   1       5.347  -0.858  -6.905  0.00  0.00     0.102 C 
ATOM      6  HA  ILE d   1       5.086  -1.886  -7.156  0.00  0.00     0.060 H 
ATOM      7  C   ILE d   1       4.421  -0.354  -5.829  0.00  0.00     0.237 C 
ATOM      8  O   ILE d   1       3.721   0.615  -6.037  0.00  0.00    -0.274 OA
ATOM      9  N   PRO d   2       4.371  -0.978  -4.636  0.00  0.00    -0.292 N 
ATOM     10  CD  PRO d   2       5.159  -2.164  -4.253  0.00  0.00     0.015 C 
ATOM     11  CG  PRO d   2       4.343  -2.837  -3.124  0.00  0.00    -0.035 C 
ATOM     12  CB  PRO d   2       3.777  -1.607  -2.368  0.00  0.00    -0.028 C 
ATOM     13  CA  PRO d   2       3.518  -0.594  -3.502  0.00  0.00     0.066 C 
ATOM     14  HA  PRO d   2       2.470  -0.628  -3.799  0.00  0.00     0.056 H 
ATOM     15  C   PRO d   2       3.874   0.796  -3.041  0.00  0.00     0.062 C 
ATOM     16  O   PRO d   2       4.753   1.411  -3.597  0.00  0.00    -0.548 OA
ATOM     17  HD1 PRO d   2       5.265  -2.840  -5.102  0.00  0.00     0.046 H 
ATOM     18  HD2 PRO d   2       6.139  -1.864  -3.882  0.00  0.00     0.046 H 
ATOM     19  HG1 PRO d   2       4.988  -3.432  -2.477  0.00  0.00     0.028 H 
ATOM     20  HG2 PRO d   2       3.539  -3.445  -3.538  0.00  0.00     0.028 H 
ATOM     21  HB1 PRO d   2       4.512  -1.216  -1.663  0.00  0.00     0.029 H 
ATOM     22  HB2 PRO d   2       2.850  -1.859  -1.855  0.00  0.00     0.029 H 
ATOM     23  OXT PRO d   2       3.215   1.351  -2.011  0.00  0.00    -0.548 OA
ENDROOT
BRANCH   5  24
ATOM     24  CB  ILE d   1       6.790  -0.808  -6.402  0.00  0.00    -0.017 C 
ATOM     25  HB  ILE d   1       6.798  -0.875  -5.314  0.00  0.00     0.032 H 
BRANCH  24  26
ATOM     26  CG2 ILE d   1       7.578  -1.980  -6.991  0.00  0.00    -0.060 C 
ATOM     27 1HG2 ILE d   1       7.345  -2.077  -8.052  0.00  0.00     0.023 H 
ATOM     28 2HG2 ILE d   1       8.646  -1.798  -6.868  0.00  0.00     0.023 H 
ATOM     29 3HG2 ILE d   1       7.304  -2.899  -6.474  0.00  0.00     0.023 H 
ENDBRANCH  24  26
BRANCH  24  30
ATOM     30  CG1 ILE d   1       7.435   0.510  -6.836  0.00  0.00    -0.051 C 
ATOM     31 1HG1 ILE d   1       6.695   1.128  -7.343  0.00  0.00     0.027 H 
ATOM     32 2HG1 ILE d   1       8.263   0.304  -7.513  0.00  0.00     0.027 H 
BRANCH  30  33
ATOM     33  CD1 ILE d   1       7.959   1.251  -5.603  0.00  0.00    -0.065 C 
ATOM     34 1HD1 ILE d   1       7.704   2.308  -5.678  0.00  0.00     0.023 H 
ATOM     35 2HD1 ILE d   1       7.503   0.830  -4.706  0.00  0.00     0.023 H 
ATOM     36 3HD1 ILE d   1       9.042   1.141  -5.545  0.00  0.00     0.023 H 
ENDBRANCH  30  33
ENDBRANCH  24  30
ENDBRANCH   5  24
BRANCH   1  37
ATOM     37  C   UNK d   0       5.357   0.334 -10.541  0.00  0.00     0.170 A 
ATOM     38  C   UNK d   0       4.019   0.513 -11.261  0.00  0.00     0.170 A 
ATOM     39  H   UNK d   0       4.037   0.634 -12.344  0.00  0.00     0.072 H 
ATOM     40  O   UNK d   0       4.604   1.547 -10.466  0.00  0.00    -0.349 OA
ATOM     41  H   UNK d   0       6.265   0.337 -11.146  0.00  0.00     0.072 H 
BRANCH  38  42
ATOM     42  C   UNK d   0       2.821  -0.210 -10.702  0.00  0.00     0.245 C 
ATOM     43  N   UNK d   0       2.567  -1.481 -11.072  0.00  0.00    -0.313 N 
ATOM     44  H   UNK d   0       3.191  -1.953 -11.644  0.00  0.00     0.149 HD
ATOM     45  O   UNK d   0       2.084   0.354  -9.920  0.00  0.00    -0.273 OA
BRANCH  43  46
ATOM     46  C   UNK d   0       1.347  -2.148 -10.610  0.00  0.00     0.011 C 
ATOM     47  H   UNK d   0       1.060  -1.748  -9.637  0.00  0.00     0.046 H 
ATOM     48  H   UNK d   0       0.543  -1.973 -11.326  0.00  0.00     0.046 H 
BRANCH  46  49
ATOM     49  C   UNK d   0       1.603  -3.651 -10.488  0.00  0.00    -0.040 C 
ATOM     50  H   UNK d   0       0.726  -4.137 -10.061  0.00  0.00     0.028 H 
ATOM     51  H   UNK d   0       1.804  -4.066 -11.475  0.00  0.00     0.028 H 
BRANCH  49  52
ATOM     52  C   UNK d   0       2.812  -3.889  -9.579  0.00  0.00    -0.064 C 
ATOM     53  H   UNK d   0       2.678  -3.343  -8.645  0.00  0.00     0.023 H 
ATOM     54  H   UNK d   0       2.903  -4.954  -9.368  0.00  0.00     0.023 H 
ATOM     55  H   UNK d   0       3.715  -3.539 -10.078  0.00  0.00     0.023 H 
ENDBRANCH  49  52
ENDBRANCH  46  49
ENDBRANCH  43  46
ENDBRANCH  38  42
ENDBRANCH   1  37
TORSDOF 12
ENDMDL
MODEL 2
REMARK VINA RESULT:      -5.7      2.062      3.105
REMARK  9 active torsions:
REMARK  status: ('A' for Active; 'I' for Inactive)
REMARK    1  A    between atoms: C_1  and  C_2 
REMARK    2  A    between atoms: C_2  and  C_3 
REMARK    3  A    between atoms: C_3  and  N_4 
REMARK       I    between atoms: N_4  and  C_5 
REMARK    4  A    between atoms: C_5  and  C_7 
REMARK    5  A    between atoms: C_9  and  C_12 
REMARK       I    between atoms: C_12  and  N_14 
REMARK       I    between atoms: N_14  and  CA_16 
REMARK    6  A    between atoms: CA_16  and  CB_18 
REMARK       I    between atoms: CA_16  and  C_23 
REMARK    7  A    between atoms: CB_18  and  CG2_20 
REMARK    8  A    between atoms: CB_18  and  CG1_21 
REMARK    9  A    between atoms: CG1_21  and  CD1_22 
REMARK       I    between atoms: C_23  and  N_25 
REMARK       I    between atoms: CA_29  and  C_31 
ROOT
ATOM      1  C   UNK d   0       4.325  -3.408  -8.750  0.00  0.00     0.246 C 
ATOM      2  O   UNK d   0       3.572  -4.271  -8.354  0.00  0.00    -0.273 OA
ATOM      3  N   ILE d   1       4.924  -2.580  -7.871  0.00  0.00    -0.301 N 
ATOM      4  H   ILE d   1       5.472  -1.847  -8.191  0.00  0.00     0.149 HD
ATOM      5  CA  ILE d   1       4.746  -2.787  -6.431  0.00  0.00     0.102 C 
ATOM      6  HA  ILE d   1       3.784  -3.265  -6.249  0.00  0.00     0.060 H 
ATOM      7  C   ILE d   1       4.787  -1.458  -5.723  0.00  0.00     0.237 C 
ATOM      8  O   ILE d   1       4.951  -0.437  -6.359  0.00  0.00    -0.274 OA
ATOM      9  N   PRO d   2       4.644  -1.402  -4.385  0.00  0.00    -0.292 N 
ATOM     10  CD  PRO d   2       4.434  -2.559  -3.495  0.00  0.00     0.015 C 
ATOM     11  CG  PRO d   2       3.735  -1.977  -2.243  0.00  0.00    -0.035 C 
ATOM     12  CB  PRO d   2       4.435  -0.600  -2.104  0.00  0.00    -0.028 C 
ATOM     13  CA  PRO d   2       4.665  -0.179  -3.570  0.00  0.00     0.066 C 
ATOM     14  HA  PRO d   2       3.871   0.495  -3.893  0.00  0.00     0.056 H 
ATOM     15  C   PRO d   2       6.001   0.504  -3.705  0.00  0.00     0.062 C 
ATOM     16  O   PRO d   2       6.858   0.023  -4.409  0.00  0.00    -0.548 OA
ATOM     17  HD1 PRO d   2       3.796  -3.299  -3.978  0.00  0.00     0.046 H 
ATOM     18  HD2 PRO d   2       5.391  -3.004  -3.220  0.00  0.00     0.046 H 
ATOM     19  HG1 PRO d   2       3.919  -2.600  -1.367  0.00  0.00     0.028 H 
ATOM     20  HG2 PRO d   2       2.666  -1.856  -2.418  0.00  0.00     0.028 H 
ATOM     21  HB1 PRO d   2       5.386  -0.702  -1.578  0.00  0.00     0.029 H 
ATOM     22  HB2 PRO d   2       3.789   0.114  -1.593  0.00  0.00     0.029 H 
ATOM     23  OXT PRO d   2       6.241   1.647  -3.043  0.00  0.00    -0.548 OA
ENDROOT
BRANCH   5  24
ATOM     24  CB  ILE d   1       5.868  -3.682  -5.903  0.00  0.00    -0.017 C 
ATOM     25  HB  ILE d   1       6.176  -3.335  -4.916  0.00  0.00     0.032 H 
BRANCH  24  26
ATOM     26  CG2 ILE d   1       5.366  -5.124  -5.802  0.00  0.00    -0.060 C 
ATOM     27 1HG2 ILE d   1       5.259  -5.542  -6.802  0.00  0.00     0.023 H 
ATOM     28 2HG2 ILE d   1       6.082  -5.718  -5.233  0.00  0.00     0.023 H 
ATOM     29 3HG2 ILE d   1       4.400  -5.138  -5.297  0.00  0.00     0.023 H 
ENDBRANCH  24  26
BRANCH  24  30
ATOM     30  CG1 ILE d   1       7.061  -3.623  -6.859  0.00  0.00    -0.051 C 
ATOM     31 1HG1 ILE d   1       6.770  -3.100  -7.770  0.00  0.00     0.027 H 
ATOM     32 2HG1 ILE d   1       7.379  -4.635  -7.106  0.00  0.00     0.027 H 
BRANCH  30  33
ATOM     33  CD1 ILE d   1       8.215  -2.874  -6.188  0.00  0.00    -0.065 C 
ATOM     34 1HD1 ILE d   1       8.802  -3.571  -5.591  0.00  0.00     0.023 H 
ATOM     35 2HD1 ILE d   1       8.850  -2.427  -6.954  0.00  0.00     0.023 H 
ATOM     36 3HD1 ILE d   1       7.815  -2.090  -5.545  0.00  0.00     0.023 H 
ENDBRANCH  30  33
ENDBRANCH  24  30
ENDBRANCH   5  24
BRANCH   1  37
ATOM     37  C   UNK d   0       4.592  -3.260 -10.226  0.00  0.00     0.170 A 
ATOM     38  C   UNK d   0       3.860  -2.145 -10.976  0.00  0.00     0.170 A 
ATOM     39  H   UNK d   0       3.578  -2.331 -12.012  0.00  0.00     0.072 H 
ATOM     40  O   UNK d   0       5.254  -2.072 -10.668  0.00  0.00    -0.349 OA
ATOM     41  H   UNK d   0       4.798  -4.186 -10.764  0.00  0.00     0.072 H 
BRANCH  38  42
ATOM     42  C   UNK d   0       2.920  -1.270 -10.188  0.00  0.00     0.245 C 
ATOM     43  N   UNK d   0       3.353  -0.099  -9.681  0.00  0.00    -0.313 N 
ATOM     44  H   UNK d   0       4.250   0.213  -9.880  0.00  0.00     0.149 HD
ATOM     45  O   UNK d   0       1.773  -1.622 -10.009  0.00  0.00    -0.273 OA
BRANCH  43  46
ATOM     46  C   UNK d   0       2.471   0.702  -8.828  0.00  0.00     0.011 C 
ATOM     47  H   UNK d   0       1.483   0.763  -9.285  0.00  0.00     0.046 H 
ATOM     48  H   UNK d   0       2.390   0.233  -7.847  0.00  0.00     0.046 H 
BRANCH  46  49
ATOM     49  C   UNK d   0       3.051   2.109  -8.675  0.00  0.00    -0.040 C 
ATOM     50  H   UNK d   0       2.336   2.840  -9.053  0.00  0.00     0.028 H 
ATOM     51  H   UNK d   0       3.251   2.307  -7.623  0.00  0.00     0.028 H 
BRANCH  49  52
ATOM     52  C   UNK d   0       4.354   2.212  -9.471  0.00  0.00    -0.064 C 
ATOM     53  H   UNK d   0       5.183   2.398  -8.788  0.00  0.00     0.023 H 
ATOM     54  H   UNK d   0       4.527   1.280 -10.007  0.00  0.00     0.023 H 
ATOM     55  H   UNK d   0       4.279   3.033 -10.184  0.00  0.00     0.023 H 
ENDBRANCH  49  52
ENDBRANCH  46  49
ENDBRANCH  43  46
ENDBRANCH  38  42
ENDBRANCH   1  37
TORSDOF 12
ENDMDL
MODEL 3
REMARK VINA RESULT:      -5.6      1.828      2.992
REMARK  9 active torsions:
REMARK  status: ('A' for Active; 'I' for Inactive)
REMARK    1  A    between atoms: C_1  and  C_2 
REMARK    2  A    between atoms: C_2  and  C_3 
REMARK    3  A    between atoms: C_3  and  N_4 
REMARK       I    between atoms: N_4  and  C_5 
REMARK    4  A    between atoms: C_5  and  C_7 
REMARK    5  A    between atoms: C_9  and  C_12 
REMARK       I    between atoms: C_12  and  N_14 
REMARK       I    between atoms: N_14  and  CA_16 
REMARK    6  A    between atoms: CA_16  and  CB_18 
REMARK       I    between atoms: CA_16  and  C_23 
REMARK    7  A    between atoms: CB_18  and  CG2_20 
REMARK    8  A    between atoms: CB_18  and  CG1_21 
REMARK    9  A    between atoms: CG1_21  and  CD1_22 
REMARK       I    between atoms: C_23  and  N_25 
REMARK       I    between atoms: CA_29  and  C_31 
ROOT
ATOM      1  C   UNK d   0       3.047  -0.442  -8.859  0.00  0.00     0.246 C 
ATOM      2  O   UNK d   0       2.838  -1.632  -8.968  0.00  0.00    -0.273 OA
ATOM      3  N   ILE d   1       3.548   0.051  -7.709  0.00  0.00    -0.301 N 
ATOM      4  H   ILE d   1       3.652   1.009  -7.597  0.00  0.00     0.149 HD
ATOM      5  CA  ILE d   1       3.935  -0.858  -6.628  0.00  0.00     0.102 C 
ATOM      6  HA  ILE d   1       3.332  -1.765  -6.683  0.00  0.00     0.060 H 
ATOM      7  C   ILE d   1       3.710  -0.185  -5.299  0.00  0.00     0.237 C 
ATOM      8  O   ILE d   1       3.270   0.945  -5.259  0.00  0.00    -0.274 OA
ATOM      9  N   PRO d   2       3.998  -0.837  -4.156  0.00  0.00    -0.292 N 
ATOM     10  CD  PRO d   2       4.531  -2.209  -4.060  0.00  0.00     0.015 C 
ATOM     11  CG  PRO d   2       4.112  -2.701  -2.654  0.00  0.00    -0.035 C 
ATOM     12  CB  PRO d   2       4.259  -1.407  -1.811  0.00  0.00    -0.028 C 
ATOM     13  CA  PRO d   2       3.828  -0.302  -2.797  0.00  0.00     0.066 C 
ATOM     14  HA  PRO d   2       2.784  -0.039  -2.630  0.00  0.00     0.056 H 
ATOM     15  C   PRO d   2       4.698   0.916  -2.614  0.00  0.00     0.062 C 
ATOM     16  O   PRO d   2       5.393   1.305  -3.523  0.00  0.00    -0.548 OA
ATOM     17  HD1 PRO d   2       4.091  -2.841  -4.831  0.00  0.00     0.046 H 
ATOM     18  HD2 PRO d   2       5.617  -2.201  -4.149  0.00  0.00     0.046 H 
ATOM     19  HG1 PRO d   2       4.785  -3.480  -2.296  0.00  0.00     0.028 H 
ATOM     20  HG2 PRO d   2       3.079  -3.049  -2.658  0.00  0.00     0.028 H 
ATOM     21  HB1 PRO d   2       5.295  -1.265  -1.500  0.00  0.00     0.029 H 
ATOM     22  HB2 PRO d   2       3.598  -1.431  -0.945  0.00  0.00     0.029 H 
ATOM     23  OXT PRO d   2       4.699   1.570  -1.441  0.00  0.00    -0.548 OA
ENDROOT
BRANCH   5  24
ATOM     24  CB  ILE d   1       5.415  -1.221  -6.773  0.00  0.00    -0.017 C 
ATOM     25  HB  ILE d   1       5.788  -1.607  -5.824  0.00  0.00     0.032 H 
BRANCH  24  26
ATOM     26  CG2 ILE d   1       5.574  -2.289  -7.857  0.00  0.00    -0.060 C 
ATOM     27 1HG2 ILE d   1       5.741  -3.259  -7.389  0.00  0.00     0.023 H 
ATOM     28 2HG2 ILE d   1       4.669  -2.329  -8.462  0.00  0.00     0.023 H 
ATOM     29 3HG2 ILE d   1       6.425  -2.040  -8.490  0.00  0.00     0.023 H 
ENDBRANCH  24  26
BRANCH  24  30
ATOM     30  CG1 ILE d   1       6.209   0.026  -7.164  0.00  0.00    -0.051 C 
ATOM     31 1HG1 ILE d   1       5.556   0.899  -7.131  0.00  0.00     0.027 H 
ATOM     32 2HG1 ILE d   1       6.603  -0.095  -8.172  0.00  0.00     0.027 H 
BRANCH  30  33
ATOM     33  CD1 ILE d   1       7.369   0.220  -6.184  0.00  0.00    -0.065 C 
ATOM     34 1HD1 ILE d   1       8.310   0.002  -6.687  0.00  0.00     0.023 H 
ATOM     35 2HD1 ILE d   1       7.376   1.251  -5.829  0.00  0.00     0.023 H 
ATOM     36 3HD1 ILE d   1       7.245  -0.454  -5.336  0.00  0.00     0.023 H 
ENDBRANCH  30  33
ENDBRANCH  24  30
ENDBRANCH   5  24
BRANCH   1  37
ATOM     37  C   UNK d   0       2.748   0.484 -10.009  0.00  0.00     0.170 A 
ATOM     38  C   UNK d   0       3.755   0.542 -11.160  0.00  0.00     0.170 A 
ATOM     39  H   UNK d   0       3.892   1.498 -11.666  0.00  0.00     0.072 H 
ATOM     40  O   UNK d   0       2.485  -0.101 -11.287  0.00  0.00    -0.349 OA
ATOM     41  H   UNK d   0       2.216   1.400  -9.752  0.00  0.00     0.072 H 
BRANCH  38  42
ATOM     42  C   UNK d   0       4.979  -0.331 -11.065  0.00  0.00     0.245 C 
ATOM     43  N   UNK d   0       6.136   0.179 -10.597  0.00  0.00    -0.313 N 
ATOM     44  H   UNK d   0       6.164   1.087 -10.259  0.00  0.00     0.149 HD
ATOM     45  O   UNK d   0       4.923  -1.492 -11.410  0.00  0.00    -0.273 OA
BRANCH  43  46
ATOM     46  C   UNK d   0       7.352  -0.640 -10.602  0.00  0.00     0.011 C 
ATOM     47  H   UNK d   0       7.210  -1.502  -9.950  0.00  0.00     0.046 H 
ATOM     48  H   UNK d   0       7.557  -0.981 -11.617  0.00  0.00     0.046 H 
BRANCH  46  49
ATOM     49  C   UNK d   0       8.530   0.195 -10.096  0.00  0.00    -0.040 C 
ATOM     50  H   UNK d   0       9.119   0.544 -10.944  0.00  0.00     0.028 H 
ATOM     51  H   UNK d   0       8.154   1.052  -9.538  0.00  0.00     0.028 H 
BRANCH  49  52
ATOM     52  C   UNK d   0       9.408  -0.664  -9.183  0.00  0.00    -0.064 C 
ATOM     53  H   UNK d   0      10.328  -0.926  -9.705  0.00  0.00     0.023 H 
ATOM     54  H   UNK d   0       9.649  -0.104  -8.280  0.00  0.00     0.023 H 
ATOM     55  H   UNK d   0       8.870  -1.573  -8.914  0.00  0.00     0.023 H 
ENDBRANCH  49  52
ENDBRANCH  46  49
ENDBRANCH  43  46
ENDBRANCH  38  42
ENDBRANCH   1  37
TORSDOF 12
ENDMDL
MODEL 4
REMARK VINA RESULT:      -5.6      3.053      5.731
REMARK  9 active torsions:
REMARK  status: ('A' for Active; 'I' for Inactive)
REMARK    1  A    between atoms: C_1  and  C_2 
REMARK    2  A    between atoms: C_2  and  C_3 
REMARK    3  A    between atoms: C_3  and  N_4 
REMARK       I    between atoms: N_4  and  C_5 
REMARK    4  A    between atoms: C_5  and  C_7 
REMARK    5  A    between atoms: C_9  and  C_12 
REMARK       I    between atoms: C_12  and  N_14 
REMARK       I    between atoms: N_14  and  CA_16 
REMARK    6  A    between atoms: CA_16  and  CB_18 
REMARK       I    between atoms: CA_16  and  C_23 
REMARK    7  A    between atoms: CB_18  and  CG2_20 
REMARK    8  A    between atoms: CB_18  and  CG1_21 
REMARK    9  A    between atoms: CG1_21  and  CD1_22 
REMARK       I    between atoms: C_23  and  N_25 
REMARK       I    between atoms: CA_29  and  C_31 
ROOT
ATOM      1  C   UNK d   0       6.275   0.050  -7.831  0.00  0.00     0.246 C 
ATOM      2  O   UNK d   0       6.938  -0.924  -8.114  0.00  0.00    -0.273 OA
ATOM      3  N   ILE d   1       6.818   1.046  -7.103  0.00  0.00    -0.301 N 
ATOM      4  H   ILE d   1       6.269   1.794  -6.819  0.00  0.00     0.149 HD
ATOM      5  CA  ILE d   1       8.237   1.001  -6.741  0.00  0.00     0.102 C 
ATOM      6  HA  ILE d   1       8.562  -0.038  -6.678  0.00  0.00     0.060 H 
ATOM      7  C   ILE d   1       8.437   1.671  -5.407  0.00  0.00     0.237 C 
ATOM      8  O   ILE d   1       7.488   2.142  -4.817  0.00  0.00    -0.274 OA
ATOM      9  N   PRO d   2       9.670   1.748  -4.870  0.00  0.00    -0.292 N 
ATOM     10  CD  PRO d   2      10.905   1.215  -5.474  0.00  0.00     0.015 C 
ATOM     11  CG  PRO d   2      11.866   0.990  -4.283  0.00  0.00    -0.035 C 
ATOM     12  CB  PRO d   2      11.525   2.197  -3.370  0.00  0.00    -0.028 C 
ATOM     13  CA  PRO d   2      10.007   2.372  -3.582  0.00  0.00     0.066 C 
ATOM     14  HA  PRO d   2       9.460   1.880  -2.778  0.00  0.00     0.056 H 
ATOM     15  C   PRO d   2       9.659   3.838  -3.616  0.00  0.00     0.062 C 
ATOM     16  O   PRO d   2       9.178   4.322  -4.613  0.00  0.00    -0.548 OA
ATOM     17  HD1 PRO d   2      10.703   0.273  -5.983  0.00  0.00     0.046 H 
ATOM     18  HD2 PRO d   2      11.330   1.939  -6.169  0.00  0.00     0.046 H 
ATOM     19  HG1 PRO d   2      12.906   1.026  -4.606  0.00  0.00     0.028 H 
ATOM     20  HG2 PRO d   2      11.646   0.047  -3.781  0.00  0.00     0.028 H 
ATOM     21  HB1 PRO d   2      12.065   3.089  -3.693  0.00  0.00     0.029 H 
ATOM     22  HB2 PRO d   2      11.746   1.970  -2.327  0.00  0.00     0.029 H 
ATOM     23  OXT PRO d   2       9.884   4.607  -2.538  0.00  0.00    -0.548 OA
ENDROOT
BRANCH   5  24
ATOM     24  CB  ILE d   1       9.059   1.729  -7.807  0.00  0.00    -0.017 C 
ATOM     25  HB  ILE d   1       9.833   2.325  -7.324  0.00  0.00     0.032 H 
BRANCH  24  26
ATOM     26  CG2 ILE d   1       9.711   0.703  -8.737  0.00  0.00    -0.060 C 
ATOM     27 1HG2 ILE d   1      10.722   1.027  -8.982  0.00  0.00     0.023 H 
ATOM     28 2HG2 ILE d   1       9.750  -0.265  -8.237  0.00  0.00     0.023 H 
ATOM     29 3HG2 ILE d   1       9.125   0.617  -9.651  0.00  0.00     0.023 H 
ENDBRANCH  24  26
BRANCH  24  30
ATOM     30  CG1 ILE d   1       8.142   2.645  -8.620  0.00  0.00    -0.051 C 
ATOM     31 1HG1 ILE d   1       7.266   2.904  -8.025  0.00  0.00     0.027 H 
ATOM     32 2HG1 ILE d   1       7.826   2.131  -9.526  0.00  0.00     0.027 H 
BRANCH  30  33
ATOM     33  CD1 ILE d   1       8.900   3.921  -8.995  0.00  0.00    -0.065 C 
ATOM     34 1HD1 ILE d   1       9.960   3.696  -9.101  0.00  0.00     0.023 H 
ATOM     35 2HD1 ILE d   1       8.513   4.308  -9.938  0.00  0.00     0.023 H 
ATOM     36 3HD1 ILE d   1       8.762   4.668  -8.213  0.00  0.00     0.023 H 
ENDBRANCH  30  33
ENDBRANCH  24  30
ENDBRANCH   5  24
BRANCH   1  37
ATOM     37  C   UNK d   0       4.844   0.148  -8.293  0.00  0.00     0.170 A 
ATOM     38  C   UNK d   0       3.749  -0.301  -7.324  0.00  0.00     0.170 A 
ATOM     39  H   UNK d   0       2.856  -0.763  -7.745  0.00  0.00     0.072 H 
ATOM     40  O   UNK d   0       3.989   1.076  -7.622  0.00  0.00    -0.349 OA
ATOM     41  H   UNK d   0       4.679  -0.015  -9.358  0.00  0.00     0.072 H 
BRANCH  38  42
ATOM     42  C   UNK d   0       4.175  -0.811  -5.972  0.00  0.00     0.245 C 
ATOM     43  N   UNK d   0       4.288   0.041  -4.934  0.00  0.00    -0.313 N 
ATOM     44  H   UNK d   0       4.030   0.969  -5.039  0.00  0.00     0.149 HD
ATOM     45  O   UNK d   0       4.418  -1.990  -5.819  0.00  0.00    -0.273 OA
BRANCH  43  46
ATOM     46  C   UNK d   0       4.801  -0.436  -3.647  0.00  0.00     0.011 C 
ATOM     47  H   UNK d   0       4.903  -1.521  -3.676  0.00  0.00     0.046 H 
ATOM     48  H   UNK d   0       5.774   0.015  -3.454  0.00  0.00     0.046 H 
BRANCH  46  49
ATOM     49  C   UNK d   0       3.827  -0.045  -2.533  0.00  0.00    -0.040 C 
ATOM     50  H   UNK d   0       2.926   0.382  -2.972  0.00  0.00     0.028 H 
ATOM     51  H   UNK d   0       3.565  -0.930  -1.953  0.00  0.00     0.028 H 
BRANCH  49  52
ATOM     52  C   UNK d   0       4.489   0.988  -1.618  0.00  0.00    -0.064 C 
ATOM     53  H   UNK d   0       3.835   1.854  -1.516  0.00  0.00     0.023 H 
ATOM     54  H   UNK d   0       4.663   0.546  -0.638  0.00  0.00     0.023 H 
ATOM     55  H   UNK d   0       5.440   1.299  -2.051  0.00  0.00     0.023 H 
ENDBRANCH  49  52
ENDBRANCH  46  49
ENDBRANCH  43  46
ENDBRANCH  38  42
ENDBRANCH   1  37
TORSDOF 12
ENDMDL
MODEL 5
REMARK VINA RESULT:      -5.4      3.241      4.889
REMARK  9 active torsions:
REMARK  status: ('A' for Active; 'I' for Inactive)
REMARK    1  A    between atoms: C_1  and  C_2 
REMARK    2  A    between atoms: C_2  and  C_3 
REMARK    3  A    between atoms: C_3  and  N_4 
REMARK       I    between atoms: N_4  and  C_5 
REMARK    4  A    between atoms: C_5  and  C_7 
REMARK    5  A    between atoms: C_9  and  C_12 
REMARK       I    between atoms: C_12  and  N_14 
REMARK       I    between atoms: N_14  and  CA_16 
REMARK    6  A    between atoms: CA_16  and  CB_18 
REMARK       I    between atoms: CA_16  and  C_23 
REMARK    7  A    between atoms: CB_18  and  CG2_20 
REMARK    8  A    between atoms: CB_18  and  CG1_21 
REMARK    9  A    between atoms: CG1_21  and  CD1_22 
REMARK       I    between atoms: C_23  and  N_25 
REMARK       I    between atoms: CA_29  and  C_31 
ROOT
ATOM      1  C   UNK d   0       4.412  -0.297  -6.765  0.00  0.00     0.246 C 
ATOM      2  O   UNK d   0       5.521   0.188  -6.715  0.00  0.00    -0.273 OA
ATOM      3  N   ILE d   1       4.220  -1.580  -6.398  0.00  0.00    -0.301 N 
ATOM      4  H   ILE d   1       3.347  -1.989  -6.501  0.00  0.00     0.149 HD
ATOM      5  CA  ILE d   1       5.331  -2.358  -5.843  0.00  0.00     0.102 C 
ATOM      6  HA  ILE d   1       6.273  -1.978  -6.240  0.00  0.00     0.060 H 
ATOM      7  C   ILE d   1       5.173  -3.806  -6.227  0.00  0.00     0.237 C 
ATOM      8  O   ILE d   1       4.224  -4.155  -6.897  0.00  0.00    -0.274 OA
ATOM      9  N   PRO d   2       6.084  -4.713  -5.825  0.00  0.00    -0.292 N 
ATOM     10  CD  PRO d   2       7.283  -4.427  -5.016  0.00  0.00     0.015 C 
ATOM     11  CG  PRO d   2       8.268  -5.574  -5.342  0.00  0.00    -0.035 C 
ATOM     12  CB  PRO d   2       7.306  -6.783  -5.487  0.00  0.00    -0.028 C 
ATOM     13  CA  PRO d   2       6.052  -6.152  -6.126  0.00  0.00     0.066 C 
ATOM     14  HA  PRO d   2       6.067  -6.305  -7.205  0.00  0.00     0.056 H 
ATOM     15  C   PRO d   2       4.810  -6.771  -5.538  0.00  0.00     0.062 C 
ATOM     16  O   PRO d   2       4.024  -6.086  -4.926  0.00  0.00    -0.548 OA
ATOM     17  HD1 PRO d   2       7.711  -3.465  -5.299  0.00  0.00     0.046 H 
ATOM     18  HD2 PRO d   2       7.034  -4.434  -3.955  0.00  0.00     0.046 H 
ATOM     19  HG1 PRO d   2       8.972  -5.730  -4.525  0.00  0.00     0.028 H 
ATOM     20  HG2 PRO d   2       8.792  -5.379  -6.278  0.00  0.00     0.028 H 
ATOM     21  HB1 PRO d   2       7.069  -7.206  -4.509  0.00  0.00     0.029 H 
ATOM     22  HB2 PRO d   2       7.733  -7.543  -6.141  0.00  0.00     0.029 H 
ATOM     23  OXT PRO d   2       4.575  -8.084  -5.693  0.00  0.00    -0.548 OA
ENDROOT
BRANCH   5  24
ATOM     24  CB  ILE d   1       5.332  -2.231  -4.319  0.00  0.00    -0.017 C 
ATOM     25  HB  ILE d   1       5.629  -3.181  -3.875  0.00  0.00     0.032 H 
BRANCH  24  26
ATOM     26  CG2 ILE d   1       6.320  -1.140  -3.898  0.00  0.00    -0.060 C 
ATOM     27 1HG2 ILE d   1       6.764  -0.691  -4.786  0.00  0.00     0.023 H 
ATOM     28 2HG2 ILE d   1       5.794  -0.375  -3.327  0.00  0.00     0.023 H 
ATOM     29 3HG2 ILE d   1       7.104  -1.579  -3.282  0.00  0.00     0.023 H 
ENDBRANCH  24  26
BRANCH  24  30
ATOM     30  CG1 ILE d   1       3.927  -1.860  -3.838  0.00  0.00    -0.051 C 
ATOM     31 1HG1 ILE d   1       3.198  -2.525  -4.299  0.00  0.00     0.027 H 
ATOM     32 2HG1 ILE d   1       3.708  -0.830  -4.117  0.00  0.00     0.027 H 
BRANCH  30  33
ATOM     33  CD1 ILE d   1       3.856  -2.002  -2.316  0.00  0.00    -0.065 C 
ATOM     34 1HD1 ILE d   1       4.762  -1.593  -1.870  0.00  0.00     0.023 H 
ATOM     35 2HD1 ILE d   1       2.989  -1.457  -1.941  0.00  0.00     0.023 H 
ATOM     36 3HD1 ILE d   1       3.764  -3.056  -2.053  0.00  0.00     0.023 H 
ENDBRANCH  30  33
ENDBRANCH  24  30
ENDBRANCH   5  24
BRANCH   1  37
ATOM     37  C   UNK d   0       3.246   0.533  -7.235  0.00  0.00     0.170 A 
ATOM     38  C   UNK d   0       2.870   0.461  -8.717  0.00  0.00     0.170 A 
ATOM     39  H   UNK d   0       2.479   1.363  -9.186  0.00  0.00     0.072 H 
ATOM     40  O   UNK d   0       2.080  -0.154  -7.697  0.00  0.00    -0.349 OA
ATOM     41  H   UNK d   0       3.104   1.484  -6.720  0.00  0.00     0.072 H 
BRANCH  38  42
ATOM     42  C   UNK d   0       3.692  -0.436  -9.606  0.00  0.00     0.245 C 
ATOM     43  N   UNK d   0       4.576   0.098 -10.471  0.00  0.00    -0.313 N 
ATOM     44  H   UNK d   0       4.732   1.055 -10.475  0.00  0.00     0.149 HD
ATOM     45  O   UNK d   0       3.557  -1.640  -9.542  0.00  0.00    -0.273 OA
BRANCH  43  46
ATOM     46  C   UNK d   0       5.300  -0.766 -11.407  0.00  0.00     0.011 C 
ATOM     47  H   UNK d   0       6.366  -0.548 -11.352  0.00  0.00     0.046 H 
ATOM     48  H   UNK d   0       5.128  -1.810 -11.145  0.00  0.00     0.046 H 
BRANCH  46  49
ATOM     49  C   UNK d   0       4.799  -0.509 -12.830  0.00  0.00    -0.040 C 
ATOM     50  H   UNK d   0       4.485   0.531 -12.922  0.00  0.00     0.028 H 
ATOM     51  H   UNK d   0       5.601  -0.710 -13.539  0.00  0.00     0.028 H 
BRANCH  49  52
ATOM     52  C   UNK d   0       3.612  -1.429 -13.126  0.00  0.00    -0.064 C 
ATOM     53  H   UNK d   0       3.970  -2.342 -13.601  0.00  0.00     0.023 H 
ATOM     54  H   UNK d   0       3.104  -1.678 -12.195  0.00  0.00     0.023 H 
ATOM     55  H   UNK d   0       2.917  -0.920 -13.794  0.00  0.00     0.023 H 
ENDBRANCH  49  52
ENDBRANCH  46  49
ENDBRANCH  43  46
ENDBRANCH  38  42
ENDBRANCH   1  37
TORSDOF 12
ENDMDL
MODEL 6
REMARK VINA RESULT:      -5.2      2.810      5.659
REMARK  9 active torsions:
REMARK  status: ('A' for Active; 'I' for Inactive)
REMARK    1  A    between atoms: C_1  and  C_2 
REMARK    2  A    between atoms: C_2  and  C_3 
REMARK    3  A    between atoms: C_3  and  N_4 
REMARK       I    between atoms: N_4  and  C_5 
REMARK    4  A    between atoms: C_5  and  C_7 
REMARK    5  A    between atoms: C_9  and  C_12 
REMARK       I    between atoms: C_12  and  N_14 
REMARK       I    between atoms: N_14  and  CA_16 
REMARK    6  A    between atoms: CA_16  and  CB_18 
REMARK       I    between atoms: CA_16  and  C_23 
REMARK    7  A    between atoms: CB_18  and  CG2_20 
REMARK    8  A    between atoms: CB_18  and  CG1_21 
REMARK    9  A    between atoms: CG1_21  and  CD1_22 
REMARK       I    between atoms: C_23  and  N_25 
REMARK       I    between atoms: CA_29  and  C_31 
ROOT
ATOM      1  C   UNK d   0       4.336  -0.475  -6.597  0.00  0.00     0.246 C 
ATOM      2  O   UNK d   0       4.496  -1.677  -6.593  0.00  0.00    -0.273 OA
ATOM      3  N   ILE d   1       5.401   0.347  -6.511  0.00  0.00    -0.301 N 
ATOM      4  H   ILE d   1       5.269   1.306  -6.446  0.00  0.00     0.149 HD
ATOM      5  CA  ILE d   1       6.757  -0.207  -6.515  0.00  0.00     0.102 C 
ATOM      6  HA  ILE d   1       6.739  -1.215  -6.101  0.00  0.00     0.060 H 
ATOM      7  C   ILE d   1       7.658   0.663  -5.679  0.00  0.00     0.237 C 
ATOM      8  O   ILE d   1       7.212   1.651  -5.134  0.00  0.00    -0.274 OA
ATOM      9  N   PRO d   2       8.960   0.346  -5.537  0.00  0.00    -0.292 N 
ATOM     10  CD  PRO d   2       9.629  -0.823  -6.138  0.00  0.00     0.015 C 
ATOM     11  CG  PRO d   2      10.855  -1.089  -5.231  0.00  0.00    -0.035 C 
ATOM     12  CB  PRO d   2      11.291   0.353  -4.861  0.00  0.00    -0.028 C 
ATOM     13  CA  PRO d   2       9.948   1.104  -4.755  0.00  0.00     0.066 C 
ATOM     14  HA  PRO d   2       9.632   1.158  -3.713  0.00  0.00     0.056 H 
ATOM     15  C   PRO d   2      10.091   2.494  -5.319  0.00  0.00     0.062 C 
ATOM     16  O   PRO d   2       9.438   2.827  -6.280  0.00  0.00    -0.548 OA
ATOM     17  HD1 PRO d   2       8.962  -1.684  -6.138  0.00  0.00     0.046 H 
ATOM     18  HD2 PRO d   2       9.954  -0.594  -7.153  0.00  0.00     0.046 H 
ATOM     19  HG1 PRO d   2      11.642  -1.607  -5.779  0.00  0.00     0.028 H 
ATOM     20  HG2 PRO d   2      10.564  -1.649  -4.343  0.00  0.00     0.028 H 
ATOM     21  HB1 PRO d   2      11.912   0.783  -5.648  0.00  0.00     0.029 H 
ATOM     22  HB2 PRO d   2      11.817   0.366  -3.906  0.00  0.00     0.029 H 
ATOM     23  OXT PRO d   2      10.945   3.363  -4.755  0.00  0.00    -0.548 OA
ENDROOT
BRANCH   5  24
ATOM     24  CB  ILE d   1       7.283  -0.256  -7.951  0.00  0.00    -0.017 C 
ATOM     25  HB  ILE d   1       8.350  -0.035  -7.955  0.00  0.00     0.032 H 
BRANCH  24  26
ATOM     26  CG2 ILE d   1       7.050  -1.652  -8.532  0.00  0.00    -0.060 C 
ATOM     27 1HG2 ILE d   1       7.696  -2.369  -8.026  0.00  0.00     0.023 H 
ATOM     28 2HG2 ILE d   1       6.007  -1.936  -8.386  0.00  0.00     0.023 H 
ATOM     29 3HG2 ILE d   1       7.279  -1.646  -9.598  0.00  0.00     0.023 H 
ENDBRANCH  24  26
BRANCH  24  30
ATOM     30  CG1 ILE d   1       6.544   0.780  -8.800  0.00  0.00    -0.051 C 
ATOM     31 1HG1 ILE d   1       5.651   1.113  -8.272  0.00  0.00     0.027 H 
ATOM     32 2HG1 ILE d   1       6.260   0.334  -9.752  0.00  0.00     0.027 H 
BRANCH  30  33
ATOM     33  CD1 ILE d   1       7.462   1.979  -9.053  0.00  0.00    -0.065 C 
ATOM     34 1HD1 ILE d   1       8.408   1.829  -8.534  0.00  0.00     0.023 H 
ATOM     35 2HD1 ILE d   1       7.646   2.076 -10.124  0.00  0.00     0.023 H 
ATOM     36 3HD1 ILE d   1       6.985   2.887  -8.683  0.00  0.00     0.023 H 
ENDBRANCH  30  33
ENDBRANCH  24  30
ENDBRANCH   5  24
BRANCH   1  37
ATOM     37  C   UNK d   0       2.947   0.100  -6.699  0.00  0.00     0.170 A 
ATOM     38  C   UNK d   0       2.308   0.654  -5.424  0.00  0.00     0.170 A 
ATOM     39  H   UNK d   0       1.230   0.549  -5.309  0.00  0.00     0.072 H 
ATOM     40  O   UNK d   0       2.787   1.501  -6.471  0.00  0.00    -0.349 OA
ATOM     41  H   UNK d   0       2.292  -0.374  -7.432  0.00  0.00     0.072 H 
BRANCH  38  42
ATOM     42  C   UNK d   0       3.112   0.587  -4.151  0.00  0.00     0.245 C 
ATOM     43  N   UNK d   0       3.047  -0.508  -3.369  0.00  0.00    -0.313 N 
ATOM     44  H   UNK d   0       2.535  -1.279  -3.658  0.00  0.00     0.149 HD
ATOM     45  O   UNK d   0       3.818   1.521  -3.831  0.00  0.00    -0.273 OA
BRANCH  43  46
ATOM     46  C   UNK d   0       3.746  -0.531  -2.081  0.00  0.00     0.011 C 
ATOM     47  H   UNK d   0       4.410   0.330  -2.014  0.00  0.00     0.046 H 
ATOM     48  H   UNK d   0       3.018  -0.494  -1.271  0.00  0.00     0.046 H 
BRANCH  46  49
ATOM     49  C   UNK d   0       4.567  -1.818  -1.971  0.00  0.00    -0.040 C 
ATOM     50  H   UNK d   0       5.626  -1.570  -1.913  0.00  0.00     0.028 H 
ATOM     51  H   UNK d   0       4.270  -2.362  -1.075  0.00  0.00     0.028 H 
BRANCH  49  52
ATOM     52  C   UNK d   0       4.314  -2.690  -3.204  0.00  0.00    -0.064 C 
ATOM     53  H   UNK d   0       5.012  -3.527  -3.207  0.00  0.00     0.023 H 
ATOM     54  H   UNK d   0       3.293  -3.068  -3.178  0.00  0.00     0.023 H 
ATOM     55  H   UNK d   0       4.458  -2.094  -4.105  0.00  0.00     0.023 H 
ENDBRANCH  49  52
ENDBRANCH  46  49
ENDBRANCH  43  46
ENDBRANCH  38  42
ENDBRANCH   1  37
TORSDOF 12
ENDMDL
MODEL 7
REMARK VINA RESULT:      -5.2      2.720      7.150
REMARK  9 active torsions:
REMARK  status: ('A' for Active; 'I' for Inactive)
REMARK    1  A    between atoms: C_1  and  C_2 
REMARK    2  A    between atoms: C_2  and  C_3 
REMARK    3  A    between atoms: C_3  and  N_4 
REMARK       I    between atoms: N_4  and  C_5 
REMARK    4  A    between atoms: C_5  and  C_7 
REMARK    5  A    between atoms: C_9  and  C_12 
REMARK       I    between atoms: C_12  and  N_14 
REMARK       I    between atoms: N_14  and  CA_16 
REMARK    6  A    between atoms: CA_16  and  CB_18 
REMARK       I    between atoms: CA_16  and  C_23 
REMARK    7  A    between atoms: CB_18  and  CG2_20 
REMARK    8  A    between atoms: CB_18  and  CG1_21 
REMARK    9  A    between atoms: CG1_21  and  CD1_22 
REMARK       I    between atoms: C_23  and  N_25 
REMARK       I    between atoms: CA_29  and  C_31 
ROOT
ATOM      1  C   UNK d   0       4.245  -0.601  -5.960  0.00  0.00     0.246 C 
ATOM      2  O   UNK d   0       4.255  -1.749  -6.347  0.00  0.00    -0.273 OA
ATOM      3  N   ILE d   1       4.958   0.337  -6.615  0.00  0.00    -0.301 N 
ATOM      4  H   ILE d   1       5.005   1.242  -6.267  0.00  0.00     0.149 HD
ATOM      5  CA  ILE d   1       5.661  -0.008  -7.853  0.00  0.00     0.102 C 
ATOM      6  HA  ILE d   1       5.928  -1.064  -7.836  0.00  0.00     0.060 H 
ATOM      7  C   ILE d   1       6.912   0.824  -7.970  0.00  0.00     0.237 C 
ATOM      8  O   ILE d   1       7.189   1.627  -7.104  0.00  0.00    -0.274 OA
ATOM      9  N   PRO d   2       7.723   0.675  -9.036  0.00  0.00    -0.292 N 
ATOM     10  CD  PRO d   2       7.510  -0.263 -10.153  0.00  0.00     0.015 C 
ATOM     11  CG  PRO d   2       8.920  -0.505 -10.743  0.00  0.00    -0.035 C 
ATOM     12  CB  PRO d   2       9.567   0.897 -10.598  0.00  0.00    -0.028 C 
ATOM     13  CA  PRO d   2       8.968   1.419  -9.276  0.00  0.00     0.066 C 
ATOM     14  HA  PRO d   2       9.666   1.246  -8.457  0.00  0.00     0.056 H 
ATOM     15  C   PRO d   2       8.672   2.892  -9.392  0.00  0.00     0.062 C 
ATOM     16  O   PRO d   2       7.535   3.290  -9.287  0.00  0.00    -0.548 OA
ATOM     17  HD1 PRO d   2       7.085  -1.198  -9.787  0.00  0.00     0.046 H 
ATOM     18  HD2 PRO d   2       6.859   0.182 -10.904  0.00  0.00     0.046 H 
ATOM     19  HG1 PRO d   2       8.860  -0.803 -11.790  0.00  0.00     0.028 H 
ATOM     20  HG2 PRO d   2       9.463  -1.247 -10.157  0.00  0.00     0.028 H 
ATOM     21  HB1 PRO d   2       9.281   1.541 -11.432  0.00  0.00     0.029 H 
ATOM     22  HB2 PRO d   2      10.651   0.819 -10.527  0.00  0.00     0.029 H 
ATOM     23  OXT PRO d   2       9.670   3.763  -9.613  0.00  0.00    -0.548 OA
ENDROOT
BRANCH   5  24
ATOM     24  CB  ILE d   1       4.750   0.269  -9.051  0.00  0.00    -0.017 C 
ATOM     25  HB  ILE d   1       5.341   0.681  -9.869  0.00  0.00     0.032 H 
BRANCH  24  26
ATOM     26  CG2 ILE d   1       4.094  -1.037  -9.505  0.00  0.00    -0.060 C 
ATOM     27 1HG2 ILE d   1       3.590  -0.878 -10.458  0.00  0.00     0.023 H 
ATOM     28 2HG2 ILE d   1       4.858  -1.805  -9.621  0.00  0.00     0.023 H 
ATOM     29 3HG2 ILE d   1       3.366  -1.357  -8.759  0.00  0.00     0.023 H 
ENDBRANCH  24  26
BRANCH  24  30
ATOM     30  CG1 ILE d   1       3.668   1.271  -8.647  0.00  0.00    -0.051 C 
ATOM     31 1HG1 ILE d   1       3.644   1.364  -7.561  0.00  0.00     0.027 H 
ATOM     32 2HG1 ILE d   1       2.699   0.924  -9.003  0.00  0.00     0.027 H 
BRANCH  30  33
ATOM     33  CD1 ILE d   1       3.980   2.635  -9.268  0.00  0.00    -0.065 C 
ATOM     34 1HD1 ILE d   1       5.007   2.644  -9.631  0.00  0.00     0.023 H 
ATOM     35 2HD1 ILE d   1       3.298   2.819 -10.100  0.00  0.00     0.023 H 
ATOM     36 3HD1 ILE d   1       3.853   3.415  -8.516  0.00  0.00     0.023 H 
ENDBRANCH  30  33
ENDBRANCH  24  30
ENDBRANCH   5  24
BRANCH   1  37
ATOM     37  C   UNK d   0       3.437  -0.221  -4.746  0.00  0.00     0.170 A 
ATOM     38  C   UNK d   0       4.195   0.116  -3.460  0.00  0.00     0.170 A 
ATOM     39  H   UNK d   0       3.730  -0.151  -2.512  0.00  0.00     0.072 H 
ATOM     40  O   UNK d   0       3.557   1.117  -4.257  0.00  0.00    -0.349 OA
ATOM     41  H   UNK d   0       2.468  -0.711  -4.652  0.00  0.00     0.072 H 
BRANCH  38  42
ATOM     42  C   UNK d   0       5.700   0.045  -3.495  0.00  0.00     0.245 C 
ATOM     43  N   UNK d   0       6.422   1.151  -3.763  0.00  0.00    -0.313 N 
ATOM     44  H   UNK d   0       5.977   2.006  -3.867  0.00  0.00     0.149 HD
ATOM     45  O   UNK d   0       6.262  -1.009  -3.281  0.00  0.00    -0.273 OA
BRANCH  43  46
ATOM     46  C   UNK d   0       7.878   1.061  -3.899  0.00  0.00     0.011 C 
ATOM     47  H   UNK d   0       8.282   0.462  -3.082  0.00  0.00     0.046 H 
ATOM     48  H   UNK d   0       8.126   0.592  -4.851  0.00  0.00     0.046 H 
BRANCH  46  49
ATOM     49  C   UNK d   0       8.482   2.466  -3.849  0.00  0.00    -0.040 C 
ATOM     50  H   UNK d   0       8.402   2.931  -4.831  0.00  0.00     0.028 H 
ATOM     51  H   UNK d   0       7.943   3.067  -3.117  0.00  0.00     0.028 H 
BRANCH  49  52
ATOM     52  C   UNK d   0       9.956   2.372  -3.447  0.00  0.00    -0.064 C 
ATOM     53  H   UNK d   0      10.096   2.835  -2.470  0.00  0.00     0.023 H 
ATOM     54  H   UNK d   0      10.254   1.326  -3.400  0.00  0.00     0.023 H 
ATOM     55  H   UNK d   0      10.566   2.892  -4.186  0.00  0.00     0.023 H 
ENDBRANCH  49  52
ENDBRANCH  46  49
ENDBRANCH  43  46
ENDBRANCH  38  42
ENDBRANCH   1  37
TORSDOF 12
ENDMDL
MODEL 8
REMARK VINA RESULT:      -5.2      3.284      7.013
REMARK  9 active torsions:
REMARK  status: ('A' for Active; 'I' for Inactive)
REMARK    1  A    between atoms: C_1  and  C_2 
REMARK    2  A    between atoms: C_2  and  C_3 
REMARK    3  A    between atoms: C_3  and  N_4 
REMARK       I    between atoms: N_4  and  C_5 
REMARK    4  A    between atoms: C_5  and  C_7 
REMARK    5  A    between atoms: C_9  and  C_12 
REMARK       I    between atoms: C_12  and  N_14 
REMARK       I    between atoms: N_14  and  CA_16 
REMARK    6  A    between atoms: CA_16  and  CB_18 
REMARK       I    between atoms: CA_16  and  C_23 
REMARK    7  A    between atoms: CB_18  and  CG2_20 
REMARK    8  A    between atoms: CB_18  and  CG1_21 
REMARK    9  A    between atoms: CG1_21  and  CD1_22 
REMARK       I    between atoms: C_23  and  N_25 
REMARK       I    between atoms: CA_29  and  C_31 
ROOT
ATOM      1  C   UNK d   0       3.810  -1.128  -8.095  0.00  0.00     0.246 C 
ATOM      2  O   UNK d   0       4.897  -0.705  -8.425  0.00  0.00    -0.273 OA
ATOM      3  N   ILE d   1       3.549  -2.448  -8.175  0.00  0.00    -0.301 N 
ATOM      4  H   ILE d   1       2.659  -2.779  -7.976  0.00  0.00     0.149 HD
ATOM      5  CA  ILE d   1       4.608  -3.383  -8.561  0.00  0.00     0.102 C 
ATOM      6  HA  ILE d   1       5.328  -2.872  -9.200  0.00  0.00     0.060 H 
ATOM      7  C   ILE d   1       4.006  -4.543  -9.311  0.00  0.00     0.237 C 
ATOM      8  O   ILE d   1       2.809  -4.585  -9.503  0.00  0.00    -0.274 OA
ATOM      9  N   PRO d   2       4.797  -5.533  -9.769  0.00  0.00    -0.292 N 
ATOM     10  CD  PRO d   2       6.261  -5.605  -9.611  0.00  0.00     0.015 C 
ATOM     11  CG  PRO d   2       6.742  -6.512 -10.769  0.00  0.00    -0.035 C 
ATOM     12  CB  PRO d   2       5.595  -7.555 -10.849  0.00  0.00    -0.028 C 
ATOM     13  CA  PRO d   2       4.344  -6.718 -10.512  0.00  0.00     0.066 C 
ATOM     14  HA  PRO d   2       3.843  -6.411 -11.430  0.00  0.00     0.056 H 
ATOM     15  C   PRO d   2       3.400  -7.528  -9.660  0.00  0.00     0.062 C 
ATOM     16  O   PRO d   2       3.127  -7.159  -8.542  0.00  0.00    -0.548 OA
ATOM     17  HD1 PRO d   2       6.701  -4.612  -9.698  0.00  0.00     0.046 H 
ATOM     18  HD2 PRO d   2       6.517  -6.052  -8.651  0.00  0.00     0.046 H 
ATOM     19  HG1 PRO d   2       7.690  -6.991 -10.523  0.00  0.00     0.028 H 
ATOM     20  HG2 PRO d   2       6.820  -5.947 -11.697  0.00  0.00     0.028 H 
ATOM     21  HB1 PRO d   2       5.741  -8.345 -10.111  0.00  0.00     0.029 H 
ATOM     22  HB2 PRO d   2       5.521  -7.974 -11.852  0.00  0.00     0.029 H 
ATOM     23  OXT PRO d   2       2.861  -8.658 -10.143  0.00  0.00    -0.548 OA
ENDROOT
BRANCH   5  24
ATOM     24  CB  ILE d   1       5.316  -3.899  -7.307  0.00  0.00    -0.017 C 
ATOM     25  HB  ILE d   1       5.892  -4.790  -7.556  0.00  0.00     0.032 H 
BRANCH  24  26
ATOM     26  CG2 ILE d   1       6.256  -2.817  -6.771  0.00  0.00    -0.060 C 
ATOM     27 1HG2 ILE d   1       7.195  -2.845  -7.325  0.00  0.00     0.023 H 
ATOM     28 2HG2 ILE d   1       5.790  -1.839  -6.893  0.00  0.00     0.023 H 
ATOM     29 3HG2 ILE d   1       6.453  -2.997  -5.714  0.00  0.00     0.023 H 
ENDBRANCH  24  26
BRANCH  24  30
ATOM     30  CG1 ILE d   1       4.275  -4.245  -6.241  0.00  0.00    -0.051 C 
ATOM     31 1HG1 ILE d   1       3.283  -4.263  -6.693  0.00  0.00     0.027 H 
ATOM     32 2HG1 ILE d   1       4.301  -3.495  -5.451  0.00  0.00     0.027 H 
BRANCH  30  33
ATOM     33  CD1 ILE d   1       4.591  -5.620  -5.648  0.00  0.00    -0.065 C 
ATOM     34 1HD1 ILE d   1       4.816  -5.517  -4.587  0.00  0.00     0.023 H 
ATOM     35 2HD1 ILE d   1       3.728  -6.276  -5.774  0.00  0.00     0.023 H 
ATOM     36 3HD1 ILE d   1       5.450  -6.049  -6.163  0.00  0.00     0.023 H 
ENDBRANCH  30  33
ENDBRANCH  24  30
ENDBRANCH   5  24
BRANCH   1  37
ATOM     37  C   UNK d   0       2.751  -0.179  -7.596  0.00  0.00     0.170 A 
ATOM     38  C   UNK d   0       2.794   0.227  -6.121  0.00  0.00     0.170 A 
ATOM     39  H   UNK d   0       1.845   0.405  -5.616  0.00  0.00     0.072 H 
ATOM     40  O   UNK d   0       3.166   1.121  -7.172  0.00  0.00    -0.349 OA
ATOM     41  H   UNK d   0       1.774  -0.271  -8.070  0.00  0.00     0.072 H 
BRANCH  38  42
ATOM     42  C   UNK d   0       3.894  -0.349  -5.267  0.00  0.00     0.245 C 
ATOM     43  N   UNK d   0       3.647  -1.413  -4.477  0.00  0.00    -0.313 N 
ATOM     44  H   UNK d   0       2.781  -1.849  -4.509  0.00  0.00     0.149 HD
ATOM     45  O   UNK d   0       5.001   0.145  -5.290  0.00  0.00    -0.273 OA
BRANCH  43  46
ATOM     46  C   UNK d   0       4.685  -1.909  -3.570  0.00  0.00     0.011 C 
ATOM     47  H   UNK d   0       4.845  -2.973  -3.749  0.00  0.00     0.046 H 
ATOM     48  H   UNK d   0       5.614  -1.367  -3.750  0.00  0.00     0.046 H 
BRANCH  46  49
ATOM     49  C   UNK d   0       4.241  -1.696  -2.122  0.00  0.00    -0.040 C 
ATOM     50  H   UNK d   0       3.187  -1.954  -2.023  0.00  0.00     0.028 H 
ATOM     51  H   UNK d   0       4.834  -2.329  -1.463  0.00  0.00     0.028 H 
BRANCH  49  52
ATOM     52  C   UNK d   0       4.444  -0.228  -1.739  0.00  0.00    -0.064 C 
ATOM     53  H   UNK d   0       5.067  -0.168  -0.846  0.00  0.00     0.023 H 
ATOM     54  H   UNK d   0       4.933   0.297  -2.558  0.00  0.00     0.023 H 
ATOM     55  H   UNK d   0       3.476   0.232  -1.538  0.00  0.00     0.023 H 
ENDBRANCH  49  52
ENDBRANCH  46  49
ENDBRANCH  43  46
ENDBRANCH  38  42
ENDBRANCH   1  37
TORSDOF 12
ENDMDL
MODEL 9
REMARK VINA RESULT:      -5.1      4.248      6.005
REMARK  9 active torsions:
REMARK  status: ('A' for Active; 'I' for Inactive)
REMARK    1  A    between atoms: C_1  and  C_2 
REMARK    2  A    between atoms: C_2  and  C_3 
REMARK    3  A    between atoms: C_3  and  N_4 
REMARK       I    between atoms: N_4  and  C_5 
REMARK    4  A    between atoms: C_5  and  C_7 
REMARK    5  A    between atoms: C_9  and  C_12 
REMARK       I    between atoms: C_12  and  N_14 
REMARK       I    between atoms: N_14  and  CA_16 
REMARK    6  A    between atoms: CA_16  and  CB_18 
REMARK       I    between atoms: CA_16  and  C_23 
REMARK    7  A    between atoms: CB_18  and  CG2_20 
REMARK    8  A    between atoms: CB_18  and  CG1_21 
REMARK    9  A    between atoms: CG1_21  and  CD1_22 
REMARK       I    between atoms: C_23  and  N_25 
REMARK       I    between atoms: CA_29  and  C_31 
ROOT
ATOM      1  C   UNK d   0       6.810  -5.665  -6.177  0.00  0.00     0.246 C 
ATOM      2  O   UNK d   0       7.119  -6.152  -5.111  0.00  0.00    -0.273 OA
ATOM      3  N   ILE d   1       6.280  -4.427  -6.224  0.00  0.00    -0.301 N 
ATOM      4  H   ILE d   1       5.970  -4.063  -7.068  0.00  0.00     0.149 HD
ATOM      5  CA  ILE d   1       6.172  -3.629  -5.000  0.00  0.00     0.102 C 
ATOM      6  HA  ILE d   1       6.077  -4.293  -4.141  0.00  0.00     0.060 H 
ATOM      7  C   ILE d   1       4.959  -2.740  -5.084  0.00  0.00     0.237 C 
ATOM      8  O   ILE d   1       4.254  -2.769  -6.071  0.00  0.00    -0.274 OA
ATOM      9  N   PRO d   2       4.657  -1.912  -4.064  0.00  0.00    -0.292 N 
ATOM     10  CD  PRO d   2       5.422  -1.781  -2.811  0.00  0.00     0.015 C 
ATOM     11  CG  PRO d   2       4.404  -1.237  -1.779  0.00  0.00    -0.035 C 
ATOM     12  CB  PRO d   2       3.555  -0.275  -2.652  0.00  0.00    -0.028 C 
ATOM     13  CA  PRO d   2       3.509  -0.995  -4.015  0.00  0.00     0.066 C 
ATOM     14  HA  PRO d   2       2.581  -1.558  -4.108  0.00  0.00     0.056 H 
ATOM     15  C   PRO d   2       3.610   0.013  -5.131  0.00  0.00     0.062 C 
ATOM     16  O   PRO d   2       4.545  -0.024  -5.897  0.00  0.00    -0.548 OA
ATOM     17  HD1 PRO d   2       5.802  -2.751  -2.494  0.00  0.00     0.046 H 
ATOM     18  HD2 PRO d   2       6.242  -1.074  -2.939  0.00  0.00     0.046 H 
ATOM     19  HG1 PRO d   2       4.909  -0.696  -0.979  0.00  0.00     0.028 H 
ATOM     20  HG2 PRO d   2       3.791  -2.044  -1.379  0.00  0.00     0.028 H 
ATOM     21  HB1 PRO d   2       4.046   0.695  -2.744  0.00  0.00     0.029 H 
ATOM     22  HB2 PRO d   2       2.553  -0.161  -2.241  0.00  0.00     0.029 H 
ATOM     23  OXT PRO d   2       2.661   0.951  -5.276  0.00  0.00    -0.548 OA
ENDROOT
BRANCH   5  24
ATOM     24  CB  ILE d   1       7.426  -2.767  -4.841  0.00  0.00    -0.017 C 
ATOM     25  HB  ILE d   1       7.149  -1.793  -4.438  0.00  0.00     0.032 H 
BRANCH  24  26
ATOM     26  CG2 ILE d   1       8.401  -3.456  -3.883  0.00  0.00    -0.060 C 
ATOM     27 1HG2 ILE d   1       9.221  -2.777  -3.649  0.00  0.00     0.023 H 
ATOM     28 2HG2 ILE d   1       7.877  -3.723  -2.964  0.00  0.00     0.023 H 
ATOM     29 3HG2 ILE d   1       8.796  -4.356  -4.352  0.00  0.00     0.023 H 
ENDBRANCH  24  26
BRANCH  24  30
ATOM     30  CG1 ILE d   1       8.095  -2.584  -6.205  0.00  0.00    -0.051 C 
ATOM     31 1HG1 ILE d   1       7.967  -1.554  -6.537  0.00  0.00     0.027 H 
ATOM     32 2HG1 ILE d   1       7.637  -3.258  -6.927  0.00  0.00     0.027 H 
BRANCH  30  33
ATOM     33  CD1 ILE d   1       9.588  -2.900  -6.086  0.00  0.00    -0.065 C 
ATOM     34 1HD1 ILE d   1       9.737  -3.978  -6.142  0.00  0.00     0.023 H 
ATOM     35 2HD1 ILE d   1      10.127  -2.416  -6.902  0.00  0.00     0.023 H 
ATOM     36 3HD1 ILE d   1       9.964  -2.530  -5.133  0.00  0.00     0.023 H 
ENDBRANCH  30  33
ENDBRANCH  24  30
ENDBRANCH   5  24
BRANCH   1  37
ATOM     37  C   UNK d   0       7.018  -6.444  -7.450  0.00  0.00     0.170 A 
ATOM     38  C   UNK d   0       6.163  -7.694  -7.670  0.00  0.00     0.170 A 
ATOM     39  H   UNK d   0       6.614  -8.529  -8.206  0.00  0.00     0.072 H 
ATOM     40  O   UNK d   0       5.944  -6.480  -8.393  0.00  0.00    -0.349 OA
ATOM     41  H   UNK d   0       8.036  -6.448  -7.840  0.00  0.00     0.072 H 
BRANCH  38  42
ATOM     42  C   UNK d   0       5.171  -8.063  -6.598  0.00  0.00     0.245 C 
ATOM     43  N   UNK d   0       5.548  -8.855  -5.574  0.00  0.00    -0.313 N 
ATOM     44  H   UNK d   0       6.473  -9.132  -5.492  0.00  0.00     0.149 HD
ATOM     45  O   UNK d   0       4.033  -7.646  -6.657  0.00  0.00    -0.273 OA
BRANCH  43  46
ATOM     46  C   UNK d   0       4.558  -9.297  -4.588  0.00  0.00     0.011 C 
ATOM     47  H   UNK d   0       4.010  -8.434  -4.212  0.00  0.00     0.046 H 
ATOM     48  H   UNK d   0       3.863  -9.993  -5.058  0.00  0.00     0.046 H 
BRANCH  46  49
ATOM     49  C   UNK d   0       5.272  -9.994  -3.428  0.00  0.00    -0.040 C 
ATOM     50  H   UNK d   0       4.830  -9.674  -2.485  0.00  0.00     0.028 H 
ATOM     51  H   UNK d   0       5.165 -11.073  -3.532  0.00  0.00     0.028 H 
BRANCH  49  52
ATOM     52  C   UNK d   0       6.757  -9.623  -3.448  0.00  0.00    -0.064 C 
ATOM     53  H   UNK d   0       7.159  -9.679  -2.436  0.00  0.00     0.023 H 
ATOM     54  H   UNK d   0       7.296 -10.317  -4.092  0.00  0.00     0.023 H 
ATOM     55  H   UNK d   0       6.872  -8.609  -3.829  0.00  0.00     0.023 H 
ENDBRANCH  49  52
ENDBRANCH  46  49
ENDBRANCH  43  46
ENDBRANCH  38  42
ENDBRANCH   1  37
TORSDOF 12
ENDMDL
MODEL 10
REMARK VINA RESULT:      -5.0      2.170      3.172
REMARK  9 active torsions:
REMARK  status: ('A' for Active; 'I' for Inactive)
REMARK    1  A    between atoms: C_1  and  C_2 
REMARK    2  A    between atoms: C_2  and  C_3 
REMARK    3  A    between atoms: C_3  and  N_4 
REMARK       I    between atoms: N_4  and  C_5 
REMARK    4  A    between atoms: C_5  and  C_7 
REMARK    5  A    between atoms: C_9  and  C_12 
REMARK       I    between atoms: C_12  and  N_14 
REMARK       I    between atoms: N_14  and  CA_16 
REMARK    6  A    between atoms: CA_16  and  CB_18 
REMARK       I    between atoms: CA_16  and  C_23 
REMARK    7  A    between atoms: CB_18  and  CG2_20 
REMARK    8  A    between atoms: CB_18  and  CG1_21 
REMARK    9  A    between atoms: CG1_21  and  CD1_22 
REMARK       I    between atoms: C_23  and  N_25 
REMARK       I    between atoms: CA_29  and  C_31 
ROOT
ATOM      1  C   UNK d   0       4.968  -3.834  -8.399  0.00  0.00     0.246 C 
ATOM      2  O   UNK d   0       3.915  -4.394  -8.179  0.00  0.00    -0.273 OA
ATOM      3  N   ILE d   1       5.504  -3.019  -7.469  0.00  0.00    -0.301 N 
ATOM      4  H   ILE d   1       6.310  -2.518  -7.669  0.00  0.00     0.149 HD
ATOM      5  CA  ILE d   1       4.870  -2.889  -6.154  0.00  0.00     0.102 C 
ATOM      6  HA  ILE d   1       3.800  -3.075  -6.247  0.00  0.00     0.060 H 
ATOM      7  C   ILE d   1       5.093  -1.497  -5.624  0.00  0.00     0.237 C 
ATOM      8  O   ILE d   1       5.721  -0.692  -6.279  0.00  0.00    -0.274 OA
ATOM      9  N   PRO d   2       4.595  -1.146  -4.422  0.00  0.00    -0.292 N 
ATOM     10  CD  PRO d   2       3.813  -2.020  -3.528  0.00  0.00     0.015 C 
ATOM     11  CG  PRO d   2       2.987  -1.051  -2.648  0.00  0.00    -0.035 C 
ATOM     12  CB  PRO d   2       3.987   0.116  -2.440  0.00  0.00    -0.028 C 
ATOM     13  CA  PRO d   2       4.738   0.172  -3.786  0.00  0.00     0.066 C 
ATOM     14  HA  PRO d   2       4.302   0.940  -4.424  0.00  0.00     0.056 H 
ATOM     15  C   PRO d   2       6.196   0.471  -3.548  0.00  0.00     0.062 C 
ATOM     16  O   PRO d   2       7.039  -0.332  -3.874  0.00  0.00    -0.548 OA
ATOM     17  HD1 PRO d   2       3.153  -2.663  -4.109  0.00  0.00     0.046 H 
ATOM     18  HD2 PRO d   2       4.478  -2.619  -2.906  0.00  0.00     0.046 H 
ATOM     19  HG1 PRO d   2       2.722  -1.515  -1.698  0.00  0.00     0.028 H 
ATOM     20  HG2 PRO d   2       2.096  -0.712  -3.178  0.00  0.00     0.028 H 
ATOM     21  HB1 PRO d   2       4.675  -0.108  -1.623  0.00  0.00     0.029 H 
ATOM     22  HB2 PRO d   2       3.460   1.051  -2.253  0.00  0.00     0.029 H 
ATOM     23  OXT PRO d   2       6.559   1.630  -2.975  0.00  0.00    -0.548 OA
ENDROOT
BRANCH   5  24
ATOM     24  CB  ILE d   1       5.483  -3.907  -5.190  0.00  0.00    -0.017 C 
ATOM     25  HB  ILE d   1       5.427  -3.522  -4.172  0.00  0.00     0.032 H 
BRANCH  24  26
ATOM     26  CG2 ILE d   1       4.709  -5.225  -5.280  0.00  0.00    -0.060 C 
ATOM     27 1HG2 ILE d   1       3.639  -5.019  -5.261  0.00  0.00     0.023 H 
ATOM     28 2HG2 ILE d   1       4.966  -5.732  -6.211  0.00  0.00     0.023 H 
ATOM     29 3HG2 ILE d   1       4.973  -5.860  -4.435  0.00  0.00     0.023 H 
ENDBRANCH  24  26
BRANCH  24  30
ATOM     30  CG1 ILE d   1       6.946  -4.147  -5.565  0.00  0.00    -0.051 C 
ATOM     31 1HG1 ILE d   1       7.204  -3.540  -6.433  0.00  0.00     0.027 H 
ATOM     32 2HG1 ILE d   1       7.092  -5.200  -5.803  0.00  0.00     0.027 H 
BRANCH  30  33
ATOM     33  CD1 ILE d   1       7.844  -3.761  -4.387  0.00  0.00    -0.065 C 
ATOM     34 1HD1 ILE d   1       7.308  -3.076  -3.731  0.00  0.00     0.023 H 
ATOM     35 2HD1 ILE d   1       8.118  -4.659  -3.831  0.00  0.00     0.023 H 
ATOM     36 3HD1 ILE d   1       8.746  -3.277  -4.761  0.00  0.00     0.023 H 
ENDBRANCH  30  33
ENDBRANCH  24  30
ENDBRANCH   5  24
BRANCH   1  37
ATOM     37  C   UNK d   0       5.677  -4.048  -9.711  0.00  0.00     0.170 A 
ATOM     38  C   UNK d   0       5.405  -3.052 -10.840  0.00  0.00     0.170 A 
ATOM     39  H   UNK d   0       5.410  -3.430 -11.863  0.00  0.00     0.072 H 
ATOM     40  O   UNK d   0       6.638  -3.072 -10.117  0.00  0.00    -0.349 OA
ATOM     41  H   UNK d   0       5.863  -5.088  -9.983  0.00  0.00     0.072 H 
BRANCH  38  42
ATOM     42  C   UNK d   0       4.446  -1.924 -10.564  0.00  0.00     0.245 C 
ATOM     43  N   UNK d   0       3.163  -2.014 -10.968  0.00  0.00    -0.313 N 
ATOM     44  H   UNK d   0       2.840  -2.833 -11.376  0.00  0.00     0.149 HD
ATOM     45  O   UNK d   0       4.829  -0.933  -9.978  0.00  0.00    -0.273 OA
BRANCH  43  46
ATOM     46  C   UNK d   0       2.257  -0.876 -10.791  0.00  0.00     0.011 C 
ATOM     47  H   UNK d   0       1.984  -0.790  -9.740  0.00  0.00     0.046 H 
ATOM     48  H   UNK d   0       2.755   0.038 -11.114  0.00  0.00     0.046 H 
BRANCH  46  49
ATOM     49  C   UNK d   0       0.996  -1.094 -11.630  0.00  0.00    -0.040 C 
ATOM     50  H   UNK d   0       0.226  -1.558 -11.014  0.00  0.00     0.028 H 
ATOM     51  H   UNK d   0       0.637  -0.135 -12.001  0.00  0.00     0.028 H 
BRANCH  49  52
ATOM     52  C   UNK d   0       1.323  -2.009 -12.813  0.00  0.00    -0.064 C 
ATOM     53  H   UNK d   0       1.770  -1.421 -13.614  0.00  0.00     0.023 H 
ATOM     54  H   UNK d   0       2.024  -2.779 -12.493  0.00  0.00     0.023 H 
ATOM     55  H   UNK d   0       0.407  -2.477 -13.173  0.00  0.00     0.023 H 
ENDBRANCH  49  52
ENDBRANCH  46  49
ENDBRANCH  43  46
ENDBRANCH  38  42
ENDBRANCH   1  37
TORSDOF 12
ENDMDL
