MODEL 1
REMARK VINA RESULT:      -6.2      0.000      0.000
REMARK  19 active torsions:
REMARK  status: ('A' for Active; 'I' for Inactive)
REMARK    1  A    between atoms: C_1  and  C_2 
REMARK    2  A    between atoms: C_2  and  C_3 
REMARK    3  A    between atoms: C_2  and  C_4 
REMARK    4  A    between atoms: C_4  and  C_5 
REMARK    5  A    between atoms: C_5  and  O_7 
REMARK    6  A    between atoms: O_7  and  C_8 
REMARK    7  A    between atoms: C_17  and  O_27 
REMARK    8  A    between atoms: C_21  and  C_22 
REMARK    9  A    between atoms: C_22  and  O_23 
REMARK   10  A    between atoms: O_23  and  C_24 
REMARK   11  A    between atoms: C_24  and  C_26 
REMARK   12  A    between atoms: O_27  and  C_28 
REMARK   13  A    between atoms: C_28  and  C_30 
REMARK   14  A    between atoms: C_30  and  C_31 
REMARK   15  A    between atoms: C_31  and  C_32 
REMARK   16  A    between atoms: C_31  and  C_33 
REMARK   17  A    between atoms: C_31  and  O_34 
REMARK   18  A    between atoms: O_34  and  C_35 
REMARK   19  A    between atoms: C_35  and  C_37 
ROOT
ATOM      1  C   LIG d   1       4.744  -0.891  -5.493  0.00  0.00     0.153 C 
ATOM      2  H   LIG d   1       4.197  -0.673  -4.576  0.00  0.00     0.081 H 
ATOM      3  C   LIG d   1       3.965  -0.407  -6.702  0.00  0.00    -0.037 C 
ATOM      4  C   LIG d   1       3.949  -1.331  -7.644  0.00  0.00    -0.025 C 
ATOM      5  C   LIG d   1       4.741  -2.558  -7.214  0.00  0.00     0.093 C 
ATOM      6  H   LIG d   1       5.720  -2.570  -7.692  0.00  0.00     0.045 H 
ATOM      7  C   LIG d   1       4.886  -2.425  -5.700  0.00  0.00     0.146 A 
ATOM      8  C   LIG d   1       5.814  -3.295  -4.874  0.00  0.00     0.082 A 
ATOM      9  O   LIG d   1       4.388  -3.377  -4.780  0.00  0.00    -0.363 OA
ATOM     10  C   LIG d   1       3.934  -3.785  -7.615  0.00  0.00     0.255 C 
ATOM     11  H   LIG d   1       3.094  -3.899  -6.929  0.00  0.00     0.121 H 
ATOM     12  O   LIG d   1       3.439  -3.670  -8.938  0.00  0.00    -0.460 OA
ATOM     13  C   LIG d   1       3.013  -2.525  -9.485  0.00  0.00     0.096 C 
ATOM     14  C   LIG d   1       3.225  -1.320  -8.931  0.00  0.00     0.028 C 
ATOM     15  H   LIG d   1       3.490   0.559  -6.781  0.00  0.00     0.061 H 
ATOM     16  H   LIG d   1       6.338  -4.106  -5.382  0.00  0.00     0.059 H 
ATOM     17  H   LIG d   1       6.353  -2.826  -4.051  0.00  0.00     0.059 H 
ATOM     18  H   LIG d   1       2.475  -2.573 -10.420  0.00  0.00     0.103 H 
ENDROOT
BRANCH  10  19
ATOM     19  O   LIG d   1       4.781  -4.961  -7.526  0.00  0.00    -0.424 OA
BRANCH  19  20
ATOM     20  C   LIG d   1       4.270  -6.034  -6.904  0.00  0.00     0.314 C 
ATOM     21  O   LIG d   1       3.483  -5.891  -5.997  0.00  0.00    -0.251 OA
BRANCH  20  22
ATOM     22  C   LIG d   1       4.677  -7.420  -7.336  0.00  0.00     0.084 C 
ATOM     23  H   LIG d   1       5.368  -7.351  -8.175  0.00  0.00     0.042 H 
ATOM     24  H   LIG d   1       3.792  -7.980  -7.639  0.00  0.00     0.042 H 
BRANCH  22  25
ATOM     25  C   LIG d   1       5.360  -8.138  -6.170  0.00  0.00     0.118 C 
BRANCH  25  26
ATOM     26  C   LIG d   1       6.410  -7.216  -5.548  0.00  0.00    -0.025 C 
ATOM     27  H   LIG d   1       7.340  -7.289  -6.113  0.00  0.00     0.027 H 
ATOM     28  H   LIG d   1       6.051  -6.187  -5.572  0.00  0.00     0.027 H 
ATOM     29  H   LIG d   1       6.588  -7.513  -4.514  0.00  0.00     0.027 H 
ENDBRANCH  25  26
BRANCH  25  30
ATOM     30  C   LIG d   1       6.038  -9.410  -6.681  0.00  0.00    -0.025 C 
ATOM     31  H   LIG d   1       5.662 -10.270  -6.126  0.00  0.00     0.027 H 
ATOM     32  H   LIG d   1       5.819  -9.538  -7.741  0.00  0.00     0.027 H 
ATOM     33  H   LIG d   1       7.116  -9.330  -6.541  0.00  0.00     0.027 H 
ENDBRANCH  25  30
BRANCH  25  34
ATOM     34  O   LIG d   1       4.368  -8.487  -5.168  0.00  0.00    -0.458 OA
BRANCH  34  35
ATOM     35  C   LIG d   1       4.434  -9.724  -4.651  0.00  0.00     0.304 C 
ATOM     36  O   LIG d   1       3.762 -10.612  -5.119  0.00  0.00    -0.251 OA
BRANCH  35  37
ATOM     37  C   LIG d   1       5.348 -10.005  -3.486  0.00  0.00     0.033 C 
ATOM     38  H   LIG d   1       6.185 -10.618  -3.820  0.00  0.00     0.034 H 
ATOM     39  H   LIG d   1       5.724  -9.064  -3.084  0.00  0.00     0.034 H 
ATOM     40  H   LIG d   1       4.796 -10.536  -2.711  0.00  0.00     0.034 H 
ENDBRANCH  35  37
ENDBRANCH  34  35
ENDBRANCH  25  34
ENDBRANCH  22  25
ENDBRANCH  20  22
ENDBRANCH  19  20
ENDBRANCH  10  19
BRANCH  14  41
ATOM     41  C   LIG d   1       2.756  -0.043  -9.579  0.00  0.00     0.121 C 
ATOM     42  H   LIG d   1       1.880  -0.249 -10.194  0.00  0.00     0.075 H 
ATOM     43  H   LIG d   1       2.495   0.682  -8.807  0.00  0.00     0.075 H 
BRANCH  41  44
ATOM     44  O   LIG d   1       3.817   0.496 -10.410  0.00  0.00    -0.460 OA
BRANCH  44  45
ATOM     45  C   LIG d   1       4.538   1.506  -9.899  0.00  0.00     0.304 C 
ATOM     46  O   LIG d   1       5.742   1.499  -9.997  0.00  0.00    -0.251 OA
BRANCH  45  47
ATOM     47  C   LIG d   1       3.846   2.650  -9.203  0.00  0.00     0.033 C 
ATOM     48  H   LIG d   1       4.589   3.286  -8.723  0.00  0.00     0.034 H 
ATOM     49  H   LIG d   1       3.284   3.233  -9.933  0.00  0.00     0.034 H 
ATOM     50  H   LIG d   1       3.163   2.257  -8.450  0.00  0.00     0.034 H 
ENDBRANCH  45  47
ENDBRANCH  44  45
ENDBRANCH  41  44
ENDBRANCH  14  41
BRANCH   1  51
ATOM     51  O   LIG d   1       6.060  -0.279  -5.459  0.00  0.00    -0.454 OA
BRANCH  51  52
ATOM     52  C   LIG d   1       6.395   0.383  -4.340  0.00  0.00     0.308 C 
ATOM     53  O   LIG d   1       6.828   1.508  -4.409  0.00  0.00    -0.251 OA
BRANCH  52  54
ATOM     54  C   LIG d   1       6.231  -0.281  -2.997  0.00  0.00     0.047 C 
ATOM     55  H   LIG d   1       6.523  -1.329  -3.071  0.00  0.00     0.038 H 
ATOM     56  H   LIG d   1       6.862   0.221  -2.263  0.00  0.00     0.038 H 
BRANCH  54  57
ATOM     57  C   LIG d   1       4.768  -0.189  -2.559  0.00  0.00    -0.037 C 
ATOM     58  H   LIG d   1       4.132  -0.066  -3.436  0.00  0.00     0.030 H 
BRANCH  57  59
ATOM     59  C   LIG d   1       4.375  -1.470  -1.820  0.00  0.00    -0.062 C 
ATOM     60  H   LIG d   1       4.062  -1.223  -0.805  0.00  0.00     0.023 H 
ATOM     61  H   LIG d   1       3.551  -1.955  -2.345  0.00  0.00     0.023 H 
ATOM     62  H   LIG d   1       5.230  -2.145  -1.783  0.00  0.00     0.023 H 
ENDBRANCH  57  59
BRANCH  57  63
ATOM     63  C   LIG d   1       4.589   1.012  -1.627  0.00  0.00    -0.062 C 
ATOM     64  H   LIG d   1       5.559   1.308  -1.228  0.00  0.00     0.023 H 
ATOM     65  H   LIG d   1       4.155   1.842  -2.183  0.00  0.00     0.023 H 
ATOM     66  H   LIG d   1       3.927   0.739  -0.806  0.00  0.00     0.023 H 
ENDBRANCH  57  63
ENDBRANCH  54  57
ENDBRANCH  52  54
ENDBRANCH  51  52
ENDBRANCH   1  51
TORSDOF 19
ENDMDL
MODEL 2
REMARK VINA RESULT:      -6.0      1.604      7.328
REMARK  19 active torsions:
REMARK  status: ('A' for Active; 'I' for Inactive)
REMARK    1  A    between atoms: C_1  and  C_2 
REMARK    2  A    between atoms: C_2  and  C_3 
REMARK    3  A    between atoms: C_2  and  C_4 
REMARK    4  A    between atoms: C_4  and  C_5 
REMARK    5  A    between atoms: C_5  and  O_7 
REMARK    6  A    between atoms: O_7  and  C_8 
REMARK    7  A    between atoms: C_17  and  O_27 
REMARK    8  A    between atoms: C_21  and  C_22 
REMARK    9  A    between atoms: C_22  and  O_23 
REMARK   10  A    between atoms: O_23  and  C_24 
REMARK   11  A    between atoms: C_24  and  C_26 
REMARK   12  A    between atoms: O_27  and  C_28 
REMARK   13  A    between atoms: C_28  and  C_30 
REMARK   14  A    between atoms: C_30  and  C_31 
REMARK   15  A    between atoms: C_31  and  C_32 
REMARK   16  A    between atoms: C_31  and  C_33 
REMARK   17  A    between atoms: C_31  and  O_34 
REMARK   18  A    between atoms: O_34  and  C_35 
REMARK   19  A    between atoms: C_35  and  C_37 
ROOT
ATOM      1  C   LIG d   1       5.724  -3.391  -5.053  0.00  0.00     0.153 C 
ATOM      2  H   LIG d   1       6.717  -2.942  -5.050  0.00  0.00     0.081 H 
ATOM      3  C   LIG d   1       5.827  -4.904  -5.009  0.00  0.00    -0.037 C 
ATOM      4  C   LIG d   1       5.012  -5.450  -5.891  0.00  0.00    -0.025 C 
ATOM      5  C   LIG d   1       4.222  -4.383  -6.634  0.00  0.00     0.093 C 
ATOM      6  H   LIG d   1       3.206  -4.315  -6.244  0.00  0.00     0.045 H 
ATOM      7  C   LIG d   1       4.981  -3.082  -6.382  0.00  0.00     0.146 A 
ATOM      8  C   LIG d   1       4.423  -1.714  -6.727  0.00  0.00     0.082 A 
ATOM      9  O   LIG d   1       5.540  -2.290  -7.412  0.00  0.00    -0.363 OA
ATOM     10  C   LIG d   1       4.206  -4.770  -8.107  0.00  0.00     0.255 C 
ATOM     11  H   LIG d   1       5.184  -4.564  -8.541  0.00  0.00     0.121 H 
ATOM     12  O   LIG d   1       3.903  -6.144  -8.277  0.00  0.00    -0.460 OA
ATOM     13  C   LIG d   1       4.320  -7.114  -7.455  0.00  0.00     0.096 C 
ATOM     14  C   LIG d   1       4.869  -6.875  -6.253  0.00  0.00     0.028 C 
ATOM     15  H   LIG d   1       6.476  -5.458  -4.347  0.00  0.00     0.061 H 
ATOM     16  H   LIG d   1       3.470  -1.672  -7.254  0.00  0.00     0.059 H 
ATOM     17  H   LIG d   1       4.618  -0.896  -6.034  0.00  0.00     0.059 H 
ATOM     18  H   LIG d   1       4.207  -8.139  -7.773  0.00  0.00     0.103 H 
ENDROOT
BRANCH  10  19
ATOM     19  O   LIG d   1       3.205  -3.974  -8.796  0.00  0.00    -0.424 OA
BRANCH  19  20
ATOM     20  C   LIG d   1       3.470  -3.628 -10.064  0.00  0.00     0.314 C 
ATOM     21  O   LIG d   1       4.597  -3.712 -10.492  0.00  0.00    -0.251 OA
BRANCH  20  22
ATOM     22  C   LIG d   1       2.361  -3.134 -10.958  0.00  0.00     0.084 C 
ATOM     23  H   LIG d   1       1.401  -3.292 -10.467  0.00  0.00     0.042 H 
ATOM     24  H   LIG d   1       2.382  -3.683 -11.900  0.00  0.00     0.042 H 
BRANCH  22  25
ATOM     25  C   LIG d   1       2.554  -1.642 -11.233  0.00  0.00     0.118 C 
BRANCH  25  26
ATOM     26  C   LIG d   1       1.200  -0.933 -11.177  0.00  0.00    -0.025 C 
ATOM     27  H   LIG d   1       1.002  -0.606 -10.156  0.00  0.00     0.027 H 
ATOM     28  H   LIG d   1       1.215  -0.066 -11.839  0.00  0.00     0.027 H 
ATOM     29  H   LIG d   1       0.417  -1.620 -11.498  0.00  0.00     0.027 H 
ENDBRANCH  25  26
BRANCH  25  30
ATOM     30  C   LIG d   1       3.170  -1.454 -12.621  0.00  0.00    -0.025 C 
ATOM     31  H   LIG d   1       2.378  -1.432 -13.370  0.00  0.00     0.027 H 
ATOM     32  H   LIG d   1       3.724  -0.516 -12.650  0.00  0.00     0.027 H 
ATOM     33  H   LIG d   1       3.847  -2.282 -12.834  0.00  0.00     0.027 H 
ENDBRANCH  25  30
BRANCH  25  34
ATOM     34  O   LIG d   1       3.439  -1.074 -10.231  0.00  0.00    -0.458 OA
BRANCH  34  35
ATOM     35  C   LIG d   1       3.188   0.185  -9.839  0.00  0.00     0.304 C 
ATOM     36  O   LIG d   1       2.459   0.391  -8.899  0.00  0.00    -0.251 OA
BRANCH  35  37
ATOM     37  C   LIG d   1       3.819   1.341 -10.572  0.00  0.00     0.033 C 
ATOM     38  H   LIG d   1       4.495   0.961 -11.337  0.00  0.00     0.034 H 
ATOM     39  H   LIG d   1       3.040   1.942 -11.040  0.00  0.00     0.034 H 
ATOM     40  H   LIG d   1       4.378   1.956  -9.867  0.00  0.00     0.034 H 
ENDBRANCH  35  37
ENDBRANCH  34  35
ENDBRANCH  25  34
ENDBRANCH  22  25
ENDBRANCH  20  22
ENDBRANCH  19  20
ENDBRANCH  10  19
BRANCH  14  41
ATOM     41  C   LIG d   1       5.310  -7.986  -5.335  0.00  0.00     0.121 C 
ATOM     42  H   LIG d   1       6.167  -8.500  -5.772  0.00  0.00     0.075 H 
ATOM     43  H   LIG d   1       5.592  -7.569  -4.368  0.00  0.00     0.075 H 
BRANCH  41  44
ATOM     44  O   LIG d   1       4.220  -8.928  -5.156  0.00  0.00    -0.460 OA
BRANCH  44  45
ATOM     45  C   LIG d   1       4.168  -9.586  -3.988  0.00  0.00     0.304 C 
ATOM     46  O   LIG d   1       3.116  -9.704  -3.406  0.00  0.00    -0.251 OA
BRANCH  45  47
ATOM     47  C   LIG d   1       5.423 -10.178  -3.400  0.00  0.00     0.033 C 
ATOM     48  H   LIG d   1       5.175 -11.094  -2.864  0.00  0.00     0.034 H 
ATOM     49  H   LIG d   1       6.128 -10.404  -4.200  0.00  0.00     0.034 H 
ATOM     50  H   LIG d   1       5.873  -9.464  -2.711  0.00  0.00     0.034 H 
ENDBRANCH  45  47
ENDBRANCH  44  45
ENDBRANCH  41  44
ENDBRANCH  14  41
BRANCH   1  51
ATOM     51  O   LIG d   1       4.941  -2.903  -3.931  0.00  0.00    -0.454 OA
BRANCH  51  52
ATOM     52  C   LIG d   1       5.500  -1.950  -3.168  0.00  0.00     0.308 C 
ATOM     53  O   LIG d   1       6.683  -1.724  -3.253  0.00  0.00    -0.251 OA
BRANCH  52  54
ATOM     54  C   LIG d   1       4.649  -1.163  -2.204  0.00  0.00     0.047 C 
ATOM     55  H   LIG d   1       3.955  -1.836  -1.698  0.00  0.00     0.038 H 
ATOM     56  H   LIG d   1       5.288  -0.678  -1.467  0.00  0.00     0.038 H 
BRANCH  54  57
ATOM     57  C   LIG d   1       3.860  -0.100  -2.973  0.00  0.00    -0.037 C 
ATOM     58  H   LIG d   1       4.340   0.085  -3.933  0.00  0.00     0.030 H 
BRANCH  57  59
ATOM     59  C   LIG d   1       2.430  -0.593  -3.202  0.00  0.00    -0.062 C 
ATOM     60  H   LIG d   1       1.895  -0.611  -2.253  0.00  0.00     0.023 H 
ATOM     61  H   LIG d   1       1.920   0.078  -3.893  0.00  0.00     0.023 H 
ATOM     62  H   LIG d   1       2.455  -1.599  -3.624  0.00  0.00     0.023 H 
ENDBRANCH  57  59
BRANCH  57  63
ATOM     63  C   LIG d   1       3.827   1.196  -2.161  0.00  0.00    -0.062 C 
ATOM     64  H   LIG d   1       3.784   2.048  -2.839  0.00  0.00     0.023 H 
ATOM     65  H   LIG d   1       2.948   1.199  -1.517  0.00  0.00     0.023 H 
ATOM     66  H   LIG d   1       4.726   1.265  -1.549  0.00  0.00     0.023 H 
ENDBRANCH  57  63
ENDBRANCH  54  57
ENDBRANCH  52  54
ENDBRANCH  51  52
ENDBRANCH   1  51
TORSDOF 19
ENDMDL
MODEL 3
REMARK VINA RESULT:      -5.9      1.047      1.721
REMARK  19 active torsions:
REMARK  status: ('A' for Active; 'I' for Inactive)
REMARK    1  A    between atoms: C_1  and  C_2 
REMARK    2  A    between atoms: C_2  and  C_3 
REMARK    3  A    between atoms: C_2  and  C_4 
REMARK    4  A    between atoms: C_4  and  C_5 
REMARK    5  A    between atoms: C_5  and  O_7 
REMARK    6  A    between atoms: O_7  and  C_8 
REMARK    7  A    between atoms: C_17  and  O_27 
REMARK    8  A    between atoms: C_21  and  C_22 
REMARK    9  A    between atoms: C_22  and  O_23 
REMARK   10  A    between atoms: O_23  and  C_24 
REMARK   11  A    between atoms: C_24  and  C_26 
REMARK   12  A    between atoms: O_27  and  C_28 
REMARK   13  A    between atoms: C_28  and  C_30 
REMARK   14  A    between atoms: C_30  and  C_31 
REMARK   15  A    between atoms: C_31  and  C_32 
REMARK   16  A    between atoms: C_31  and  C_33 
REMARK   17  A    between atoms: C_31  and  O_34 
REMARK   18  A    between atoms: O_34  and  C_35 
REMARK   19  A    between atoms: C_35  and  C_37 
ROOT
ATOM      1  C   LIG d   1       4.771  -0.935  -5.519  0.00  0.00     0.153 C 
ATOM      2  H   LIG d   1       4.200  -0.704  -4.620  0.00  0.00     0.081 H 
ATOM      3  C   LIG d   1       4.027  -0.461  -6.754  0.00  0.00    -0.037 C 
ATOM      4  C   LIG d   1       4.033  -1.396  -7.686  0.00  0.00    -0.025 C 
ATOM      5  C   LIG d   1       4.806  -2.621  -7.221  0.00  0.00     0.093 C 
ATOM      6  H   LIG d   1       5.799  -2.643  -7.672  0.00  0.00     0.045 H 
ATOM      7  C   LIG d   1       4.911  -2.472  -5.705  0.00  0.00     0.146 A 
ATOM      8  C   LIG d   1       5.812  -3.336  -4.845  0.00  0.00     0.082 A 
ATOM      9  O   LIG d   1       4.384  -3.411  -4.788  0.00  0.00    -0.363 OA
ATOM     10  C   LIG d   1       4.005  -3.849  -7.630  0.00  0.00     0.255 C 
ATOM     11  H   LIG d   1       3.146  -3.951  -6.967  0.00  0.00     0.121 H 
ATOM     12  O   LIG d   1       3.547  -3.746  -8.968  0.00  0.00    -0.460 OA
ATOM     13  C   LIG d   1       3.142  -2.606  -9.539  0.00  0.00     0.096 C 
ATOM     14  C   LIG d   1       3.345  -1.396  -8.993  0.00  0.00     0.028 C 
ATOM     15  H   LIG d   1       3.560   0.506  -6.857  0.00  0.00     0.061 H 
ATOM     16  H   LIG d   1       6.345  -4.155  -5.329  0.00  0.00     0.059 H 
ATOM     17  H   LIG d   1       6.330  -2.861  -4.012  0.00  0.00     0.059 H 
ATOM     18  H   LIG d   1       2.630  -2.661 -10.488  0.00  0.00     0.103 H 
ENDROOT
BRANCH  10  19
ATOM     19  O   LIG d   1       4.844  -5.028  -7.505  0.00  0.00    -0.424 OA
BRANCH  19  20
ATOM     20  C   LIG d   1       4.314  -6.088  -6.876  0.00  0.00     0.314 C 
ATOM     21  O   LIG d   1       3.436  -5.932  -6.061  0.00  0.00    -0.251 OA
BRANCH  20  22
ATOM     22  C   LIG d   1       4.815  -7.475  -7.187  0.00  0.00     0.084 C 
ATOM     23  H   LIG d   1       5.349  -7.465  -8.137  0.00  0.00     0.042 H 
ATOM     24  H   LIG d   1       3.969  -8.160  -7.254  0.00  0.00     0.042 H 
BRANCH  22  25
ATOM     25  C   LIG d   1       5.759  -7.938  -6.076  0.00  0.00     0.118 C 
BRANCH  25  26
ATOM     26  C   LIG d   1       6.895  -8.763  -6.683  0.00  0.00    -0.025 C 
ATOM     27  H   LIG d   1       7.853  -8.312  -6.421  0.00  0.00     0.027 H 
ATOM     28  H   LIG d   1       6.855  -9.780  -6.291  0.00  0.00     0.027 H 
ATOM     29  H   LIG d   1       6.788  -8.788  -7.767  0.00  0.00     0.027 H 
ENDBRANCH  25  26
BRANCH  25  30
ATOM     30  C   LIG d   1       4.985  -8.796  -5.073  0.00  0.00    -0.025 C 
ATOM     31  H   LIG d   1       4.049  -9.125  -5.524  0.00  0.00     0.027 H 
ATOM     32  H   LIG d   1       5.582  -9.665  -4.801  0.00  0.00     0.027 H 
ATOM     33  H   LIG d   1       4.771  -8.208  -4.180  0.00  0.00     0.027 H 
ENDBRANCH  25  30
BRANCH  25  34
ATOM     34  O   LIG d   1       6.312  -6.780  -5.396  0.00  0.00    -0.458 OA
BRANCH  34  35
ATOM     35  C   LIG d   1       7.647  -6.729  -5.266  0.00  0.00     0.304 C 
ATOM     36  O   LIG d   1       8.191  -7.344  -4.380  0.00  0.00    -0.251 OA
BRANCH  35  37
ATOM     37  C   LIG d   1       8.467  -5.907  -6.226  0.00  0.00     0.033 C 
ATOM     38  H   LIG d   1       8.020  -4.918  -6.332  0.00  0.00     0.034 H 
ATOM     39  H   LIG d   1       9.482  -5.808  -5.844  0.00  0.00     0.034 H 
ATOM     40  H   LIG d   1       8.491  -6.400  -7.198  0.00  0.00     0.034 H 
ENDBRANCH  35  37
ENDBRANCH  34  35
ENDBRANCH  25  34
ENDBRANCH  22  25
ENDBRANCH  20  22
ENDBRANCH  19  20
ENDBRANCH  10  19
BRANCH  14  41
ATOM     41  C   LIG d   1       2.899  -0.123  -9.667  0.00  0.00     0.121 C 
ATOM     42  H   LIG d   1       2.202  -0.363 -10.470  0.00  0.00     0.075 H 
ATOM     43  H   LIG d   1       2.406   0.521  -8.939  0.00  0.00     0.075 H 
BRANCH  41  44
ATOM     44  O   LIG d   1       4.055   0.563 -10.216  0.00  0.00    -0.460 OA
BRANCH  44  45
ATOM     45  C   LIG d   1       4.407   1.722  -9.637  0.00  0.00     0.304 C 
ATOM     46  O   LIG d   1       5.558   2.090  -9.673  0.00  0.00    -0.251 OA
BRANCH  45  47
ATOM     47  C   LIG d   1       3.368   2.564  -8.943  0.00  0.00     0.033 C 
ATOM     48  H   LIG d   1       3.253   3.509  -9.475  0.00  0.00     0.034 H 
ATOM     49  H   LIG d   1       2.417   2.033  -8.934  0.00  0.00     0.034 H 
ATOM     50  H   LIG d   1       3.685   2.760  -7.919  0.00  0.00     0.034 H 
ENDBRANCH  45  47
ENDBRANCH  44  45
ENDBRANCH  41  44
ENDBRANCH  14  41
BRANCH   1  51
ATOM     51  O   LIG d   1       6.089  -0.328  -5.456  0.00  0.00    -0.454 OA
BRANCH  51  52
ATOM     52  C   LIG d   1       6.395   0.348  -4.337  0.00  0.00     0.308 C 
ATOM     53  O   LIG d   1       6.811   1.479  -4.409  0.00  0.00    -0.251 OA
BRANCH  52  54
ATOM     54  C   LIG d   1       6.218  -0.307  -2.991  0.00  0.00     0.047 C 
ATOM     55  H   LIG d   1       6.507  -1.357  -3.057  0.00  0.00     0.038 H 
ATOM     56  H   LIG d   1       6.845   0.198  -2.256  0.00  0.00     0.038 H 
BRANCH  54  57
ATOM     57  C   LIG d   1       4.751  -0.207  -2.565  0.00  0.00    -0.037 C 
ATOM     58  H   LIG d   1       4.126  -0.057  -3.445  0.00  0.00     0.030 H 
BRANCH  57  59
ATOM     59  C   LIG d   1       4.336  -1.500  -1.860  0.00  0.00    -0.062 C 
ATOM     60  H   LIG d   1       3.257  -1.628  -1.942  0.00  0.00     0.023 H 
ATOM     61  H   LIG d   1       4.838  -2.347  -2.327  0.00  0.00     0.023 H 
ATOM     62  H   LIG d   1       4.617  -1.446  -0.807  0.00  0.00     0.023 H 
ENDBRANCH  57  59
BRANCH  57  63
ATOM     63  C   LIG d   1       4.578   0.974  -1.607  0.00  0.00    -0.062 C 
ATOM     64  H   LIG d   1       5.553   1.281  -1.231  0.00  0.00     0.023 H 
ATOM     65  H   LIG d   1       4.114   1.805  -2.137  0.00  0.00     0.023 H 
ATOM     66  H   LIG d   1       3.944   0.675  -0.773  0.00  0.00     0.023 H 
ENDBRANCH  57  63
ENDBRANCH  54  57
ENDBRANCH  52  54
ENDBRANCH  51  52
ENDBRANCH   1  51
TORSDOF 19
ENDMDL
MODEL 4
REMARK VINA RESULT:      -5.9      3.716      7.301
REMARK  19 active torsions:
REMARK  status: ('A' for Active; 'I' for Inactive)
REMARK    1  A    between atoms: C_1  and  C_2 
REMARK    2  A    between atoms: C_2  and  C_3 
REMARK    3  A    between atoms: C_2  and  C_4 
REMARK    4  A    between atoms: C_4  and  C_5 
REMARK    5  A    between atoms: C_5  and  O_7 
REMARK    6  A    between atoms: O_7  and  C_8 
REMARK    7  A    between atoms: C_17  and  O_27 
REMARK    8  A    between atoms: C_21  and  C_22 
REMARK    9  A    between atoms: C_22  and  O_23 
REMARK   10  A    between atoms: O_23  and  C_24 
REMARK   11  A    between atoms: C_24  and  C_26 
REMARK   12  A    between atoms: O_27  and  C_28 
REMARK   13  A    between atoms: C_28  and  C_30 
REMARK   14  A    between atoms: C_30  and  C_31 
REMARK   15  A    between atoms: C_31  and  C_32 
REMARK   16  A    between atoms: C_31  and  C_33 
REMARK   17  A    between atoms: C_31  and  O_34 
REMARK   18  A    between atoms: O_34  and  C_35 
REMARK   19  A    between atoms: C_35  and  C_37 
ROOT
ATOM      1  C   LIG d   1       7.956   0.631  -5.108  0.00  0.00     0.153 C 
ATOM      2  H   LIG d   1       9.021   0.426  -5.009  0.00  0.00     0.081 H 
ATOM      3  C   LIG d   1       7.179  -0.061  -4.004  0.00  0.00    -0.037 C 
ATOM      4  C   LIG d   1       6.115  -0.669  -4.496  0.00  0.00    -0.025 C 
ATOM      5  C   LIG d   1       6.010  -0.447  -5.998  0.00  0.00     0.093 C 
ATOM      6  H   LIG d   1       5.260   0.312  -6.222  0.00  0.00     0.045 H 
ATOM      7  C   LIG d   1       7.397   0.027  -6.426  0.00  0.00     0.146 A 
ATOM      8  C   LIG d   1       7.691   0.604  -7.798  0.00  0.00     0.082 A 
ATOM      9  O   LIG d   1       8.203  -0.660  -7.363  0.00  0.00    -0.363 OA
ATOM     10  C   LIG d   1       5.630  -1.779  -6.630  0.00  0.00     0.255 C 
ATOM     11  H   LIG d   1       6.502  -2.433  -6.635  0.00  0.00     0.121 H 
ATOM     12  O   LIG d   1       4.581  -2.410  -5.916  0.00  0.00    -0.460 OA
ATOM     13  C   LIG d   1       4.447  -2.371  -4.585  0.00  0.00     0.096 C 
ATOM     14  C   LIG d   1       5.148  -1.540  -3.798  0.00  0.00     0.028 C 
ATOM     15  H   LIG d   1       7.456  -0.057  -2.961  0.00  0.00     0.061 H 
ATOM     16  H   LIG d   1       6.887   0.600  -8.535  0.00  0.00     0.059 H 
ATOM     17  H   LIG d   1       8.386   1.441  -7.860  0.00  0.00     0.059 H 
ATOM     18  H   LIG d   1       3.736  -3.040  -4.122  0.00  0.00     0.103 H 
ENDROOT
BRANCH  10  19
ATOM     19  O   LIG d   1       5.202  -1.550  -7.999  0.00  0.00    -0.424 OA
BRANCH  19  20
ATOM     20  C   LIG d   1       3.905  -1.753  -8.273  0.00  0.00     0.314 C 
ATOM     21  O   LIG d   1       3.522  -2.848  -8.615  0.00  0.00    -0.251 OA
BRANCH  20  22
ATOM     22  C   LIG d   1       2.923  -0.616  -8.155  0.00  0.00     0.084 C 
ATOM     23  H   LIG d   1       3.368   0.190  -7.573  0.00  0.00     0.042 H 
ATOM     24  H   LIG d   1       2.019  -0.968  -7.656  0.00  0.00     0.042 H 
BRANCH  22  25
ATOM     25  C   LIG d   1       2.567  -0.102  -9.551  0.00  0.00     0.118 C 
BRANCH  25  26
ATOM     26  C   LIG d   1       1.326  -0.834 -10.064  0.00  0.00    -0.025 C 
ATOM     27  H   LIG d   1       0.632  -0.996  -9.239  0.00  0.00     0.027 H 
ATOM     28  H   LIG d   1       0.840  -0.232 -10.833  0.00  0.00     0.027 H 
ATOM     29  H   LIG d   1       1.619  -1.794 -10.487  0.00  0.00     0.027 H 
ENDBRANCH  25  26
BRANCH  25  30
ATOM     30  C   LIG d   1       3.738  -0.357 -10.502  0.00  0.00    -0.025 C 
ATOM     31  H   LIG d   1       4.392  -1.119 -10.077  0.00  0.00     0.027 H 
ATOM     32  H   LIG d   1       3.358  -0.700 -11.464  0.00  0.00     0.027 H 
ATOM     33  H   LIG d   1       4.300   0.567 -10.643  0.00  0.00     0.027 H 
ENDBRANCH  25  30
BRANCH  25  34
ATOM     34  O   LIG d   1       2.297   1.323  -9.488  0.00  0.00    -0.458 OA
BRANCH  34  35
ATOM     35  C   LIG d   1       3.096   2.061  -8.701  0.00  0.00     0.304 C 
ATOM     36  O   LIG d   1       2.786   2.272  -7.553  0.00  0.00    -0.251 OA
BRANCH  35  37
ATOM     37  C   LIG d   1       4.381   2.625  -9.250  0.00  0.00     0.033 C 
ATOM     38  H   LIG d   1       4.490   2.332 -10.294  0.00  0.00     0.034 H 
ATOM     39  H   LIG d   1       4.361   3.712  -9.178  0.00  0.00     0.034 H 
ATOM     40  H   LIG d   1       5.223   2.238  -8.675  0.00  0.00     0.034 H 
ENDBRANCH  35  37
ENDBRANCH  34  35
ENDBRANCH  25  34
ENDBRANCH  22  25
ENDBRANCH  20  22
ENDBRANCH  19  20
ENDBRANCH  10  19
BRANCH  14  41
ATOM     41  C   LIG d   1       4.963  -1.499  -2.303  0.00  0.00     0.121 C 
ATOM     42  H   LIG d   1       4.732  -2.500  -1.938  0.00  0.00     0.075 H 
ATOM     43  H   LIG d   1       5.879  -1.144  -1.832  0.00  0.00     0.075 H 
BRANCH  41  44
ATOM     44  O   LIG d   1       3.871  -0.600  -1.975  0.00  0.00    -0.460 OA
BRANCH  44  45
ATOM     45  C   LIG d   1       4.144   0.714  -1.972  0.00  0.00     0.304 C 
ATOM     46  O   LIG d   1       4.925   1.168  -1.169  0.00  0.00    -0.251 OA
BRANCH  45  47
ATOM     47  C   LIG d   1       3.476   1.626  -2.969  0.00  0.00     0.033 C 
ATOM     48  H   LIG d   1       3.470   2.645  -2.582  0.00  0.00     0.034 H 
ATOM     49  H   LIG d   1       4.024   1.597  -3.911  0.00  0.00     0.034 H 
ATOM     50  H   LIG d   1       2.451   1.294  -3.135  0.00  0.00     0.034 H 
ENDBRANCH  45  47
ENDBRANCH  44  45
ENDBRANCH  41  44
ENDBRANCH  14  41
BRANCH   1  51
ATOM     51  O   LIG d   1       7.708   2.062  -5.083  0.00  0.00    -0.454 OA
BRANCH  51  52
ATOM     52  C   LIG d   1       8.672   2.837  -4.561  0.00  0.00     0.308 C 
ATOM     53  O   LIG d   1       8.751   2.979  -3.364  0.00  0.00    -0.251 OA
BRANCH  52  54
ATOM     54  C   LIG d   1       9.654   3.530  -5.469  0.00  0.00     0.047 C 
ATOM     55  H   LIG d   1      10.585   2.962  -5.499  0.00  0.00     0.038 H 
ATOM     56  H   LIG d   1       9.237   3.596  -6.474  0.00  0.00     0.038 H 
BRANCH  54  57
ATOM     57  C   LIG d   1       9.933   4.938  -4.939  0.00  0.00    -0.037 C 
ATOM     58  H   LIG d   1       9.249   5.161  -4.121  0.00  0.00     0.030 H 
BRANCH  57  59
ATOM     59  C   LIG d   1      11.375   5.016  -4.434  0.00  0.00    -0.062 C 
ATOM     60  H   LIG d   1      11.975   4.249  -4.925  0.00  0.00     0.023 H 
ATOM     61  H   LIG d   1      11.788   5.999  -4.661  0.00  0.00     0.023 H 
ATOM     62  H   LIG d   1      11.392   4.856  -3.355  0.00  0.00     0.023 H 
ENDBRANCH  57  59
BRANCH  57  63
ATOM     63  C   LIG d   1       9.732   5.956  -6.064  0.00  0.00    -0.062 C 
ATOM     64  H   LIG d   1       9.980   5.494  -7.020  0.00  0.00     0.023 H 
ATOM     65  H   LIG d   1       8.693   6.283  -6.077  0.00  0.00     0.023 H 
ATOM     66  H   LIG d   1      10.382   6.815  -5.898  0.00  0.00     0.023 H 
ENDBRANCH  57  63
ENDBRANCH  54  57
ENDBRANCH  52  54
ENDBRANCH  51  52
ENDBRANCH   1  51
TORSDOF 19
ENDMDL
MODEL 5
REMARK VINA RESULT:      -5.8      4.749      7.162
REMARK  19 active torsions:
REMARK  status: ('A' for Active; 'I' for Inactive)
REMARK    1  A    between atoms: C_1  and  C_2 
REMARK    2  A    between atoms: C_2  and  C_3 
REMARK    3  A    between atoms: C_2  and  C_4 
REMARK    4  A    between atoms: C_4  and  C_5 
REMARK    5  A    between atoms: C_5  and  O_7 
REMARK    6  A    between atoms: O_7  and  C_8 
REMARK    7  A    between atoms: C_17  and  O_27 
REMARK    8  A    between atoms: C_21  and  C_22 
REMARK    9  A    between atoms: C_22  and  O_23 
REMARK   10  A    between atoms: O_23  and  C_24 
REMARK   11  A    between atoms: C_24  and  C_26 
REMARK   12  A    between atoms: O_27  and  C_28 
REMARK   13  A    between atoms: C_28  and  C_30 
REMARK   14  A    between atoms: C_30  and  C_31 
REMARK   15  A    between atoms: C_31  and  C_32 
REMARK   16  A    between atoms: C_31  and  C_33 
REMARK   17  A    between atoms: C_31  and  O_34 
REMARK   18  A    between atoms: O_34  and  C_35 
REMARK   19  A    between atoms: C_35  and  C_37 
ROOT
ATOM      1  C   LIG d   1       9.527   3.346  -5.221  0.00  0.00     0.153 C 
ATOM      2  H   LIG d   1       9.097   4.231  -4.753  0.00  0.00     0.081 H 
ATOM      3  C   LIG d   1       9.745   3.583  -6.703  0.00  0.00    -0.037 C 
ATOM      4  C   LIG d   1       9.316   2.552  -7.407  0.00  0.00    -0.025 C 
ATOM      5  C   LIG d   1       8.774   1.462  -6.494  0.00  0.00     0.093 C 
ATOM      6  H   LIG d   1       9.498   0.654  -6.388  0.00  0.00     0.045 H 
ATOM      7  C   LIG d   1       8.538   2.149  -5.152  0.00  0.00     0.146 A 
ATOM      8  C   LIG d   1       8.232   1.393  -3.873  0.00  0.00     0.082 A 
ATOM      9  O   LIG d   1       7.272   2.230  -4.526  0.00  0.00    -0.363 OA
ATOM     10  C   LIG d   1       7.484   0.945  -7.117  0.00  0.00     0.255 C 
ATOM     11  H   LIG d   1       6.694   1.680  -6.962  0.00  0.00     0.121 H 
ATOM     12  O   LIG d   1       7.637   0.717  -8.508  0.00  0.00    -0.460 OA
ATOM     13  C   LIG d   1       8.375   1.482  -9.320  0.00  0.00     0.096 C 
ATOM     14  C   LIG d   1       9.241   2.407  -8.874  0.00  0.00     0.028 C 
ATOM     15  H   LIG d   1      10.191   4.471  -7.125  0.00  0.00     0.061 H 
ATOM     16  H   LIG d   1       8.095   0.313  -3.941  0.00  0.00     0.059 H 
ATOM     17  H   LIG d   1       8.678   1.757  -2.947  0.00  0.00     0.059 H 
ATOM     18  H   LIG d   1       8.272   1.347 -10.386  0.00  0.00     0.103 H 
ENDROOT
BRANCH  10  19
ATOM     19  O   LIG d   1       7.108  -0.300  -6.470  0.00  0.00    -0.424 OA
BRANCH  19  20
ATOM     20  C   LIG d   1       5.797  -0.528  -6.304  0.00  0.00     0.314 C 
ATOM     21  O   LIG d   1       4.985   0.227  -6.785  0.00  0.00    -0.251 OA
BRANCH  20  22
ATOM     22  C   LIG d   1       5.336  -1.727  -5.516  0.00  0.00     0.084 C 
ATOM     23  H   LIG d   1       6.037  -2.548  -5.659  0.00  0.00     0.042 H 
ATOM     24  H   LIG d   1       4.346  -2.029  -5.861  0.00  0.00     0.042 H 
BRANCH  22  25
ATOM     25  C   LIG d   1       5.269  -1.366  -4.030  0.00  0.00     0.118 C 
BRANCH  25  26
ATOM     26  C   LIG d   1       6.569  -1.788  -3.343  0.00  0.00    -0.025 C 
ATOM     27  H   LIG d   1       6.492  -1.601  -2.272  0.00  0.00     0.027 H 
ATOM     28  H   LIG d   1       6.743  -2.851  -3.515  0.00  0.00     0.027 H 
ATOM     29  H   LIG d   1       7.399  -1.214  -3.754  0.00  0.00     0.027 H 
ENDBRANCH  25  26
BRANCH  25  30
ATOM     30  C   LIG d   1       4.090  -2.095  -3.381  0.00  0.00    -0.025 C 
ATOM     31  H   LIG d   1       4.260  -3.171  -3.425  0.00  0.00     0.027 H 
ATOM     32  H   LIG d   1       3.999  -1.784  -2.341  0.00  0.00     0.027 H 
ATOM     33  H   LIG d   1       3.172  -1.850  -3.915  0.00  0.00     0.027 H 
ENDBRANCH  25  30
BRANCH  25  34
ATOM     34  O   LIG d   1       5.089   0.067  -3.887  0.00  0.00    -0.458 OA
BRANCH  34  35
ATOM     35  C   LIG d   1       4.151   0.481  -3.021  0.00  0.00     0.304 C 
ATOM     36  O   LIG d   1       3.001   0.579  -3.377  0.00  0.00    -0.251 OA
BRANCH  35  37
ATOM     37  C   LIG d   1       4.532   0.821  -1.604  0.00  0.00     0.033 C 
ATOM     38  H   LIG d   1       3.960   0.202  -0.914  0.00  0.00     0.034 H 
ATOM     39  H   LIG d   1       5.597   0.637  -1.460  0.00  0.00     0.034 H 
ATOM     40  H   LIG d   1       4.317   1.873  -1.411  0.00  0.00     0.034 H 
ENDBRANCH  35  37
ENDBRANCH  34  35
ENDBRANCH  25  34
ENDBRANCH  22  25
ENDBRANCH  20  22
ENDBRANCH  19  20
ENDBRANCH  10  19
BRANCH  14  41
ATOM     41  C   LIG d   1      10.079   3.241  -9.809  0.00  0.00     0.121 C 
ATOM     42  H   LIG d   1      10.814   3.804  -9.233  0.00  0.00     0.075 H 
ATOM     43  H   LIG d   1      10.593   2.590 -10.515  0.00  0.00     0.075 H 
BRANCH  41  44
ATOM     44  O   LIG d   1       9.223   4.162 -10.535  0.00  0.00    -0.460 OA
BRANCH  44  45
ATOM     45  C   LIG d   1       8.984   5.352  -9.962  0.00  0.00     0.304 C 
ATOM     46  O   LIG d   1       7.856   5.782  -9.909  0.00  0.00    -0.251 OA
BRANCH  45  47
ATOM     47  C   LIG d   1      10.122   6.153  -9.385  0.00  0.00     0.033 C 
ATOM     48  H   LIG d   1      11.035   5.557  -9.410  0.00  0.00     0.034 H 
ATOM     49  H   LIG d   1      10.263   7.060  -9.972  0.00  0.00     0.034 H 
ATOM     50  H   LIG d   1       9.892   6.421  -8.353  0.00  0.00     0.034 H 
ENDBRANCH  45  47
ENDBRANCH  44  45
ENDBRANCH  41  44
ENDBRANCH  14  41
BRANCH   1  51
ATOM     51  O   LIG d   1      10.777   2.985  -4.575  0.00  0.00    -0.454 OA
BRANCH  51  52
ATOM     52  C   LIG d   1      11.154   3.726  -3.521  0.00  0.00     0.308 C 
ATOM     53  O   LIG d   1      12.326   3.850  -3.258  0.00  0.00    -0.251 OA
BRANCH  52  54
ATOM     54  C   LIG d   1      10.113   4.405  -2.669  0.00  0.00     0.047 C 
ATOM     55  H   LIG d   1       9.127   4.254  -3.110  0.00  0.00     0.038 H 
ATOM     56  H   LIG d   1      10.131   3.979  -1.665  0.00  0.00     0.038 H 
BRANCH  54  57
ATOM     57  C   LIG d   1      10.415   5.903  -2.593  0.00  0.00    -0.037 C 
ATOM     58  H   LIG d   1      11.454   6.079  -2.866  0.00  0.00     0.030 H 
BRANCH  57  59
ATOM     59  C   LIG d   1       9.498   6.657  -3.558  0.00  0.00    -0.062 C 
ATOM     60  H   LIG d   1      10.070   6.972  -4.431  0.00  0.00     0.023 H 
ATOM     61  H   LIG d   1       8.685   6.004  -3.874  0.00  0.00     0.023 H 
ATOM     62  H   LIG d   1       9.086   7.535  -3.058  0.00  0.00     0.023 H 
ENDBRANCH  57  59
BRANCH  57  63
ATOM     63  C   LIG d   1      10.171   6.401  -1.166  0.00  0.00    -0.062 C 
ATOM     64  H   LIG d   1      10.770   7.293  -0.986  0.00  0.00     0.023 H 
ATOM     65  H   LIG d   1       9.116   6.640  -1.040  0.00  0.00     0.023 H 
ATOM     66  H   LIG d   1      10.455   5.624  -0.457  0.00  0.00     0.023 H 
ENDBRANCH  57  63
ENDBRANCH  54  57
ENDBRANCH  52  54
ENDBRANCH  51  52
ENDBRANCH   1  51
TORSDOF 19
ENDMDL
MODEL 6
REMARK VINA RESULT:      -5.7      2.939      6.782
REMARK  19 active torsions:
REMARK  status: ('A' for Active; 'I' for Inactive)
REMARK    1  A    between atoms: C_1  and  C_2 
REMARK    2  A    between atoms: C_2  and  C_3 
REMARK    3  A    between atoms: C_2  and  C_4 
REMARK    4  A    between atoms: C_4  and  C_5 
REMARK    5  A    between atoms: C_5  and  O_7 
REMARK    6  A    between atoms: O_7  and  C_8 
REMARK    7  A    between atoms: C_17  and  O_27 
REMARK    8  A    between atoms: C_21  and  C_22 
REMARK    9  A    between atoms: C_22  and  O_23 
REMARK   10  A    between atoms: O_23  and  C_24 
REMARK   11  A    between atoms: C_24  and  C_26 
REMARK   12  A    between atoms: O_27  and  C_28 
REMARK   13  A    between atoms: C_28  and  C_30 
REMARK   14  A    between atoms: C_30  and  C_31 
REMARK   15  A    between atoms: C_31  and  C_32 
REMARK   16  A    between atoms: C_31  and  C_33 
REMARK   17  A    between atoms: C_31  and  O_34 
REMARK   18  A    between atoms: O_34  and  C_35 
REMARK   19  A    between atoms: C_35  and  C_37 
ROOT
ATOM      1  C   LIG d   1       5.112  -3.707  -5.702  0.00  0.00     0.153 C 
ATOM      2  H   LIG d   1       6.067  -3.181  -5.724  0.00  0.00     0.081 H 
ATOM      3  C   LIG d   1       5.319  -5.164  -5.335  0.00  0.00    -0.037 C 
ATOM      4  C   LIG d   1       4.625  -5.948  -6.138  0.00  0.00    -0.025 C 
ATOM      5  C   LIG d   1       3.829  -5.127  -7.142  0.00  0.00     0.093 C 
ATOM      6  H   LIG d   1       2.780  -5.071  -6.847  0.00  0.00     0.045 H 
ATOM      7  C   LIG d   1       4.468  -3.741  -7.116  0.00  0.00     0.146 A 
ATOM      8  C   LIG d   1       3.846  -2.526  -7.778  0.00  0.00     0.082 A 
ATOM      9  O   LIG d   1       5.057  -3.129  -8.247  0.00  0.00    -0.363 OA
ATOM     10  C   LIG d   1       3.968  -5.806  -8.498  0.00  0.00     0.255 C 
ATOM     11  H   LIG d   1       4.963  -5.607  -8.895  0.00  0.00     0.121 H 
ATOM     12  O   LIG d   1       3.780  -7.207  -8.397  0.00  0.00    -0.460 OA
ATOM     13  C   LIG d   1       4.192  -7.949  -7.363  0.00  0.00     0.096 C 
ATOM     14  C   LIG d   1       4.616  -7.424  -6.202  0.00  0.00     0.028 C 
ATOM     15  H   LIG d   1       5.946  -5.512  -4.527  0.00  0.00     0.061 H 
ATOM     16  H   LIG d   1       2.941  -2.676  -8.368  0.00  0.00     0.059 H 
ATOM     17  H   LIG d   1       3.921  -1.570  -7.260  0.00  0.00     0.059 H 
ATOM     18  H   LIG d   1       4.181  -9.024  -7.466  0.00  0.00     0.103 H 
ENDROOT
BRANCH  10  19
ATOM     19  O   LIG d   1       2.976  -5.258  -9.407  0.00  0.00    -0.424 OA
BRANCH  19  20
ATOM     20  C   LIG d   1       3.079  -5.604 -10.699  0.00  0.00     0.314 C 
ATOM     21  O   LIG d   1       4.164  -5.832 -11.181  0.00  0.00    -0.251 OA
BRANCH  20  22
ATOM     22  C   LIG d   1       1.840  -5.710 -11.551  0.00  0.00     0.084 C 
ATOM     23  H   LIG d   1       2.126  -5.811 -12.597  0.00  0.00     0.042 H 
ATOM     24  H   LIG d   1       1.235  -4.811 -11.425  0.00  0.00     0.042 H 
BRANCH  22  25
ATOM     25  C   LIG d   1       1.029  -6.935 -11.123  0.00  0.00     0.118 C 
BRANCH  25  26
ATOM     26  C   LIG d   1       1.941  -8.162 -11.083  0.00  0.00    -0.025 C 
ATOM     27  H   LIG d   1       2.081  -8.545 -12.094  0.00  0.00     0.027 H 
ATOM     28  H   LIG d   1       2.908  -7.883 -10.664  0.00  0.00     0.027 H 
ATOM     29  H   LIG d   1       1.486  -8.933 -10.462  0.00  0.00     0.027 H 
ENDBRANCH  25  26
BRANCH  25  30
ATOM     30  C   LIG d   1      -0.102  -7.173 -12.125  0.00  0.00    -0.025 C 
ATOM     31  H   LIG d   1      -1.062  -7.077 -11.617  0.00  0.00     0.027 H 
ATOM     32  H   LIG d   1      -0.040  -6.437 -12.926  0.00  0.00     0.027 H 
ATOM     33  H   LIG d   1      -0.011  -8.175 -12.544  0.00  0.00     0.027 H 
ENDBRANCH  25  30
BRANCH  25  34
ATOM     34  O   LIG d   1       0.467  -6.707  -9.803  0.00  0.00    -0.458 OA
BRANCH  34  35
ATOM     35  C   LIG d   1      -0.812  -6.303  -9.747  0.00  0.00     0.304 C 
ATOM     36  O   LIG d   1      -1.099  -5.164 -10.030  0.00  0.00    -0.251 OA
BRANCH  35  37
ATOM     37  C   LIG d   1      -1.889  -7.271  -9.333  0.00  0.00     0.033 C 
ATOM     38  H   LIG d   1      -2.654  -6.743  -8.763  0.00  0.00     0.034 H 
ATOM     39  H   LIG d   1      -2.339  -7.715 -10.221  0.00  0.00     0.034 H 
ATOM     40  H   LIG d   1      -1.454  -8.057  -8.715  0.00  0.00     0.034 H 
ENDBRANCH  35  37
ENDBRANCH  34  35
ENDBRANCH  25  34
ENDBRANCH  22  25
ENDBRANCH  20  22
ENDBRANCH  19  20
ENDBRANCH  10  19
BRANCH  14  41
ATOM     41  C   LIG d   1       5.054  -8.281  -5.042  0.00  0.00     0.121 C 
ATOM     42  H   LIG d   1       6.051  -8.676  -5.238  0.00  0.00     0.075 H 
ATOM     43  H   LIG d   1       5.073  -7.681  -4.133  0.00  0.00     0.075 H 
BRANCH  41  44
ATOM     44  O   LIG d   1       4.121  -9.382  -4.876  0.00  0.00    -0.460 OA
BRANCH  44  45
ATOM     45  C   LIG d   1       3.895  -9.804  -3.622  0.00  0.00     0.304 C 
ATOM     46  O   LIG d   1       2.792  -9.698  -3.138  0.00  0.00    -0.251 OA
BRANCH  45  47
ATOM     47  C   LIG d   1       5.015 -10.410  -2.817  0.00  0.00     0.033 C 
ATOM     48  H   LIG d   1       5.972 -10.107  -3.241  0.00  0.00     0.034 H 
ATOM     49  H   LIG d   1       4.949 -10.066  -1.785  0.00  0.00     0.034 H 
ATOM     50  H   LIG d   1       4.934 -11.497  -2.842  0.00  0.00     0.034 H 
ENDBRANCH  45  47
ENDBRANCH  44  45
ENDBRANCH  41  44
ENDBRANCH  14  41
BRANCH   1  51
ATOM     51  O   LIG d   1       4.202  -3.071  -4.765  0.00  0.00    -0.454 OA
BRANCH  51  52
ATOM     52  C   LIG d   1       4.751  -2.457  -3.705  0.00  0.00     0.308 C 
ATOM     53  O   LIG d   1       5.904  -2.100  -3.744  0.00  0.00    -0.251 OA
BRANCH  52  54
ATOM     54  C   LIG d   1       3.926  -2.213  -2.467  0.00  0.00     0.047 C 
ATOM     55  H   LIG d   1       3.092  -2.916  -2.441  0.00  0.00     0.038 H 
ATOM     56  H   LIG d   1       4.548  -2.353  -1.583  0.00  0.00     0.038 H 
BRANCH  54  57
ATOM     57  C   LIG d   1       3.386  -0.782  -2.489  0.00  0.00    -0.037 C 
ATOM     58  H   LIG d   1       2.491  -0.721  -1.871  0.00  0.00     0.030 H 
BRANCH  57  59
ATOM     59  C   LIG d   1       4.449   0.173  -1.942  0.00  0.00    -0.062 C 
ATOM     60  H   LIG d   1       5.430  -0.300  -2.005  0.00  0.00     0.023 H 
ATOM     61  H   LIG d   1       4.452   1.091  -2.530  0.00  0.00     0.023 H 
ATOM     62  H   LIG d   1       4.226   0.409  -0.901  0.00  0.00     0.023 H 
ENDBRANCH  57  59
BRANCH  57  63
ATOM     63  C   LIG d   1       3.041  -0.388  -3.928  0.00  0.00    -0.062 C 
ATOM     64  H   LIG d   1       3.570   0.528  -4.189  0.00  0.00     0.023 H 
ATOM     65  H   LIG d   1       3.342  -1.188  -4.604  0.00  0.00     0.023 H 
ATOM     66  H   LIG d   1       1.968  -0.225  -4.012  0.00  0.00     0.023 H 
ENDBRANCH  57  63
ENDBRANCH  54  57
ENDBRANCH  52  54
ENDBRANCH  51  52
ENDBRANCH   1  51
TORSDOF 19
ENDMDL
MODEL 7
REMARK VINA RESULT:      -5.7      2.645      6.124
REMARK  19 active torsions:
REMARK  status: ('A' for Active; 'I' for Inactive)
REMARK    1  A    between atoms: C_1  and  C_2 
REMARK    2  A    between atoms: C_2  and  C_3 
REMARK    3  A    between atoms: C_2  and  C_4 
REMARK    4  A    between atoms: C_4  and  C_5 
REMARK    5  A    between atoms: C_5  and  O_7 
REMARK    6  A    between atoms: O_7  and  C_8 
REMARK    7  A    between atoms: C_17  and  O_27 
REMARK    8  A    between atoms: C_21  and  C_22 
REMARK    9  A    between atoms: C_22  and  O_23 
REMARK   10  A    between atoms: O_23  and  C_24 
REMARK   11  A    between atoms: C_24  and  C_26 
REMARK   12  A    between atoms: O_27  and  C_28 
REMARK   13  A    between atoms: C_28  and  C_30 
REMARK   14  A    between atoms: C_30  and  C_31 
REMARK   15  A    between atoms: C_31  and  C_32 
REMARK   16  A    between atoms: C_31  and  C_33 
REMARK   17  A    between atoms: C_31  and  O_34 
REMARK   18  A    between atoms: O_34  and  C_35 
REMARK   19  A    between atoms: C_35  and  C_37 
ROOT
ATOM      1  C   LIG d   1       4.121   0.084  -6.659  0.00  0.00     0.153 C 
ATOM      2  H   LIG d   1       4.737   0.790  -6.103  0.00  0.00     0.081 H 
ATOM      3  C   LIG d   1       4.860  -1.227  -6.850  0.00  0.00    -0.037 C 
ATOM      4  C   LIG d   1       4.749  -1.645  -8.097  0.00  0.00    -0.025 C 
ATOM      5  C   LIG d   1       3.894  -0.689  -8.915  0.00  0.00     0.093 C 
ATOM      6  H   LIG d   1       2.889  -1.090  -9.050  0.00  0.00     0.045 H 
ATOM      7  C   LIG d   1       3.851   0.601  -8.100  0.00  0.00     0.146 A 
ATOM      8  C   LIG d   1       2.911   1.750  -8.410  0.00  0.00     0.082 A 
ATOM      9  O   LIG d   1       4.330   1.844  -8.576  0.00  0.00    -0.363 OA
ATOM     10  C   LIG d   1       4.580  -0.502 -10.262  0.00  0.00     0.255 C 
ATOM     11  H   LIG d   1       5.449   0.144 -10.133  0.00  0.00     0.121 H 
ATOM     12  O   LIG d   1       5.001  -1.742 -10.804  0.00  0.00    -0.460 OA
ATOM     13  C   LIG d   1       5.478  -2.759 -10.077  0.00  0.00     0.096 C 
ATOM     14  C   LIG d   1       5.392  -2.810  -8.737  0.00  0.00     0.028 C 
ATOM     15  H   LIG d   1       5.401  -1.748  -6.074  0.00  0.00     0.061 H 
ATOM     16  H   LIG d   1       2.298   1.677  -9.309  0.00  0.00     0.059 H 
ATOM     17  H   LIG d   1       2.460   2.280  -7.571  0.00  0.00     0.059 H 
ATOM     18  H   LIG d   1       5.953  -3.580 -10.592  0.00  0.00     0.103 H 
ENDROOT
BRANCH  10  19
ATOM     19  O   LIG d   1       3.653   0.129 -11.185  0.00  0.00    -0.424 OA
BRANCH  19  20
ATOM     20  C   LIG d   1       2.586  -0.590 -11.563  0.00  0.00     0.314 C 
ATOM     21  O   LIG d   1       1.548  -0.503 -10.949  0.00  0.00    -0.251 OA
BRANCH  20  22
ATOM     22  C   LIG d   1       2.681  -1.507 -12.755  0.00  0.00     0.084 C 
ATOM     23  H   LIG d   1       3.728  -1.662 -13.013  0.00  0.00     0.042 H 
ATOM     24  H   LIG d   1       2.160  -1.058 -13.602  0.00  0.00     0.042 H 
BRANCH  22  25
ATOM     25  C   LIG d   1       2.036  -2.853 -12.417  0.00  0.00     0.118 C 
BRANCH  25  26
ATOM     26  C   LIG d   1       2.914  -3.988 -12.946  0.00  0.00    -0.025 C 
ATOM     27  H   LIG d   1       3.964  -3.736 -12.796  0.00  0.00     0.027 H 
ATOM     28  H   LIG d   1       2.681  -4.908 -12.410  0.00  0.00     0.027 H 
ATOM     29  H   LIG d   1       2.723  -4.129 -14.009  0.00  0.00     0.027 H 
ENDBRANCH  25  26
BRANCH  25  30
ATOM     30  C   LIG d   1       0.653  -2.933 -13.066  0.00  0.00    -0.025 C 
ATOM     31  H   LIG d   1       0.608  -2.245 -13.910  0.00  0.00     0.027 H 
ATOM     32  H   LIG d   1       0.474  -3.949 -13.416  0.00  0.00     0.027 H 
ATOM     33  H   LIG d   1      -0.109  -2.662 -12.335  0.00  0.00     0.027 H 
ENDBRANCH  25  30
BRANCH  25  34
ATOM     34  O   LIG d   1       1.901  -2.977 -10.976  0.00  0.00    -0.458 OA
BRANCH  34  35
ATOM     35  C   LIG d   1       1.689  -4.209 -10.487  0.00  0.00     0.304 C 
ATOM     36  O   LIG d   1       2.605  -4.837 -10.014  0.00  0.00    -0.251 OA
BRANCH  35  37
ATOM     37  C   LIG d   1       0.307  -4.807 -10.528  0.00  0.00     0.033 C 
ATOM     38  H   LIG d   1       0.076  -5.255  -9.562  0.00  0.00     0.034 H 
ATOM     39  H   LIG d   1      -0.420  -4.026 -10.749  0.00  0.00     0.034 H 
ATOM     40  H   LIG d   1       0.264  -5.572 -11.303  0.00  0.00     0.034 H 
ENDBRANCH  35  37
ENDBRANCH  34  35
ENDBRANCH  25  34
ENDBRANCH  22  25
ENDBRANCH  20  22
ENDBRANCH  19  20
ENDBRANCH  10  19
BRANCH  14  41
ATOM     41  C   LIG d   1       5.916  -3.978  -7.942  0.00  0.00     0.121 C 
ATOM     42  H   LIG d   1       6.686  -4.492  -8.517  0.00  0.00     0.075 H 
ATOM     43  H   LIG d   1       6.343  -3.617  -7.005  0.00  0.00     0.075 H 
BRANCH  41  44
ATOM     44  O   LIG d   1       4.829  -4.896  -7.656  0.00  0.00    -0.460 OA
BRANCH  44  45
ATOM     45  C   LIG d   1       4.394  -4.950  -6.388  0.00  0.00     0.304 C 
ATOM     46  O   LIG d   1       3.290  -5.379  -6.144  0.00  0.00    -0.251 OA
BRANCH  45  47
ATOM     47  C   LIG d   1       5.281  -4.476  -5.265  0.00  0.00     0.033 C 
ATOM     48  H   LIG d   1       6.027  -5.240  -5.045  0.00  0.00     0.034 H 
ATOM     49  H   LIG d   1       5.781  -3.554  -5.562  0.00  0.00     0.034 H 
ATOM     50  H   LIG d   1       4.677  -4.292  -4.378  0.00  0.00     0.034 H 
ENDBRANCH  45  47
ENDBRANCH  44  45
ENDBRANCH  41  44
ENDBRANCH  14  41
BRANCH   1  51
ATOM     51  O   LIG d   1       2.859  -0.139  -5.976  0.00  0.00    -0.454 OA
BRANCH  51  52
ATOM     52  C   LIG d   1       2.699   0.456  -4.783  0.00  0.00     0.308 C 
ATOM     53  O   LIG d   1       2.677   1.661  -4.707  0.00  0.00    -0.251 OA
BRANCH  52  54
ATOM     54  C   LIG d   1       2.548  -0.381  -3.539  0.00  0.00     0.047 C 
ATOM     55  H   LIG d   1       1.986   0.179  -2.790  0.00  0.00     0.038 H 
ATOM     56  H   LIG d   1       2.014  -1.300  -3.781  0.00  0.00     0.038 H 
BRANCH  54  57
ATOM     57  C   LIG d   1       3.932  -0.726  -2.985  0.00  0.00    -0.037 C 
ATOM     58  H   LIG d   1       4.666  -0.685  -3.790  0.00  0.00     0.030 H 
BRANCH  57  59
ATOM     59  C   LIG d   1       4.311   0.280  -1.897  0.00  0.00    -0.062 C 
ATOM     60  H   LIG d   1       4.058   1.287  -2.229  0.00  0.00     0.023 H 
ATOM     61  H   LIG d   1       3.764   0.052  -0.983  0.00  0.00     0.023 H 
ATOM     62  H   LIG d   1       5.383   0.221  -1.704  0.00  0.00     0.023 H 
ENDBRANCH  57  59
BRANCH  57  63
ATOM     63  C   LIG d   1       3.906  -2.135  -2.389  0.00  0.00    -0.062 C 
ATOM     64  H   LIG d   1       3.599  -2.847  -3.154  0.00  0.00     0.023 H 
ATOM     65  H   LIG d   1       4.901  -2.395  -2.029  0.00  0.00     0.023 H 
ATOM     66  H   LIG d   1       3.199  -2.166  -1.560  0.00  0.00     0.023 H 
ENDBRANCH  57  63
ENDBRANCH  54  57
ENDBRANCH  52  54
ENDBRANCH  51  52
ENDBRANCH   1  51
TORSDOF 19
ENDMDL
MODEL 8
REMARK VINA RESULT:      -5.7      5.313      9.349
REMARK  19 active torsions:
REMARK  status: ('A' for Active; 'I' for Inactive)
REMARK    1  A    between atoms: C_1  and  C_2 
REMARK    2  A    between atoms: C_2  and  C_3 
REMARK    3  A    between atoms: C_2  and  C_4 
REMARK    4  A    between atoms: C_4  and  C_5 
REMARK    5  A    between atoms: C_5  and  O_7 
REMARK    6  A    between atoms: O_7  and  C_8 
REMARK    7  A    between atoms: C_17  and  O_27 
REMARK    8  A    between atoms: C_21  and  C_22 
REMARK    9  A    between atoms: C_22  and  O_23 
REMARK   10  A    between atoms: O_23  and  C_24 
REMARK   11  A    between atoms: C_24  and  C_26 
REMARK   12  A    between atoms: O_27  and  C_28 
REMARK   13  A    between atoms: C_28  and  C_30 
REMARK   14  A    between atoms: C_30  and  C_31 
REMARK   15  A    between atoms: C_31  and  C_32 
REMARK   16  A    between atoms: C_31  and  C_33 
REMARK   17  A    between atoms: C_31  and  O_34 
REMARK   18  A    between atoms: O_34  and  C_35 
REMARK   19  A    between atoms: C_35  and  C_37 
ROOT
ATOM      1  C   LIG d   1      10.001   3.971  -7.671  0.00  0.00     0.153 C 
ATOM      2  H   LIG d   1      10.793   3.557  -8.295  0.00  0.00     0.081 H 
ATOM      3  C   LIG d   1      10.583   4.573  -6.406  0.00  0.00    -0.037 C 
ATOM      4  C   LIG d   1       9.885   4.199  -5.350  0.00  0.00    -0.025 C 
ATOM      5  C   LIG d   1       8.715   3.315  -5.759  0.00  0.00     0.093 C 
ATOM      6  H   LIG d   1       7.784   3.882  -5.751  0.00  0.00     0.045 H 
ATOM      7  C   LIG d   1       9.046   2.849  -7.175  0.00  0.00     0.146 A 
ATOM      8  C   LIG d   1       8.047   2.147  -8.074  0.00  0.00     0.082 A 
ATOM      9  O   LIG d   1       9.199   1.490  -7.535  0.00  0.00    -0.363 OA
ATOM     10  C   LIG d   1       8.647   2.161  -4.768  0.00  0.00     0.255 C 
ATOM     11  H   LIG d   1       9.451   1.458  -4.984  0.00  0.00     0.121 H 
ATOM     12  O   LIG d   1       8.778   2.618  -3.432  0.00  0.00    -0.460 OA
ATOM     13  C   LIG d   1       9.576   3.624  -3.056  0.00  0.00     0.096 C 
ATOM     14  C   LIG d   1      10.159   4.466  -3.924  0.00  0.00     0.028 C 
ATOM     15  H   LIG d   1      11.448   5.218  -6.373  0.00  0.00     0.061 H 
ATOM     16  H   LIG d   1       7.074   1.893  -7.652  0.00  0.00     0.059 H 
ATOM     17  H   LIG d   1       8.053   2.396  -9.134  0.00  0.00     0.059 H 
ATOM     18  H   LIG d   1       9.757   3.768  -2.001  0.00  0.00     0.103 H 
ENDROOT
BRANCH  10  19
ATOM     19  O   LIG d   1       7.372   1.483  -4.915  0.00  0.00    -0.424 OA
BRANCH  19  20
ATOM     20  C   LIG d   1       7.278   0.246  -4.404  0.00  0.00     0.314 C 
ATOM     21  O   LIG d   1       7.625  -0.708  -5.060  0.00  0.00    -0.251 OA
BRANCH  20  22
ATOM     22  C   LIG d   1       6.739   0.045  -3.011  0.00  0.00     0.084 C 
ATOM     23  H   LIG d   1       7.035   0.884  -2.382  0.00  0.00     0.042 H 
ATOM     24  H   LIG d   1       7.140  -0.880  -2.596  0.00  0.00     0.042 H 
BRANCH  22  25
ATOM     25  C   LIG d   1       5.212  -0.040  -3.062  0.00  0.00     0.118 C 
BRANCH  25  26
ATOM     26  C   LIG d   1       4.617   0.745  -1.891  0.00  0.00    -0.025 C 
ATOM     27  H   LIG d   1       4.391   1.762  -2.212  0.00  0.00     0.027 H 
ATOM     28  H   LIG d   1       3.701   0.258  -1.555  0.00  0.00     0.027 H 
ATOM     29  H   LIG d   1       5.335   0.772  -1.071  0.00  0.00     0.027 H 
ENDBRANCH  25  26
BRANCH  25  30
ATOM     30  C   LIG d   1       4.779  -1.504  -2.967  0.00  0.00    -0.025 C 
ATOM     31  H   LIG d   1       5.602  -2.101  -2.576  0.00  0.00     0.027 H 
ATOM     32  H   LIG d   1       3.921  -1.587  -2.300  0.00  0.00     0.027 H 
ATOM     33  H   LIG d   1       4.504  -1.868  -3.958  0.00  0.00     0.027 H 
ENDBRANCH  25  30
BRANCH  25  34
ATOM     34  O   LIG d   1       4.737   0.525  -4.313  0.00  0.00    -0.458 OA
BRANCH  34  35
ATOM     35  C   LIG d   1       3.750  -0.133  -4.943  0.00  0.00     0.304 C 
ATOM     36  O   LIG d   1       4.015  -0.990  -5.751  0.00  0.00    -0.251 OA
BRANCH  35  37
ATOM     37  C   LIG d   1       2.312   0.198  -4.640  0.00  0.00     0.033 C 
ATOM     38  H   LIG d   1       1.896   0.792  -5.453  0.00  0.00     0.034 H 
ATOM     39  H   LIG d   1       1.742  -0.724  -4.534  0.00  0.00     0.034 H 
ATOM     40  H   LIG d   1       2.258   0.767  -3.711  0.00  0.00     0.034 H 
ENDBRANCH  35  37
ENDBRANCH  34  35
ENDBRANCH  25  34
ENDBRANCH  22  25
ENDBRANCH  20  22
ENDBRANCH  19  20
ENDBRANCH  10  19
BRANCH  14  41
ATOM     41  C   LIG d   1      11.035   5.607  -3.474  0.00  0.00     0.121 C 
ATOM     42  H   LIG d   1      12.081   5.351  -3.645  0.00  0.00     0.075 H 
ATOM     43  H   LIG d   1      10.784   6.504  -4.040  0.00  0.00     0.075 H 
BRANCH  41  44
ATOM     44  O   LIG d   1      10.821   5.852  -2.059  0.00  0.00    -0.460 OA
BRANCH  44  45
ATOM     45  C   LIG d   1      10.265   7.026  -1.721  0.00  0.00     0.304 C 
ATOM     46  O   LIG d   1       9.570   7.105  -0.736  0.00  0.00    -0.251 OA
BRANCH  45  47
ATOM     47  C   LIG d   1      10.506   8.247  -2.572  0.00  0.00     0.033 C 
ATOM     48  H   LIG d   1      10.207   9.138  -2.020  0.00  0.00     0.034 H 
ATOM     49  H   LIG d   1      11.564   8.311  -2.823  0.00  0.00     0.034 H 
ATOM     50  H   LIG d   1       9.919   8.173  -3.487  0.00  0.00     0.034 H 
ENDBRANCH  45  47
ENDBRANCH  44  45
ENDBRANCH  41  44
ENDBRANCH  14  41
BRANCH   1  51
ATOM     51  O   LIG d   1       9.243   4.968  -8.406  0.00  0.00    -0.454 OA
BRANCH  51  52
ATOM     52  C   LIG d   1       9.890   6.093  -8.749  0.00  0.00     0.308 C 
ATOM     53  O   LIG d   1      10.978   6.029  -9.269  0.00  0.00    -0.251 OA
BRANCH  52  54
ATOM     54  C   LIG d   1       9.257   7.435  -8.487  0.00  0.00     0.047 C 
ATOM     55  H   LIG d   1       9.320   8.049  -9.386  0.00  0.00     0.038 H 
ATOM     56  H   LIG d   1       8.211   7.297  -8.213  0.00  0.00     0.038 H 
BRANCH  54  57
ATOM     57  C   LIG d   1       9.995   8.131  -7.341  0.00  0.00    -0.037 C 
ATOM     58  H   LIG d   1      10.995   7.708  -7.242  0.00  0.00     0.030 H 
BRANCH  57  59
ATOM     59  C   LIG d   1      10.101   9.628  -7.637  0.00  0.00    -0.062 C 
ATOM     60  H   LIG d   1      11.099   9.980  -7.375  0.00  0.00     0.023 H 
ATOM     61  H   LIG d   1       9.922   9.803  -8.698  0.00  0.00     0.023 H 
ATOM     62  H   LIG d   1       9.359  10.169  -7.050  0.00  0.00     0.023 H 
ENDBRANCH  57  59
BRANCH  57  63
ATOM     63  C   LIG d   1       9.223   7.924  -6.036  0.00  0.00    -0.062 C 
ATOM     64  H   LIG d   1       9.531   8.675  -5.309  0.00  0.00     0.023 H 
ATOM     65  H   LIG d   1       8.154   8.020  -6.228  0.00  0.00     0.023 H 
ATOM     66  H   LIG d   1       9.434   6.930  -5.642  0.00  0.00     0.023 H 
ENDBRANCH  57  63
ENDBRANCH  54  57
ENDBRANCH  52  54
ENDBRANCH  51  52
ENDBRANCH   1  51
TORSDOF 19
ENDMDL
MODEL 9
REMARK VINA RESULT:      -5.6      5.219     10.609
REMARK  19 active torsions:
REMARK  status: ('A' for Active; 'I' for Inactive)
REMARK    1  A    between atoms: C_1  and  C_2 
REMARK    2  A    between atoms: C_2  and  C_3 
REMARK    3  A    between atoms: C_2  and  C_4 
REMARK    4  A    between atoms: C_4  and  C_5 
REMARK    5  A    between atoms: C_5  and  O_7 
REMARK    6  A    between atoms: O_7  and  C_8 
REMARK    7  A    between atoms: C_17  and  O_27 
REMARK    8  A    between atoms: C_21  and  C_22 
REMARK    9  A    between atoms: C_22  and  O_23 
REMARK   10  A    between atoms: O_23  and  C_24 
REMARK   11  A    between atoms: C_24  and  C_26 
REMARK   12  A    between atoms: O_27  and  C_28 
REMARK   13  A    between atoms: C_28  and  C_30 
REMARK   14  A    between atoms: C_30  and  C_31 
REMARK   15  A    between atoms: C_31  and  C_32 
REMARK   16  A    between atoms: C_31  and  C_33 
REMARK   17  A    between atoms: C_31  and  O_34 
REMARK   18  A    between atoms: O_34  and  C_35 
REMARK   19  A    between atoms: C_35  and  C_37 
ROOT
ATOM      1  C   LIG d   1       7.408   0.990  -4.772  0.00  0.00     0.153 C 
ATOM      2  H   LIG d   1       6.320   1.022  -4.704  0.00  0.00     0.081 H 
ATOM      3  C   LIG d   1       8.024   2.081  -3.917  0.00  0.00    -0.037 C 
ATOM      4  C   LIG d   1       8.973   2.712  -4.582  0.00  0.00    -0.025 C 
ATOM      5  C   LIG d   1       9.149   2.116  -5.971  0.00  0.00     0.093 C 
ATOM      6  H   LIG d   1      10.027   1.470  -6.004  0.00  0.00     0.045 H 
ATOM      7  C   LIG d   1       7.879   1.306  -6.219  0.00  0.00     0.146 A 
ATOM      8  C   LIG d   1       7.722   0.339  -7.376  0.00  0.00     0.082 A 
ATOM      9  O   LIG d   1       6.984   1.561  -7.284  0.00  0.00    -0.363 OA
ATOM     10  C   LIG d   1       9.300   3.274  -6.948  0.00  0.00     0.255 C 
ATOM     11  H   LIG d   1       8.326   3.738  -7.105  0.00  0.00     0.121 H 
ATOM     12  O   LIG d   1      10.204   4.250  -6.459  0.00  0.00    -0.460 OA
ATOM     13  C   LIG d   1      10.314   4.596  -5.171  0.00  0.00     0.096 C 
ATOM     14  C   LIG d   1       9.754   3.896  -4.171  0.00  0.00     0.028 C 
ATOM     15  H   LIG d   1       7.730   2.308  -2.903  0.00  0.00     0.061 H 
ATOM     16  H   LIG d   1       8.529   0.286  -8.109  0.00  0.00     0.059 H 
ATOM     17  H   LIG d   1       7.189  -0.594  -7.192  0.00  0.00     0.059 H 
ATOM     18  H   LIG d   1      10.883   5.479  -4.924  0.00  0.00     0.103 H 
ENDROOT
BRANCH  10  19
ATOM     19  O   LIG d   1       9.792   2.765  -8.217  0.00  0.00    -0.424 OA
BRANCH  19  20
ATOM     20  C   LIG d   1       9.245   3.274  -9.331  0.00  0.00     0.314 C 
ATOM     21  O   LIG d   1       9.338   2.677 -10.378  0.00  0.00    -0.251 OA
BRANCH  20  22
ATOM     22  C   LIG d   1       8.514   4.590  -9.277  0.00  0.00     0.084 C 
ATOM     23  H   LIG d   1       8.197   4.789  -8.253  0.00  0.00     0.042 H 
ATOM     24  H   LIG d   1       7.638   4.546  -9.926  0.00  0.00     0.042 H 
BRANCH  22  25
ATOM     25  C   LIG d   1       9.443   5.710  -9.750  0.00  0.00     0.118 C 
BRANCH  25  26
ATOM     26  C   LIG d   1       9.240   6.946  -8.872  0.00  0.00    -0.025 C 
ATOM     27  H   LIG d   1       9.765   6.811  -7.926  0.00  0.00     0.027 H 
ATOM     28  H   LIG d   1       9.636   7.824  -9.384  0.00  0.00     0.027 H 
ATOM     29  H   LIG d   1       8.177   7.086  -8.682  0.00  0.00     0.027 H 
ENDBRANCH  25  26
BRANCH  25  30
ATOM     30  C   LIG d   1       9.121   6.059 -11.204  0.00  0.00    -0.025 C 
ATOM     31  H   LIG d   1      10.044   6.290 -11.735  0.00  0.00     0.027 H 
ATOM     32  H   LIG d   1       8.630   5.212 -11.682  0.00  0.00     0.027 H 
ATOM     33  H   LIG d   1       8.459   6.926 -11.232  0.00  0.00     0.027 H 
ENDBRANCH  25  30
BRANCH  25  34
ATOM     34  O   LIG d   1      10.822   5.268  -9.653  0.00  0.00    -0.458 OA
BRANCH  34  35
ATOM     35  C   LIG d   1      11.735   6.191  -9.311  0.00  0.00     0.304 C 
ATOM     36  O   LIG d   1      12.057   6.324  -8.154  0.00  0.00    -0.251 OA
BRANCH  35  37
ATOM     37  C   LIG d   1      12.361   7.060 -10.371  0.00  0.00     0.033 C 
ATOM     38  H   LIG d   1      11.959   6.788 -11.347  0.00  0.00     0.034 H 
ATOM     39  H   LIG d   1      12.135   8.105 -10.163  0.00  0.00     0.034 H 
ATOM     40  H   LIG d   1      13.441   6.915 -10.370  0.00  0.00     0.034 H 
ENDBRANCH  35  37
ENDBRANCH  34  35
ENDBRANCH  25  34
ENDBRANCH  22  25
ENDBRANCH  20  22
ENDBRANCH  19  20
ENDBRANCH  10  19
BRANCH  14  41
ATOM     41  C   LIG d   1       9.911   4.293  -2.725  0.00  0.00     0.121 C 
ATOM     42  H   LIG d   1       8.988   4.075  -2.187  0.00  0.00     0.075 H 
ATOM     43  H   LIG d   1      10.732   3.730  -2.281  0.00  0.00     0.075 H 
BRANCH  41  44
ATOM     44  O   LIG d   1      10.197   5.714  -2.642  0.00  0.00    -0.460 OA
BRANCH  44  45
ATOM     45  C   LIG d   1       9.976   6.312  -1.461  0.00  0.00     0.304 C 
ATOM     46  O   LIG d   1       9.103   7.142  -1.358  0.00  0.00    -0.251 OA
BRANCH  45  47
ATOM     47  C   LIG d   1      10.815   5.950  -0.263  0.00  0.00     0.033 C 
ATOM     48  H   LIG d   1      10.338   6.326   0.641  0.00  0.00     0.034 H 
ATOM     49  H   LIG d   1      10.911   4.866  -0.201  0.00  0.00     0.034 H 
ATOM     50  H   LIG d   1      11.804   6.396  -0.364  0.00  0.00     0.034 H 
ENDBRANCH  45  47
ENDBRANCH  44  45
ENDBRANCH  41  44
ENDBRANCH  14  41
BRANCH   1  51
ATOM     51  O   LIG d   1       7.905  -0.313  -4.370  0.00  0.00    -0.454 OA
BRANCH  51  52
ATOM     52  C   LIG d   1       7.028  -1.147  -3.789  0.00  0.00     0.308 C 
ATOM     53  O   LIG d   1       7.413  -2.176  -3.287  0.00  0.00    -0.251 OA
BRANCH  52  54
ATOM     54  C   LIG d   1       5.563  -0.797  -3.761  0.00  0.00     0.047 C 
ATOM     55  H   LIG d   1       5.432   0.244  -4.063  0.00  0.00     0.038 H 
ATOM     56  H   LIG d   1       5.020  -1.445  -4.450  0.00  0.00     0.038 H 
BRANCH  54  57
ATOM     57  C   LIG d   1       5.019  -0.989  -2.344  0.00  0.00    -0.037 C 
ATOM     58  H   LIG d   1       5.811  -1.368  -1.699  0.00  0.00     0.030 H 
BRANCH  57  59
ATOM     59  C   LIG d   1       4.518   0.352  -1.803  0.00  0.00    -0.062 C 
ATOM     60  H   LIG d   1       5.366   1.018  -1.643  0.00  0.00     0.023 H 
ATOM     61  H   LIG d   1       3.834   0.802  -2.523  0.00  0.00     0.023 H 
ATOM     62  H   LIG d   1       3.998   0.192  -0.858  0.00  0.00     0.023 H 
ENDBRANCH  57  59
BRANCH  57  63
ATOM     63  C   LIG d   1       3.861  -1.990  -2.374  0.00  0.00    -0.062 C 
ATOM     64  H   LIG d   1       2.957  -1.510  -2.000  0.00  0.00     0.023 H 
ATOM     65  H   LIG d   1       3.698  -2.326  -3.397  0.00  0.00     0.023 H 
ATOM     66  H   LIG d   1       4.104  -2.845  -1.744  0.00  0.00     0.023 H 
ENDBRANCH  57  63
ENDBRANCH  54  57
ENDBRANCH  52  54
ENDBRANCH  51  52
ENDBRANCH   1  51
TORSDOF 19
ENDMDL
