MODEL 1
REMARK VINA RESULT:      -6.5      0.000      0.000
REMARK  8 active torsions:
REMARK  status: ('A' for Active; 'I' for Inactive)
REMARK    1  A    between atoms: C_1  and  C_2 
REMARK    2  A    between atoms: C_3  and  O_34 
REMARK    3  A    between atoms: C_12  and  C_33 
REMARK    4  A    between atoms: C_15  and  C_32 
REMARK    5  A    between atoms: C_16  and  C_31 
REMARK    6  A    between atoms: C_19  and  C_30 
REMARK    7  A    between atoms: C_23  and  C_26 
REMARK    8  A    between atoms: C_23  and  C_27 
ROOT
ATOM      1  C   LIG d   1       5.601  -0.487  -5.146  0.00  0.00     0.002 C 
ATOM      2  C   LIG d   1       4.672  -0.378  -4.160  0.00  0.00     0.167 C 
ATOM      3  C   LIG d   1       3.320  -0.132  -4.489  0.00  0.00     0.221 C 
ATOM      4  O   LIG d   1       2.475  -0.089  -3.608  0.00  0.00    -0.284 OA
ATOM      5  C   LIG d   1       2.950   0.072  -5.833  0.00  0.00    -0.007 C 
ATOM      6  C   LIG d   1       3.869  -0.060  -6.825  0.00  0.00    -0.026 C 
ATOM      7  C   LIG d   1       5.202  -0.415  -6.503  0.00  0.00    -0.014 C 
ATOM      8  C   LIG d   1       6.103  -0.706  -7.529  0.00  0.00    -0.054 C 
ATOM      9  C   LIG d   1       5.672  -0.719  -8.862  0.00  0.00    -0.061 C 
ATOM     10  C   LIG d   1       4.442  -0.342  -9.232  0.00  0.00    -0.053 C 
ATOM     11  C   LIG d   1       3.448   0.203  -8.249  0.00  0.00     0.015 C 
ATOM     12  C   LIG d   1       2.053  -0.363  -8.480  0.00  0.00    -0.039 C 
ATOM     13  C   LIG d   1       1.690  -0.450  -9.958  0.00  0.00    -0.045 C 
ATOM     14  C   LIG d   1       2.738  -1.251 -10.741  0.00  0.00    -0.020 C 
ATOM     15  C   LIG d   1       4.061  -0.478 -10.692  0.00  0.00    -0.004 C 
ATOM     16  C   LIG d   1       5.122  -1.272 -11.452  0.00  0.00    -0.043 C 
ATOM     17  C   LIG d   1       4.723  -1.380 -12.919  0.00  0.00    -0.046 C 
ATOM     18  C   LIG d   1       3.356  -2.033 -13.103  0.00  0.00    -0.029 C 
ATOM     19  C   LIG d   1       2.295  -1.483 -12.172  0.00  0.00    -0.029 C 
ATOM     20  H   LIG d   1       2.059  -0.458 -12.581  0.00  0.00     0.031 H 
ATOM     21  C   LIG d   1       0.975  -2.222 -12.258  0.00  0.00    -0.039 C 
ATOM     22  C   LIG d   1       0.974  -3.692 -12.606  0.00  0.00     0.008 C 
ATOM     23  C   LIG d   1       2.181  -4.225 -13.353  0.00  0.00    -0.042 C 
ATOM     24  C   LIG d   1       3.485  -3.546 -12.987  0.00  0.00    -0.046 C 
ATOM     25  H   LIG d   1       1.931   0.350  -6.066  0.00  0.00     0.066 H 
ATOM     26  H   LIG d   1       7.137  -0.926  -7.323  0.00  0.00     0.062 H 
ATOM     27  H   LIG d   1       6.375  -1.047  -9.615  0.00  0.00     0.062 H 
ATOM     28  H   LIG d   1       1.944  -1.328  -7.989  0.00  0.00     0.028 H 
ATOM     29  H   LIG d   1       1.329   0.318  -7.998  0.00  0.00     0.028 H 
ATOM     30  H   LIG d   1       0.728  -0.973 -10.045  0.00  0.00     0.027 H 
ATOM     31  H   LIG d   1       1.560   0.538 -10.386  0.00  0.00     0.027 H 
ATOM     32  H   LIG d   1       6.077  -0.732 -11.383  0.00  0.00     0.027 H 
ATOM     33  H   LIG d   1       5.264  -2.257 -11.023  0.00  0.00     0.027 H 
ATOM     34  H   LIG d   1       4.748  -0.407 -13.405  0.00  0.00     0.027 H 
ATOM     35  H   LIG d   1       5.467  -2.013 -13.432  0.00  0.00     0.027 H 
ATOM     36  H   LIG d   1       0.446  -2.103 -11.293  0.00  0.00     0.028 H 
ATOM     37  H   LIG d   1       0.328  -1.687 -12.981  0.00  0.00     0.028 H 
ATOM     38  H   LIG d   1       2.281  -5.303 -13.115  0.00  0.00     0.027 H 
ATOM     39  H   LIG d   1       2.009  -4.172 -14.436  0.00  0.00     0.027 H 
ATOM     40  H   LIG d   1       4.258  -3.871 -13.707  0.00  0.00     0.027 H 
ATOM     41  H   LIG d   1       3.829  -3.845 -12.003  0.00  0.00     0.027 H 
ENDROOT
BRANCH  22  42
ATOM     42  C   LIG d   1      -0.263  -3.938 -13.511  0.00  0.00    -0.054 C 
ATOM     43  H   LIG d   1      -0.575  -4.979 -13.427  0.00  0.00     0.024 H 
ATOM     44  H   LIG d   1      -1.079  -3.288 -13.196  0.00  0.00     0.024 H 
ATOM     45  H   LIG d   1      -0.005  -3.719 -14.548  0.00  0.00     0.024 H 
ENDBRANCH  22  42
BRANCH  22  46
ATOM     46  C   LIG d   1       0.741  -4.525 -11.359  0.00  0.00     0.048 C 
ATOM     47  O   LIG d   1       1.349  -5.570 -11.201  0.00  0.00    -0.549 OA
ATOM     48  O   LIG d   1      -0.055  -4.150 -10.515  0.00  0.00    -0.549 OA
ENDBRANCH  22  46
BRANCH  14  49
ATOM     49  C   LIG d   1       2.934  -2.584 -10.003  0.00  0.00    -0.059 C 
ATOM     50  H   LIG d   1       3.996  -2.741  -9.813  0.00  0.00     0.024 H 
ATOM     51  H   LIG d   1       2.396  -2.557  -9.055  0.00  0.00     0.024 H 
ATOM     52  H   LIG d   1       2.550  -3.399 -10.616  0.00  0.00     0.024 H 
ENDBRANCH  14  49
BRANCH  18  53
ATOM     53  C   LIG d   1       2.922  -1.708 -14.552  0.00  0.00    -0.059 C 
ATOM     54  H   LIG d   1       2.426  -2.576 -14.986  0.00  0.00     0.024 H 
ATOM     55  H   LIG d   1       2.235  -0.863 -14.544  0.00  0.00     0.024 H 
ATOM     56  H   LIG d   1       3.800  -1.458 -15.147  0.00  0.00     0.024 H 
ENDBRANCH  18  53
BRANCH  15  57
ATOM     57  C   LIG d   1       3.933   0.899 -11.346  0.00  0.00    -0.055 C 
ATOM     58  H   LIG d   1       4.401   1.649 -10.709  0.00  0.00     0.024 H 
ATOM     59  H   LIG d   1       4.428   0.888 -12.318  0.00  0.00     0.024 H 
ATOM     60  H   LIG d   1       2.879   1.141 -11.479  0.00  0.00     0.024 H 
ENDBRANCH  15  57
BRANCH  11  61
ATOM     61  C   LIG d   1       3.376   1.729  -8.377  0.00  0.00    -0.052 C 
ATOM     62  H   LIG d   1       2.415   2.013  -8.809  0.00  0.00     0.024 H 
ATOM     63  H   LIG d   1       3.478   2.182  -7.391  0.00  0.00     0.024 H 
ATOM     64  H   LIG d   1       4.182   2.079  -9.022  0.00  0.00     0.024 H 
ENDBRANCH  11  61
BRANCH   1  65
ATOM     65  C   LIG d   1       7.043  -0.713  -4.772  0.00  0.00    -0.036 C 
ATOM     66  H   LIG d   1       7.649   0.110  -5.150  0.00  0.00     0.028 H 
ATOM     67  H   LIG d   1       7.133  -0.762  -3.687  0.00  0.00     0.028 H 
ATOM     68  H   LIG d   1       7.389  -1.650  -5.208  0.00  0.00     0.028 H 
ENDBRANCH   1  65
BRANCH   2  69
ATOM     69  O   LIG d   1       5.050  -0.514  -2.858  0.00  0.00    -0.503 OA
ATOM     70  H   LIG d   1       4.698  -1.304  -2.427  0.00  0.00     0.292 HD
ENDBRANCH   2  69
TORSDOF 8
ENDMDL
MODEL 2
REMARK VINA RESULT:      -6.4      6.082      8.537
REMARK  8 active torsions:
REMARK  status: ('A' for Active; 'I' for Inactive)
REMARK    1  A    between atoms: C_1  and  C_2 
REMARK    2  A    between atoms: C_3  and  O_34 
REMARK    3  A    between atoms: C_12  and  C_33 
REMARK    4  A    between atoms: C_15  and  C_32 
REMARK    5  A    between atoms: C_16  and  C_31 
REMARK    6  A    between atoms: C_19  and  C_30 
REMARK    7  A    between atoms: C_23  and  C_26 
REMARK    8  A    between atoms: C_23  and  C_27 
ROOT
ATOM      1  C   LIG d   1      12.387   2.739  -5.940  0.00  0.00     0.002 C 
ATOM      2  C   LIG d   1      12.177   3.986  -6.437  0.00  0.00     0.167 C 
ATOM      3  C   LIG d   1      10.935   4.309  -7.027  0.00  0.00     0.221 C 
ATOM      4  O   LIG d   1      10.724   5.446  -7.424  0.00  0.00    -0.284 OA
ATOM      5  C   LIG d   1       9.943   3.319  -7.164  0.00  0.00    -0.007 C 
ATOM      6  C   LIG d   1      10.137   2.078  -6.647  0.00  0.00    -0.026 C 
ATOM      7  C   LIG d   1      11.340   1.785  -5.959  0.00  0.00    -0.014 C 
ATOM      8  C   LIG d   1      11.472   0.566  -5.293  0.00  0.00    -0.054 C 
ATOM      9  C   LIG d   1      10.396  -0.330  -5.243  0.00  0.00    -0.061 C 
ATOM     10  C   LIG d   1       9.255  -0.134  -5.915  0.00  0.00    -0.053 C 
ATOM     11  C   LIG d   1       9.070   1.030  -6.844  0.00  0.00     0.015 C 
ATOM     12  C   LIG d   1       7.696   1.668  -6.689  0.00  0.00    -0.039 C 
ATOM     13  C   LIG d   1       6.583   0.637  -6.532  0.00  0.00    -0.045 C 
ATOM     14  C   LIG d   1       6.873  -0.320  -5.369  0.00  0.00    -0.020 C 
ATOM     15  C   LIG d   1       8.129  -1.128  -5.720  0.00  0.00    -0.004 C 
ATOM     16  C   LIG d   1       8.443  -2.073  -4.562  0.00  0.00    -0.043 C 
ATOM     17  C   LIG d   1       7.304  -3.071  -4.397  0.00  0.00    -0.046 C 
ATOM     18  C   LIG d   1       5.961  -2.386  -4.156  0.00  0.00    -0.029 C 
ATOM     19  C   LIG d   1       5.694  -1.235  -5.102  0.00  0.00    -0.029 C 
ATOM     20  H   LIG d   1       5.468  -1.725  -6.094  0.00  0.00     0.031 H 
ATOM     21  C   LIG d   1       4.428  -0.468  -4.779  0.00  0.00    -0.039 C 
ATOM     22  C   LIG d   1       3.969  -0.376  -3.342  0.00  0.00     0.008 C 
ATOM     23  C   LIG d   1       4.457  -1.451  -2.391  0.00  0.00    -0.042 C 
ATOM     24  C   LIG d   1       5.852  -1.960  -2.698  0.00  0.00    -0.046 C 
ATOM     25  H   LIG d   1       9.031   3.552  -7.697  0.00  0.00     0.066 H 
ATOM     26  H   LIG d   1      12.392   0.288  -4.806  0.00  0.00     0.062 H 
ATOM     27  H   LIG d   1      10.506  -1.215  -4.633  0.00  0.00     0.062 H 
ATOM     28  H   LIG d   1       7.694   2.379  -5.867  0.00  0.00     0.028 H 
ATOM     29  H   LIG d   1       7.487   2.247  -7.606  0.00  0.00     0.028 H 
ATOM     30  H   LIG d   1       5.650   1.171  -6.307  0.00  0.00     0.027 H 
ATOM     31  H   LIG d   1       6.427   0.088  -7.454  0.00  0.00     0.027 H 
ATOM     32  H   LIG d   1       9.364  -2.624  -4.802  0.00  0.00     0.027 H 
ATOM     33  H   LIG d   1       8.610  -1.531  -3.639  0.00  0.00     0.027 H 
ATOM     34  H   LIG d   1       7.241  -3.741  -5.252  0.00  0.00     0.027 H 
ATOM     35  H   LIG d   1       7.521  -3.699  -3.515  0.00  0.00     0.027 H 
ATOM     36  H   LIG d   1       4.536   0.563  -5.165  0.00  0.00     0.028 H 
ATOM     37  H   LIG d   1       3.604  -0.892  -5.387  0.00  0.00     0.028 H 
ATOM     38  H   LIG d   1       4.470  -1.022  -1.369  0.00  0.00     0.027 H 
ATOM     39  H   LIG d   1       3.741  -2.282  -2.359  0.00  0.00     0.027 H 
ATOM     40  H   LIG d   1       6.037  -2.854  -2.074  0.00  0.00     0.027 H 
ATOM     41  H   LIG d   1       6.610  -1.232  -2.434  0.00  0.00     0.027 H 
ENDROOT
BRANCH  22  42
ATOM     42  C   LIG d   1       2.418  -0.460  -3.361  0.00  0.00    -0.054 C 
ATOM     43  H   LIG d   1       2.007   0.471  -3.751  0.00  0.00     0.024 H 
ATOM     44  H   LIG d   1       2.106  -1.290  -3.996  0.00  0.00     0.024 H 
ATOM     45  H   LIG d   1       2.051  -0.623  -2.347  0.00  0.00     0.024 H 
ENDBRANCH  22  42
BRANCH  22  46
ATOM     46  C   LIG d   1       4.297   0.993  -2.774  0.00  0.00     0.048 C 
ATOM     47  O   LIG d   1       4.798   1.088  -1.667  0.00  0.00    -0.549 OA
ATOM     48  O   LIG d   1       4.058   1.996  -3.425  0.00  0.00    -0.549 OA
ENDBRANCH  22  46
BRANCH  14  49
ATOM     49  C   LIG d   1       7.188   0.544  -4.138  0.00  0.00    -0.059 C 
ATOM     50  H   LIG d   1       7.755  -0.044  -3.417  0.00  0.00     0.024 H 
ATOM     51  H   LIG d   1       7.776   1.410  -4.443  0.00  0.00     0.024 H 
ATOM     52  H   LIG d   1       6.256   0.880  -3.681  0.00  0.00     0.024 H 
ENDBRANCH  14  49
BRANCH  18  53
ATOM     53  C   LIG d   1       4.882  -3.464  -4.413  0.00  0.00    -0.059 C 
ATOM     54  H   LIG d   1       5.163  -4.388  -3.906  0.00  0.00     0.024 H 
ATOM     55  H   LIG d   1       3.923  -3.117  -4.029  0.00  0.00     0.024 H 
ATOM     56  H   LIG d   1       4.800  -3.649  -5.484  0.00  0.00     0.024 H 
ENDBRANCH  18  53
BRANCH  15  57
ATOM     57  C   LIG d   1       7.923  -1.966  -6.981  0.00  0.00    -0.055 C 
ATOM     58  H   LIG d   1       8.788  -1.856  -7.636  0.00  0.00     0.024 H 
ATOM     59  H   LIG d   1       7.808  -3.015  -6.707  0.00  0.00     0.024 H 
ATOM     60  H   LIG d   1       7.028  -1.627  -7.502  0.00  0.00     0.024 H 
ENDBRANCH  15  57
BRANCH  11  61
ATOM     61  C   LIG d   1       9.223   0.563  -8.297  0.00  0.00    -0.052 C 
ATOM     62  H   LIG d   1       8.581   1.164  -8.941  0.00  0.00     0.024 H 
ATOM     63  H   LIG d   1      10.261   0.678  -8.609  0.00  0.00     0.024 H 
ATOM     64  H   LIG d   1       8.935  -0.486  -8.374  0.00  0.00     0.024 H 
ENDBRANCH  11  61
BRANCH   1  65
ATOM     65  C   LIG d   1      13.732   2.403  -5.349  0.00  0.00    -0.036 C 
ATOM     66  H   LIG d   1      13.972   1.361  -5.561  0.00  0.00     0.028 H 
ATOM     67  H   LIG d   1      14.493   3.047  -5.788  0.00  0.00     0.028 H 
ATOM     68  H   LIG d   1      13.704   2.557  -4.270  0.00  0.00     0.028 H 
ENDBRANCH   1  65
BRANCH   2  69
ATOM     69  O   LIG d   1      13.166   4.920  -6.357  0.00  0.00    -0.503 OA
ATOM     70  H   LIG d   1      14.048   4.575  -6.550  0.00  0.00     0.292 HD
ENDBRANCH   2  69
TORSDOF 8
ENDMDL
MODEL 3
REMARK VINA RESULT:      -6.0      4.951      7.232
REMARK  8 active torsions:
REMARK  status: ('A' for Active; 'I' for Inactive)
REMARK    1  A    between atoms: C_1  and  C_2 
REMARK    2  A    between atoms: C_3  and  O_34 
REMARK    3  A    between atoms: C_12  and  C_33 
REMARK    4  A    between atoms: C_15  and  C_32 
REMARK    5  A    between atoms: C_16  and  C_31 
REMARK    6  A    between atoms: C_19  and  C_30 
REMARK    7  A    between atoms: C_23  and  C_26 
REMARK    8  A    between atoms: C_23  and  C_27 
ROOT
ATOM      1  C   LIG d   1       4.804   0.021  -3.622  0.00  0.00     0.002 C 
ATOM      2  C   LIG d   1       3.770   0.488  -4.369  0.00  0.00     0.167 C 
ATOM      3  C   LIG d   1       3.545  -0.031  -5.664  0.00  0.00     0.221 C 
ATOM      4  O   LIG d   1       2.583   0.346  -6.315  0.00  0.00    -0.284 OA
ATOM      5  C   LIG d   1       4.437  -0.977  -6.206  0.00  0.00    -0.007 C 
ATOM      6  C   LIG d   1       5.458  -1.466  -5.455  0.00  0.00    -0.026 C 
ATOM      7  C   LIG d   1       5.618  -1.026  -4.118  0.00  0.00    -0.014 C 
ATOM      8  C   LIG d   1       6.566  -1.644  -3.300  0.00  0.00    -0.054 C 
ATOM      9  C   LIG d   1       7.300  -2.738  -3.774  0.00  0.00    -0.061 C 
ATOM     10  C   LIG d   1       7.232  -3.165  -5.042  0.00  0.00    -0.053 C 
ATOM     11  C   LIG d   1       6.417  -2.450  -6.078  0.00  0.00     0.015 C 
ATOM     12  C   LIG d   1       5.645  -3.420  -6.963  0.00  0.00    -0.039 C 
ATOM     13  C   LIG d   1       6.470  -4.642  -7.355  0.00  0.00    -0.045 C 
ATOM     14  C   LIG d   1       7.024  -5.358  -6.117  0.00  0.00    -0.020 C 
ATOM     15  C   LIG d   1       8.008  -4.410  -5.421  0.00  0.00    -0.004 C 
ATOM     16  C   LIG d   1       8.555  -5.101  -4.173  0.00  0.00    -0.043 C 
ATOM     17  C   LIG d   1       9.344  -6.339  -4.583  0.00  0.00    -0.046 C 
ATOM     18  C   LIG d   1       8.503  -7.323  -5.393  0.00  0.00    -0.029 C 
ATOM     19  C   LIG d   1       7.698  -6.663  -6.493  0.00  0.00    -0.029 C 
ATOM     20  H   LIG d   1       8.459  -6.389  -7.280  0.00  0.00     0.031 H 
ATOM     21  C   LIG d   1       6.761  -7.614  -7.208  0.00  0.00    -0.039 C 
ATOM     22  C   LIG d   1       6.172  -8.780  -6.448  0.00  0.00     0.008 C 
ATOM     23  C   LIG d   1       6.923  -9.252  -5.219  0.00  0.00    -0.042 C 
ATOM     24  C   LIG d   1       7.624  -8.143  -4.459  0.00  0.00    -0.046 C 
ATOM     25  H   LIG d   1       4.309  -1.301  -7.230  0.00  0.00     0.066 H 
ATOM     26  H   LIG d   1       6.752  -1.299  -2.296  0.00  0.00     0.062 H 
ATOM     27  H   LIG d   1       7.949  -3.249  -3.078  0.00  0.00     0.062 H 
ATOM     28  H   LIG d   1       4.710  -3.710  -6.491  0.00  0.00     0.028 H 
ATOM     29  H   LIG d   1       5.375  -2.888  -7.893  0.00  0.00     0.028 H 
ATOM     30  H   LIG d   1       5.812  -5.343  -7.887  0.00  0.00     0.027 H 
ATOM     31  H   LIG d   1       7.270  -4.370  -8.035  0.00  0.00     0.027 H 
ATOM     32  H   LIG d   1       9.232  -4.404  -3.658  0.00  0.00     0.027 H 
ATOM     33  H   LIG d   1       7.762  -5.366  -3.485  0.00  0.00     0.027 H 
ATOM     34  H   LIG d   1      10.244  -6.068  -5.129  0.00  0.00     0.027 H 
ATOM     35  H   LIG d   1       9.671  -6.857  -3.665  0.00  0.00     0.027 H 
ATOM     36  H   LIG d   1       5.921  -7.027  -7.627  0.00  0.00     0.028 H 
ATOM     37  H   LIG d   1       7.284  -8.003  -8.104  0.00  0.00     0.028 H 
ATOM     38  H   LIG d   1       6.192  -9.723  -4.532  0.00  0.00     0.027 H 
ATOM     39  H   LIG d   1       7.634 -10.043  -5.490  0.00  0.00     0.027 H 
ATOM     40  H   LIG d   1       8.282  -8.607  -3.702  0.00  0.00     0.027 H 
ATOM     41  H   LIG d   1       6.919  -7.520  -3.920  0.00  0.00     0.027 H 
ENDROOT
BRANCH  22  42
ATOM     42  C   LIG d   1       6.122  -9.978  -7.435  0.00  0.00    -0.054 C 
ATOM     43  H   LIG d   1       7.134 -10.234  -7.750  0.00  0.00     0.024 H 
ATOM     44  H   LIG d   1       5.667 -10.837  -6.941  0.00  0.00     0.024 H 
ATOM     45  H   LIG d   1       5.528  -9.706  -8.308  0.00  0.00     0.024 H 
ENDBRANCH  22  42
BRANCH  22  46
ATOM     46  C   LIG d   1       4.728  -8.491  -6.082  0.00  0.00     0.048 C 
ATOM     47  O   LIG d   1       4.306  -8.799  -4.980  0.00  0.00    -0.549 OA
ATOM     48  O   LIG d   1       3.990  -7.953  -6.889  0.00  0.00    -0.549 OA
ENDBRANCH  22  46
BRANCH  14  49
ATOM     49  C   LIG d   1       5.842  -5.603  -5.168  0.00  0.00    -0.059 C 
ATOM     50  H   LIG d   1       4.908  -5.541  -5.726  0.00  0.00     0.024 H 
ATOM     51  H   LIG d   1       5.933  -6.595  -4.722  0.00  0.00     0.024 H 
ATOM     52  H   LIG d   1       5.844  -4.850  -4.380  0.00  0.00     0.024 H 
ENDBRANCH  14  49
BRANCH  18  53
ATOM     53  C   LIG d   1       9.508  -8.289  -6.062  0.00  0.00    -0.059 C 
ATOM     54  H   LIG d   1       9.477  -9.254  -5.556  0.00  0.00     0.024 H 
ATOM     55  H   LIG d   1       9.242  -8.420  -7.111  0.00  0.00     0.024 H 
ATOM     56  H   LIG d   1      10.513  -7.874  -5.992  0.00  0.00     0.024 H 
ENDBRANCH  18  53
BRANCH  15  57
ATOM     57  C   LIG d   1       9.186  -4.056  -6.329  0.00  0.00    -0.055 C 
ATOM     58  H   LIG d   1       9.580  -3.079  -6.048  0.00  0.00     0.024 H 
ATOM     59  H   LIG d   1       9.968  -4.807  -6.220  0.00  0.00     0.024 H 
ATOM     60  H   LIG d   1       8.850  -4.028  -7.365  0.00  0.00     0.024 H 
ENDBRANCH  15  57
BRANCH  11  61
ATOM     61  C   LIG d   1       7.337  -1.610  -6.973  0.00  0.00    -0.052 C 
ATOM     62  H   LIG d   1       8.293  -2.120  -7.091  0.00  0.00     0.024 H 
ATOM     63  H   LIG d   1       6.872  -1.479  -7.950  0.00  0.00     0.024 H 
ATOM     64  H   LIG d   1       7.499  -0.635  -6.514  0.00  0.00     0.024 H 
ENDBRANCH  11  61
BRANCH   1  65
ATOM     65  C   LIG d   1       5.049   0.614  -2.258  0.00  0.00    -0.036 C 
ATOM     66  H   LIG d   1       4.693  -0.075  -1.493  0.00  0.00     0.028 H 
ATOM     67  H   LIG d   1       6.117   0.787  -2.124  0.00  0.00     0.028 H 
ATOM     68  H   LIG d   1       4.515   1.561  -2.172  0.00  0.00     0.028 H 
ENDBRANCH   1  65
BRANCH   2  69
ATOM     69  O   LIG d   1       2.950   1.450  -3.861  0.00  0.00    -0.503 OA
ATOM     70  H   LIG d   1       3.347   2.330  -3.834  0.00  0.00     0.292 HD
ENDBRANCH   2  69
TORSDOF 8
ENDMDL
MODEL 4
REMARK VINA RESULT:      -5.8      5.622      8.446
REMARK  8 active torsions:
REMARK  status: ('A' for Active; 'I' for Inactive)
REMARK    1  A    between atoms: C_1  and  C_2 
REMARK    2  A    between atoms: C_3  and  O_34 
REMARK    3  A    between atoms: C_12  and  C_33 
REMARK    4  A    between atoms: C_15  and  C_32 
REMARK    5  A    between atoms: C_16  and  C_31 
REMARK    6  A    between atoms: C_19  and  C_30 
REMARK    7  A    between atoms: C_23  and  C_26 
REMARK    8  A    between atoms: C_23  and  C_27 
ROOT
ATOM      1  C   LIG d   1      13.286   0.303  -3.881  0.00  0.00     0.002 C 
ATOM      2  C   LIG d   1      13.534   1.637  -3.812  0.00  0.00     0.167 C 
ATOM      3  C   LIG d   1      12.606   2.556  -4.352  0.00  0.00     0.221 C 
ATOM      4  O   LIG d   1      12.800   3.757  -4.241  0.00  0.00    -0.284 OA
ATOM      5  C   LIG d   1      11.461   2.085  -5.023  0.00  0.00    -0.007 C 
ATOM      6  C   LIG d   1      11.194   0.754  -5.074  0.00  0.00    -0.026 C 
ATOM      7  C   LIG d   1      12.069  -0.161  -4.438  0.00  0.00    -0.014 C 
ATOM      8  C   LIG d   1      11.711  -1.508  -4.352  0.00  0.00    -0.054 C 
ATOM      9  C   LIG d   1      10.465  -1.938  -4.826  0.00  0.00    -0.061 C 
ATOM     10  C   LIG d   1       9.620  -1.133  -5.482  0.00  0.00    -0.053 C 
ATOM     11  C   LIG d   1       9.979   0.281  -5.833  0.00  0.00     0.015 C 
ATOM     12  C   LIG d   1       8.821   1.239  -5.587  0.00  0.00    -0.039 C 
ATOM     13  C   LIG d   1       7.479   0.665  -6.027  0.00  0.00    -0.045 C 
ATOM     14  C   LIG d   1       7.212  -0.693  -5.365  0.00  0.00    -0.020 C 
ATOM     15  C   LIG d   1       8.265  -1.685  -5.874  0.00  0.00    -0.004 C 
ATOM     16  C   LIG d   1       8.024  -3.039  -5.210  0.00  0.00    -0.043 C 
ATOM     17  C   LIG d   1       6.664  -3.579  -5.632  0.00  0.00    -0.046 C 
ATOM     18  C   LIG d   1       5.525  -2.622  -5.285  0.00  0.00    -0.029 C 
ATOM     19  C   LIG d   1       5.810  -1.184  -5.667  0.00  0.00    -0.029 C 
ATOM     20  H   LIG d   1       5.723  -1.164  -6.792  0.00  0.00     0.031 H 
ATOM     21  C   LIG d   1       4.743  -0.215  -5.201  0.00  0.00    -0.039 C 
ATOM     22  C   LIG d   1       3.977  -0.513  -3.934  0.00  0.00     0.008 C 
ATOM     23  C   LIG d   1       3.918  -1.961  -3.489  0.00  0.00    -0.042 C 
ATOM     24  C   LIG d   1       5.166  -2.759  -3.812  0.00  0.00    -0.046 C 
ATOM     25  H   LIG d   1      10.804   2.792  -5.511  0.00  0.00     0.066 H 
ATOM     26  H   LIG d   1      12.377  -2.240  -3.925  0.00  0.00     0.062 H 
ATOM     27  H   LIG d   1      10.187  -2.967  -4.650  0.00  0.00     0.062 H 
ATOM     28  H   LIG d   1       8.795   1.550  -4.545  0.00  0.00     0.028 H 
ATOM     29  H   LIG d   1       9.005   2.151  -6.182  0.00  0.00     0.028 H 
ATOM     30  H   LIG d   1       6.688   1.358  -5.710  0.00  0.00     0.027 H 
ATOM     31  H   LIG d   1       7.425   0.586  -7.108  0.00  0.00     0.027 H 
ATOM     32  H   LIG d   1       8.804  -3.737  -5.549  0.00  0.00     0.027 H 
ATOM     33  H   LIG d   1       8.087  -2.969  -4.130  0.00  0.00     0.027 H 
ATOM     34  H   LIG d   1       6.649  -3.819  -6.693  0.00  0.00     0.027 H 
ATOM     35  H   LIG d   1       6.484  -4.522  -5.088  0.00  0.00     0.027 H 
ATOM     36  H   LIG d   1       5.206   0.784  -5.088  0.00  0.00     0.028 H 
ATOM     37  H   LIG d   1       4.018  -0.077  -6.029  0.00  0.00     0.028 H 
ATOM     38  H   LIG d   1       3.783  -1.975  -2.389  0.00  0.00     0.027 H 
ATOM     39  H   LIG d   1       3.028  -2.450  -3.907  0.00  0.00     0.027 H 
ATOM     40  H   LIG d   1       4.953  -3.826  -3.617  0.00  0.00     0.027 H 
ATOM     41  H   LIG d   1       5.994  -2.483  -3.169  0.00  0.00     0.027 H 
ENDROOT
BRANCH  22  42
ATOM     42  C   LIG d   1       2.513  -0.056  -4.177  0.00  0.00    -0.054 C 
ATOM     43  H   LIG d   1       2.406   0.991  -3.893  0.00  0.00     0.024 H 
ATOM     44  H   LIG d   1       2.265  -0.173  -5.232  0.00  0.00     0.024 H 
ATOM     45  H   LIG d   1       1.837  -0.665  -3.576  0.00  0.00     0.024 H 
ENDBRANCH  22  42
BRANCH  22  46
ATOM     46  C   LIG d   1       4.491   0.348  -2.796  0.00  0.00     0.048 C 
ATOM     47  O   LIG d   1       4.578  -0.116  -1.672  0.00  0.00    -0.549 OA
ATOM     48  O   LIG d   1       4.816   1.505  -3.005  0.00  0.00    -0.549 OA
ENDBRANCH  22  46
BRANCH  14  49
ATOM     49  C   LIG d   1       7.417  -0.509  -3.855  0.00  0.00    -0.059 C 
ATOM     50  H   LIG d   1       6.941   0.417  -3.533  0.00  0.00     0.024 H 
ATOM     51  H   LIG d   1       6.971  -1.350  -3.322  0.00  0.00     0.024 H 
ATOM     52  H   LIG d   1       8.484  -0.465  -3.634  0.00  0.00     0.024 H 
ENDBRANCH  14  49
BRANCH  18  53
ATOM     53  C   LIG d   1       4.307  -3.095  -6.112  0.00  0.00    -0.059 C 
ATOM     54  H   LIG d   1       3.466  -3.283  -5.445  0.00  0.00     0.024 H 
ATOM     55  H   LIG d   1       4.035  -2.323  -6.832  0.00  0.00     0.024 H 
ATOM     56  H   LIG d   1       4.562  -4.012  -6.643  0.00  0.00     0.024 H 
ENDBRANCH  18  53
BRANCH  15  57
ATOM     57  C   LIG d   1       8.176  -1.872  -7.389  0.00  0.00    -0.055 C 
ATOM     58  H   LIG d   1       8.171  -2.936  -7.624  0.00  0.00     0.024 H 
ATOM     59  H   LIG d   1       7.258  -1.414  -7.759  0.00  0.00     0.024 H 
ATOM     60  H   LIG d   1       9.035  -1.399  -7.865  0.00  0.00     0.024 H 
ENDBRANCH  15  57
BRANCH  11  61
ATOM     61  C   LIG d   1      10.367   0.366  -7.314  0.00  0.00    -0.052 C 
ATOM     62  H   LIG d   1      10.875  -0.553  -7.610  0.00  0.00     0.024 H 
ATOM     63  H   LIG d   1       9.469   0.495  -7.918  0.00  0.00     0.024 H 
ATOM     64  H   LIG d   1      11.033   1.215  -7.467  0.00  0.00     0.024 H 
ENDBRANCH  11  61
BRANCH   1  65
ATOM     65  C   LIG d   1      14.306  -0.661  -3.333  0.00  0.00    -0.036 C 
ATOM     66  H   LIG d   1      14.500  -1.441  -4.069  0.00  0.00     0.028 H 
ATOM     67  H   LIG d   1      15.231  -0.127  -3.117  0.00  0.00     0.028 H 
ATOM     68  H   LIG d   1      13.924  -1.112  -2.417  0.00  0.00     0.028 H 
ENDBRANCH   1  65
BRANCH   2  69
ATOM     69  O   LIG d   1      14.676   2.081  -3.217  0.00  0.00    -0.503 OA
ATOM     70  H   LIG d   1      15.462   1.564  -3.438  0.00  0.00     0.292 HD
ENDBRANCH   2  69
TORSDOF 8
ENDMDL
MODEL 5
REMARK VINA RESULT:      -5.8      3.098      4.309
REMARK  8 active torsions:
REMARK  status: ('A' for Active; 'I' for Inactive)
REMARK    1  A    between atoms: C_1  and  C_2 
REMARK    2  A    between atoms: C_3  and  O_34 
REMARK    3  A    between atoms: C_12  and  C_33 
REMARK    4  A    between atoms: C_15  and  C_32 
REMARK    5  A    between atoms: C_16  and  C_31 
REMARK    6  A    between atoms: C_19  and  C_30 
REMARK    7  A    between atoms: C_23  and  C_26 
REMARK    8  A    between atoms: C_23  and  C_27 
ROOT
ATOM      1  C   LIG d   1       4.142  -1.166  -3.259  0.00  0.00     0.002 C 
ATOM      2  C   LIG d   1       3.423  -0.036  -3.486  0.00  0.00     0.167 C 
ATOM      3  C   LIG d   1       3.207   0.408  -4.810  0.00  0.00     0.221 C 
ATOM      4  O   LIG d   1       2.514   1.392  -5.019  0.00  0.00    -0.284 OA
ATOM      5  C   LIG d   1       3.798  -0.281  -5.887  0.00  0.00    -0.007 C 
ATOM      6  C   LIG d   1       4.497  -1.425  -5.669  0.00  0.00    -0.026 C 
ATOM      7  C   LIG d   1       4.621  -1.930  -4.351  0.00  0.00    -0.014 C 
ATOM      8  C   LIG d   1       5.200  -3.184  -4.147  0.00  0.00    -0.054 C 
ATOM      9  C   LIG d   1       5.587  -3.968  -5.241  0.00  0.00    -0.061 C 
ATOM     10  C   LIG d   1       5.544  -3.525  -6.504  0.00  0.00    -0.053 C 
ATOM     11  C   LIG d   1       5.149  -2.117  -6.840  0.00  0.00     0.015 C 
ATOM     12  C   LIG d   1       4.220  -2.059  -8.045  0.00  0.00    -0.039 C 
ATOM     13  C   LIG d   1       4.639  -3.017  -9.157  0.00  0.00    -0.045 C 
ATOM     14  C   LIG d   1       4.763  -4.453  -8.634  0.00  0.00    -0.020 C 
ATOM     15  C   LIG d   1       5.907  -4.490  -7.614  0.00  0.00    -0.004 C 
ATOM     16  C   LIG d   1       6.033  -5.912  -7.069  0.00  0.00    -0.043 C 
ATOM     17  C   LIG d   1       6.415  -6.858  -8.200  0.00  0.00    -0.046 C 
ATOM     18  C   LIG d   1       5.407  -6.830  -9.347  0.00  0.00    -0.029 C 
ATOM     19  C   LIG d   1       5.012  -5.430  -9.767  0.00  0.00    -0.029 C 
ATOM     20  H   LIG d   1       5.915  -5.029 -10.313  0.00  0.00     0.031 H 
ATOM     21  C   LIG d   1       3.913  -5.401 -10.809  0.00  0.00    -0.039 C 
ATOM     22  C   LIG d   1       2.881  -6.504 -10.824  0.00  0.00     0.008 C 
ATOM     23  C   LIG d   1       3.271  -7.822 -10.185  0.00  0.00    -0.042 C 
ATOM     24  C   LIG d   1       4.195  -7.681  -8.991  0.00  0.00    -0.046 C 
ATOM     25  H   LIG d   1       3.702   0.117  -6.888  0.00  0.00     0.066 H 
ATOM     26  H   LIG d   1       5.360  -3.575  -3.155  0.00  0.00     0.062 H 
ATOM     27  H   LIG d   1       5.936  -4.971  -5.043  0.00  0.00     0.062 H 
ATOM     28  H   LIG d   1       3.189  -2.231  -7.745  0.00  0.00     0.028 H 
ATOM     29  H   LIG d   1       4.261  -1.035  -8.455  0.00  0.00     0.028 H 
ATOM     30  H   LIG d   1       3.861  -3.004  -9.932  0.00  0.00     0.027 H 
ATOM     31  H   LIG d   1       5.563  -2.693  -9.622  0.00  0.00     0.027 H 
ATOM     32  H   LIG d   1       6.830  -5.925  -6.311  0.00  0.00     0.027 H 
ATOM     33  H   LIG d   1       5.116  -6.238  -6.593  0.00  0.00     0.027 H 
ATOM     34  H   LIG d   1       7.416  -6.646  -8.568  0.00  0.00     0.027 H 
ATOM     35  H   LIG d   1       6.433  -7.886  -7.797  0.00  0.00     0.027 H 
ATOM     36  H   LIG d   1       3.374  -4.437 -10.721  0.00  0.00     0.028 H 
ATOM     37  H   LIG d   1       4.388  -5.346 -11.809  0.00  0.00     0.028 H 
ATOM     38  H   LIG d   1       2.344  -8.321  -9.838  0.00  0.00     0.027 H 
ATOM     39  H   LIG d   1       3.710  -8.492 -10.936  0.00  0.00     0.027 H 
ATOM     40  H   LIG d   1       4.562  -8.687  -8.718  0.00  0.00     0.027 H 
ATOM     41  H   LIG d   1       3.672  -7.293  -8.125  0.00  0.00     0.027 H 
ENDROOT
BRANCH  22  42
ATOM     42  C   LIG d   1       2.565  -6.802 -12.316  0.00  0.00    -0.054 C 
ATOM     43  H   LIG d   1       2.927  -7.797 -12.574  0.00  0.00     0.024 H 
ATOM     44  H   LIG d   1       1.488  -6.753 -12.476  0.00  0.00     0.024 H 
ATOM     45  H   LIG d   1       3.058  -6.062 -12.946  0.00  0.00     0.024 H 
ENDBRANCH  22  42
BRANCH  22  46
ATOM     46  C   LIG d   1       1.579  -6.012 -10.221  0.00  0.00     0.048 C 
ATOM     47  O   LIG d   1       0.906  -6.760  -9.531  0.00  0.00    -0.549 OA
ATOM     48  O   LIG d   1       1.204  -4.871 -10.426  0.00  0.00    -0.549 OA
ENDBRANCH  22  46
BRANCH  14  49
ATOM     49  C   LIG d   1       3.455  -4.784  -7.900  0.00  0.00    -0.059 C 
ATOM     50  H   LIG d   1       3.546  -4.501  -6.851  0.00  0.00     0.024 H 
ATOM     51  H   LIG d   1       2.633  -4.232  -8.356  0.00  0.00     0.024 H 
ATOM     52  H   LIG d   1       3.258  -5.854  -7.971  0.00  0.00     0.024 H 
ENDBRANCH  14  49
BRANCH  18  53
ATOM     53  C   LIG d   1       6.114  -7.498 -10.549  0.00  0.00    -0.059 C 
ATOM     54  H   LIG d   1       6.537  -6.729 -11.196  0.00  0.00     0.024 H 
ATOM     55  H   LIG d   1       6.912  -8.147 -10.187  0.00  0.00     0.024 H 
ATOM     56  H   LIG d   1       5.393  -8.090 -11.113  0.00  0.00     0.024 H 
ENDBRANCH  18  53
BRANCH  15  57
ATOM     57  C   LIG d   1       7.242  -4.102  -8.251  0.00  0.00    -0.055 C 
ATOM     58  H   LIG d   1       7.112  -3.196  -8.842  0.00  0.00     0.024 H 
ATOM     59  H   LIG d   1       7.980  -3.922  -7.469  0.00  0.00     0.024 H 
ATOM     60  H   LIG d   1       7.586  -4.911  -8.895  0.00  0.00     0.024 H 
ENDBRANCH  15  57
BRANCH  11  61
ATOM     61  C   LIG d   1       6.401  -1.289  -7.156  0.00  0.00    -0.052 C 
ATOM     62  H   LIG d   1       6.184  -0.601  -7.974  0.00  0.00     0.024 H 
ATOM     63  H   LIG d   1       6.695  -0.723  -6.273  0.00  0.00     0.024 H 
ATOM     64  H   LIG d   1       7.213  -1.955  -7.447  0.00  0.00     0.024 H 
ENDBRANCH  11  61
BRANCH   1  65
ATOM     65  C   LIG d   1       4.392  -1.602  -1.838  0.00  0.00    -0.036 C 
ATOM     66  H   LIG d   1       4.333  -2.688  -1.775  0.00  0.00     0.028 H 
ATOM     67  H   LIG d   1       5.384  -1.273  -1.527  0.00  0.00     0.028 H 
ATOM     68  H   LIG d   1       3.642  -1.158  -1.184  0.00  0.00     0.028 H 
ENDBRANCH   1  65
BRANCH   2  69
ATOM     69  O   LIG d   1       2.908   0.660  -2.434  0.00  0.00    -0.503 OA
ATOM     70  H   LIG d   1       2.455   1.475  -2.686  0.00  0.00     0.292 HD
ENDBRANCH   2  69
TORSDOF 8
ENDMDL
MODEL 6
REMARK VINA RESULT:      -5.7      3.890      5.904
REMARK  8 active torsions:
REMARK  status: ('A' for Active; 'I' for Inactive)
REMARK    1  A    between atoms: C_1  and  C_2 
REMARK    2  A    between atoms: C_3  and  O_34 
REMARK    3  A    between atoms: C_12  and  C_33 
REMARK    4  A    between atoms: C_15  and  C_32 
REMARK    5  A    between atoms: C_16  and  C_31 
REMARK    6  A    between atoms: C_19  and  C_30 
REMARK    7  A    between atoms: C_23  and  C_26 
REMARK    8  A    between atoms: C_23  and  C_27 
ROOT
ATOM      1  C   LIG d   1       5.151  -0.513  -2.915  0.00  0.00     0.002 C 
ATOM      2  C   LIG d   1       5.981   0.556  -3.034  0.00  0.00     0.167 C 
ATOM      3  C   LIG d   1       7.129   0.469  -3.853  0.00  0.00     0.221 C 
ATOM      4  O   LIG d   1       7.846   1.447  -4.005  0.00  0.00    -0.284 OA
ATOM      5  C   LIG d   1       7.450  -0.747  -4.485  0.00  0.00    -0.007 C 
ATOM      6  C   LIG d   1       6.612  -1.812  -4.390  0.00  0.00    -0.026 C 
ATOM      7  C   LIG d   1       5.405  -1.691  -3.659  0.00  0.00    -0.014 C 
ATOM      8  C   LIG d   1       4.472  -2.729  -3.695  0.00  0.00    -0.054 C 
ATOM      9  C   LIG d   1       4.695  -3.848  -4.506  0.00  0.00    -0.061 C 
ATOM     10  C   LIG d   1       5.836  -4.045  -5.177  0.00  0.00    -0.053 C 
ATOM     11  C   LIG d   1       7.004  -3.112  -5.048  0.00  0.00     0.015 C 
ATOM     12  C   LIG d   1       7.653  -2.823  -6.396  0.00  0.00    -0.039 C 
ATOM     13  C   LIG d   1       7.766  -4.067  -7.272  0.00  0.00    -0.045 C 
ATOM     14  C   LIG d   1       6.402  -4.741  -7.458  0.00  0.00    -0.020 C 
ATOM     15  C   LIG d   1       5.933  -5.250  -6.090  0.00  0.00    -0.004 C 
ATOM     16  C   LIG d   1       4.565  -5.909  -6.254  0.00  0.00    -0.043 C 
ATOM     17  C   LIG d   1       4.692  -7.126  -7.162  0.00  0.00    -0.046 C 
ATOM     18  C   LIG d   1       5.264  -6.772  -8.532  0.00  0.00    -0.029 C 
ATOM     19  C   LIG d   1       6.482  -5.874  -8.462  0.00  0.00    -0.029 C 
ATOM     20  H   LIG d   1       7.311  -6.544  -8.090  0.00  0.00     0.031 H 
ATOM     21  C   LIG d   1       6.968  -5.411  -9.820  0.00  0.00    -0.039 C 
ATOM     22  C   LIG d   1       5.970  -5.231 -10.939  0.00  0.00     0.008 C 
ATOM     23  C   LIG d   1       4.668  -5.999 -10.833  0.00  0.00    -0.042 C 
ATOM     24  C   LIG d   1       4.171  -6.181  -9.412  0.00  0.00    -0.046 C 
ATOM     25  H   LIG d   1       8.378  -0.831  -5.035  0.00  0.00     0.066 H 
ATOM     26  H   LIG d   1       3.569  -2.693  -3.108  0.00  0.00     0.062 H 
ATOM     27  H   LIG d   1       3.903  -4.580  -4.582  0.00  0.00     0.062 H 
ATOM     28  H   LIG d   1       7.126  -2.024  -6.912  0.00  0.00     0.028 H 
ATOM     29  H   LIG d   1       8.676  -2.454  -6.206  0.00  0.00     0.028 H 
ATOM     30  H   LIG d   1       8.130  -3.757  -8.261  0.00  0.00     0.027 H 
ATOM     31  H   LIG d   1       8.491  -4.764  -6.866  0.00  0.00     0.027 H 
ATOM     32  H   LIG d   1       4.216  -6.240  -5.265  0.00  0.00     0.027 H 
ATOM     33  H   LIG d   1       3.833  -5.214  -6.650  0.00  0.00     0.027 H 
ATOM     34  H   LIG d   1       5.286  -7.906  -6.691  0.00  0.00     0.027 H 
ATOM     35  H   LIG d   1       3.683  -7.544  -7.320  0.00  0.00     0.027 H 
ATOM     36  H   LIG d   1       7.506  -4.453  -9.690  0.00  0.00     0.028 H 
ATOM     37  H   LIG d   1       7.758  -6.112 -10.160  0.00  0.00     0.028 H 
ATOM     38  H   LIG d   1       3.893  -5.438 -11.393  0.00  0.00     0.027 H 
ATOM     39  H   LIG d   1       4.759  -6.970 -11.337  0.00  0.00     0.027 H 
ATOM     40  H   LIG d   1       3.332  -6.900  -9.430  0.00  0.00     0.027 H 
ATOM     41  H   LIG d   1       3.782  -5.256  -9.003  0.00  0.00     0.027 H 
ENDROOT
BRANCH  22  42
ATOM     42  C   LIG d   1       6.668  -5.703 -12.244  0.00  0.00    -0.054 C 
ATOM     43  H   LIG d   1       6.253  -5.164 -13.095  0.00  0.00     0.024 H 
ATOM     44  H   LIG d   1       7.738  -5.507 -12.175  0.00  0.00     0.024 H 
ATOM     45  H   LIG d   1       6.504  -6.773 -12.377  0.00  0.00     0.024 H 
ENDBRANCH  22  42
BRANCH  22  46
ATOM     46  C   LIG d   1       5.674  -3.756 -11.145  0.00  0.00     0.048 C 
ATOM     47  O   LIG d   1       4.535  -3.390 -11.380  0.00  0.00    -0.549 OA
ATOM     48  O   LIG d   1       6.576  -2.939 -11.075  0.00  0.00    -0.549 OA
ENDBRANCH  22  46
BRANCH  14  49
ATOM     49  C   LIG d   1       5.420  -3.658  -7.929  0.00  0.00    -0.059 C 
ATOM     50  H   LIG d   1       5.513  -3.527  -9.007  0.00  0.00     0.024 H 
ATOM     51  H   LIG d   1       4.401  -3.961  -7.686  0.00  0.00     0.024 H 
ATOM     52  H   LIG d   1       5.648  -2.717  -7.428  0.00  0.00     0.024 H 
ENDBRANCH  14  49
BRANCH  18  53
ATOM     53  C   LIG d   1       5.706  -8.112  -9.166  0.00  0.00    -0.059 C 
ATOM     54  H   LIG d   1       6.375  -8.635  -8.483  0.00  0.00     0.024 H 
ATOM     55  H   LIG d   1       4.828  -8.730  -9.358  0.00  0.00     0.024 H 
ATOM     56  H   LIG d   1       6.225  -7.917 -10.104  0.00  0.00     0.024 H 
ENDBRANCH  18  53
BRANCH  15  57
ATOM     57  C   LIG d   1       6.898  -6.287  -5.514  0.00  0.00    -0.055 C 
ATOM     58  H   LIG d   1       7.656  -6.531  -6.258  0.00  0.00     0.024 H 
ATOM     59  H   LIG d   1       7.380  -5.881  -4.624  0.00  0.00     0.024 H 
ATOM     60  H   LIG d   1       6.346  -7.188  -5.248  0.00  0.00     0.024 H 
ENDBRANCH  15  57
BRANCH  11  61
ATOM     61  C   LIG d   1       8.063  -3.730  -4.127  0.00  0.00    -0.052 C 
ATOM     62  H   LIG d   1       8.275  -4.750  -4.451  0.00  0.00     0.024 H 
ATOM     63  H   LIG d   1       8.976  -3.137  -4.174  0.00  0.00     0.024 H 
ATOM     64  H   LIG d   1       7.691  -3.743  -3.103  0.00  0.00     0.024 H 
ENDBRANCH  11  61
BRANCH   1  65
ATOM     65  C   LIG d   1       3.952  -0.412  -2.008  0.00  0.00    -0.036 C 
ATOM     66  H   LIG d   1       4.161  -0.926  -1.071  0.00  0.00     0.028 H 
ATOM     67  H   LIG d   1       3.736   0.638  -1.807  0.00  0.00     0.028 H 
ATOM     68  H   LIG d   1       3.090  -0.873  -2.491  0.00  0.00     0.028 H 
ENDBRANCH   1  65
BRANCH   2  69
ATOM     69  O   LIG d   1       5.696   1.710  -2.368  0.00  0.00    -0.503 OA
ATOM     70  H   LIG d   1       5.924   2.512  -2.855  0.00  0.00     0.292 HD
ENDBRANCH   2  69
TORSDOF 8
ENDMDL
MODEL 7
REMARK VINA RESULT:      -5.6     10.057     13.594
REMARK  8 active torsions:
REMARK  status: ('A' for Active; 'I' for Inactive)
REMARK    1  A    between atoms: C_1  and  C_2 
REMARK    2  A    between atoms: C_3  and  O_34 
REMARK    3  A    between atoms: C_12  and  C_33 
REMARK    4  A    between atoms: C_15  and  C_32 
REMARK    5  A    between atoms: C_16  and  C_31 
REMARK    6  A    between atoms: C_19  and  C_30 
REMARK    7  A    between atoms: C_23  and  C_26 
REMARK    8  A    between atoms: C_23  and  C_27 
ROOT
ATOM      1  C   LIG d   1      12.169  -0.867  -4.445  0.00  0.00     0.002 C 
ATOM      2  C   LIG d   1      13.305  -1.381  -3.906  0.00  0.00     0.167 C 
ATOM      3  C   LIG d   1      14.345  -0.517  -3.497  0.00  0.00     0.221 C 
ATOM      4  O   LIG d   1      15.344  -0.973  -2.961  0.00  0.00    -0.284 OA
ATOM      5  C   LIG d   1      14.232   0.870  -3.715  0.00  0.00    -0.007 C 
ATOM      6  C   LIG d   1      13.089   1.393  -4.231  0.00  0.00    -0.026 C 
ATOM      7  C   LIG d   1      12.004   0.536  -4.539  0.00  0.00    -0.014 C 
ATOM      8  C   LIG d   1      10.779   1.089  -4.916  0.00  0.00    -0.054 C 
ATOM      9  C   LIG d   1      10.602   2.478  -4.918  0.00  0.00    -0.061 C 
ATOM     10  C   LIG d   1      11.602   3.338  -4.688  0.00  0.00    -0.053 C 
ATOM     11  C   LIG d   1      13.016   2.877  -4.487  0.00  0.00     0.015 C 
ATOM     12  C   LIG d   1      13.701   3.624  -3.349  0.00  0.00    -0.039 C 
ATOM     13  C   LIG d   1      13.379   5.115  -3.347  0.00  0.00    -0.045 C 
ATOM     14  C   LIG d   1      11.865   5.357  -3.322  0.00  0.00    -0.020 C 
ATOM     15  C   LIG d   1      11.277   4.816  -4.631  0.00  0.00    -0.004 C 
ATOM     16  C   LIG d   1       9.765   5.033  -4.616  0.00  0.00    -0.043 C 
ATOM     17  C   LIG d   1       9.465   6.526  -4.575  0.00  0.00    -0.046 C 
ATOM     18  C   LIG d   1      10.099   7.214  -3.369  0.00  0.00    -0.029 C 
ATOM     19  C   LIG d   1      11.547   6.829  -3.148  0.00  0.00    -0.029 C 
ATOM     20  H   LIG d   1      12.112   7.355  -3.972  0.00  0.00     0.031 H 
ATOM     21  C   LIG d   1      12.137   7.403  -1.877  0.00  0.00    -0.039 C 
ATOM     22  C   LIG d   1      11.236   7.638  -0.687  0.00  0.00     0.008 C 
ATOM     23  C   LIG d   1       9.754   7.798  -0.963  0.00  0.00    -0.042 C 
ATOM     24  C   LIG d   1       9.250   6.970  -2.129  0.00  0.00    -0.046 C 
ATOM     25  H   LIG d   1      15.070   1.513  -3.482  0.00  0.00     0.066 H 
ATOM     26  H   LIG d   1       9.949   0.467  -5.211  0.00  0.00     0.062 H 
ATOM     27  H   LIG d   1       9.611   2.860  -5.118  0.00  0.00     0.062 H 
ATOM     28  H   LIG d   1      13.462   3.167  -2.391  0.00  0.00     0.028 H 
ATOM     29  H   LIG d   1      14.792   3.518  -3.484  0.00  0.00     0.028 H 
ATOM     30  H   LIG d   1      13.809   5.557  -2.437  0.00  0.00     0.027 H 
ATOM     31  H   LIG d   1      13.837   5.613  -4.194  0.00  0.00     0.027 H 
ATOM     32  H   LIG d   1       9.343   4.611  -5.540  0.00  0.00     0.027 H 
ATOM     33  H   LIG d   1       9.300   4.528  -3.777  0.00  0.00     0.027 H 
ATOM     34  H   LIG d   1       9.774   7.013  -5.498  0.00  0.00     0.027 H 
ATOM     35  H   LIG d   1       8.371   6.655  -4.496  0.00  0.00     0.027 H 
ATOM     36  H   LIG d   1      12.965   6.745  -1.549  0.00  0.00     0.028 H 
ATOM     37  H   LIG d   1      12.642   8.356  -2.132  0.00  0.00     0.028 H 
ATOM     38  H   LIG d   1       9.201   7.480  -0.058  0.00  0.00     0.027 H 
ATOM     39  H   LIG d   1       9.509   8.858  -1.108  0.00  0.00     0.027 H 
ATOM     40  H   LIG d   1       8.219   7.294  -2.361  0.00  0.00     0.027 H 
ATOM     41  H   LIG d   1       9.198   5.917  -1.878  0.00  0.00     0.027 H 
ENDROOT
BRANCH  22  42
ATOM     42  C   LIG d   1      11.715   8.953  -0.015  0.00  0.00    -0.054 C 
ATOM     43  H   LIG d   1      11.655   8.853   1.069  0.00  0.00     0.024 H 
ATOM     44  H   LIG d   1      12.747   9.155  -0.304  0.00  0.00     0.024 H 
ATOM     45  H   LIG d   1      11.081   9.779  -0.338  0.00  0.00     0.024 H 
ENDBRANCH  22  42
BRANCH  22  46
ATOM     46  C   LIG d   1      11.445   6.549   0.350  0.00  0.00     0.048 C 
ATOM     47  O   LIG d   1      12.564   6.114   0.560  0.00  0.00    -0.549 OA
ATOM     48  O   LIG d   1      10.493   6.110   0.973  0.00  0.00    -0.549 OA
ENDBRANCH  22  46
BRANCH  14  49
ATOM     49  C   LIG d   1      11.292   4.530  -2.162  0.00  0.00    -0.059 C 
ATOM     50  H   LIG d   1      11.942   4.624  -1.292  0.00  0.00     0.024 H 
ATOM     51  H   LIG d   1      10.296   4.896  -1.912  0.00  0.00     0.024 H 
ATOM     52  H   LIG d   1      11.230   3.482  -2.457  0.00  0.00     0.024 H 
ENDBRANCH  14  49
BRANCH  18  53
ATOM     53  C   LIG d   1      10.059   8.730  -3.676  0.00  0.00    -0.059 C 
ATOM     54  H   LIG d   1       9.620   9.260  -2.832  0.00  0.00     0.024 H 
ATOM     55  H   LIG d   1      11.072   9.093  -3.846  0.00  0.00     0.024 H 
ATOM     56  H   LIG d   1       9.456   8.904  -4.568  0.00  0.00     0.024 H 
ENDBRANCH  18  53
BRANCH  15  57
ATOM     57  C   LIG d   1      11.852   5.542  -5.848  0.00  0.00    -0.055 C 
ATOM     58  H   LIG d   1      11.185   5.408  -6.700  0.00  0.00     0.024 H 
ATOM     59  H   LIG d   1      11.948   6.605  -5.627  0.00  0.00     0.024 H 
ATOM     60  H   LIG d   1      12.833   5.131  -6.087  0.00  0.00     0.024 H 
ENDBRANCH  15  57
BRANCH  11  61
ATOM     61  C   LIG d   1      13.824   3.109  -5.769  0.00  0.00    -0.052 C 
ATOM     62  H   LIG d   1      13.978   4.179  -5.914  0.00  0.00     0.024 H 
ATOM     63  H   LIG d   1      14.790   2.611  -5.685  0.00  0.00     0.024 H 
ATOM     64  H   LIG d   1      13.279   2.702  -6.621  0.00  0.00     0.024 H 
ENDBRANCH  11  61
BRANCH   1  65
ATOM     65  C   LIG d   1      11.087  -1.808  -4.909  0.00  0.00    -0.036 C 
ATOM     66  H   LIG d   1      10.498  -1.328  -5.690  0.00  0.00     0.028 H 
ATOM     67  H   LIG d   1      11.541  -2.717  -5.304  0.00  0.00     0.028 H 
ATOM     68  H   LIG d   1      10.440  -2.061  -4.069  0.00  0.00     0.028 H 
ENDBRANCH   1  65
BRANCH   2  69
ATOM     69  O   LIG d   1      13.431  -2.730  -3.757  0.00  0.00    -0.503 OA
ATOM     70  H   LIG d   1      14.194  -3.106  -4.216  0.00  0.00     0.292 HD
ENDBRANCH   2  69
TORSDOF 8
ENDMDL
MODEL 8
REMARK VINA RESULT:      -5.6      5.589      9.334
REMARK  8 active torsions:
REMARK  status: ('A' for Active; 'I' for Inactive)
REMARK    1  A    between atoms: C_1  and  C_2 
REMARK    2  A    between atoms: C_3  and  O_34 
REMARK    3  A    between atoms: C_12  and  C_33 
REMARK    4  A    between atoms: C_15  and  C_32 
REMARK    5  A    between atoms: C_16  and  C_31 
REMARK    6  A    between atoms: C_19  and  C_30 
REMARK    7  A    between atoms: C_23  and  C_26 
REMARK    8  A    between atoms: C_23  and  C_27 
ROOT
ATOM      1  C   LIG d   1       4.904  -0.697  -2.971  0.00  0.00     0.002 C 
ATOM      2  C   LIG d   1       4.470  -1.960  -3.219  0.00  0.00     0.167 C 
ATOM      3  C   LIG d   1       4.984  -2.679  -4.321  0.00  0.00     0.221 C 
ATOM      4  O   LIG d   1       4.637  -3.835  -4.512  0.00  0.00    -0.284 OA
ATOM      5  C   LIG d   1       5.892  -2.060  -5.202  0.00  0.00    -0.007 C 
ATOM      6  C   LIG d   1       6.350  -0.807  -4.946  0.00  0.00    -0.026 C 
ATOM      7  C   LIG d   1       5.916  -0.127  -3.781  0.00  0.00    -0.014 C 
ATOM      8  C   LIG d   1       6.507   1.090  -3.437  0.00  0.00    -0.054 C 
ATOM      9  C   LIG d   1       7.569   1.599  -4.195  0.00  0.00    -0.061 C 
ATOM     10  C   LIG d   1       7.986   1.030  -5.334  0.00  0.00    -0.053 C 
ATOM     11  C   LIG d   1       7.292  -0.159  -5.929  0.00  0.00     0.015 C 
ATOM     12  C   LIG d   1       8.282  -1.196  -6.444  0.00  0.00    -0.039 C 
ATOM     13  C   LIG d   1       9.469  -0.568  -7.167  0.00  0.00    -0.045 C 
ATOM     14  C   LIG d   1      10.175   0.465  -6.281  0.00  0.00    -0.020 C 
ATOM     15  C   LIG d   1       9.198   1.619  -6.025  0.00  0.00    -0.004 C 
ATOM     16  C   LIG d   1       9.880   2.650  -5.128  0.00  0.00    -0.043 C 
ATOM     17  C   LIG d   1      11.085   3.238  -5.852  0.00  0.00    -0.046 C 
ATOM     18  C   LIG d   1      12.091   2.169  -6.270  0.00  0.00    -0.029 C 
ATOM     19  C   LIG d   1      11.451   0.965  -6.929  0.00  0.00    -0.029 C 
ATOM     20  H   LIG d   1      11.142   1.329  -7.953  0.00  0.00     0.031 H 
ATOM     21  C   LIG d   1      12.430  -0.154  -7.221  0.00  0.00    -0.039 C 
ATOM     22  C   LIG d   1      13.623  -0.345  -6.315  0.00  0.00     0.008 C 
ATOM     23  C   LIG d   1      14.079   0.857  -5.511  0.00  0.00    -0.042 C 
ATOM     24  C   LIG d   1      12.952   1.774  -5.078  0.00  0.00    -0.046 C 
ATOM     25  H   LIG d   1       6.211  -2.587  -6.091  0.00  0.00     0.066 H 
ATOM     26  H   LIG d   1       6.164   1.661  -2.589  0.00  0.00     0.062 H 
ATOM     27  H   LIG d   1       8.062   2.491  -3.837  0.00  0.00     0.062 H 
ATOM     28  H   LIG d   1       8.611  -1.847  -5.637  0.00  0.00     0.028 H 
ATOM     29  H   LIG d   1       7.752  -1.839  -7.169  0.00  0.00     0.028 H 
ATOM     30  H   LIG d   1      10.189  -1.364  -7.400  0.00  0.00     0.027 H 
ATOM     31  H   LIG d   1       9.162  -0.125  -8.108  0.00  0.00     0.027 H 
ATOM     32  H   LIG d   1       9.164   3.458  -4.918  0.00  0.00     0.027 H 
ATOM     33  H   LIG d   1      10.180   2.216  -4.181  0.00  0.00     0.027 H 
ATOM     34  H   LIG d   1      10.776   3.827  -6.713  0.00  0.00     0.027 H 
ATOM     35  H   LIG d   1      11.599   3.928  -5.161  0.00  0.00     0.027 H 
ATOM     36  H   LIG d   1      11.870  -1.109  -7.247  0.00  0.00     0.028 H 
ATOM     37  H   LIG d   1      12.791  -0.033  -8.262  0.00  0.00     0.028 H 
ATOM     38  H   LIG d   1      14.583   0.486  -4.597  0.00  0.00     0.027 H 
ATOM     39  H   LIG d   1      14.840   1.418  -6.067  0.00  0.00     0.027 H 
ATOM     40  H   LIG d   1      13.398   2.698  -4.667  0.00  0.00     0.027 H 
ATOM     41  H   LIG d   1      12.360   1.333  -4.284  0.00  0.00     0.027 H 
ENDROOT
BRANCH  22  42
ATOM     42  C   LIG d   1      14.814  -0.759  -7.222  0.00  0.00    -0.054 C 
ATOM     43  H   LIG d   1      14.880  -0.078  -8.071  0.00  0.00     0.024 H 
ATOM     44  H   LIG d   1      15.740  -0.716  -6.649  0.00  0.00     0.024 H 
ATOM     45  H   LIG d   1      14.659  -1.776  -7.584  0.00  0.00     0.024 H 
ENDBRANCH  22  42
BRANCH  22  46
ATOM     46  C   LIG d   1      13.391  -1.521  -5.383  0.00  0.00     0.048 C 
ATOM     47  O   LIG d   1      13.732  -1.449  -4.215  0.00  0.00    -0.549 OA
ATOM     48  O   LIG d   1      12.865  -2.537  -5.804  0.00  0.00    -0.549 OA
ENDBRANCH  22  46
BRANCH  14  49
ATOM     49  C   LIG d   1      10.473  -0.217  -4.937  0.00  0.00    -0.059 C 
ATOM     50  H   LIG d   1      10.917   0.507  -4.253  0.00  0.00     0.024 H 
ATOM     51  H   LIG d   1       9.544  -0.598  -4.509  0.00  0.00     0.024 H 
ATOM     52  H   LIG d   1      11.166  -1.043  -5.093  0.00  0.00     0.024 H 
ENDBRANCH  14  49
BRANCH  18  53
ATOM     53  C   LIG d   1      13.013   2.840  -7.315  0.00  0.00    -0.059 C 
ATOM     54  H   LIG d   1      12.861   2.373  -8.288  0.00  0.00     0.024 H 
ATOM     55  H   LIG d   1      12.776   3.902  -7.380  0.00  0.00     0.024 H 
ATOM     56  H   LIG d   1      14.054   2.718  -7.013  0.00  0.00     0.024 H 
ENDBRANCH  18  53
BRANCH  15  57
ATOM     57  C   LIG d   1       8.793   2.312  -7.327  0.00  0.00    -0.055 C 
ATOM     58  H   LIG d   1       9.223   1.775  -8.173  0.00  0.00     0.024 H 
ATOM     59  H   LIG d   1       7.706   2.315  -7.415  0.00  0.00     0.024 H 
ATOM     60  H   LIG d   1       9.161   3.338  -7.323  0.00  0.00     0.024 H 
ENDBRANCH  15  57
BRANCH  11  61
ATOM     61  C   LIG d   1       6.411   0.289  -7.102  0.00  0.00    -0.052 C 
ATOM     62  H   LIG d   1       6.414  -0.482  -7.874  0.00  0.00     0.024 H 
ATOM     63  H   LIG d   1       5.392   0.448  -6.751  0.00  0.00     0.024 H 
ATOM     64  H   LIG d   1       6.802   1.219  -7.516  0.00  0.00     0.024 H 
ENDBRANCH  11  61
BRANCH   1  65
ATOM     65  C   LIG d   1       4.315   0.067  -1.814  0.00  0.00    -0.036 C 
ATOM     66  H   LIG d   1       3.819  -0.626  -1.136  0.00  0.00     0.028 H 
ATOM     67  H   LIG d   1       5.110   0.589  -1.282  0.00  0.00     0.028 H 
ATOM     68  H   LIG d   1       3.591   0.791  -2.187  0.00  0.00     0.028 H 
ENDBRANCH   1  65
BRANCH   2  69
ATOM     69  O   LIG d   1       3.543  -2.528  -2.398  0.00  0.00    -0.503 OA
ATOM     70  H   LIG d   1       2.733  -2.802  -2.849  0.00  0.00     0.292 HD
ENDBRANCH   2  69
TORSDOF 8
ENDMDL
MODEL 9
REMARK VINA RESULT:      -5.6     10.072     14.385
REMARK  8 active torsions:
REMARK  status: ('A' for Active; 'I' for Inactive)
REMARK    1  A    between atoms: C_1  and  C_2 
REMARK    2  A    between atoms: C_3  and  O_34 
REMARK    3  A    between atoms: C_12  and  C_33 
REMARK    4  A    between atoms: C_15  and  C_32 
REMARK    5  A    between atoms: C_16  and  C_31 
REMARK    6  A    between atoms: C_19  and  C_30 
REMARK    7  A    between atoms: C_23  and  C_26 
REMARK    8  A    between atoms: C_23  and  C_27 
ROOT
ATOM      1  C   LIG d   1      12.361   4.776  -8.703  0.00  0.00     0.002 C 
ATOM      2  C   LIG d   1      11.481   5.250  -9.624  0.00  0.00     0.167 C 
ATOM      3  C   LIG d   1      10.223   5.741  -9.209  0.00  0.00     0.221 C 
ATOM      4  O   LIG d   1       9.453   6.219 -10.029  0.00  0.00    -0.284 OA
ATOM      5  C   LIG d   1       9.854   5.672  -7.852  0.00  0.00    -0.007 C 
ATOM      6  C   LIG d   1      10.738   5.222  -6.923  0.00  0.00    -0.026 C 
ATOM      7  C   LIG d   1      12.039   4.832  -7.325  0.00  0.00    -0.014 C 
ATOM      8  C   LIG d   1      12.994   4.524  -6.355  0.00  0.00    -0.054 C 
ATOM      9  C   LIG d   1      12.691   4.671  -4.996  0.00  0.00    -0.061 C 
ATOM     10  C   LIG d   1      11.467   4.984  -4.553  0.00  0.00    -0.053 C 
ATOM     11  C   LIG d   1      10.298   5.126  -5.484  0.00  0.00     0.015 C 
ATOM     12  C   LIG d   1       9.436   6.331  -5.133  0.00  0.00    -0.039 C 
ATOM     13  C   LIG d   1       9.235   6.494  -3.630  0.00  0.00    -0.045 C 
ATOM     14  C   LIG d   1      10.579   6.554  -2.894  0.00  0.00    -0.020 C 
ATOM     15  C   LIG d   1      11.276   5.199  -3.066  0.00  0.00    -0.004 C 
ATOM     16  C   LIG d   1      12.626   5.248  -2.353  0.00  0.00    -0.043 C 
ATOM     17  C   LIG d   1      12.405   5.448  -0.859  0.00  0.00    -0.046 C 
ATOM     18  C   LIG d   1      11.612   6.716  -0.553  0.00  0.00    -0.029 C 
ATOM     19  C   LIG d   1      10.387   6.885  -1.427  0.00  0.00    -0.029 C 
ATOM     20  H   LIG d   1       9.653   6.118  -1.042  0.00  0.00     0.031 H 
ATOM     21  C   LIG d   1       9.676   8.206  -1.219  0.00  0.00    -0.039 C 
ATOM     22  C   LIG d   1      10.478   9.421  -0.816  0.00  0.00     0.008 C 
ATOM     23  C   LIG d   1      11.810   9.173  -0.136  0.00  0.00    -0.042 C 
ATOM     24  C   LIG d   1      12.530   7.929  -0.620  0.00  0.00    -0.046 C 
ATOM     25  H   LIG d   1       8.856   5.966  -7.558  0.00  0.00     0.066 H 
ATOM     26  H   LIG d   1      13.976   4.171  -6.625  0.00  0.00     0.062 H 
ATOM     27  H   LIG d   1      13.489   4.519  -4.282  0.00  0.00     0.062 H 
ATOM     28  H   LIG d   1       9.843   7.237  -5.577  0.00  0.00     0.028 H 
ATOM     29  H   LIG d   1       8.441   6.179  -5.588  0.00  0.00     0.028 H 
ATOM     30  H   LIG d   1       8.709   7.442  -3.455  0.00  0.00     0.027 H 
ATOM     31  H   LIG d   1       8.611   5.701  -3.233  0.00  0.00     0.027 H 
ATOM     32  H   LIG d   1      13.138   4.287  -2.510  0.00  0.00     0.027 H 
ATOM     33  H   LIG d   1      13.258   6.032  -2.753  0.00  0.00     0.027 H 
ATOM     34  H   LIG d   1      11.923   4.581  -0.414  0.00  0.00     0.027 H 
ATOM     35  H   LIG d   1      13.393   5.548  -0.376  0.00  0.00     0.027 H 
ATOM     36  H   LIG d   1       9.128   8.457  -2.148  0.00  0.00     0.028 H 
ATOM     37  H   LIG d   1       8.871   8.051  -0.473  0.00  0.00     0.028 H 
ATOM     38  H   LIG d   1      12.465  10.043  -0.339  0.00  0.00     0.027 H 
ATOM     39  H   LIG d   1      11.679   9.143   0.954  0.00  0.00     0.027 H 
ATOM     40  H   LIG d   1      13.384   7.740   0.055  0.00  0.00     0.027 H 
ATOM     41  H   LIG d   1      12.942   8.067  -1.613  0.00  0.00     0.027 H 
ENDROOT
BRANCH  22  42
ATOM     42  C   LIG d   1       9.603  10.225   0.184  0.00  0.00    -0.054 C 
ATOM     43  H   LIG d   1      10.237  10.654   0.960  0.00  0.00     0.024 H 
ATOM     44  H   LIG d   1       9.087  11.025  -0.347  0.00  0.00     0.024 H 
ATOM     45  H   LIG d   1       8.869   9.561   0.641  0.00  0.00     0.024 H 
ENDBRANCH  22  42
BRANCH  22  46
ATOM     46  C   LIG d   1      10.680  10.335  -2.010  0.00  0.00     0.048 C 
ATOM     47  O   LIG d   1      11.752  10.893  -2.176  0.00  0.00    -0.549 OA
ATOM     48  O   LIG d   1       9.771  10.513  -2.803  0.00  0.00    -0.549 OA
ENDBRANCH  22  46
BRANCH  14  49
ATOM     49  C   LIG d   1      11.431   7.624  -3.591  0.00  0.00    -0.059 C 
ATOM     50  H   LIG d   1      12.280   7.148  -4.083  0.00  0.00     0.024 H 
ATOM     51  H   LIG d   1      10.826   8.144  -4.335  0.00  0.00     0.024 H 
ATOM     52  H   LIG d   1      11.794   8.340  -2.853  0.00  0.00     0.024 H 
ENDBRANCH  14  49
BRANCH  18  53
ATOM     53  C   LIG d   1      11.129   6.572   0.909  0.00  0.00    -0.059 C 
ATOM     54  H   LIG d   1      11.864   6.004   1.480  0.00  0.00     0.024 H 
ATOM     55  H   LIG d   1      11.010   7.561   1.352  0.00  0.00     0.024 H 
ATOM     56  H   LIG d   1      10.174   6.048   0.927  0.00  0.00     0.024 H 
ENDBRANCH  18  53
BRANCH  15  57
ATOM     57  C   LIG d   1      10.454   4.062  -2.458  0.00  0.00    -0.055 C 
ATOM     58  H   LIG d   1      10.734   3.930  -1.413  0.00  0.00     0.024 H 
ATOM     59  H   LIG d   1       9.393   4.305  -2.521  0.00  0.00     0.024 H 
ATOM     60  H   LIG d   1      10.649   3.140  -3.005  0.00  0.00     0.024 H 
ENDBRANCH  15  57
BRANCH  11  61
ATOM     61  C   LIG d   1       9.422   3.869  -5.409  0.00  0.00    -0.052 C 
ATOM     62  H   LIG d   1       9.560   3.276  -6.314  0.00  0.00     0.024 H 
ATOM     63  H   LIG d   1       9.707   3.278  -4.540  0.00  0.00     0.024 H 
ATOM     64  H   LIG d   1       8.375   4.161  -5.322  0.00  0.00     0.024 H 
ENDBRANCH  11  61
BRANCH   1  65
ATOM     65  C   LIG d   1      13.682   4.222  -9.169  0.00  0.00    -0.036 C 
ATOM     66  H   LIG d   1      14.397   4.248  -8.348  0.00  0.00     0.028 H 
ATOM     67  H   LIG d   1      13.547   3.193  -9.501  0.00  0.00     0.028 H 
ATOM     68  H   LIG d   1      14.057   4.824  -9.997  0.00  0.00     0.028 H 
ENDBRANCH   1  65
BRANCH   2  69
ATOM     69  O   LIG d   1      11.822   5.254 -10.943  0.00  0.00    -0.503 OA
ATOM     70  H   LIG d   1      12.575   5.823 -11.153  0.00  0.00     0.292 HD
ENDBRANCH   2  69
TORSDOF 8
ENDMDL
MODEL 10
REMARK VINA RESULT:      -5.6      2.305      7.333
REMARK  8 active torsions:
REMARK  status: ('A' for Active; 'I' for Inactive)
REMARK    1  A    between atoms: C_1  and  C_2 
REMARK    2  A    between atoms: C_3  and  O_34 
REMARK    3  A    between atoms: C_12  and  C_33 
REMARK    4  A    between atoms: C_15  and  C_32 
REMARK    5  A    between atoms: C_16  and  C_31 
REMARK    6  A    between atoms: C_19  and  C_30 
REMARK    7  A    between atoms: C_23  and  C_26 
REMARK    8  A    between atoms: C_23  and  C_27 
ROOT
ATOM      1  C   LIG d   1      -2.995  -4.587 -11.770  0.00  0.00     0.002 C 
ATOM      2  C   LIG d   1      -3.398  -5.270 -10.666  0.00  0.00     0.167 C 
ATOM      3  C   LIG d   1      -2.447  -5.684  -9.707  0.00  0.00     0.221 C 
ATOM      4  O   LIG d   1      -2.813  -6.248  -8.687  0.00  0.00    -0.284 OA
ATOM      5  C   LIG d   1      -1.076  -5.452  -9.932  0.00  0.00    -0.007 C 
ATOM      6  C   LIG d   1      -0.668  -4.749 -11.021  0.00  0.00    -0.026 C 
ATOM      7  C   LIG d   1      -1.632  -4.239 -11.926  0.00  0.00    -0.014 C 
ATOM      8  C   LIG d   1      -1.225  -3.384 -12.953  0.00  0.00    -0.054 C 
ATOM      9  C   LIG d   1       0.111  -2.976 -13.042  0.00  0.00    -0.061 C 
ATOM     10  C   LIG d   1       1.075  -3.463 -12.250  0.00  0.00    -0.053 C 
ATOM     11  C   LIG d   1       0.809  -4.551 -11.252  0.00  0.00     0.015 C 
ATOM     12  C   LIG d   1       1.500  -4.283  -9.921  0.00  0.00    -0.039 C 
ATOM     13  C   LIG d   1       2.914  -3.738 -10.092  0.00  0.00    -0.045 C 
ATOM     14  C   LIG d   1       2.922  -2.482 -10.972  0.00  0.00    -0.020 C 
ATOM     15  C   LIG d   1       2.469  -2.886 -12.380  0.00  0.00    -0.004 C 
ATOM     16  C   LIG d   1       2.454  -1.642 -13.266  0.00  0.00    -0.043 C 
ATOM     17  C   LIG d   1       3.869  -1.091 -13.394  0.00  0.00    -0.046 C 
ATOM     18  C   LIG d   1       4.487  -0.754 -12.040  0.00  0.00    -0.029 C 
ATOM     19  C   LIG d   1       4.297  -1.843 -11.004  0.00  0.00    -0.029 C 
ATOM     20  H   LIG d   1       5.001  -2.666 -11.321  0.00  0.00     0.031 H 
ATOM     21  C   LIG d   1       4.787  -1.455  -9.624  0.00  0.00    -0.039 C 
ATOM     22  C   LIG d   1       4.734  -0.006  -9.203  0.00  0.00     0.008 C 
ATOM     23  C   LIG d   1       4.705   1.033 -10.306  0.00  0.00    -0.042 C 
ATOM     24  C   LIG d   1       3.965   0.591 -11.553  0.00  0.00    -0.046 C 
ATOM     25  H   LIG d   1      -0.349  -5.852  -9.238  0.00  0.00     0.066 H 
ATOM     26  H   LIG d   1      -1.921  -3.022 -13.691  0.00  0.00     0.062 H 
ATOM     27  H   LIG d   1       0.364  -2.236 -13.788  0.00  0.00     0.062 H 
ATOM     28  H   LIG d   1       0.896  -3.625  -9.300  0.00  0.00     0.028 H 
ATOM     29  H   LIG d   1       1.575  -5.243  -9.380  0.00  0.00     0.028 H 
ATOM     30  H   LIG d   1       3.297  -3.460  -9.100  0.00  0.00     0.027 H 
ATOM     31  H   LIG d   1       3.578  -4.496 -10.493  0.00  0.00     0.027 H 
ATOM     32  H   LIG d   1       2.094  -1.929 -14.265  0.00  0.00     0.027 H 
ATOM     33  H   LIG d   1       1.785  -0.884 -12.876  0.00  0.00     0.027 H 
ATOM     34  H   LIG d   1       4.509  -1.777 -13.945  0.00  0.00     0.027 H 
ATOM     35  H   LIG d   1       3.823  -0.157 -13.981  0.00  0.00     0.027 H 
ATOM     36  H   LIG d   1       4.225  -2.045  -8.876  0.00  0.00     0.028 H 
ATOM     37  H   LIG d   1       5.830  -1.817  -9.516  0.00  0.00     0.028 H 
ATOM     38  H   LIG d   1       4.196   1.936  -9.912  0.00  0.00     0.027 H 
ATOM     39  H   LIG d   1       5.726   1.349 -10.555  0.00  0.00     0.027 H 
ATOM     40  H   LIG d   1       4.158   1.332 -12.350  0.00  0.00     0.027 H 
ATOM     41  H   LIG d   1       2.892   0.573 -11.396  0.00  0.00     0.027 H 
ENDROOT
BRANCH  22  42
ATOM     42  C   LIG d   1       6.011   0.264  -8.361  0.00  0.00    -0.054 C 
ATOM     43  H   LIG d   1       5.988   1.285  -7.980  0.00  0.00     0.024 H 
ATOM     44  H   LIG d   1       6.051  -0.435  -7.526  0.00  0.00     0.024 H 
ATOM     45  H   LIG d   1       6.894   0.130  -8.987  0.00  0.00     0.024 H 
ENDBRANCH  22  42
BRANCH  22  46
ATOM     46  C   LIG d   1       3.567   0.222  -8.259  0.00  0.00     0.048 C 
ATOM     47  O   LIG d   1       2.914   1.250  -8.335  0.00  0.00    -0.549 OA
ATOM     48  O   LIG d   1       3.283  -0.620  -7.426  0.00  0.00    -0.549 OA
ENDBRANCH  22  46
BRANCH  14  49
ATOM     49  C   LIG d   1       1.880  -1.515 -10.393  0.00  0.00    -0.059 C 
ATOM     50  H   LIG d   1       0.975  -1.550 -10.999  0.00  0.00     0.024 H 
ATOM     51  H   LIG d   1       1.642  -1.807  -9.369  0.00  0.00     0.024 H 
ATOM     52  H   LIG d   1       2.281  -0.501 -10.397  0.00  0.00     0.024 H 
ENDBRANCH  14  49
BRANCH  18  53
ATOM     53  C   LIG d   1       6.006  -0.606 -12.291  0.00  0.00    -0.059 C 
ATOM     54  H   LIG d   1       6.242   0.440 -12.485  0.00  0.00     0.024 H 
ATOM     55  H   LIG d   1       6.554  -0.946 -11.413  0.00  0.00     0.024 H 
ATOM     56  H   LIG d   1       6.292  -1.208 -13.153  0.00  0.00     0.024 H 
ENDBRANCH  18  53
BRANCH  15  57
ATOM     57  C   LIG d   1       3.420  -3.907 -13.006  0.00  0.00    -0.055 C 
ATOM     58  H   LIG d   1       3.213  -3.992 -14.072  0.00  0.00     0.024 H 
ATOM     59  H   LIG d   1       4.451  -3.582 -12.862  0.00  0.00     0.024 H 
ATOM     60  H   LIG d   1       3.276  -4.877 -12.529  0.00  0.00     0.024 H 
ENDBRANCH  15  57
BRANCH  11  61
ATOM     61  C   LIG d   1       1.318  -5.891 -11.797  0.00  0.00    -0.052 C 
ATOM     62  H   LIG d   1       0.571  -6.664 -11.618  0.00  0.00     0.024 H 
ATOM     63  H   LIG d   1       1.500  -5.802 -12.868  0.00  0.00     0.024 H 
ATOM     64  H   LIG d   1       2.247  -6.159 -11.293  0.00  0.00     0.024 H 
ENDBRANCH  11  61
BRANCH   1  65
ATOM     65  C   LIG d   1      -4.021  -4.188 -12.799  0.00  0.00    -0.036 C 
ATOM     66  H   LIG d   1      -4.997  -4.574 -12.508  0.00  0.00     0.028 H 
ATOM     67  H   LIG d   1      -4.065  -3.101 -12.865  0.00  0.00     0.028 H 
ATOM     68  H   LIG d   1      -3.741  -4.599 -13.769  0.00  0.00     0.028 H 
ENDBRANCH   1  65
BRANCH   2  69
ATOM     69  O   LIG d   1      -4.720  -5.545 -10.488  0.00  0.00    -0.503 OA
ATOM     70  H   LIG d   1      -5.188  -5.771 -11.303  0.00  0.00     0.292 HD
ENDBRANCH   2  69
TORSDOF 8
ENDMDL
