MODEL 1
REMARK VINA RESULT:      -6.6      0.000      0.000
REMARK  4 active torsions:
REMARK  status: ('A' for Active; 'I' for Inactive)
REMARK    1  A    between atoms: C_1  and  C_2 
REMARK    2  A    between atoms: C_2  and  C_3 
REMARK    3  A    between atoms: C_3  and  C_5 
REMARK    4  A    between atoms: C_3  and  C_11 
ROOT
ATOM      1  C   LIG d   1       4.071   0.728  -8.433  0.00  0.00     0.015 C 
ATOM      2  H   LIG d   1       3.611   1.680  -8.169  0.00  0.00     0.040 H 
ENDROOT
BRANCH   1   3
ATOM      3  C   LIG d   1       5.468   0.977  -9.007  0.00  0.00    -0.045 C 
ATOM      4  H   LIG d   1       5.544   0.515  -9.991  0.00  0.00     0.027 H 
ATOM      5  H   LIG d   1       6.215   0.543  -8.343  0.00  0.00     0.027 H 
BRANCH   3   6
ATOM      6  C   LIG d   1       5.707   2.482  -9.129  0.00  0.00    -0.064 C 
ATOM      7  H   LIG d   1       5.504   2.962  -8.171  0.00  0.00     0.023 H 
ATOM      8  H   LIG d   1       6.744   2.664  -9.413  0.00  0.00     0.023 H 
ATOM      9  H   LIG d   1       5.045   2.895  -9.890  0.00  0.00     0.023 H 
ENDBRANCH   3   6
ENDBRANCH   1   3
BRANCH   1  10
ATOM     10  C   LIG d   1       3.222   0.028  -9.463  0.00  0.00    -0.040 A 
ATOM     11  C   LIG d   1       1.999  -0.505  -9.103  0.00  0.00    -0.058 A 
ATOM     12  C   LIG d   1       1.218  -1.144 -10.049  0.00  0.00    -0.061 A 
ATOM     13  H   LIG d   1       1.652  -0.421  -8.084  0.00  0.00     0.062 H 
ATOM     14  C   LIG d   1       1.665  -1.256 -11.352  0.00  0.00    -0.062 A 
ATOM     15  H   LIG d   1       0.260  -1.556  -9.768  0.00  0.00     0.062 H 
ATOM     16  C   LIG d   1       2.891  -0.727 -11.711  0.00  0.00    -0.061 A 
ATOM     17  H   LIG d   1       1.057  -1.757 -12.091  0.00  0.00     0.062 H 
ATOM     18  C   LIG d   1       3.670  -0.085 -10.766  0.00  0.00    -0.058 A 
ATOM     19  H   LIG d   1       3.241  -0.815 -12.729  0.00  0.00     0.062 H 
ATOM     20  H   LIG d   1       4.627   0.328 -11.046  0.00  0.00     0.062 H 
ENDBRANCH   1  10
BRANCH   1  21
ATOM     21  C   LIG d   1       4.180  -0.136  -7.202  0.00  0.00     0.037 A 
ATOM     22  C   LIG d   1       4.948  -1.309  -7.232  0.00  0.00     0.341 A 
ATOM     23  O   LIG d   1       5.073  -2.101  -6.154  0.00  0.00    -0.422 OA
ATOM     24  O   LIG d   1       5.523  -1.616  -8.262  0.00  0.00    -0.245 OA
ATOM     25  C   LIG d   1       4.456  -1.815  -4.988  0.00  0.00     0.139 A 
ATOM     26  C   LIG d   1       3.664  -0.660  -4.882  0.00  0.00     0.010 A 
ATOM     27  C   LIG d   1       4.595  -2.651  -3.888  0.00  0.00    -0.019 A 
ATOM     28  C   LIG d   1       3.525   0.217  -6.055  0.00  0.00    -0.087 A 
ATOM     29  C   LIG d   1       3.023  -0.361  -3.678  0.00  0.00    -0.052 A 
ATOM     30  O   LIG d   1       2.773   1.340  -6.000  0.00  0.00    -0.873 OA
ATOM     31  C   LIG d   1       3.173  -1.203  -2.599  0.00  0.00    -0.061 A 
ATOM     32  H   LIG d   1       2.413   0.527  -3.594  0.00  0.00     0.062 H 
ATOM     33  C   LIG d   1       3.956  -2.344  -2.704  0.00  0.00    -0.058 A 
ATOM     34  H   LIG d   1       2.679  -0.975  -1.666  0.00  0.00     0.062 H 
ATOM     35  H   LIG d   1       4.066  -2.997  -1.852  0.00  0.00     0.062 H 
ATOM     36  H   LIG d   1       5.202  -3.542  -3.958  0.00  0.00     0.065 H 
ENDBRANCH   1  21
TORSDOF 4
ENDMDL
MODEL 2
REMARK VINA RESULT:      -6.5      1.163      2.933
REMARK  4 active torsions:
REMARK  status: ('A' for Active; 'I' for Inactive)
REMARK    1  A    between atoms: C_1  and  C_2 
REMARK    2  A    between atoms: C_2  and  C_3 
REMARK    3  A    between atoms: C_3  and  C_5 
REMARK    4  A    between atoms: C_3  and  C_11 
ROOT
ATOM      1  C   LIG d   1       3.641  -0.683  -8.307  0.00  0.00     0.015 C 
ATOM      2  H   LIG d   1       3.962  -1.491  -8.964  0.00  0.00     0.040 H 
ENDROOT
BRANCH   1   3
ATOM      3  C   LIG d   1       2.147  -0.418  -8.513  0.00  0.00    -0.045 C 
ATOM      4  H   LIG d   1       1.981   0.653  -8.633  0.00  0.00     0.027 H 
ATOM      5  H   LIG d   1       1.593  -0.777  -7.647  0.00  0.00     0.027 H 
BRANCH   3   6
ATOM      6  C   LIG d   1       1.668  -1.153  -9.766  0.00  0.00    -0.064 C 
ATOM      7  H   LIG d   1       2.516  -1.334 -10.428  0.00  0.00     0.023 H 
ATOM      8  H   LIG d   1       1.222  -2.106  -9.480  0.00  0.00     0.023 H 
ATOM      9  H   LIG d   1       0.926  -0.545 -10.282  0.00  0.00     0.023 H 
ENDBRANCH   3   6
ENDBRANCH   1   3
BRANCH   1  10
ATOM     10  C   LIG d   1       4.421   0.566  -8.627  0.00  0.00    -0.040 A 
ATOM     11  C   LIG d   1       5.798   0.569  -8.513  0.00  0.00    -0.058 A 
ATOM     12  C   LIG d   1       6.515   1.713  -8.810  0.00  0.00    -0.061 A 
ATOM     13  H   LIG d   1       6.315  -0.324  -8.192  0.00  0.00     0.062 H 
ATOM     14  C   LIG d   1       5.853   2.857  -9.215  0.00  0.00    -0.062 A 
ATOM     15  H   LIG d   1       7.591   1.713  -8.725  0.00  0.00     0.062 H 
ATOM     16  C   LIG d   1       4.475   2.856  -9.325  0.00  0.00    -0.061 A 
ATOM     17  H   LIG d   1       6.412   3.752  -9.445  0.00  0.00     0.062 H 
ATOM     18  C   LIG d   1       3.759   1.710  -9.030  0.00  0.00    -0.058 A 
ATOM     19  H   LIG d   1       3.957   3.750  -9.640  0.00  0.00     0.062 H 
ATOM     20  H   LIG d   1       2.682   1.710  -9.116  0.00  0.00     0.062 H 
ENDBRANCH   1  10
BRANCH   1  21
ATOM     21  C   LIG d   1       3.888  -1.074  -6.872  0.00  0.00     0.037 A 
ATOM     22  C   LIG d   1       4.468  -2.315  -6.570  0.00  0.00     0.341 A 
ATOM     23  O   LIG d   1       4.708  -2.696  -5.305  0.00  0.00    -0.422 OA
ATOM     24  O   LIG d   1       4.768  -3.066  -7.482  0.00  0.00    -0.245 OA
ATOM     25  C   LIG d   1       4.393  -1.908  -4.255  0.00  0.00     0.139 A 
ATOM     26  C   LIG d   1       3.803  -0.653  -4.476  0.00  0.00     0.010 A 
ATOM     27  C   LIG d   1       4.645  -2.324  -2.954  0.00  0.00    -0.019 A 
ATOM     28  C   LIG d   1       3.541  -0.223  -5.858  0.00  0.00    -0.087 A 
ATOM     29  C   LIG d   1       3.474   0.165  -3.393  0.00  0.00    -0.052 A 
ATOM     30  O   LIG d   1       2.975   0.977  -6.120  0.00  0.00    -0.873 OA
ATOM     31  C   LIG d   1       3.733  -0.266  -2.111  0.00  0.00    -0.061 A 
ATOM     32  H   LIG d   1       3.021   1.131  -3.560  0.00  0.00     0.062 H 
ATOM     33  C   LIG d   1       4.315  -1.507  -1.893  0.00  0.00    -0.058 A 
ATOM     34  H   LIG d   1       3.480   0.363  -1.270  0.00  0.00     0.062 H 
ATOM     35  H   LIG d   1       4.512  -1.835  -0.884  0.00  0.00     0.062 H 
ATOM     36  H   LIG d   1       5.098  -3.288  -2.773  0.00  0.00     0.065 H 
ENDBRANCH   1  21
TORSDOF 4
ENDMDL
MODEL 3
REMARK VINA RESULT:      -6.4      1.830      5.797
REMARK  4 active torsions:
REMARK  status: ('A' for Active; 'I' for Inactive)
REMARK    1  A    between atoms: C_1  and  C_2 
REMARK    2  A    between atoms: C_2  and  C_3 
REMARK    3  A    between atoms: C_3  and  C_5 
REMARK    4  A    between atoms: C_3  and  C_11 
ROOT
ATOM      1  C   LIG d   1       6.122  -2.152  -5.517  0.00  0.00     0.015 C 
ATOM      2  H   LIG d   1       6.551  -3.148  -5.405  0.00  0.00     0.040 H 
ENDROOT
BRANCH   1   3
ATOM      3  C   LIG d   1       7.229  -1.155  -5.864  0.00  0.00    -0.045 C 
ATOM      4  H   LIG d   1       7.781  -0.896  -4.960  0.00  0.00     0.027 H 
ATOM      5  H   LIG d   1       6.786  -0.255  -6.290  0.00  0.00     0.027 H 
BRANCH   3   6
ATOM      6  C   LIG d   1       8.182  -1.785  -6.881  0.00  0.00    -0.064 C 
ATOM      7  H   LIG d   1       7.704  -1.807  -7.861  0.00  0.00     0.023 H 
ATOM      8  H   LIG d   1       9.097  -1.195  -6.937  0.00  0.00     0.023 H 
ATOM      9  H   LIG d   1       8.423  -2.801  -6.571  0.00  0.00     0.023 H 
ENDBRANCH   3   6
ENDBRANCH   1   3
BRANCH   1  10
ATOM     10  C   LIG d   1       5.461  -1.741  -4.227  0.00  0.00    -0.040 A 
ATOM     11  C   LIG d   1       5.853  -0.577  -3.591  0.00  0.00    -0.058 A 
ATOM     12  C   LIG d   1       5.245  -0.197  -2.409  0.00  0.00    -0.061 A 
ATOM     13  H   LIG d   1       6.632   0.036  -4.019  0.00  0.00     0.062 H 
ATOM     14  C   LIG d   1       4.251  -0.985  -1.858  0.00  0.00    -0.062 A 
ATOM     15  H   LIG d   1       5.548   0.714  -1.915  0.00  0.00     0.062 H 
ATOM     16  C   LIG d   1       3.863  -2.151  -2.491  0.00  0.00    -0.061 A 
ATOM     17  H   LIG d   1       3.778  -0.690  -0.934  0.00  0.00     0.062 H 
ATOM     18  C   LIG d   1       4.469  -2.529  -3.676  0.00  0.00    -0.058 A 
ATOM     19  H   LIG d   1       3.087  -2.767  -2.062  0.00  0.00     0.062 H 
ATOM     20  H   LIG d   1       4.166  -3.440  -4.170  0.00  0.00     0.062 H 
ENDBRANCH   1  10
BRANCH   1  21
ATOM     21  C   LIG d   1       5.097  -2.169  -6.622  0.00  0.00     0.037 A 
ATOM     22  C   LIG d   1       4.745  -3.379  -7.239  0.00  0.00     0.341 A 
ATOM     23  O   LIG d   1       3.833  -3.433  -8.223  0.00  0.00    -0.422 OA
ATOM     24  O   LIG d   1       5.278  -4.410  -6.867  0.00  0.00    -0.245 OA
ATOM     25  C   LIG d   1       3.213  -2.323  -8.678  0.00  0.00     0.139 A 
ATOM     26  C   LIG d   1       3.516  -1.073  -8.115  0.00  0.00     0.010 A 
ATOM     27  C   LIG d   1       2.277  -2.403  -9.701  0.00  0.00    -0.019 A 
ATOM     28  C   LIG d   1       4.510  -1.003  -7.033  0.00  0.00    -0.087 A 
ATOM     29  C   LIG d   1       2.879   0.077  -8.584  0.00  0.00    -0.052 A 
ATOM     30  O   LIG d   1       4.834   0.179  -6.460  0.00  0.00    -0.873 OA
ATOM     31  C   LIG d   1       1.954  -0.023  -9.598  0.00  0.00    -0.061 A 
ATOM     32  H   LIG d   1       3.110   1.040  -8.152  0.00  0.00     0.062 H 
ATOM     33  C   LIG d   1       1.654  -1.258 -10.155  0.00  0.00    -0.058 A 
ATOM     34  H   LIG d   1       1.458   0.865  -9.964  0.00  0.00     0.062 H 
ATOM     35  H   LIG d   1       0.928  -1.325 -10.950  0.00  0.00     0.062 H 
ATOM     36  H   LIG d   1       2.036  -3.359 -10.141  0.00  0.00     0.065 H 
ENDBRANCH   1  21
TORSDOF 4
ENDMDL
MODEL 4
REMARK VINA RESULT:      -6.4      2.107      6.112
REMARK  4 active torsions:
REMARK  status: ('A' for Active; 'I' for Inactive)
REMARK    1  A    between atoms: C_1  and  C_2 
REMARK    2  A    between atoms: C_2  and  C_3 
REMARK    3  A    between atoms: C_3  and  C_5 
REMARK    4  A    between atoms: C_3  and  C_11 
ROOT
ATOM      1  C   LIG d   1       5.736  -2.188  -4.014  0.00  0.00     0.015 C 
ATOM      2  H   LIG d   1       5.611  -3.088  -3.412  0.00  0.00     0.040 H 
ENDROOT
BRANCH   1   3
ATOM      3  C   LIG d   1       7.225  -1.853  -4.128  0.00  0.00    -0.045 C 
ATOM      4  H   LIG d   1       7.490  -1.115  -3.370  0.00  0.00     0.027 H 
ATOM      5  H   LIG d   1       7.430  -1.447  -5.118  0.00  0.00     0.027 H 
BRANCH   3   6
ATOM      6  C   LIG d   1       8.051  -3.122  -3.916  0.00  0.00    -0.064 C 
ATOM      7  H   LIG d   1       8.078  -3.698  -4.842  0.00  0.00     0.023 H 
ATOM      8  H   LIG d   1       9.067  -2.852  -3.627  0.00  0.00     0.023 H 
ATOM      9  H   LIG d   1       7.597  -3.723  -3.128  0.00  0.00     0.023 H 
ENDBRANCH   3   6
ENDBRANCH   1   3
BRANCH   1  10
ATOM     10  C   LIG d   1       5.011  -1.041  -3.360  0.00  0.00    -0.040 A 
ATOM     11  C   LIG d   1       5.728   0.016  -2.830  0.00  0.00    -0.058 A 
ATOM     12  C   LIG d   1       5.063   1.071  -2.232  0.00  0.00    -0.061 A 
ATOM     13  H   LIG d   1       6.807   0.019  -2.884  0.00  0.00     0.062 H 
ATOM     14  C   LIG d   1       3.683   1.065  -2.157  0.00  0.00    -0.062 A 
ATOM     15  H   LIG d   1       5.623   1.898  -1.822  0.00  0.00     0.062 H 
ATOM     16  C   LIG d   1       2.967   0.006  -2.683  0.00  0.00    -0.061 A 
ATOM     17  H   LIG d   1       3.163   1.888  -1.689  0.00  0.00     0.062 H 
ATOM     18  C   LIG d   1       3.632  -1.047  -3.284  0.00  0.00    -0.058 A 
ATOM     19  H   LIG d   1       1.888   0.001  -2.625  0.00  0.00     0.062 H 
ATOM     20  H   LIG d   1       3.072  -1.875  -3.694  0.00  0.00     0.062 H 
ENDBRANCH   1  10
BRANCH   1  21
ATOM     21  C   LIG d   1       5.167  -2.421  -5.391  0.00  0.00     0.037 A 
ATOM     22  C   LIG d   1       4.605  -3.664  -5.719  0.00  0.00     0.341 A 
ATOM     23  O   LIG d   1       4.084  -3.907  -6.934  0.00  0.00    -0.422 OA
ATOM     24  O   LIG d   1       4.584  -4.546  -4.878  0.00  0.00    -0.245 OA
ATOM     25  C   LIG d   1       4.085  -2.970  -7.906  0.00  0.00     0.139 A 
ATOM     26  C   LIG d   1       4.635  -1.703  -7.654  0.00  0.00     0.010 A 
ATOM     27  C   LIG d   1       3.545  -3.245  -9.156  0.00  0.00    -0.019 A 
ATOM     28  C   LIG d   1       5.203  -1.424  -6.327  0.00  0.00    -0.087 A 
ATOM     29  C   LIG d   1       4.638  -0.732  -8.658  0.00  0.00    -0.052 A 
ATOM     30  O   LIG d   1       5.744  -0.218  -6.039  0.00  0.00    -0.873 OA
ATOM     31  C   LIG d   1       4.099  -1.024  -9.890  0.00  0.00    -0.061 A 
ATOM     32  H   LIG d   1       5.061   0.244  -8.467  0.00  0.00     0.062 H 
ATOM     33  C   LIG d   1       3.555  -2.276 -10.138  0.00  0.00    -0.058 A 
ATOM     34  H   LIG d   1       4.099  -0.275 -10.669  0.00  0.00     0.062 H 
ATOM     35  H   LIG d   1       3.135  -2.495 -11.108  0.00  0.00     0.062 H 
ATOM     36  H   LIG d   1       3.119  -4.216  -9.359  0.00  0.00     0.065 H 
ENDBRANCH   1  21
TORSDOF 4
ENDMDL
MODEL 5
REMARK VINA RESULT:      -6.4      2.844      6.213
REMARK  4 active torsions:
REMARK  status: ('A' for Active; 'I' for Inactive)
REMARK    1  A    between atoms: C_1  and  C_2 
REMARK    2  A    between atoms: C_2  and  C_3 
REMARK    3  A    between atoms: C_3  and  C_5 
REMARK    4  A    between atoms: C_3  and  C_11 
ROOT
ATOM      1  C   LIG d   1       5.778  -2.336  -3.829  0.00  0.00     0.015 C 
ATOM      2  H   LIG d   1       5.545  -3.232  -3.254  0.00  0.00     0.040 H 
ENDROOT
BRANCH   1   3
ATOM      3  C   LIG d   1       7.278  -2.048  -3.741  0.00  0.00    -0.045 C 
ATOM      4  H   LIG d   1       7.513  -1.642  -2.756  0.00  0.00     0.027 H 
ATOM      5  H   LIG d   1       7.554  -1.324  -4.507  0.00  0.00     0.027 H 
BRANCH   3   6
ATOM      6  C   LIG d   1       8.059  -3.344  -3.959  0.00  0.00    -0.064 C 
ATOM      7  H   LIG d   1       7.905  -4.010  -3.109  0.00  0.00     0.023 H 
ATOM      8  H   LIG d   1       7.709  -3.832  -4.869  0.00  0.00     0.023 H 
ATOM      9  H   LIG d   1       9.121  -3.117  -4.055  0.00  0.00     0.023 H 
ENDBRANCH   3   6
ENDBRANCH   1   3
BRANCH   1  10
ATOM     10  C   LIG d   1       5.009  -1.166  -3.270  0.00  0.00    -0.040 A 
ATOM     11  C   LIG d   1       3.627  -1.172  -3.297  0.00  0.00    -0.058 A 
ATOM     12  C   LIG d   1       2.920  -0.102  -2.782  0.00  0.00    -0.061 A 
ATOM     13  H   LIG d   1       3.098  -2.015  -3.720  0.00  0.00     0.062 H 
ATOM     14  C   LIG d   1       3.596   0.979  -2.247  0.00  0.00    -0.062 A 
ATOM     15  H   LIG d   1       1.840  -0.109  -2.799  0.00  0.00     0.062 H 
ATOM     16  C   LIG d   1       4.979   0.988  -2.225  0.00  0.00    -0.061 A 
ATOM     17  H   LIG d   1       3.045   1.817  -1.846  0.00  0.00     0.062 H 
ATOM     18  C   LIG d   1       5.685  -0.086  -2.737  0.00  0.00    -0.058 A 
ATOM     19  H   LIG d   1       5.507   1.832  -1.807  0.00  0.00     0.062 H 
ATOM     20  H   LIG d   1       6.764  -0.078  -2.720  0.00  0.00     0.062 H 
ENDBRANCH   1  10
BRANCH   1  21
ATOM     21  C   LIG d   1       5.391  -2.548  -5.270  0.00  0.00     0.037 A 
ATOM     22  C   LIG d   1       5.710  -1.580  -6.235  0.00  0.00     0.341 A 
ATOM     23  O   LIG d   1       5.386  -1.736  -7.529  0.00  0.00    -0.422 OA
ATOM     24  O   LIG d   1       6.301  -0.571  -5.890  0.00  0.00    -0.245 OA
ATOM     25  C   LIG d   1       4.727  -2.830  -7.968  0.00  0.00     0.139 A 
ATOM     26  C   LIG d   1       4.369  -3.841  -7.061  0.00  0.00     0.010 A 
ATOM     27  C   LIG d   1       4.398  -2.968  -9.310  0.00  0.00    -0.019 A 
ATOM     28  C   LIG d   1       4.723  -3.682  -5.642  0.00  0.00    -0.087 A 
ATOM     29  C   LIG d   1       3.686  -4.972  -7.512  0.00  0.00    -0.052 A 
ATOM     30  O   LIG d   1       4.398  -4.629  -4.733  0.00  0.00    -0.873 OA
ATOM     31  C   LIG d   1       3.369  -5.090  -8.846  0.00  0.00    -0.061 A 
ATOM     32  H   LIG d   1       3.409  -5.751  -6.816  0.00  0.00     0.062 H 
ATOM     33  C   LIG d   1       3.723  -4.092  -9.741  0.00  0.00    -0.058 A 
ATOM     34  H   LIG d   1       2.840  -5.965  -9.198  0.00  0.00     0.062 H 
ATOM     35  H   LIG d   1       3.469  -4.194 -10.786  0.00  0.00     0.062 H 
ATOM     36  H   LIG d   1       4.669  -2.197 -10.016  0.00  0.00     0.065 H 
ENDBRANCH   1  21
TORSDOF 4
ENDMDL
MODEL 6
REMARK VINA RESULT:      -6.1      2.325      5.818
REMARK  4 active torsions:
REMARK  status: ('A' for Active; 'I' for Inactive)
REMARK    1  A    between atoms: C_1  and  C_2 
REMARK    2  A    between atoms: C_2  and  C_3 
REMARK    3  A    between atoms: C_3  and  C_5 
REMARK    4  A    between atoms: C_3  and  C_11 
ROOT
ATOM      1  C   LIG d   1       6.762  -1.202  -4.848  0.00  0.00     0.015 C 
ATOM      2  H   LIG d   1       7.466  -1.950  -4.484  0.00  0.00     0.040 H 
ENDROOT
BRANCH   1   3
ATOM      3  C   LIG d   1       7.534  -0.026  -5.452  0.00  0.00    -0.045 C 
ATOM      4  H   LIG d   1       7.773   0.693  -4.668  0.00  0.00     0.027 H 
ATOM      5  H   LIG d   1       6.922   0.456  -6.214  0.00  0.00     0.027 H 
BRANCH   3   6
ATOM      6  C   LIG d   1       8.828  -0.539  -6.087  0.00  0.00    -0.064 C 
ATOM      7  H   LIG d   1       9.680  -0.017  -5.648  0.00  0.00     0.023 H 
ATOM      8  H   LIG d   1       8.924  -1.609  -5.904  0.00  0.00     0.023 H 
ATOM      9  H   LIG d   1       8.803  -0.355  -7.161  0.00  0.00     0.023 H 
ENDBRANCH   3   6
ENDBRANCH   1   3
BRANCH   1  10
ATOM     10  C   LIG d   1       5.914  -0.710  -3.704  0.00  0.00    -0.040 A 
ATOM     11  C   LIG d   1       5.951   0.623  -3.340  0.00  0.00    -0.058 A 
ATOM     12  C   LIG d   1       5.170   1.076  -2.292  0.00  0.00    -0.061 A 
ATOM     13  H   LIG d   1       6.589   1.312  -3.874  0.00  0.00     0.062 H 
ATOM     14  C   LIG d   1       4.358   0.194  -1.605  0.00  0.00    -0.062 A 
ATOM     15  H   LIG d   1       5.196   2.118  -2.011  0.00  0.00     0.062 H 
ATOM     16  C   LIG d   1       4.324  -1.141  -1.966  0.00  0.00    -0.061 A 
ATOM     17  H   LIG d   1       3.750   0.546  -0.785  0.00  0.00     0.062 H 
ATOM     18  C   LIG d   1       5.103  -1.592  -3.016  0.00  0.00    -0.058 A 
ATOM     19  H   LIG d   1       3.691  -1.831  -1.429  0.00  0.00     0.062 H 
ATOM     20  H   LIG d   1       5.077  -2.634  -3.298  0.00  0.00     0.062 H 
ENDBRANCH   1  10
BRANCH   1  21
ATOM     21  C   LIG d   1       5.876  -1.815  -5.902  0.00  0.00     0.037 A 
ATOM     22  C   LIG d   1       5.937  -3.193  -6.158  0.00  0.00     0.341 A 
ATOM     23  O   LIG d   1       5.160  -3.777  -7.085  0.00  0.00    -0.422 OA
ATOM     24  O   LIG d   1       6.712  -3.882  -5.516  0.00  0.00    -0.245 OA
ATOM     25  C   LIG d   1       4.287  -3.064  -7.829  0.00  0.00     0.139 A 
ATOM     26  C   LIG d   1       4.173  -1.678  -7.635  0.00  0.00     0.010 A 
ATOM     27  C   LIG d   1       3.497  -3.687  -8.786  0.00  0.00    -0.019 A 
ATOM     28  C   LIG d   1       5.016  -1.030  -6.619  0.00  0.00    -0.087 A 
ATOM     29  C   LIG d   1       3.272  -0.938  -8.404  0.00  0.00    -0.052 A 
ATOM     30  O   LIG d   1       4.941   0.302  -6.397  0.00  0.00    -0.873 OA
ATOM     31  C   LIG d   1       2.498  -1.574  -9.347  0.00  0.00    -0.061 A 
ATOM     32  H   LIG d   1       3.182   0.129  -8.257  0.00  0.00     0.062 H 
ATOM     33  C   LIG d   1       2.611  -2.944  -9.538  0.00  0.00    -0.058 A 
ATOM     34  H   LIG d   1       1.800  -1.004  -9.944  0.00  0.00     0.062 H 
ATOM     35  H   LIG d   1       2.000  -3.433 -10.282  0.00  0.00     0.062 H 
ATOM     36  H   LIG d   1       3.576  -4.753  -8.943  0.00  0.00     0.065 H 
ENDBRANCH   1  21
TORSDOF 4
ENDMDL
MODEL 7
REMARK VINA RESULT:      -6.0      2.029      2.762
REMARK  4 active torsions:
REMARK  status: ('A' for Active; 'I' for Inactive)
REMARK    1  A    between atoms: C_1  and  C_2 
REMARK    2  A    between atoms: C_2  and  C_3 
REMARK    3  A    between atoms: C_3  and  C_5 
REMARK    4  A    between atoms: C_3  and  C_11 
ROOT
ATOM      1  C   LIG d   1       5.223  -2.041  -7.896  0.00  0.00     0.015 C 
ATOM      2  H   LIG d   1       5.869  -1.218  -8.202  0.00  0.00     0.040 H 
ENDROOT
BRANCH   1   3
ATOM      3  C   LIG d   1       5.904  -3.373  -8.217  0.00  0.00    -0.045 C 
ATOM      4  H   LIG d   1       5.586  -3.716  -9.201  0.00  0.00     0.027 H 
ATOM      5  H   LIG d   1       5.626  -4.112  -7.467  0.00  0.00     0.027 H 
BRANCH   3   6
ATOM      6  C   LIG d   1       7.422  -3.183  -8.208  0.00  0.00    -0.064 C 
ATOM      7  H   LIG d   1       7.725  -2.716  -7.270  0.00  0.00     0.023 H 
ATOM      8  H   LIG d   1       7.911  -4.153  -8.303  0.00  0.00     0.023 H 
ATOM      9  H   LIG d   1       7.713  -2.546  -9.042  0.00  0.00     0.023 H 
ENDBRANCH   3   6
ENDBRANCH   1   3
BRANCH   1  10
ATOM     10  C   LIG d   1       3.914  -1.955  -8.637  0.00  0.00    -0.040 A 
ATOM     11  C   LIG d   1       3.482  -3.023  -9.402  0.00  0.00    -0.058 A 
ATOM     12  C   LIG d   1       2.280  -2.947 -10.080  0.00  0.00    -0.061 A 
ATOM     13  H   LIG d   1       4.085  -3.917  -9.470  0.00  0.00     0.062 H 
ATOM     14  C   LIG d   1       1.513  -1.800  -9.999  0.00  0.00    -0.062 A 
ATOM     15  H   LIG d   1       1.942  -3.782 -10.675  0.00  0.00     0.062 H 
ATOM     16  C   LIG d   1       1.946  -0.730  -9.238  0.00  0.00    -0.061 A 
ATOM     17  H   LIG d   1       0.574  -1.739 -10.530  0.00  0.00     0.062 H 
ATOM     18  C   LIG d   1       3.147  -0.808  -8.557  0.00  0.00    -0.058 A 
ATOM     19  H   LIG d   1       1.347   0.166  -9.174  0.00  0.00     0.062 H 
ATOM     20  H   LIG d   1       3.486   0.027  -7.963  0.00  0.00     0.062 H 
ENDBRANCH   1  10
BRANCH   1  21
ATOM     21  C   LIG d   1       4.966  -1.953  -6.413  0.00  0.00     0.037 A 
ATOM     22  C   LIG d   1       4.458  -3.061  -5.719  0.00  0.00     0.341 A 
ATOM     23  O   LIG d   1       4.221  -3.021  -4.397  0.00  0.00    -0.422 OA
ATOM     24  O   LIG d   1       4.230  -4.090  -6.331  0.00  0.00    -0.245 OA
ATOM     25  C   LIG d   1       4.450  -1.908  -3.669  0.00  0.00     0.139 A 
ATOM     26  C   LIG d   1       4.954  -0.756  -4.293  0.00  0.00     0.010 A 
ATOM     27  C   LIG d   1       4.193  -1.888  -2.304  0.00  0.00    -0.019 A 
ATOM     28  C   LIG d   1       5.221  -0.789  -5.740  0.00  0.00    -0.087 A 
ATOM     29  C   LIG d   1       5.190   0.398  -3.543  0.00  0.00    -0.052 A 
ATOM     30  O   LIG d   1       5.706   0.296  -6.384  0.00  0.00    -0.873 OA
ATOM     31  C   LIG d   1       4.929   0.397  -2.192  0.00  0.00    -0.061 A 
ATOM     32  H   LIG d   1       5.578   1.286  -4.021  0.00  0.00     0.062 H 
ATOM     33  C   LIG d   1       4.432  -0.742  -1.575  0.00  0.00    -0.058 A 
ATOM     34  H   LIG d   1       5.111   1.288  -1.608  0.00  0.00     0.062 H 
ATOM     35  H   LIG d   1       4.229  -0.731  -0.515  0.00  0.00     0.062 H 
ATOM     36  H   LIG d   1       3.806  -2.769  -1.814  0.00  0.00     0.065 H 
ENDBRANCH   1  21
TORSDOF 4
ENDMDL
MODEL 8
REMARK VINA RESULT:      -6.0      0.702      2.146
REMARK  4 active torsions:
REMARK  status: ('A' for Active; 'I' for Inactive)
REMARK    1  A    between atoms: C_1  and  C_2 
REMARK    2  A    between atoms: C_2  and  C_3 
REMARK    3  A    between atoms: C_3  and  C_5 
REMARK    4  A    between atoms: C_3  and  C_11 
ROOT
ATOM      1  C   LIG d   1       4.131   0.833  -8.713  0.00  0.00     0.015 C 
ATOM      2  H   LIG d   1       3.943   1.897  -8.856  0.00  0.00     0.040 H 
ENDROOT
BRANCH   1   3
ATOM      3  C   LIG d   1       5.601   0.529  -9.011  0.00  0.00    -0.045 C 
ATOM      4  H   LIG d   1       5.698   0.174 -10.037  0.00  0.00     0.027 H 
ATOM      5  H   LIG d   1       5.958  -0.238  -8.325  0.00  0.00     0.027 H 
BRANCH   3   6
ATOM      6  C   LIG d   1       6.431   1.801  -8.830  0.00  0.00    -0.064 C 
ATOM      7  H   LIG d   1       6.488   2.050  -7.770  0.00  0.00     0.023 H 
ATOM      8  H   LIG d   1       7.436   1.639  -9.220  0.00  0.00     0.023 H 
ATOM      9  H   LIG d   1       5.960   2.622  -9.371  0.00  0.00     0.023 H 
ENDBRANCH   3   6
ENDBRANCH   1   3
BRANCH   1  10
ATOM     10  C   LIG d   1       3.254   0.038  -9.646  0.00  0.00    -0.040 A 
ATOM     11  C   LIG d   1       2.099  -0.555  -9.171  0.00  0.00    -0.058 A 
ATOM     12  C   LIG d   1       1.293  -1.282 -10.027  0.00  0.00    -0.061 A 
ATOM     13  H   LIG d   1       1.825  -0.448  -8.131  0.00  0.00     0.062 H 
ATOM     14  C   LIG d   1       1.646  -1.423 -11.356  0.00  0.00    -0.062 A 
ATOM     15  H   LIG d   1       0.388  -1.741  -9.657  0.00  0.00     0.062 H 
ATOM     16  C   LIG d   1       2.804  -0.835 -11.830  0.00  0.00    -0.061 A 
ATOM     17  H   LIG d   1       1.018  -1.993 -12.025  0.00  0.00     0.062 H 
ATOM     18  C   LIG d   1       3.609  -0.105 -10.974  0.00  0.00    -0.058 A 
ATOM     19  H   LIG d   1       3.081  -0.945 -12.867  0.00  0.00     0.062 H 
ATOM     20  H   LIG d   1       4.513   0.354 -11.344  0.00  0.00     0.062 H 
ENDBRANCH   1  10
BRANCH   1  21
ATOM     21  C   LIG d   1       3.819   0.455  -7.287  0.00  0.00     0.037 A 
ATOM     22  C   LIG d   1       2.931   1.234  -6.530  0.00  0.00     0.341 A 
ATOM     23  O   LIG d   1       2.625   0.926  -5.259  0.00  0.00    -0.422 OA
ATOM     24  O   LIG d   1       2.418   2.215  -7.042  0.00  0.00    -0.245 OA
ATOM     25  C   LIG d   1       3.165  -0.145  -4.639  0.00  0.00     0.139 A 
ATOM     26  C   LIG d   1       4.068  -0.970  -5.330  0.00  0.00     0.010 A 
ATOM     27  C   LIG d   1       2.839  -0.441  -3.322  0.00  0.00    -0.019 A 
ATOM     28  C   LIG d   1       4.406  -0.644  -6.724  0.00  0.00    -0.087 A 
ATOM     29  C   LIG d   1       4.630  -2.077  -4.691  0.00  0.00    -0.052 A 
ATOM     30  O   LIG d   1       5.270  -1.410  -7.428  0.00  0.00    -0.873 OA
ATOM     31  C   LIG d   1       4.293  -2.354  -3.386  0.00  0.00    -0.061 A 
ATOM     32  H   LIG d   1       5.325  -2.714  -5.220  0.00  0.00     0.062 H 
ATOM     33  C   LIG d   1       3.401  -1.539  -2.704  0.00  0.00    -0.058 A 
ATOM     34  H   LIG d   1       4.726  -3.210  -2.888  0.00  0.00     0.062 H 
ATOM     35  H   LIG d   1       3.145  -1.764  -1.680  0.00  0.00     0.062 H 
ATOM     36  H   LIG d   1       2.145   0.186  -2.782  0.00  0.00     0.065 H 
ENDBRANCH   1  21
TORSDOF 4
ENDMDL
MODEL 9
REMARK VINA RESULT:      -5.7      2.177      6.285
REMARK  4 active torsions:
REMARK  status: ('A' for Active; 'I' for Inactive)
REMARK    1  A    between atoms: C_1  and  C_2 
REMARK    2  A    between atoms: C_2  and  C_3 
REMARK    3  A    between atoms: C_3  and  C_5 
REMARK    4  A    between atoms: C_3  and  C_11 
ROOT
ATOM      1  C   LIG d   1       5.111  -1.290  -4.155  0.00  0.00     0.015 C 
ATOM      2  H   LIG d   1       5.002  -0.476  -3.438  0.00  0.00     0.040 H 
ENDROOT
BRANCH   1   3
ATOM      3  C   LIG d   1       4.530  -2.575  -3.561  0.00  0.00    -0.045 C 
ATOM      4  H   LIG d   1       5.340  -3.268  -3.330  0.00  0.00     0.027 H 
ATOM      5  H   LIG d   1       3.854  -3.034  -4.282  0.00  0.00     0.027 H 
BRANCH   3   6
ATOM      6  C   LIG d   1       3.761  -2.243  -2.281  0.00  0.00    -0.064 C 
ATOM      7  H   LIG d   1       2.722  -2.024  -2.528  0.00  0.00     0.023 H 
ATOM      8  H   LIG d   1       3.801  -3.094  -1.601  0.00  0.00     0.023 H 
ATOM      9  H   LIG d   1       4.212  -1.374  -1.802  0.00  0.00     0.023 H 
ENDBRANCH   3   6
ENDBRANCH   1   3
BRANCH   1  10
ATOM     10  C   LIG d   1       6.572  -1.495  -4.463  0.00  0.00    -0.040 A 
ATOM     11  C   LIG d   1       7.276  -0.524  -5.150  0.00  0.00    -0.058 A 
ATOM     12  C   LIG d   1       8.617  -0.710  -5.431  0.00  0.00    -0.061 A 
ATOM     13  H   LIG d   1       6.778   0.381  -5.467  0.00  0.00     0.062 H 
ATOM     14  C   LIG d   1       9.252  -1.871  -5.031  0.00  0.00    -0.062 A 
ATOM     15  H   LIG d   1       9.167   0.050  -5.964  0.00  0.00     0.062 H 
ATOM     16  C   LIG d   1       8.547  -2.845  -4.348  0.00  0.00    -0.061 A 
ATOM     17  H   LIG d   1      10.299  -2.018  -5.252  0.00  0.00     0.062 H 
ATOM     18  C   LIG d   1       7.206  -2.656  -4.064  0.00  0.00    -0.058 A 
ATOM     19  H   LIG d   1       9.042  -3.752  -4.035  0.00  0.00     0.062 H 
ATOM     20  H   LIG d   1       6.656  -3.417  -3.531  0.00  0.00     0.062 H 
ENDBRANCH   1  10
BRANCH   1  21
ATOM     21  C   LIG d   1       4.374  -0.945  -5.423  0.00  0.00     0.037 A 
ATOM     22  C   LIG d   1       3.632   0.242  -5.506  0.00  0.00     0.341 A 
ATOM     23  O   LIG d   1       2.967   0.586  -6.621  0.00  0.00    -0.422 OA
ATOM     24  O   LIG d   1       3.595   0.987  -4.541  0.00  0.00    -0.245 OA
ATOM     25  C   LIG d   1       2.968  -0.201  -7.719  0.00  0.00     0.139 A 
ATOM     26  C   LIG d   1       3.684  -1.409  -7.711  0.00  0.00     0.010 A 
ATOM     27  C   LIG d   1       2.269   0.172  -8.859  0.00  0.00    -0.019 A 
ATOM     28  C   LIG d   1       4.420  -1.792  -6.497  0.00  0.00    -0.087 A 
ATOM     29  C   LIG d   1       3.686  -2.226  -8.843  0.00  0.00    -0.052 A 
ATOM     30  O   LIG d   1       5.123  -2.946  -6.443  0.00  0.00    -0.873 OA
ATOM     31  C   LIG d   1       2.987  -1.839  -9.964  0.00  0.00    -0.061 A 
ATOM     32  H   LIG d   1       4.236  -3.156  -8.840  0.00  0.00     0.062 H 
ATOM     33  C   LIG d   1       2.280  -0.645  -9.971  0.00  0.00    -0.058 A 
ATOM     34  H   LIG d   1       2.986  -2.468 -10.842  0.00  0.00     0.062 H 
ATOM     35  H   LIG d   1       1.734  -0.351 -10.855  0.00  0.00     0.062 H 
ATOM     36  H   LIG d   1       1.716   1.099  -8.876  0.00  0.00     0.065 H 
ENDBRANCH   1  21
TORSDOF 4
ENDMDL
MODEL 10
REMARK VINA RESULT:      -5.7      4.886      6.707
REMARK  4 active torsions:
REMARK  status: ('A' for Active; 'I' for Inactive)
REMARK    1  A    between atoms: C_1  and  C_2 
REMARK    2  A    between atoms: C_2  and  C_3 
REMARK    3  A    between atoms: C_3  and  C_5 
REMARK    4  A    between atoms: C_3  and  C_11 
ROOT
ATOM      1  C   LIG d   1       9.077   0.602  -5.954  0.00  0.00     0.015 C 
ATOM      2  H   LIG d   1       9.243  -0.082  -6.786  0.00  0.00     0.040 H 
ENDROOT
BRANCH   1   3
ATOM      3  C   LIG d   1       8.643   1.967  -6.493  0.00  0.00    -0.045 C 
ATOM      4  H   LIG d   1       9.523   2.591  -6.654  0.00  0.00     0.027 H 
ATOM      5  H   LIG d   1       7.983   2.448  -5.772  0.00  0.00     0.027 H 
BRANCH   3   6
ATOM      6  C   LIG d   1       7.901   1.779  -7.817  0.00  0.00    -0.064 C 
ATOM      7  H   LIG d   1       7.870   0.718  -8.069  0.00  0.00     0.023 H 
ATOM      8  H   LIG d   1       6.884   2.159  -7.722  0.00  0.00     0.023 H 
ATOM      9  H   LIG d   1       8.420   2.324  -8.605  0.00  0.00     0.023 H 
ENDBRANCH   3   6
ENDBRANCH   1   3
BRANCH   1  10
ATOM     10  C   LIG d   1      10.354   0.756  -5.167  0.00  0.00    -0.040 A 
ATOM     11  C   LIG d   1      11.229  -0.308  -5.057  0.00  0.00    -0.058 A 
ATOM     12  C   LIG d   1      12.402  -0.166  -4.338  0.00  0.00    -0.061 A 
ATOM     13  H   LIG d   1      10.998  -1.249  -5.533  0.00  0.00     0.062 H 
ATOM     14  C   LIG d   1      12.695   1.037  -3.724  0.00  0.00    -0.062 A 
ATOM     15  H   LIG d   1      13.088  -0.996  -4.256  0.00  0.00     0.062 H 
ATOM     16  C   LIG d   1      11.817   2.100  -3.831  0.00  0.00    -0.061 A 
ATOM     17  H   LIG d   1      13.610   1.148  -3.161  0.00  0.00     0.062 H 
ATOM     18  C   LIG d   1      10.646   1.959  -4.552  0.00  0.00    -0.058 A 
ATOM     19  H   LIG d   1      12.045   3.040  -3.351  0.00  0.00     0.062 H 
ATOM     20  H   LIG d   1       9.960   2.789  -4.635  0.00  0.00     0.062 H 
ENDBRANCH   1  10
BRANCH   1  21
ATOM     21  C   LIG d   1       7.999   0.051  -5.056  0.00  0.00     0.037 A 
ATOM     22  C   LIG d   1       7.737  -1.327  -5.035  0.00  0.00     0.341 A 
ATOM     23  O   LIG d   1       6.788  -1.856  -4.245  0.00  0.00    -0.422 OA
ATOM     24  O   LIG d   1       8.394  -2.067  -5.749  0.00  0.00    -0.245 OA
ATOM     25  C   LIG d   1       6.028  -1.086  -3.438  0.00  0.00     0.139 A 
ATOM     26  C   LIG d   1       6.226   0.304  -3.408  0.00  0.00     0.010 A 
ATOM     27  C   LIG d   1       5.048  -1.654  -2.633  0.00  0.00    -0.019 A 
ATOM     28  C   LIG d   1       7.267   0.892  -4.265  0.00  0.00    -0.087 A 
ATOM     29  C   LIG d   1       5.440   1.103  -2.575  0.00  0.00    -0.052 A 
ATOM     30  O   LIG d   1       7.494   2.226  -4.270  0.00  0.00    -0.873 OA
ATOM     31  C   LIG d   1       4.475   0.521  -1.786  0.00  0.00    -0.061 A 
ATOM     32  H   LIG d   1       5.591   2.173  -2.550  0.00  0.00     0.062 H 
ATOM     33  C   LIG d   1       4.279  -0.852  -1.815  0.00  0.00    -0.058 A 
ATOM     34  H   LIG d   1       3.865   1.137  -1.140  0.00  0.00     0.062 H 
ATOM     35  H   LIG d   1       3.518  -1.298  -1.193  0.00  0.00     0.062 H 
ATOM     36  H   LIG d   1       4.888  -2.722  -2.648  0.00  0.00     0.065 H 
ENDBRANCH   1  21
TORSDOF 4
ENDMDL
