MODEL 1
REMARK VINA RESULT:      -5.9      0.000      0.000
REMARK  10 active torsions:
REMARK  status: ('A' for Active; 'I' for Inactive)
REMARK    1  A    between atoms: C_1  and  C_2 
REMARK    2  A    between atoms: C_6  and  O_28 
REMARK    3  A    between atoms: C_7  and  O_26 
REMARK    4  A    between atoms: N_12  and  C_13 
REMARK    5  A    between atoms: C_13  and  C_14 
REMARK       I    between atoms: C_14  and  N_16 
REMARK    6  A    between atoms: N_16  and  C_17 
REMARK    7  A    between atoms: C_22  and  C_24 
REMARK    8  A    between atoms: C_22  and  C_25 
REMARK    9  A    between atoms: O_26  and  C_27 
REMARK   10  A    between atoms: O_28  and  C_29 
ROOT
ATOM      1  C   LIG d   1       9.399   1.808  -5.252  0.00  0.00     0.104 C 
ATOM      2  H   LIG d   1       9.716   1.660  -6.284  0.00  0.00     0.059 H 
ATOM      3  H   LIG d   1      10.003   1.184  -4.593  0.00  0.00     0.059 H 
ENDROOT
BRANCH   1   4
ATOM      4  N   LIG d   1       9.570   3.216  -4.885  0.00  0.00    -0.287 N 
ATOM      5  C   LIG d   1       9.665   4.159  -5.859  0.00  0.00     0.110 A 
ATOM      6  N   LIG d   1       9.811   5.425  -5.614  0.00  0.00    -0.234 NA
ATOM      7  C   LIG d   1       9.887   5.900  -4.345  0.00  0.00     0.082 A 
ATOM      8  C   LIG d   1       9.804   4.990  -3.267  0.00  0.00     0.069 A 
ATOM      9  C   LIG d   1      10.044   7.261  -4.084  0.00  0.00     0.010 A 
ATOM     10  C   LIG d   1       9.879   5.451  -1.952  0.00  0.00    -0.002 A 
ATOM     11  C   LIG d   1       9.639   3.565  -3.579  0.00  0.00     0.262 A 
ATOM     12  C   LIG d   1      10.034   6.801  -1.712  0.00  0.00     0.162 A 
ATOM     13  H   LIG d   1       9.816   4.756  -1.128  0.00  0.00     0.066 H 
ATOM     14  C   LIG d   1      10.117   7.704  -2.777  0.00  0.00     0.164 A 
ATOM     15  O   LIG d   1       9.559   2.730  -2.696  0.00  0.00    -0.267 OA
ATOM     16  H   LIG d   1      10.110   7.966  -4.900  0.00  0.00     0.068 H 
BRANCH   5  17
ATOM     17  C   LIG d   1       9.588   3.713  -7.296  0.00  0.00    -0.006 C 
ATOM     18  H   LIG d   1       9.617   4.584  -7.949  0.00  0.00     0.031 H 
ATOM     19  H   LIG d   1      10.434   3.062  -7.520  0.00  0.00     0.031 H 
ATOM     20  H   LIG d   1       8.658   3.168  -7.458  0.00  0.00     0.031 H 
ENDBRANCH   5  17
BRANCH  12  21
ATOM     21  O   LIG d   1      10.107   7.256  -0.433  0.00  0.00    -0.491 OA
BRANCH  21  22
ATOM     22  C   LIG d   1      10.981   6.556   0.456  0.00  0.00     0.079 C 
ATOM     23  H   LIG d   1      10.423   5.778   0.976  0.00  0.00     0.066 H 
ATOM     24  H   LIG d   1      11.792   6.102  -0.115  0.00  0.00     0.066 H 
ATOM     25  H   LIG d   1      11.396   7.255   1.183  0.00  0.00     0.066 H 
ENDBRANCH  21  22
ENDBRANCH  12  21
BRANCH  14  26
ATOM     26  O   LIG d   1      10.269   9.029  -2.524  0.00  0.00    -0.491 OA
BRANCH  26  27
ATOM     27  C   LIG d   1      10.192   9.916  -3.642  0.00  0.00     0.079 C 
ATOM     28  H   LIG d   1      10.140  10.946  -3.287  0.00  0.00     0.066 H 
ATOM     29  H   LIG d   1      11.076   9.791  -4.267  0.00  0.00     0.066 H 
ATOM     30  H   LIG d   1       9.299   9.689  -4.225  0.00  0.00     0.066 H 
ENDBRANCH  26  27
ENDBRANCH  14  26
ENDBRANCH   1   4
BRANCH   1  31
ATOM     31  C   LIG d   1       7.947   1.427  -5.113  0.00  0.00     0.233 C 
ATOM     32  O   LIG d   1       7.213   1.471  -6.078  0.00  0.00    -0.274 OA
ATOM     33  N   LIG d   1       7.465   1.037  -3.917  0.00  0.00    -0.311 N 
ATOM     34  H   LIG d   1       8.051   1.002  -3.146  0.00  0.00     0.149 HD
BRANCH  33  35
ATOM     35  C   LIG d   1       6.053   0.667  -3.781  0.00  0.00     0.028 C 
ATOM     36  H   LIG d   1       5.505   0.990  -4.667  0.00  0.00     0.050 H 
ATOM     37  C   LIG d   1       5.934  -0.852  -3.631  0.00  0.00    -0.006 C 
ATOM     38  C   LIG d   1       4.464  -1.221  -3.409  0.00  0.00     0.066 C 
ATOM     39  H   LIG d   1       6.300  -1.338  -4.535  0.00  0.00     0.031 H 
ATOM     40  H   LIG d   1       6.523  -1.181  -2.775  0.00  0.00     0.031 H 
ATOM     41  O   LIG d   1       3.970  -0.536  -2.257  0.00  0.00    -0.374 OA
ATOM     42  C   LIG d   1       4.012   0.888  -2.362  0.00  0.00     0.050 C 
ATOM     43  C   LIG d   1       5.463   1.342  -2.540  0.00  0.00    -0.011 C 
ATOM     44  H   LIG d   1       3.601   1.333  -1.456  0.00  0.00     0.056 H 
ATOM     45  H   LIG d   1       3.423   1.207  -3.223  0.00  0.00     0.056 H 
ATOM     46  H   LIG d   1       6.043   1.060  -1.661  0.00  0.00     0.030 H 
ATOM     47  H   LIG d   1       5.493   2.425  -2.664  0.00  0.00     0.030 H 
BRANCH  38  48
ATOM     48  C   LIG d   1       3.647  -0.812  -4.637  0.00  0.00    -0.036 C 
ATOM     49  H   LIG d   1       4.041   0.119  -5.041  0.00  0.00     0.026 H 
ATOM     50  H   LIG d   1       3.712  -1.594  -5.393  0.00  0.00     0.026 H 
ATOM     51  H   LIG d   1       2.605  -0.672  -4.348  0.00  0.00     0.026 H 
ENDBRANCH  38  48
BRANCH  38  52
ATOM     52  C   LIG d   1       4.345  -2.732  -3.195  0.00  0.00    -0.036 C 
ATOM     53  H   LIG d   1       5.082  -3.054  -2.460  0.00  0.00     0.026 H 
ATOM     54  H   LIG d   1       3.344  -2.969  -2.834  0.00  0.00     0.026 H 
ATOM     55  H   LIG d   1       4.523  -3.248  -4.138  0.00  0.00     0.026 H 
ENDBRANCH  38  52
ENDBRANCH  33  35
ENDBRANCH   1  31
TORSDOF 10
ENDMDL
MODEL 2
REMARK VINA RESULT:      -5.6      3.053      4.163
REMARK  10 active torsions:
REMARK  status: ('A' for Active; 'I' for Inactive)
REMARK    1  A    between atoms: C_1  and  C_2 
REMARK    2  A    between atoms: C_6  and  O_28 
REMARK    3  A    between atoms: C_7  and  O_26 
REMARK    4  A    between atoms: N_12  and  C_13 
REMARK    5  A    between atoms: C_13  and  C_14 
REMARK       I    between atoms: C_14  and  N_16 
REMARK    6  A    between atoms: N_16  and  C_17 
REMARK    7  A    between atoms: C_22  and  C_24 
REMARK    8  A    between atoms: C_22  and  C_25 
REMARK    9  A    between atoms: O_26  and  C_27 
REMARK   10  A    between atoms: O_28  and  C_29 
ROOT
ATOM      1  C   LIG d   1       8.031   0.053  -7.165  0.00  0.00     0.104 C 
ATOM      2  H   LIG d   1       7.872  -0.646  -7.984  0.00  0.00     0.059 H 
ATOM      3  H   LIG d   1       8.862  -0.290  -6.549  0.00  0.00     0.059 H 
ENDROOT
BRANCH   1   4
ATOM      4  N   LIG d   1       8.341   1.379  -7.707  0.00  0.00    -0.287 N 
ATOM      5  C   LIG d   1       8.039   1.664  -9.001  0.00  0.00     0.110 A 
ATOM      6  N   LIG d   1       8.277   2.816  -9.551  0.00  0.00    -0.234 NA
ATOM      7  C   LIG d   1       8.858   3.829  -8.860  0.00  0.00     0.082 A 
ATOM      8  C   LIG d   1       9.212   3.620  -7.508  0.00  0.00     0.069 A 
ATOM      9  C   LIG d   1       9.112   5.065  -9.453  0.00  0.00     0.010 A 
ATOM     10  C   LIG d   1       9.811   4.644  -6.773  0.00  0.00    -0.002 A 
ATOM     11  C   LIG d   1       8.930   2.306  -6.916  0.00  0.00     0.262 A 
ATOM     12  C   LIG d   1      10.054   5.861  -7.375  0.00  0.00     0.162 A 
ATOM     13  H   LIG d   1      10.081   4.485  -5.739  0.00  0.00     0.066 H 
ATOM     14  C   LIG d   1       9.705   6.071  -8.714  0.00  0.00     0.164 A 
ATOM     15  O   LIG d   1       9.209   2.062  -5.756  0.00  0.00    -0.267 OA
ATOM     16  H   LIG d   1       8.847   5.236 -10.486  0.00  0.00     0.068 H 
BRANCH   5  17
ATOM     17  C   LIG d   1       7.390   0.592  -9.837  0.00  0.00    -0.006 C 
ATOM     18  H   LIG d   1       8.026   0.363 -10.692  0.00  0.00     0.031 H 
ATOM     19  H   LIG d   1       7.253  -0.306  -9.235  0.00  0.00     0.031 H 
ATOM     20  H   LIG d   1       6.421   0.945 -10.190  0.00  0.00     0.031 H 
ENDBRANCH   5  17
BRANCH  12  21
ATOM     21  O   LIG d   1      10.636   6.863  -6.664  0.00  0.00    -0.491 OA
BRANCH  21  22
ATOM     22  C   LIG d   1       9.782   7.649  -5.830  0.00  0.00     0.079 C 
ATOM     23  H   LIG d   1       9.614   7.127  -4.888  0.00  0.00     0.066 H 
ATOM     24  H   LIG d   1      10.253   8.612  -5.633  0.00  0.00     0.066 H 
ATOM     25  H   LIG d   1       8.828   7.807  -6.333  0.00  0.00     0.066 H 
ENDBRANCH  21  22
ENDBRANCH  12  21
BRANCH  14  26
ATOM     26  O   LIG d   1       9.951   7.274  -9.292  0.00  0.00    -0.491 OA
BRANCH  26  27
ATOM     27  C   LIG d   1      10.890   7.296 -10.369  0.00  0.00     0.079 C 
ATOM     28  H   LIG d   1      11.649   8.054 -10.175  0.00  0.00     0.066 H 
ATOM     29  H   LIG d   1      11.366   6.319 -10.456  0.00  0.00     0.066 H 
ATOM     30  H   LIG d   1      10.371   7.532 -11.299  0.00  0.00     0.066 H 
ENDBRANCH  26  27
ENDBRANCH  14  26
ENDBRANCH   1   4
BRANCH   1  31
ATOM     31  C   LIG d   1       6.782   0.135  -6.324  0.00  0.00     0.233 C 
ATOM     32  O   LIG d   1       5.697   0.227  -6.858  0.00  0.00    -0.274 OA
ATOM     33  N   LIG d   1       6.873   0.105  -4.980  0.00  0.00    -0.311 N 
ATOM     34  H   LIG d   1       7.740   0.031  -4.554  0.00  0.00     0.149 HD
BRANCH  33  35
ATOM     35  C   LIG d   1       5.659   0.184  -4.163  0.00  0.00     0.028 C 
ATOM     36  H   LIG d   1       4.841   0.584  -4.763  0.00  0.00     0.050 H 
ATOM     37  C   LIG d   1       5.289  -1.213  -3.658  0.00  0.00    -0.006 C 
ATOM     38  C   LIG d   1       4.067  -1.109  -2.739  0.00  0.00     0.066 C 
ATOM     39  H   LIG d   1       5.054  -1.857  -4.506  0.00  0.00     0.031 H 
ATOM     40  H   LIG d   1       6.126  -1.633  -3.101  0.00  0.00     0.031 H 
ATOM     41  O   LIG d   1       4.357  -0.217  -1.662  0.00  0.00    -0.374 OA
ATOM     42  C   LIG d   1       4.663   1.116  -2.073  0.00  0.00     0.050 C 
ATOM     43  C   LIG d   1       5.909   1.102  -2.963  0.00  0.00    -0.011 C 
ATOM     44  H   LIG d   1       4.850   1.734  -1.194  0.00  0.00     0.056 H 
ATOM     45  H   LIG d   1       3.821   1.526  -2.632  0.00  0.00     0.056 H 
ATOM     46  H   LIG d   1       6.759   0.731  -2.391  0.00  0.00     0.030 H 
ATOM     47  H   LIG d   1       6.118   2.113  -3.313  0.00  0.00     0.030 H 
BRANCH  38  48
ATOM     48  C   LIG d   1       2.876  -0.575  -3.538  0.00  0.00    -0.036 C 
ATOM     49  H   LIG d   1       2.851   0.512  -3.469  0.00  0.00     0.026 H 
ATOM     50  H   LIG d   1       2.977  -0.871  -4.582  0.00  0.00     0.026 H 
ATOM     51  H   LIG d   1       1.953  -0.987  -3.131  0.00  0.00     0.026 H 
ENDBRANCH  38  48
BRANCH  38  52
ATOM     52  C   LIG d   1       3.730  -2.492  -2.181  0.00  0.00    -0.036 C 
ATOM     53  H   LIG d   1       3.588  -3.192  -3.005  0.00  0.00     0.026 H 
ATOM     54  H   LIG d   1       4.547  -2.838  -1.548  0.00  0.00     0.026 H 
ATOM     55  H   LIG d   1       2.814  -2.434  -1.593  0.00  0.00     0.026 H 
ENDBRANCH  38  52
ENDBRANCH  33  35
ENDBRANCH   1  31
TORSDOF 10
ENDMDL
MODEL 3
REMARK VINA RESULT:      -5.4      6.568     10.631
REMARK  10 active torsions:
REMARK  status: ('A' for Active; 'I' for Inactive)
REMARK    1  A    between atoms: C_1  and  C_2 
REMARK    2  A    between atoms: C_6  and  O_28 
REMARK    3  A    between atoms: C_7  and  O_26 
REMARK    4  A    between atoms: N_12  and  C_13 
REMARK    5  A    between atoms: C_13  and  C_14 
REMARK       I    between atoms: C_14  and  N_16 
REMARK    6  A    between atoms: N_16  and  C_17 
REMARK    7  A    between atoms: C_22  and  C_24 
REMARK    8  A    between atoms: C_22  and  C_25 
REMARK    9  A    between atoms: O_26  and  C_27 
REMARK   10  A    between atoms: O_28  and  C_29 
ROOT
ATOM      1  C   LIG d   1       2.822   1.189  -8.127  0.00  0.00     0.104 C 
ATOM      2  H   LIG d   1       3.319   2.134  -7.909  0.00  0.00     0.059 H 
ATOM      3  H   LIG d   1       1.742   1.328  -8.089  0.00  0.00     0.059 H 
ENDROOT
BRANCH   1   4
ATOM      4  N   LIG d   1       3.209   0.731  -9.463  0.00  0.00    -0.287 N 
ATOM      5  C   LIG d   1       4.379   1.157 -10.009  0.00  0.00     0.110 A 
ATOM      6  N   LIG d   1       4.794   0.792 -11.184  0.00  0.00    -0.234 NA
ATOM      7  C   LIG d   1       4.070  -0.051 -11.963  0.00  0.00     0.082 A 
ATOM      8  C   LIG d   1       2.835  -0.540 -11.480  0.00  0.00     0.069 A 
ATOM      9  C   LIG d   1       4.517  -0.443 -13.225  0.00  0.00     0.010 A 
ATOM     10  C   LIG d   1       2.070  -1.408 -12.260  0.00  0.00    -0.002 A 
ATOM     11  C   LIG d   1       2.396  -0.108 -10.147  0.00  0.00     0.262 A 
ATOM     12  C   LIG d   1       2.528  -1.786 -13.505  0.00  0.00     0.162 A 
ATOM     13  H   LIG d   1       1.126  -1.782 -11.891  0.00  0.00     0.066 H 
ATOM     14  C   LIG d   1       3.749  -1.303 -13.987  0.00  0.00     0.164 A 
ATOM     15  O   LIG d   1       1.343  -0.493  -9.672  0.00  0.00    -0.267 OA
ATOM     16  H   LIG d   1       5.458  -0.075 -13.605  0.00  0.00     0.068 H 
BRANCH   5  17
ATOM     17  C   LIG d   1       5.243   2.095  -9.206  0.00  0.00    -0.006 C 
ATOM     18  H   LIG d   1       5.012   1.986  -8.147  0.00  0.00     0.031 H 
ATOM     19  H   LIG d   1       6.293   1.857  -9.375  0.00  0.00     0.031 H 
ATOM     20  H   LIG d   1       5.049   3.122  -9.516  0.00  0.00     0.031 H 
ENDBRANCH   5  17
BRANCH  12  21
ATOM     21  O   LIG d   1       1.787  -2.632 -14.270  0.00  0.00    -0.491 OA
BRANCH  21  22
ATOM     22  C   LIG d   1       1.230  -3.776 -13.619  0.00  0.00     0.079 C 
ATOM     23  H   LIG d   1       1.246  -3.623 -12.540  0.00  0.00     0.066 H 
ATOM     24  H   LIG d   1       0.201  -3.918 -13.951  0.00  0.00     0.066 H 
ATOM     25  H   LIG d   1       1.818  -4.659 -13.870  0.00  0.00     0.066 H 
ENDBRANCH  21  22
ENDBRANCH  12  21
BRANCH  14  26
ATOM     26  O   LIG d   1       4.186  -1.684 -15.215  0.00  0.00    -0.491 OA
BRANCH  26  27
ATOM     27  C   LIG d   1       5.422  -1.127 -15.665  0.00  0.00     0.079 C 
ATOM     28  H   LIG d   1       5.426  -1.083 -16.754  0.00  0.00     0.066 H 
ATOM     29  H   LIG d   1       5.536  -0.121 -15.261  0.00  0.00     0.066 H 
ATOM     30  H   LIG d   1       6.248  -1.752 -15.324  0.00  0.00     0.066 H 
ENDBRANCH  26  27
ENDBRANCH  14  26
ENDBRANCH   1   4
BRANCH   1  31
ATOM     31  C   LIG d   1       3.233   0.159  -7.105  0.00  0.00     0.233 C 
ATOM     32  O   LIG d   1       3.601  -0.939  -7.465  0.00  0.00    -0.274 OA
ATOM     33  N   LIG d   1       3.191   0.459  -5.793  0.00  0.00    -0.311 N 
ATOM     34  H   LIG d   1       2.897   1.337  -5.505  0.00  0.00     0.149 HD
BRANCH  33  35
ATOM     35  C   LIG d   1       3.590  -0.542  -4.799  0.00  0.00     0.028 C 
ATOM     36  H   LIG d   1       3.252  -1.528  -5.120  0.00  0.00     0.050 H 
ATOM     37  C   LIG d   1       5.115  -0.544  -4.658  0.00  0.00    -0.006 C 
ATOM     38  C   LIG d   1       5.517  -1.534  -3.561  0.00  0.00     0.066 C 
ATOM     39  H   LIG d   1       5.568  -0.842  -5.603  0.00  0.00     0.031 H 
ATOM     40  H   LIG d   1       5.457   0.455  -4.387  0.00  0.00     0.031 H 
ATOM     41  O   LIG d   1       4.872  -1.177  -2.337  0.00  0.00    -0.374 OA
ATOM     42  C   LIG d   1       3.446  -1.205  -2.398  0.00  0.00     0.050 C 
ATOM     43  C   LIG d   1       2.961  -0.200  -3.446  0.00  0.00    -0.011 C 
ATOM     44  H   LIG d   1       3.034  -0.940  -1.423  0.00  0.00     0.056 H 
ATOM     45  H   LIG d   1       3.113  -2.206  -2.673  0.00  0.00     0.056 H 
ATOM     46  H   LIG d   1       3.257   0.806  -3.150  0.00  0.00     0.030 H 
ATOM     47  H   LIG d   1       1.875  -0.251  -3.525  0.00  0.00     0.030 H 
BRANCH  38  48
ATOM     48  C   LIG d   1       5.088  -2.945  -3.970  0.00  0.00    -0.036 C 
ATOM     49  H   LIG d   1       5.971  -3.568  -4.108  0.00  0.00     0.026 H 
ATOM     50  H   LIG d   1       4.459  -3.374  -3.189  0.00  0.00     0.026 H 
ATOM     51  H   LIG d   1       4.526  -2.898  -4.903  0.00  0.00     0.026 H 
ENDBRANCH  38  48
BRANCH  38  52
ATOM     52  C   LIG d   1       7.034  -1.496  -3.370  0.00  0.00    -0.036 C 
ATOM     53  H   LIG d   1       7.524  -1.823  -4.287  0.00  0.00     0.026 H 
ATOM     54  H   LIG d   1       7.345  -0.478  -3.134  0.00  0.00     0.026 H 
ATOM     55  H   LIG d   1       7.315  -2.160  -2.552  0.00  0.00     0.026 H 
ENDBRANCH  38  52
ENDBRANCH  33  35
ENDBRANCH   1  31
TORSDOF 10
ENDMDL
MODEL 4
REMARK VINA RESULT:      -5.4      5.904      8.284
REMARK  10 active torsions:
REMARK  status: ('A' for Active; 'I' for Inactive)
REMARK    1  A    between atoms: C_1  and  C_2 
REMARK    2  A    between atoms: C_6  and  O_28 
REMARK    3  A    between atoms: C_7  and  O_26 
REMARK    4  A    between atoms: N_12  and  C_13 
REMARK    5  A    between atoms: C_13  and  C_14 
REMARK       I    between atoms: C_14  and  N_16 
REMARK    6  A    between atoms: N_16  and  C_17 
REMARK    7  A    between atoms: C_22  and  C_24 
REMARK    8  A    between atoms: C_22  and  C_25 
REMARK    9  A    between atoms: O_26  and  C_27 
REMARK   10  A    between atoms: O_28  and  C_29 
ROOT
ATOM      1  C   LIG d   1       9.663   6.837  -1.977  0.00  0.00     0.104 C 
ATOM      2  H   LIG d   1       9.870   5.778  -1.829  0.00  0.00     0.059 H 
ATOM      3  H   LIG d   1       8.586   7.005  -1.947  0.00  0.00     0.059 H 
ENDROOT
BRANCH   1   4
ATOM      4  N   LIG d   1      10.308   7.615  -0.917  0.00  0.00    -0.287 N 
ATOM      5  C   LIG d   1      11.130   6.993  -0.031  0.00  0.00     0.110 A 
ATOM      6  N   LIG d   1      11.742   7.614   0.931  0.00  0.00    -0.234 NA
ATOM      7  C   LIG d   1      11.596   8.949   1.123  0.00  0.00     0.082 A 
ATOM      8  C   LIG d   1      10.755   9.678   0.252  0.00  0.00     0.069 A 
ATOM      9  C   LIG d   1      12.255   9.615   2.156  0.00  0.00     0.010 A 
ATOM     10  C   LIG d   1      10.587  11.052   0.425  0.00  0.00    -0.002 A 
ATOM     11  C   LIG d   1      10.078   8.946  -0.826  0.00  0.00     0.262 A 
ATOM     12  C   LIG d   1      11.247  11.694   1.452  0.00  0.00     0.162 A 
ATOM     13  H   LIG d   1       9.944  11.610  -0.240  0.00  0.00     0.066 H 
ATOM     14  C   LIG d   1      12.080  10.976   2.317  0.00  0.00     0.164 A 
ATOM     15  O   LIG d   1       9.341   9.515  -1.611  0.00  0.00    -0.267 OA
ATOM     16  H   LIG d   1      12.900   9.068   2.829  0.00  0.00     0.068 H 
BRANCH   5  17
ATOM     17  C   LIG d   1      11.346   5.509  -0.176  0.00  0.00    -0.006 C 
ATOM     18  H   LIG d   1      11.893   5.309  -1.096  0.00  0.00     0.031 H 
ATOM     19  H   LIG d   1      11.919   5.140   0.675  0.00  0.00     0.031 H 
ATOM     20  H   LIG d   1      10.381   5.003  -0.210  0.00  0.00     0.031 H 
ENDBRANCH   5  17
BRANCH  12  21
ATOM     21  O   LIG d   1      11.087  13.033   1.627  0.00  0.00    -0.491 OA
BRANCH  21  22
ATOM     22  C   LIG d   1      10.676  13.791   0.487  0.00  0.00     0.079 C 
ATOM     23  H   LIG d   1      11.452  13.748  -0.277  0.00  0.00     0.066 H 
ATOM     24  H   LIG d   1       9.750  13.374   0.088  0.00  0.00     0.066 H 
ATOM     25  H   LIG d   1      10.510  14.828   0.780  0.00  0.00     0.066 H 
ENDBRANCH  21  22
ENDBRANCH  12  21
BRANCH  14  26
ATOM     26  O   LIG d   1      12.722  11.622   3.323  0.00  0.00    -0.491 OA
BRANCH  26  27
ATOM     27  C   LIG d   1      12.958  10.882   4.523  0.00  0.00     0.079 C 
ATOM     28  H   LIG d   1      13.964  11.089   4.887  0.00  0.00     0.066 H 
ATOM     29  H   LIG d   1      12.230  11.177   5.280  0.00  0.00     0.066 H 
ATOM     30  H   LIG d   1      12.857   9.816   4.319  0.00  0.00     0.066 H 
ENDBRANCH  26  27
ENDBRANCH  14  26
ENDBRANCH   1   4
BRANCH   1  31
ATOM     31  C   LIG d   1      10.201   7.271  -3.317  0.00  0.00     0.233 C 
ATOM     32  O   LIG d   1      11.341   7.000  -3.629  0.00  0.00    -0.274 OA
ATOM     33  N   LIG d   1       9.416   7.961  -4.166  0.00  0.00    -0.311 N 
ATOM     34  H   LIG d   1       8.505   8.179  -3.917  0.00  0.00     0.149 HD
BRANCH  33  35
ATOM     35  C   LIG d   1       9.939   8.384  -5.468  0.00  0.00     0.028 C 
ATOM     36  H   LIG d   1      11.025   8.288  -5.473  0.00  0.00     0.050 H 
ATOM     37  C   LIG d   1       9.342   7.504  -6.571  0.00  0.00    -0.006 C 
ATOM     38  C   LIG d   1       9.831   8.005  -7.933  0.00  0.00     0.066 C 
ATOM     39  H   LIG d   1       9.660   6.472  -6.425  0.00  0.00     0.031 H 
ATOM     40  H   LIG d   1       8.254   7.561  -6.533  0.00  0.00     0.031 H 
ATOM     41  O   LIG d   1       9.466   9.376  -8.096  0.00  0.00    -0.374 OA
ATOM     42  C   LIG d   1      10.035  10.252  -7.121  0.00  0.00     0.050 C 
ATOM     43  C   LIG d   1       9.553   9.843  -5.726  0.00  0.00    -0.011 C 
ATOM     44  H   LIG d   1       9.725  11.277  -7.327  0.00  0.00     0.056 H 
ATOM     45  H   LIG d   1      11.122  10.185  -7.164  0.00  0.00     0.056 H 
ATOM     46  H   LIG d   1       8.470   9.949  -5.671  0.00  0.00     0.030 H 
ATOM     47  H   LIG d   1      10.020  10.483  -4.978  0.00  0.00     0.030 H 
BRANCH  38  48
ATOM     48  C   LIG d   1      11.354   7.870  -8.007  0.00  0.00    -0.036 C 
ATOM     49  H   LIG d   1      11.780   8.782  -8.423  0.00  0.00     0.026 H 
ATOM     50  H   LIG d   1      11.752   7.706  -7.006  0.00  0.00     0.026 H 
ATOM     51  H   LIG d   1      11.613   7.024  -8.643  0.00  0.00     0.026 H 
ENDBRANCH  38  48
BRANCH  38  52
ATOM     52  C   LIG d   1       9.190   7.170  -9.043  0.00  0.00    -0.036 C 
ATOM     53  H   LIG d   1       8.609   7.821  -9.697  0.00  0.00     0.026 H 
ATOM     54  H   LIG d   1       9.970   6.676  -9.622  0.00  0.00     0.026 H 
ATOM     55  H   LIG d   1       8.534   6.420  -8.601  0.00  0.00     0.026 H 
ENDBRANCH  38  52
ENDBRANCH  33  35
ENDBRANCH   1  31
TORSDOF 10
ENDMDL
MODEL 5
REMARK VINA RESULT:      -5.4      6.313     10.560
REMARK  10 active torsions:
REMARK  status: ('A' for Active; 'I' for Inactive)
REMARK    1  A    between atoms: C_1  and  C_2 
REMARK    2  A    between atoms: C_6  and  O_28 
REMARK    3  A    between atoms: C_7  and  O_26 
REMARK    4  A    between atoms: N_12  and  C_13 
REMARK    5  A    between atoms: C_13  and  C_14 
REMARK       I    between atoms: C_14  and  N_16 
REMARK    6  A    between atoms: N_16  and  C_17 
REMARK    7  A    between atoms: C_22  and  C_24 
REMARK    8  A    between atoms: C_22  and  C_25 
REMARK    9  A    between atoms: O_26  and  C_27 
REMARK   10  A    between atoms: O_28  and  C_29 
ROOT
ATOM      1  C   LIG d   1       2.537   0.301  -8.312  0.00  0.00     0.104 C 
ATOM      2  H   LIG d   1       2.188   1.332  -8.342  0.00  0.00     0.059 H 
ATOM      3  H   LIG d   1       1.698  -0.362  -8.101  0.00  0.00     0.059 H 
ENDROOT
BRANCH   1   4
ATOM      4  N   LIG d   1       3.126  -0.053  -9.606  0.00  0.00    -0.287 N 
ATOM      5  C   LIG d   1       3.584   0.927 -10.428  0.00  0.00     0.110 A 
ATOM      6  N   LIG d   1       4.123   0.693 -11.586  0.00  0.00    -0.234 NA
ATOM      7  C   LIG d   1       4.263  -0.569 -12.063  0.00  0.00     0.082 A 
ATOM      8  C   LIG d   1       3.809  -1.653 -11.278  0.00  0.00     0.069 A 
ATOM      9  C   LIG d   1       4.844  -0.819 -13.307  0.00  0.00     0.010 A 
ATOM     10  C   LIG d   1       3.941  -2.961 -11.744  0.00  0.00    -0.002 A 
ATOM     11  C   LIG d   1       3.204  -1.354  -9.974  0.00  0.00     0.262 A 
ATOM     12  C   LIG d   1       4.518  -3.190 -12.976  0.00  0.00     0.162 A 
ATOM     13  H   LIG d   1       3.594  -3.790 -11.145  0.00  0.00     0.066 H 
ATOM     14  C   LIG d   1       4.968  -2.119 -13.757  0.00  0.00     0.164 A 
ATOM     15  O   LIG d   1       2.794  -2.242  -9.249  0.00  0.00    -0.267 OA
ATOM     16  H   LIG d   1       5.194   0.002 -13.917  0.00  0.00     0.068 H 
BRANCH   5  17
ATOM     17  C   LIG d   1       3.466   2.358  -9.970  0.00  0.00    -0.006 C 
ATOM     18  H   LIG d   1       2.417   2.603  -9.810  0.00  0.00     0.031 H 
ATOM     19  H   LIG d   1       4.017   2.488  -9.039  0.00  0.00     0.031 H 
ATOM     20  H   LIG d   1       3.881   3.018 -10.733  0.00  0.00     0.031 H 
ENDBRANCH   5  17
BRANCH  12  21
ATOM     21  O   LIG d   1       4.649  -4.463 -13.436  0.00  0.00    -0.491 OA
BRANCH  21  22
ATOM     22  C   LIG d   1       5.470  -5.347 -12.671  0.00  0.00     0.079 C 
ATOM     23  H   LIG d   1       4.838  -6.004 -12.074  0.00  0.00     0.066 H 
ATOM     24  H   LIG d   1       6.084  -5.947 -13.344  0.00  0.00     0.066 H 
ATOM     25  H   LIG d   1       6.116  -4.766 -12.013  0.00  0.00     0.066 H 
ENDBRANCH  21  22
ENDBRANCH  12  21
BRANCH  14  26
ATOM     26  O   LIG d   1       5.533  -2.361 -14.967  0.00  0.00    -0.491 OA
BRANCH  26  27
ATOM     27  C   LIG d   1       6.950  -2.199 -15.066  0.00  0.00     0.079 C 
ATOM     28  H   LIG d   1       7.393  -2.262 -14.072  0.00  0.00     0.066 H 
ATOM     29  H   LIG d   1       7.362  -2.984 -15.699  0.00  0.00     0.066 H 
ATOM     30  H   LIG d   1       7.175  -1.225 -15.502  0.00  0.00     0.066 H 
ENDBRANCH  26  27
ENDBRANCH  14  26
ENDBRANCH   1   4
BRANCH   1  31
ATOM     31  C   LIG d   1       3.577   0.154  -7.231  0.00  0.00     0.233 C 
ATOM     32  O   LIG d   1       4.675   0.647  -7.374  0.00  0.00    -0.274 OA
ATOM     33  N   LIG d   1       3.285  -0.526  -6.105  0.00  0.00    -0.311 N 
ATOM     34  H   LIG d   1       2.408  -0.921  -5.990  0.00  0.00     0.149 HD
BRANCH  33  35
ATOM     35  C   LIG d   1       4.296  -0.670  -5.053  0.00  0.00     0.028 C 
ATOM     36  H   LIG d   1       5.274  -0.392  -5.448  0.00  0.00     0.050 H 
ATOM     37  C   LIG d   1       3.942   0.242  -3.874  0.00  0.00    -0.006 C 
ATOM     38  C   LIG d   1       4.958   0.025  -2.749  0.00  0.00     0.066 C 
ATOM     39  H   LIG d   1       3.970   1.282  -4.197  0.00  0.00     0.031 H 
ATOM     40  H   LIG d   1       2.943  -0.003  -3.513  0.00  0.00     0.031 H 
ATOM     41  O   LIG d   1       4.963  -1.353  -2.370  0.00  0.00    -0.374 OA
ATOM     42  C   LIG d   1       5.334  -2.246  -3.421  0.00  0.00     0.050 C 
ATOM     43  C   LIG d   1       4.332  -2.123  -4.572  0.00  0.00    -0.011 C 
ATOM     44  H   LIG d   1       5.332  -3.270  -3.045  0.00  0.00     0.056 H 
ATOM     45  H   LIG d   1       6.332  -1.992  -3.778  0.00  0.00     0.056 H 
ATOM     46  H   LIG d   1       3.342  -2.416  -4.225  0.00  0.00     0.030 H 
ATOM     47  H   LIG d   1       4.639  -2.772  -5.392  0.00  0.00     0.030 H 
BRANCH  38  48
ATOM     48  C   LIG d   1       6.352   0.424  -3.240  0.00  0.00    -0.036 C 
ATOM     49  H   LIG d   1       6.264   0.963  -4.182  0.00  0.00     0.026 H 
ATOM     50  H   LIG d   1       6.829   1.063  -2.497  0.00  0.00     0.026 H 
ATOM     51  H   LIG d   1       6.955  -0.473  -3.388  0.00  0.00     0.026 H 
ENDBRANCH  38  48
BRANCH  38  52
ATOM     52  C   LIG d   1       4.575   0.885  -1.543  0.00  0.00    -0.036 C 
ATOM     53  H   LIG d   1       5.203   0.619  -0.693  0.00  0.00     0.026 H 
ATOM     54  H   LIG d   1       4.720   1.938  -1.787  0.00  0.00     0.026 H 
ATOM     55  H   LIG d   1       3.529   0.712  -1.290  0.00  0.00     0.026 H 
ENDBRANCH  38  52
ENDBRANCH  33  35
ENDBRANCH   1  31
TORSDOF 10
ENDMDL
MODEL 6
REMARK VINA RESULT:      -5.3      6.222     11.235
REMARK  10 active torsions:
REMARK  status: ('A' for Active; 'I' for Inactive)
REMARK    1  A    between atoms: C_1  and  C_2 
REMARK    2  A    between atoms: C_6  and  O_28 
REMARK    3  A    between atoms: C_7  and  O_26 
REMARK    4  A    between atoms: N_12  and  C_13 
REMARK    5  A    between atoms: C_13  and  C_14 
REMARK       I    between atoms: C_14  and  N_16 
REMARK    6  A    between atoms: N_16  and  C_17 
REMARK    7  A    between atoms: C_22  and  C_24 
REMARK    8  A    between atoms: C_22  and  C_25 
REMARK    9  A    between atoms: O_26  and  C_27 
REMARK   10  A    between atoms: O_28  and  C_29 
ROOT
ATOM      1  C   LIG d   1       5.388  -0.437  -9.100  0.00  0.00     0.104 C 
ATOM      2  H   LIG d   1       6.136  -1.227  -9.057  0.00  0.00     0.059 H 
ATOM      3  H   LIG d   1       5.795   0.423  -9.630  0.00  0.00     0.059 H 
ENDROOT
BRANCH   1   4
ATOM      4  N   LIG d   1       4.200  -0.927  -9.804  0.00  0.00    -0.287 N 
ATOM      5  C   LIG d   1       3.554  -0.115 -10.682  0.00  0.00     0.110 A 
ATOM      6  N   LIG d   1       2.500  -0.478 -11.347  0.00  0.00    -0.234 NA
ATOM      7  C   LIG d   1       1.960  -1.714 -11.204  0.00  0.00     0.082 A 
ATOM      8  C   LIG d   1       2.562  -2.625 -10.308  0.00  0.00     0.069 A 
ATOM      9  C   LIG d   1       0.828  -2.103 -11.921  0.00  0.00     0.010 A 
ATOM     10  C   LIG d   1       2.027  -3.903 -10.141  0.00  0.00    -0.002 A 
ATOM     11  C   LIG d   1       3.752  -2.183  -9.570  0.00  0.00     0.262 A 
ATOM     12  C   LIG d   1       0.907  -4.271 -10.858  0.00  0.00     0.162 A 
ATOM     13  H   LIG d   1       2.487  -4.600  -9.456  0.00  0.00     0.066 H 
ATOM     14  C   LIG d   1       0.309  -3.371 -11.746  0.00  0.00     0.164 A 
ATOM     15  O   LIG d   1       4.319  -2.920  -8.783  0.00  0.00    -0.267 OA
ATOM     16  H   LIG d   1       0.358  -1.414 -12.608  0.00  0.00     0.068 H 
BRANCH   5  17
ATOM     17  C   LIG d   1       4.093   1.276 -10.898  0.00  0.00    -0.006 C 
ATOM     18  H   LIG d   1       3.416   1.831 -11.547  0.00  0.00     0.031 H 
ATOM     19  H   LIG d   1       4.178   1.787  -9.939  0.00  0.00     0.031 H 
ATOM     20  H   LIG d   1       5.076   1.215 -11.366  0.00  0.00     0.031 H 
ENDBRANCH   5  17
BRANCH  12  21
ATOM     21  O   LIG d   1       0.382  -5.515 -10.700  0.00  0.00    -0.491 OA
BRANCH  21  22
ATOM     22  C   LIG d   1       1.266  -6.539 -10.240  0.00  0.00     0.079 C 
ATOM     23  H   LIG d   1       2.281  -6.146 -10.187  0.00  0.00     0.066 H 
ATOM     24  H   LIG d   1       0.952  -6.871  -9.249  0.00  0.00     0.066 H 
ATOM     25  H   LIG d   1       1.237  -7.382 -10.930  0.00  0.00     0.066 H 
ENDBRANCH  21  22
ENDBRANCH  12  21
BRANCH  14  26
ATOM     26  O   LIG d   1      -0.793  -3.748 -12.445  0.00  0.00    -0.491 OA
BRANCH  26  27
ATOM     27  C   LIG d   1      -0.599  -4.120 -13.811  0.00  0.00     0.079 C 
ATOM     28  H   LIG d   1      -0.354  -5.180 -13.869  0.00  0.00     0.066 H 
ATOM     29  H   LIG d   1      -1.513  -3.927 -14.373  0.00  0.00     0.066 H 
ATOM     30  H   LIG d   1       0.218  -3.534 -14.235  0.00  0.00     0.066 H 
ENDBRANCH  26  27
ENDBRANCH  14  26
ENDBRANCH   1   4
BRANCH   1  31
ATOM     31  C   LIG d   1       5.008  -0.029  -7.699  0.00  0.00     0.233 C 
ATOM     32  O   LIG d   1       4.319   0.952  -7.518  0.00  0.00    -0.274 OA
ATOM     33  N   LIG d   1       5.434  -0.757  -6.648  0.00  0.00    -0.311 N 
ATOM     34  H   LIG d   1       5.985  -1.541  -6.792  0.00  0.00     0.149 HD
BRANCH  33  35
ATOM     35  C   LIG d   1       5.066  -0.361  -5.286  0.00  0.00     0.028 C 
ATOM     36  H   LIG d   1       4.294   0.408  -5.326  0.00  0.00     0.050 H 
ATOM     37  C   LIG d   1       4.535  -1.579  -4.524  0.00  0.00    -0.006 C 
ATOM     38  C   LIG d   1       4.229  -1.174  -3.079  0.00  0.00     0.066 C 
ATOM     39  H   LIG d   1       3.625  -1.940  -5.003  0.00  0.00     0.031 H 
ATOM     40  H   LIG d   1       5.288  -2.368  -4.528  0.00  0.00     0.031 H 
ATOM     41  O   LIG d   1       5.409  -0.645  -2.473  0.00  0.00    -0.374 OA
ATOM     42  C   LIG d   1       5.922   0.524  -3.115  0.00  0.00     0.050 C 
ATOM     43  C   LIG d   1       6.298   0.187  -4.560  0.00  0.00    -0.011 C 
ATOM     44  H   LIG d   1       6.806   0.874  -2.582  0.00  0.00     0.056 H 
ATOM     45  H   LIG d   1       5.161   1.304  -3.110  0.00  0.00     0.056 H 
ATOM     46  H   LIG d   1       7.088  -0.564  -4.565  0.00  0.00     0.030 H 
ATOM     47  H   LIG d   1       6.648   1.087  -5.065  0.00  0.00     0.030 H 
BRANCH  38  48
ATOM     48  C   LIG d   1       3.130  -0.110  -3.072  0.00  0.00    -0.036 C 
ATOM     49  H   LIG d   1       3.583   0.880  -3.047  0.00  0.00     0.026 H 
ATOM     50  H   LIG d   1       2.523  -0.209  -3.972  0.00  0.00     0.026 H 
ATOM     51  H   LIG d   1       2.500  -0.244  -2.193  0.00  0.00     0.026 H 
ENDBRANCH  38  48
BRANCH  38  52
ATOM     52  C   LIG d   1       3.758  -2.401  -2.295  0.00  0.00    -0.036 C 
ATOM     53  H   LIG d   1       3.096  -2.084  -1.489  0.00  0.00     0.026 H 
ATOM     54  H   LIG d   1       3.221  -3.075  -2.963  0.00  0.00     0.026 H 
ATOM     55  H   LIG d   1       4.621  -2.917  -1.874  0.00  0.00     0.026 H 
ENDBRANCH  38  52
ENDBRANCH  33  35
ENDBRANCH   1  31
TORSDOF 10
ENDMDL
MODEL 7
REMARK VINA RESULT:      -5.2      3.146      4.829
REMARK  10 active torsions:
REMARK  status: ('A' for Active; 'I' for Inactive)
REMARK    1  A    between atoms: C_1  and  C_2 
REMARK    2  A    between atoms: C_6  and  O_28 
REMARK    3  A    between atoms: C_7  and  O_26 
REMARK    4  A    between atoms: N_12  and  C_13 
REMARK    5  A    between atoms: C_13  and  C_14 
REMARK       I    between atoms: C_14  and  N_16 
REMARK    6  A    between atoms: N_16  and  C_17 
REMARK    7  A    between atoms: C_22  and  C_24 
REMARK    8  A    between atoms: C_22  and  C_25 
REMARK    9  A    between atoms: O_26  and  C_27 
REMARK   10  A    between atoms: O_28  and  C_29 
ROOT
ATOM      1  C   LIG d   1       9.134   0.756  -5.141  0.00  0.00     0.104 C 
ATOM      2  H   LIG d   1       9.121  -0.017  -5.910  0.00  0.00     0.059 H 
ATOM      3  H   LIG d   1       9.927   0.544  -4.425  0.00  0.00     0.059 H 
ENDROOT
BRANCH   1   4
ATOM      4  N   LIG d   1       9.373   2.060  -5.764  0.00  0.00    -0.287 N 
ATOM      5  C   LIG d   1      10.033   3.026  -5.072  0.00  0.00     0.110 A 
ATOM      6  N   LIG d   1      10.288   4.203  -5.557  0.00  0.00    -0.234 NA
ATOM      7  C   LIG d   1       9.900   4.556  -6.808  0.00  0.00     0.082 A 
ATOM      8  C   LIG d   1       9.202   3.616  -7.600  0.00  0.00     0.069 A 
ATOM      9  C   LIG d   1      10.175   5.821  -7.328  0.00  0.00     0.010 A 
ATOM     10  C   LIG d   1       8.791   3.953  -8.891  0.00  0.00    -0.002 A 
ATOM     11  C   LIG d   1       8.930   2.294  -7.022  0.00  0.00     0.262 A 
ATOM     12  C   LIG d   1       9.073   5.208  -9.389  0.00  0.00     0.162 A 
ATOM     13  H   LIG d   1       8.258   3.235  -9.496  0.00  0.00     0.066 H 
ATOM     14  C   LIG d   1       9.763   6.141  -8.608  0.00  0.00     0.164 A 
ATOM     15  O   LIG d   1       8.333   1.439  -7.651  0.00  0.00    -0.267 OA
ATOM     16  H   LIG d   1      10.707   6.548  -6.732  0.00  0.00     0.068 H 
BRANCH   5  17
ATOM     17  C   LIG d   1      10.498   2.712  -3.673  0.00  0.00    -0.006 C 
ATOM     18  H   LIG d   1      10.892   3.616  -3.210  0.00  0.00     0.031 H 
ATOM     19  H   LIG d   1       9.659   2.339  -3.087  0.00  0.00     0.031 H 
ATOM     20  H   LIG d   1      11.280   1.954  -3.713  0.00  0.00     0.031 H 
ENDBRANCH   5  17
BRANCH  12  21
ATOM     21  O   LIG d   1       8.676   5.541 -10.645  0.00  0.00    -0.491 OA
BRANCH  21  22
ATOM     22  C   LIG d   1       9.627   5.357 -11.696  0.00  0.00     0.079 C 
ATOM     23  H   LIG d   1       9.651   6.247 -12.325  0.00  0.00     0.066 H 
ATOM     24  H   LIG d   1      10.615   5.189 -11.266  0.00  0.00     0.066 H 
ATOM     25  H   LIG d   1       9.342   4.494 -12.298  0.00  0.00     0.066 H 
ENDBRANCH  21  22
ENDBRANCH  12  21
BRANCH  14  26
ATOM     26  O   LIG d   1      10.032   7.372  -9.112  0.00  0.00    -0.491 OA
BRANCH  26  27
ATOM     27  C   LIG d   1      11.390   7.815  -9.054  0.00  0.00     0.079 C 
ATOM     28  H   LIG d   1      11.863   7.422  -8.154  0.00  0.00     0.066 H 
ATOM     29  H   LIG d   1      11.926   7.456  -9.933  0.00  0.00     0.066 H 
ATOM     30  H   LIG d   1      11.416   8.905  -9.032  0.00  0.00     0.066 H 
ENDBRANCH  26  27
ENDBRANCH  14  26
ENDBRANCH   1   4
BRANCH   1  31
ATOM     31  C   LIG d   1       7.805   0.776  -4.428  0.00  0.00     0.233 C 
ATOM     32  O   LIG d   1       7.300   1.834  -4.119  0.00  0.00    -0.274 OA
ATOM     33  N   LIG d   1       7.182  -0.382  -4.135  0.00  0.00    -0.311 N 
ATOM     34  H   LIG d   1       7.586  -1.227  -4.381  0.00  0.00     0.149 HD
BRANCH  33  35
ATOM     35  C   LIG d   1       5.891  -0.362  -3.441  0.00  0.00     0.028 C 
ATOM     36  H   LIG d   1       5.927   0.359  -2.624  0.00  0.00     0.050 H 
ATOM     37  C   LIG d   1       4.786   0.032  -4.425  0.00  0.00    -0.006 C 
ATOM     38  C   LIG d   1       3.432  -0.029  -3.712  0.00  0.00     0.066 C 
ATOM     39  H   LIG d   1       4.964   1.045  -4.785  0.00  0.00     0.031 H 
ATOM     40  H   LIG d   1       4.784  -0.660  -5.267  0.00  0.00     0.031 H 
ATOM     41  O   LIG d   1       3.229  -1.342  -3.188  0.00  0.00    -0.374 OA
ATOM     42  C   LIG d   1       4.205  -1.745  -2.226  0.00  0.00     0.050 C 
ATOM     43  C   LIG d   1       5.590  -1.755  -2.880  0.00  0.00    -0.011 C 
ATOM     44  H   LIG d   1       3.968  -2.746  -1.863  0.00  0.00     0.056 H 
ATOM     45  H   LIG d   1       4.203  -1.045  -1.391  0.00  0.00     0.056 H 
ATOM     46  H   LIG d   1       5.605  -2.485  -3.689  0.00  0.00     0.030 H 
ATOM     47  H   LIG d   1       6.342  -2.020  -2.137  0.00  0.00     0.030 H 
BRANCH  38  48
ATOM     48  C   LIG d   1       3.416   0.986  -2.566  0.00  0.00    -0.036 C 
ATOM     49  H   LIG d   1       3.589   0.471  -1.622  0.00  0.00     0.026 H 
ATOM     50  H   LIG d   1       4.199   1.726  -2.726  0.00  0.00     0.026 H 
ATOM     51  H   LIG d   1       2.446   1.484  -2.537  0.00  0.00     0.026 H 
ENDBRANCH  38  48
BRANCH  38  52
ATOM     52  C   LIG d   1       2.317   0.303  -4.705  0.00  0.00    -0.036 C 
ATOM     53  H   LIG d   1       1.848   1.246  -4.423  0.00  0.00     0.026 H 
ATOM     54  H   LIG d   1       2.738   0.392  -5.707  0.00  0.00     0.026 H 
ATOM     55  H   LIG d   1       1.571  -0.491  -4.693  0.00  0.00     0.026 H 
ENDBRANCH  38  52
ENDBRANCH  33  35
ENDBRANCH   1  31
TORSDOF 10
ENDMDL
MODEL 8
REMARK VINA RESULT:      -5.2      3.389      8.993
REMARK  10 active torsions:
REMARK  status: ('A' for Active; 'I' for Inactive)
REMARK    1  A    between atoms: C_1  and  C_2 
REMARK    2  A    between atoms: C_6  and  O_28 
REMARK    3  A    between atoms: C_7  and  O_26 
REMARK    4  A    between atoms: N_12  and  C_13 
REMARK    5  A    between atoms: C_13  and  C_14 
REMARK       I    between atoms: C_14  and  N_16 
REMARK    6  A    between atoms: N_16  and  C_17 
REMARK    7  A    between atoms: C_22  and  C_24 
REMARK    8  A    between atoms: C_22  and  C_25 
REMARK    9  A    between atoms: O_26  and  C_27 
REMARK   10  A    between atoms: O_28  and  C_29 
ROOT
ATOM      1  C   LIG d   1       7.002  -0.259  -3.831  0.00  0.00     0.104 C 
ATOM      2  H   LIG d   1       6.522  -0.624  -2.924  0.00  0.00     0.059 H 
ATOM      3  H   LIG d   1       7.861  -0.887  -4.067  0.00  0.00     0.059 H 
ENDROOT
BRANCH   1   4
ATOM      4  N   LIG d   1       6.047  -0.301  -4.941  0.00  0.00    -0.287 N 
ATOM      5  C   LIG d   1       4.737  -0.564  -4.692  0.00  0.00     0.110 A 
ATOM      6  N   LIG d   1       3.830  -0.612  -5.620  0.00  0.00    -0.234 NA
ATOM      7  C   LIG d   1       4.136  -0.405  -6.925  0.00  0.00     0.082 A 
ATOM      8  C   LIG d   1       5.476  -0.130  -7.279  0.00  0.00     0.069 A 
ATOM      9  C   LIG d   1       3.160  -0.456  -7.921  0.00  0.00     0.010 A 
ATOM     10  C   LIG d   1       5.819   0.087  -8.614  0.00  0.00    -0.002 A 
ATOM     11  C   LIG d   1       6.477  -0.083  -6.206  0.00  0.00     0.262 A 
ATOM     12  C   LIG d   1       4.842   0.033  -9.585  0.00  0.00     0.162 A 
ATOM     13  H   LIG d   1       6.844   0.297  -8.885  0.00  0.00     0.066 H 
ATOM     14  C   LIG d   1       3.514  -0.239  -9.239  0.00  0.00     0.164 A 
ATOM     15  O   LIG d   1       7.649   0.150  -6.443  0.00  0.00    -0.267 OA
ATOM     16  H   LIG d   1       2.133  -0.666  -7.662  0.00  0.00     0.068 H 
BRANCH   5  17
ATOM     17  C   LIG d   1       4.314  -0.805  -3.265  0.00  0.00    -0.006 C 
ATOM     18  H   LIG d   1       5.120  -1.301  -2.727  0.00  0.00     0.031 H 
ATOM     19  H   LIG d   1       4.090   0.148  -2.787  0.00  0.00     0.031 H 
ATOM     20  H   LIG d   1       3.425  -1.436  -3.252  0.00  0.00     0.031 H 
ENDBRANCH   5  17
BRANCH  12  21
ATOM     21  O   LIG d   1       5.170   0.245 -10.888  0.00  0.00    -0.491 OA
BRANCH  21  22
ATOM     22  C   LIG d   1       5.838  -0.819 -11.569  0.00  0.00     0.079 C 
ATOM     23  H   LIG d   1       5.817  -0.633 -12.643  0.00  0.00     0.066 H 
ATOM     24  H   LIG d   1       6.873  -0.874 -11.230  0.00  0.00     0.066 H 
ATOM     25  H   LIG d   1       5.336  -1.762 -11.354  0.00  0.00     0.066 H 
ENDBRANCH  21  22
ENDBRANCH  12  21
BRANCH  14  26
ATOM     26  O   LIG d   1       2.563  -0.289 -10.206  0.00  0.00    -0.491 OA
BRANCH  26  27
ATOM     27  C   LIG d   1       1.294  -0.836  -9.842  0.00  0.00     0.079 C 
ATOM     28  H   LIG d   1       0.875  -1.380 -10.688  0.00  0.00     0.066 H 
ATOM     29  H   LIG d   1       1.421  -1.517  -8.999  0.00  0.00     0.066 H 
ATOM     30  H   LIG d   1       0.618  -0.029  -9.558  0.00  0.00     0.066 H 
ENDBRANCH  26  27
ENDBRANCH  14  26
ENDBRANCH   1   4
BRANCH   1  31
ATOM     31  C   LIG d   1       7.462   1.161  -3.619  0.00  0.00     0.233 C 
ATOM     32  O   LIG d   1       6.668   2.011  -3.275  0.00  0.00    -0.274 OA
ATOM     33  N   LIG d   1       8.756   1.485  -3.811  0.00  0.00    -0.311 N 
ATOM     34  H   LIG d   1       9.390   0.807  -4.086  0.00  0.00     0.149 HD
BRANCH  33  35
ATOM     35  C   LIG d   1       9.203   2.866  -3.606  0.00  0.00     0.028 C 
ATOM     36  H   LIG d   1       8.592   3.336  -2.834  0.00  0.00     0.050 H 
ATOM     37  C   LIG d   1      10.671   2.869  -3.169  0.00  0.00    -0.006 C 
ATOM     38  C   LIG d   1      11.152   4.317  -3.035  0.00  0.00     0.066 C 
ATOM     39  H   LIG d   1      10.767   2.362  -2.209  0.00  0.00     0.031 H 
ATOM     40  H   LIG d   1      11.274   2.354  -3.916  0.00  0.00     0.031 H 
ATOM     41  O   LIG d   1      10.969   4.996  -4.278  0.00  0.00    -0.374 OA
ATOM     42  C   LIG d   1       9.610   5.066  -4.711  0.00  0.00     0.050 C 
ATOM     43  C   LIG d   1       9.067   3.649  -4.914  0.00  0.00    -0.011 C 
ATOM     44  H   LIG d   1       9.555   5.615  -5.652  0.00  0.00     0.056 H 
ATOM     45  H   LIG d   1       9.014   5.579  -3.956  0.00  0.00     0.056 H 
ATOM     46  H   LIG d   1       9.636   3.151  -5.698  0.00  0.00     0.030 H 
ATOM     47  H   LIG d   1       8.017   3.699  -5.202  0.00  0.00     0.030 H 
BRANCH  38  48
ATOM     48  C   LIG d   1      10.343   5.022  -1.944  0.00  0.00    -0.036 C 
ATOM     49  H   LIG d   1       9.313   4.669  -1.970  0.00  0.00     0.026 H 
ATOM     50  H   LIG d   1      10.779   4.801  -0.969  0.00  0.00     0.026 H 
ATOM     51  H   LIG d   1      10.364   6.098  -2.115  0.00  0.00     0.026 H 
ENDBRANCH  38  48
BRANCH  38  52
ATOM     52  C   LIG d   1      12.636   4.328  -2.660  0.00  0.00    -0.036 C 
ATOM     53  H   LIG d   1      12.746   4.060  -1.609  0.00  0.00     0.026 H 
ATOM     54  H   LIG d   1      13.172   3.608  -3.277  0.00  0.00     0.026 H 
ATOM     55  H   LIG d   1      13.045   5.325  -2.825  0.00  0.00     0.026 H 
ENDBRANCH  38  52
ENDBRANCH  33  35
ENDBRANCH   1  31
TORSDOF 10
ENDMDL
MODEL 9
REMARK VINA RESULT:      -5.2      1.541      2.583
REMARK  10 active torsions:
REMARK  status: ('A' for Active; 'I' for Inactive)
REMARK    1  A    between atoms: C_1  and  C_2 
REMARK    2  A    between atoms: C_6  and  O_28 
REMARK    3  A    between atoms: C_7  and  O_26 
REMARK    4  A    between atoms: N_12  and  C_13 
REMARK    5  A    between atoms: C_13  and  C_14 
REMARK       I    between atoms: C_14  and  N_16 
REMARK    6  A    between atoms: N_16  and  C_17 
REMARK    7  A    between atoms: C_22  and  C_24 
REMARK    8  A    between atoms: C_22  and  C_25 
REMARK    9  A    between atoms: O_26  and  C_27 
REMARK   10  A    between atoms: O_28  and  C_29 
ROOT
ATOM      1  C   LIG d   1       9.833   2.274  -5.867  0.00  0.00     0.104 C 
ATOM      2  H   LIG d   1       9.835   2.971  -6.705  0.00  0.00     0.059 H 
ATOM      3  H   LIG d   1      10.557   1.481  -6.051  0.00  0.00     0.059 H 
ENDROOT
BRANCH   1   4
ATOM      4  N   LIG d   1      10.191   2.987  -4.638  0.00  0.00    -0.287 N 
ATOM      5  C   LIG d   1      11.082   2.434  -3.774  0.00  0.00     0.110 A 
ATOM      6  N   LIG d   1      11.454   3.006  -2.669  0.00  0.00    -0.234 NA
ATOM      7  C   LIG d   1      10.965   4.215  -2.294  0.00  0.00     0.082 A 
ATOM      8  C   LIG d   1      10.027   4.863  -3.130  0.00  0.00     0.069 A 
ATOM      9  C   LIG d   1      11.366   4.829  -1.108  0.00  0.00     0.010 A 
ATOM     10  C   LIG d   1       9.507   6.107  -2.769  0.00  0.00    -0.002 A 
ATOM     11  C   LIG d   1       9.627   4.189  -4.371  0.00  0.00     0.262 A 
ATOM     12  C   LIG d   1       9.916   6.699  -1.592  0.00  0.00     0.162 A 
ATOM     13  H   LIG d   1       8.790   6.603  -3.407  0.00  0.00     0.066 H 
ATOM     14  C   LIG d   1      10.844   6.060  -0.762  0.00  0.00     0.164 A 
ATOM     15  O   LIG d   1       8.825   4.694  -5.135  0.00  0.00    -0.267 OA
ATOM     16  H   LIG d   1      12.082   4.342  -0.461  0.00  0.00     0.068 H 
BRANCH   5  17
ATOM     17  C   LIG d   1      11.674   1.092  -4.119  0.00  0.00    -0.006 C 
ATOM     18  H   LIG d   1      12.725   1.074  -3.834  0.00  0.00     0.031 H 
ATOM     19  H   LIG d   1      11.138   0.310  -3.580  0.00  0.00     0.031 H 
ATOM     20  H   LIG d   1      11.584   0.921  -5.192  0.00  0.00     0.031 H 
ENDBRANCH   5  17
BRANCH  12  21
ATOM     21  O   LIG d   1       9.413   7.911  -1.235  0.00  0.00    -0.491 OA
BRANCH  21  22
ATOM     22  C   LIG d   1       9.923   9.054  -1.926  0.00  0.00     0.079 C 
ATOM     23  H   LIG d   1      10.173   8.777  -2.950  0.00  0.00     0.066 H 
ATOM     24  H   LIG d   1       9.166   9.839  -1.936  0.00  0.00     0.066 H 
ATOM     25  H   LIG d   1      10.816   9.418  -1.418  0.00  0.00     0.066 H 
ENDBRANCH  21  22
ENDBRANCH  12  21
BRANCH  14  26
ATOM     26  O   LIG d   1      11.235   6.656   0.393  0.00  0.00    -0.491 OA
BRANCH  26  27
ATOM     27  C   LIG d   1      11.037   5.921   1.602  0.00  0.00     0.079 C 
ATOM     28  H   LIG d   1      11.890   5.264   1.773  0.00  0.00     0.066 H 
ATOM     29  H   LIG d   1      10.939   6.614   2.437  0.00  0.00     0.066 H 
ATOM     30  H   LIG d   1      10.130   5.322   1.519  0.00  0.00     0.066 H 
ENDBRANCH  26  27
ENDBRANCH  14  26
ENDBRANCH   1   4
BRANCH   1  31
ATOM     31  C   LIG d   1       8.457   1.675  -5.716  0.00  0.00     0.233 C 
ATOM     32  O   LIG d   1       7.627   1.837  -6.585  0.00  0.00    -0.274 OA
ATOM     33  N   LIG d   1       8.152   0.961  -4.615  0.00  0.00    -0.311 N 
ATOM     34  H   LIG d   1       8.815   0.832  -3.921  0.00  0.00     0.149 HD
BRANCH  33  35
ATOM     35  C   LIG d   1       6.815   0.379  -4.468  0.00  0.00     0.028 C 
ATOM     36  H   LIG d   1       6.145   0.812  -5.211  0.00  0.00     0.050 H 
ATOM     37  C   LIG d   1       6.891  -1.137  -4.670  0.00  0.00    -0.006 C 
ATOM     38  C   LIG d   1       5.506  -1.746  -4.434  0.00  0.00     0.066 C 
ATOM     39  H   LIG d   1       7.217  -1.353  -5.687  0.00  0.00     0.031 H 
ATOM     40  H   LIG d   1       7.600  -1.564  -3.960  0.00  0.00     0.031 H 
ATOM     41  O   LIG d   1       5.055  -1.410  -3.121  0.00  0.00    -0.374 OA
ATOM     42  C   LIG d   1       4.919  -0.007  -2.891  0.00  0.00     0.050 C 
ATOM     43  C   LIG d   1       6.281   0.672  -3.063  0.00  0.00    -0.011 C 
ATOM     44  H   LIG d   1       4.554   0.163  -1.878  0.00  0.00     0.056 H 
ATOM     45  H   LIG d   1       4.212   0.412  -3.608  0.00  0.00     0.056 H 
ATOM     46  H   LIG d   1       6.977   0.283  -2.320  0.00  0.00     0.030 H 
ATOM     47  H   LIG d   1       6.170   1.748  -2.931  0.00  0.00     0.030 H 
BRANCH  38  48
ATOM     48  C   LIG d   1       4.525  -1.190  -5.469  0.00  0.00    -0.036 C 
ATOM     49  H   LIG d   1       4.717  -0.128  -5.617  0.00  0.00     0.026 H 
ATOM     50  H   LIG d   1       4.654  -1.719  -6.412  0.00  0.00     0.026 H 
ATOM     51  H   LIG d   1       3.504  -1.329  -5.112  0.00  0.00     0.026 H 
ENDBRANCH  38  48
BRANCH  38  52
ATOM     52  C   LIG d   1       5.587  -3.268  -4.573  0.00  0.00    -0.036 C 
ATOM     53  H   LIG d   1       6.621  -3.561  -4.755  0.00  0.00     0.026 H 
ATOM     54  H   LIG d   1       5.234  -3.735  -3.653  0.00  0.00     0.026 H 
ATOM     55  H   LIG d   1       4.966  -3.591  -5.407  0.00  0.00     0.026 H 
ENDBRANCH  38  52
ENDBRANCH  33  35
ENDBRANCH   1  31
TORSDOF 10
ENDMDL
