MODEL 1
REMARK VINA RESULT:      -6.7      0.000      0.000
REMARK  3 active torsions:
REMARK  status: ('A' for Active; 'I' for Inactive)
REMARK    1  A    between atoms: C_1  and  C_2 
REMARK    2  A    between atoms: C_5  and  O_26 
REMARK    3  A    between atoms: C_18  and  C_25 
ROOT
ATOM      1  C   LIG d   1       4.657  -0.728  -4.891  0.00  0.00    -0.026 C 
ATOM      2  C   LIG d   1       5.134  -2.098  -4.504  0.00  0.00    -0.045 C 
ATOM      3  C   LIG d   1       4.279  -2.862  -3.527  0.00  0.00    -0.026 C 
ATOM      4  C   LIG d   1       3.693  -1.958  -2.460  0.00  0.00     0.056 C 
ATOM      5  H   LIG d   1       3.062  -2.558  -1.796  0.00  0.00     0.059 H 
ATOM      6  C   LIG d   1       2.851  -0.869  -3.070  0.00  0.00    -0.024 C 
ATOM      7  C   LIG d   1       3.473  -0.126  -4.230  0.00  0.00    -0.033 C 
ATOM      8  H   LIG d   1       3.879   0.769  -3.755  0.00  0.00     0.031 H 
ATOM      9  C   LIG d   1       2.346   0.425  -5.084  0.00  0.00    -0.049 C 
ATOM     10  C   LIG d   1       2.740   0.801  -6.507  0.00  0.00    -0.049 C 
ATOM     11  C   LIG d   1       3.475  -0.413  -7.079  0.00  0.00    -0.034 C 
ATOM     12  H   LIG d   1       2.913  -1.321  -6.788  0.00  0.00     0.031 H 
ATOM     13  C   LIG d   1       4.832  -0.455  -6.371  0.00  0.00    -0.032 C 
ATOM     14  H   LIG d   1       5.272   0.546  -6.419  0.00  0.00     0.031 H 
ATOM     15  C   LIG d   1       5.756  -1.414  -7.100  0.00  0.00    -0.049 C 
ATOM     16  C   LIG d   1       6.147  -0.832  -8.471  0.00  0.00    -0.040 C 
ATOM     17  C   LIG d   1       5.050   0.033  -9.024  0.00  0.00     0.029 C 
ATOM     18  C   LIG d   1       3.653  -0.408  -8.559  0.00  0.00    -0.025 C 
ATOM     19  H   LIG d   1       3.489  -1.448  -8.924  0.00  0.00     0.031 H 
ATOM     20  C   LIG d   1       2.743   0.498  -9.398  0.00  0.00    -0.042 C 
ATOM     21  C   LIG d   1       3.467   0.513 -10.775  0.00  0.00     0.007 C 
ATOM     22  C   LIG d   1       4.878  -0.014 -10.531  0.00  0.00     0.140 C 
ATOM     23  O   LIG d   1       5.685  -0.387 -11.336  0.00  0.00    -0.297 OA
ATOM     24  H   LIG d   1       5.220  -2.708  -5.406  0.00  0.00     0.027 H 
ATOM     25  H   LIG d   1       6.135  -2.004  -4.077  0.00  0.00     0.027 H 
ATOM     26  H   LIG d   1       3.468  -3.356  -4.067  0.00  0.00     0.029 H 
ATOM     27  H   LIG d   1       4.891  -3.630  -3.045  0.00  0.00     0.029 H 
ATOM     28  H   LIG d   1       2.611  -0.145  -2.291  0.00  0.00     0.029 H 
ATOM     29  H   LIG d   1       1.916  -1.315  -3.414  0.00  0.00     0.029 H 
ATOM     30  H   LIG d   1       1.555  -0.327  -5.139  0.00  0.00     0.027 H 
ATOM     31  H   LIG d   1       1.939   1.310  -4.595  0.00  0.00     0.027 H 
ATOM     32  H   LIG d   1       1.845   1.012  -7.092  0.00  0.00     0.027 H 
ATOM     33  H   LIG d   1       3.391   1.673  -6.491  0.00  0.00     0.027 H 
ATOM     34  H   LIG d   1       6.660  -1.589  -6.511  0.00  0.00     0.027 H 
ATOM     35  H   LIG d   1       5.249  -2.373  -7.252  0.00  0.00     0.027 H 
ATOM     36  H   LIG d   1       6.350  -1.656  -9.168  0.00  0.00     0.028 H 
ATOM     37  H   LIG d   1       7.066  -0.243  -8.369  0.00  0.00     0.028 H 
ATOM     38  H   LIG d   1       1.750   0.052  -9.498  0.00  0.00     0.027 H 
ATOM     39  H   LIG d   1       2.667   1.496  -8.981  0.00  0.00     0.027 H 
ATOM     40  H   LIG d   1       2.971  -0.071 -11.419  0.00  0.00     0.034 H 
ATOM     41  H   LIG d   1       3.506   1.528 -11.165  0.00  0.00     0.034 H 
ENDROOT
BRANCH   1  42
ATOM     42  C   LIG d   1       5.784   0.144  -4.324  0.00  0.00    -0.059 C 
ATOM     43  H   LIG d   1       5.992   0.962  -5.014  0.00  0.00     0.024 H 
ATOM     44  H   LIG d   1       5.478   0.551  -3.360  0.00  0.00     0.024 H 
ATOM     45  H   LIG d   1       6.681  -0.461  -4.195  0.00  0.00     0.024 H 
ENDBRANCH   1  42
BRANCH   4  46
ATOM     46  O   LIG d   1       4.744  -1.377  -1.688  0.00  0.00    -0.392 OA
ATOM     47  H   LIG d   1       4.558  -0.477  -1.386  0.00  0.00     0.210 HD
ENDBRANCH   4  46
BRANCH  17  48
ATOM     48  C   LIG d   1       5.320   1.502  -8.685  0.00  0.00    -0.053 C 
ATOM     49  H   LIG d   1       4.560   2.129  -9.152  0.00  0.00     0.024 H 
ATOM     50  H   LIG d   1       5.289   1.637  -7.604  0.00  0.00     0.024 H 
ATOM     51  H   LIG d   1       6.305   1.786  -9.058  0.00  0.00     0.024 H 
ENDBRANCH  17  48
TORSDOF 3
ENDMDL
MODEL 2
REMARK VINA RESULT:      -6.2      1.348      2.833
REMARK  3 active torsions:
REMARK  status: ('A' for Active; 'I' for Inactive)
REMARK    1  A    between atoms: C_1  and  C_2 
REMARK    2  A    between atoms: C_5  and  O_26 
REMARK    3  A    between atoms: C_18  and  C_25 
ROOT
ATOM      1  C   LIG d   1       4.357  -0.326  -4.776  0.00  0.00    -0.026 C 
ATOM      2  C   LIG d   1       3.295   0.471  -4.074  0.00  0.00    -0.045 C 
ATOM      3  C   LIG d   1       3.756   1.401  -2.982  0.00  0.00    -0.026 C 
ATOM      4  C   LIG d   1       4.887   0.801  -2.168  0.00  0.00     0.056 C 
ATOM      5  H   LIG d   1       5.200   1.527  -1.409  0.00  0.00     0.059 H 
ATOM      6  C   LIG d   1       6.071   0.472  -3.037  0.00  0.00    -0.024 C 
ATOM      7  C   LIG d   1       5.765  -0.282  -4.311  0.00  0.00    -0.033 C 
ATOM      8  H   LIG d   1       5.970  -1.318  -4.035  0.00  0.00     0.031 H 
ATOM      9  C   LIG d   1       6.866   0.028  -5.308  0.00  0.00    -0.049 C 
ATOM     10  C   LIG d   1       6.517  -0.257  -6.764  0.00  0.00    -0.049 C 
ATOM     11  C   LIG d   1       5.175   0.432  -7.021  0.00  0.00    -0.034 C 
ATOM     12  H   LIG d   1       5.211   1.435  -6.554  0.00  0.00     0.031 H 
ATOM     13  C   LIG d   1       4.128  -0.396  -6.272  0.00  0.00    -0.032 C 
ATOM     14  H   LIG d   1       4.279  -1.449  -6.527  0.00  0.00     0.031 H 
ATOM     15  C   LIG d   1       2.737   0.006  -6.732  0.00  0.00    -0.049 C 
ATOM     16  C   LIG d   1       2.507  -0.454  -8.184  0.00  0.00    -0.040 C 
ATOM     17  C   LIG d   1       3.796  -0.469  -8.957  0.00  0.00     0.029 C 
ATOM     18  C   LIG d   1       4.803   0.579  -8.457  0.00  0.00    -0.025 C 
ATOM     19  H   LIG d   1       4.335   1.583  -8.584  0.00  0.00     0.031 H 
ATOM     20  C   LIG d   1       5.912   0.477  -9.510  0.00  0.00    -0.042 C 
ATOM     21  C   LIG d   1       5.104   0.300 -10.828  0.00  0.00     0.007 C 
ATOM     22  C   LIG d   1       3.684  -0.082 -10.419  0.00  0.00     0.140 C 
ATOM     23  O   LIG d   1       2.689  -0.083 -11.090  0.00  0.00    -0.297 OA
ATOM     24  H   LIG d   1       2.763   1.075  -4.811  0.00  0.00     0.027 H 
ATOM     25  H   LIG d   1       2.573  -0.226  -3.642  0.00  0.00     0.027 H 
ATOM     26  H   LIG d   1       4.091   2.341  -3.427  0.00  0.00     0.029 H 
ATOM     27  H   LIG d   1       2.914   1.613  -2.318  0.00  0.00     0.029 H 
ATOM     28  H   LIG d   1       6.772  -0.121  -2.450  0.00  0.00     0.029 H 
ATOM     29  H   LIG d   1       6.564   1.408  -3.307  0.00  0.00     0.029 H 
ATOM     30  H   LIG d   1       7.123   1.086  -5.221  0.00  0.00     0.027 H 
ATOM     31  H   LIG d   1       7.748  -0.557  -5.046  0.00  0.00     0.027 H 
ATOM     32  H   LIG d   1       7.287   0.159  -7.413  0.00  0.00     0.027 H 
ATOM     33  H   LIG d   1       6.435  -1.330  -6.919  0.00  0.00     0.027 H 
ATOM     34  H   LIG d   1       1.980  -0.445  -6.086  0.00  0.00     0.027 H 
ATOM     35  H   LIG d   1       2.633   1.095  -6.683  0.00  0.00     0.027 H 
ATOM     36  H   LIG d   1       1.797   0.227  -8.670  0.00  0.00     0.028 H 
ATOM     37  H   LIG d   1       2.065  -1.457  -8.182  0.00  0.00     0.028 H 
ATOM     38  H   LIG d   1       6.491   1.403  -9.544  0.00  0.00     0.027 H 
ATOM     39  H   LIG d   1       6.565  -0.370  -9.331  0.00  0.00     0.027 H 
ATOM     40  H   LIG d   1       5.111   1.158 -11.342  0.00  0.00     0.034 H 
ATOM     41  H   LIG d   1       5.546  -0.488 -11.435  0.00  0.00     0.034 H 
ENDROOT
BRANCH   1  42
ATOM     42  C   LIG d   1       3.961  -1.753  -4.378  0.00  0.00    -0.059 C 
ATOM     43  H   LIG d   1       4.162  -2.430  -5.209  0.00  0.00     0.024 H 
ATOM     44  H   LIG d   1       4.542  -2.062  -3.509  0.00  0.00     0.024 H 
ATOM     45  H   LIG d   1       2.899  -1.781  -4.134  0.00  0.00     0.024 H 
ENDBRANCH   1  42
BRANCH   4  46
ATOM     46  O   LIG d   1       4.433  -0.381  -1.508  0.00  0.00    -0.392 OA
ATOM     47  H   LIG d   1       4.586  -1.194  -2.009  0.00  0.00     0.210 HD
ENDBRANCH   4  46
BRANCH  17  48
ATOM     48  C   LIG d   1       4.397  -1.878  -8.946  0.00  0.00    -0.053 C 
ATOM     49  H   LIG d   1       4.746  -2.131  -9.947  0.00  0.00     0.024 H 
ATOM     50  H   LIG d   1       5.234  -1.911  -8.249  0.00  0.00     0.024 H 
ATOM     51  H   LIG d   1       3.636  -2.595  -8.634  0.00  0.00     0.024 H 
ENDBRANCH  17  48
TORSDOF 3
ENDMDL
MODEL 3
REMARK VINA RESULT:      -5.9      3.254      5.210
REMARK  3 active torsions:
REMARK  status: ('A' for Active; 'I' for Inactive)
REMARK    1  A    between atoms: C_1  and  C_2 
REMARK    2  A    between atoms: C_5  and  O_26 
REMARK    3  A    between atoms: C_18  and  C_25 
ROOT
ATOM      1  C   LIG d   1       5.675  -0.737  -4.075  0.00  0.00    -0.026 C 
ATOM      2  C   LIG d   1       5.432  -0.580  -2.602  0.00  0.00    -0.045 C 
ATOM      3  C   LIG d   1       4.026  -0.239  -2.180  0.00  0.00    -0.026 C 
ATOM      4  C   LIG d   1       3.366   0.729  -3.142  0.00  0.00     0.056 C 
ATOM      5  H   LIG d   1       2.342   0.921  -2.803  0.00  0.00     0.059 H 
ATOM      6  C   LIG d   1       3.314   0.163  -4.536  0.00  0.00    -0.024 C 
ATOM      7  C   LIG d   1       4.602  -0.434  -5.054  0.00  0.00    -0.033 C 
ATOM      8  H   LIG d   1       5.025   0.379  -5.647  0.00  0.00     0.031 H 
ATOM      9  C   LIG d   1       4.243  -1.469  -6.104  0.00  0.00    -0.049 C 
ATOM     10  C   LIG d   1       5.338  -2.483  -6.412  0.00  0.00    -0.049 C 
ATOM     11  C   LIG d   1       5.794  -3.038  -5.062  0.00  0.00    -0.034 C 
ATOM     12  H   LIG d   1       4.891  -3.234  -4.450  0.00  0.00     0.031 H 
ATOM     13  C   LIG d   1       6.580  -1.911  -4.387  0.00  0.00    -0.032 C 
ATOM     14  H   LIG d   1       7.304  -1.521  -5.109  0.00  0.00     0.031 H 
ATOM     15  C   LIG d   1       7.349  -2.467  -3.201  0.00  0.00    -0.049 C 
ATOM     16  C   LIG d   1       8.488  -3.381  -3.690  0.00  0.00    -0.040 C 
ATOM     17  C   LIG d   1       8.123  -4.053  -4.985  0.00  0.00     0.029 C 
ATOM     18  C   LIG d   1       6.610  -4.284  -5.130  0.00  0.00    -0.025 C 
ATOM     19  H   LIG d   1       6.289  -4.946  -4.294  0.00  0.00     0.031 H 
ATOM     20  C   LIG d   1       6.543  -5.128  -6.409  0.00  0.00    -0.042 C 
ATOM     21  C   LIG d   1       7.768  -6.074  -6.247  0.00  0.00     0.007 C 
ATOM     22  C   LIG d   1       8.645  -5.467  -5.155  0.00  0.00     0.140 C 
ATOM     23  O   LIG d   1       9.549  -5.978  -4.555  0.00  0.00    -0.297 OA
ATOM     24  H   LIG d   1       5.704  -1.511  -2.100  0.00  0.00     0.027 H 
ATOM     25  H   LIG d   1       6.097   0.200  -2.226  0.00  0.00     0.027 H 
ATOM     26  H   LIG d   1       3.434  -1.155  -2.125  0.00  0.00     0.029 H 
ATOM     27  H   LIG d   1       4.056   0.214  -1.184  0.00  0.00     0.029 H 
ATOM     28  H   LIG d   1       3.008   0.957  -5.217  0.00  0.00     0.029 H 
ATOM     29  H   LIG d   1       2.547  -0.613  -4.558  0.00  0.00     0.029 H 
ATOM     30  H   LIG d   1       3.361  -2.015  -5.764  0.00  0.00     0.027 H 
ATOM     31  H   LIG d   1       3.985  -0.951  -7.029  0.00  0.00     0.027 H 
ATOM     32  H   LIG d   1       4.934  -3.282  -7.034  0.00  0.00     0.027 H 
ATOM     33  H   LIG d   1       6.163  -1.991  -6.924  0.00  0.00     0.027 H 
ATOM     34  H   LIG d   1       7.770  -1.651  -2.608  0.00  0.00     0.027 H 
ATOM     35  H   LIG d   1       6.675  -3.049  -2.563  0.00  0.00     0.027 H 
ATOM     36  H   LIG d   1       8.692  -4.143  -2.927  0.00  0.00     0.028 H 
ATOM     37  H   LIG d   1       9.399  -2.787  -3.826  0.00  0.00     0.028 H 
ATOM     38  H   LIG d   1       5.618  -5.709  -6.432  0.00  0.00     0.027 H 
ATOM     39  H   LIG d   1       6.630  -4.519  -7.302  0.00  0.00     0.027 H 
ATOM     40  H   LIG d   1       7.453  -6.987  -5.988  0.00  0.00     0.034 H 
ATOM     41  H   LIG d   1       8.320  -6.134  -7.183  0.00  0.00     0.034 H 
ENDROOT
BRANCH   1  42
ATOM     42  C   LIG d   1       6.644   0.423  -4.335  0.00  0.00    -0.059 C 
ATOM     43  H   LIG d   1       6.381   1.266  -3.695  0.00  0.00     0.024 H 
ATOM     44  H   LIG d   1       7.662   0.102  -4.113  0.00  0.00     0.024 H 
ATOM     45  H   LIG d   1       6.578   0.725  -5.380  0.00  0.00     0.024 H 
ENDBRANCH   1  42
BRANCH   4  46
ATOM     46  O   LIG d   1       4.082   1.965  -3.153  0.00  0.00    -0.392 OA
ATOM     47  H   LIG d   1       3.815   2.567  -3.861  0.00  0.00     0.210 HD
ENDBRANCH   4  46
BRANCH  17  48
ATOM     48  C   LIG d   1       8.688  -3.258  -6.165  0.00  0.00    -0.053 C 
ATOM     49  H   LIG d   1       8.738  -2.201  -5.901  0.00  0.00     0.024 H 
ATOM     50  H   LIG d   1       9.688  -3.621  -6.403  0.00  0.00     0.024 H 
ATOM     51  H   LIG d   1       8.040  -3.385  -7.033  0.00  0.00     0.024 H 
ENDBRANCH  17  48
TORSDOF 3
ENDMDL
MODEL 4
REMARK VINA RESULT:      -5.9      2.118      3.736
REMARK  3 active torsions:
REMARK  status: ('A' for Active; 'I' for Inactive)
REMARK    1  A    between atoms: C_1  and  C_2 
REMARK    2  A    between atoms: C_5  and  O_26 
REMARK    3  A    between atoms: C_18  and  C_25 
ROOT
ATOM      1  C   LIG d   1       4.441  -0.526  -4.366  0.00  0.00    -0.026 C 
ATOM      2  C   LIG d   1       5.219   0.744  -4.173  0.00  0.00    -0.045 C 
ATOM      3  C   LIG d   1       5.649   1.068  -2.766  0.00  0.00    -0.026 C 
ATOM      4  C   LIG d   1       4.588   0.692  -1.749  0.00  0.00     0.056 C 
ATOM      5  H   LIG d   1       4.962   0.924  -0.746  0.00  0.00     0.059 H 
ATOM      6  C   LIG d   1       4.265  -0.776  -1.815  0.00  0.00    -0.024 C 
ATOM      7  C   LIG d   1       4.015  -1.335  -3.197  0.00  0.00    -0.033 C 
ATOM      8  H   LIG d   1       2.926  -1.326  -3.270  0.00  0.00     0.031 H 
ATOM      9  C   LIG d   1       4.340  -2.817  -3.164  0.00  0.00    -0.049 C 
ATOM     10  C   LIG d   1       4.589  -3.455  -4.525  0.00  0.00    -0.049 C 
ATOM     11  C   LIG d   1       5.616  -2.565  -5.229  0.00  0.00    -0.034 C 
ATOM     12  H   LIG d   1       6.399  -2.298  -4.492  0.00  0.00     0.031 H 
ATOM     13  C   LIG d   1       4.872  -1.281  -5.606  0.00  0.00    -0.032 C 
ATOM     14  H   LIG d   1       3.937  -1.562  -6.100  0.00  0.00     0.031 H 
ATOM     15  C   LIG d   1       5.706  -0.481  -6.592  0.00  0.00    -0.049 C 
ATOM     16  C   LIG d   1       5.764  -1.210  -7.948  0.00  0.00    -0.040 C 
ATOM     17  C   LIG d   1       5.678  -2.699  -7.766  0.00  0.00     0.029 C 
ATOM     18  C   LIG d   1       6.266  -3.170  -6.426  0.00  0.00    -0.025 C 
ATOM     19  H   LIG d   1       7.342  -2.881  -6.410  0.00  0.00     0.031 H 
ATOM     20  C   LIG d   1       6.224  -4.695  -6.584  0.00  0.00    -0.042 C 
ATOM     21  C   LIG d   1       6.639  -4.887  -8.071  0.00  0.00     0.007 C 
ATOM     22  C   LIG d   1       6.496  -3.524  -8.742  0.00  0.00     0.140 C 
ATOM     23  O   LIG d   1       6.926  -3.166  -9.803  0.00  0.00    -0.297 OA
ATOM     24  H   LIG d   1       6.121   0.701  -4.786  0.00  0.00     0.027 H 
ATOM     25  H   LIG d   1       4.614   1.576  -4.542  0.00  0.00     0.027 H 
ATOM     26  H   LIG d   1       6.573   0.532  -2.539  0.00  0.00     0.029 H 
ATOM     27  H   LIG d   1       5.845   2.142  -2.694  0.00  0.00     0.029 H 
ATOM     28  H   LIG d   1       3.378  -0.960  -1.209  0.00  0.00     0.029 H 
ATOM     29  H   LIG d   1       5.096  -1.327  -1.372  0.00  0.00     0.029 H 
ATOM     30  H   LIG d   1       5.234  -2.960  -2.553  0.00  0.00     0.027 H 
ATOM     31  H   LIG d   1       3.515  -3.343  -2.684  0.00  0.00     0.027 H 
ATOM     32  H   LIG d   1       4.987  -4.460  -4.392  0.00  0.00     0.027 H 
ATOM     33  H   LIG d   1       3.660  -3.491  -5.090  0.00  0.00     0.027 H 
ATOM     34  H   LIG d   1       5.274   0.512  -6.734  0.00  0.00     0.027 H 
ATOM     35  H   LIG d   1       6.725  -0.366  -6.207  0.00  0.00     0.027 H 
ATOM     36  H   LIG d   1       6.705  -0.956  -8.454  0.00  0.00     0.028 H 
ATOM     37  H   LIG d   1       4.937  -0.866  -8.581  0.00  0.00     0.028 H 
ATOM     38  H   LIG d   1       6.956  -5.165  -5.923  0.00  0.00     0.027 H 
ATOM     39  H   LIG d   1       5.234  -5.096  -6.395  0.00  0.00     0.027 H 
ATOM     40  H   LIG d   1       7.585  -5.211  -8.114  0.00  0.00     0.034 H 
ATOM     41  H   LIG d   1       5.986  -5.613  -8.550  0.00  0.00     0.034 H 
ENDROOT
BRANCH   1  42
ATOM     42  C   LIG d   1       3.094   0.028  -4.846  0.00  0.00    -0.059 C 
ATOM     43  H   LIG d   1       2.331  -0.746  -4.757  0.00  0.00     0.024 H 
ATOM     44  H   LIG d   1       2.814   0.885  -4.234  0.00  0.00     0.024 H 
ATOM     45  H   LIG d   1       3.178   0.338  -5.887  0.00  0.00     0.024 H 
ENDBRANCH   1  42
BRANCH   4  46
ATOM     46  O   LIG d   1       3.404   1.456  -1.981  0.00  0.00    -0.392 OA
ATOM     47  H   LIG d   1       3.528   2.411  -1.893  0.00  0.00     0.210 HD
ENDBRANCH   4  46
BRANCH  17  48
ATOM     48  C   LIG d   1       4.230  -3.166  -7.942  0.00  0.00    -0.053 C 
ATOM     49  H   LIG d   1       4.124  -3.665  -8.905  0.00  0.00     0.024 H 
ATOM     50  H   LIG d   1       3.971  -3.859  -7.142  0.00  0.00     0.024 H 
ATOM     51  H   LIG d   1       3.563  -2.303  -7.904  0.00  0.00     0.024 H 
ENDBRANCH  17  48
TORSDOF 3
ENDMDL
MODEL 5
REMARK VINA RESULT:      -5.9      3.942      6.060
REMARK  3 active torsions:
REMARK  status: ('A' for Active; 'I' for Inactive)
REMARK    1  A    between atoms: C_1  and  C_2 
REMARK    2  A    between atoms: C_5  and  O_26 
REMARK    3  A    between atoms: C_18  and  C_25 
ROOT
ATOM      1  C   LIG d   1       7.817  -2.849  -4.544  0.00  0.00    -0.026 C 
ATOM      2  C   LIG d   1       8.900  -2.052  -5.213  0.00  0.00    -0.045 C 
ATOM      3  C   LIG d   1       9.405  -2.572  -6.535  0.00  0.00    -0.026 C 
ATOM      4  C   LIG d   1       9.485  -4.086  -6.554  0.00  0.00     0.056 C 
ATOM      5  H   LIG d   1       9.831  -4.409  -7.542  0.00  0.00     0.059 H 
ATOM      6  C   LIG d   1       8.141  -4.707  -6.288  0.00  0.00    -0.024 C 
ATOM      7  C   LIG d   1       7.377  -4.149  -5.108  0.00  0.00    -0.033 C 
ATOM      8  H   LIG d   1       7.607  -4.859  -4.312  0.00  0.00     0.031 H 
ATOM      9  C   LIG d   1       5.900  -4.387  -5.358  0.00  0.00    -0.049 C 
ATOM     10  C   LIG d   1       4.957  -3.517  -4.535  0.00  0.00    -0.049 C 
ATOM     11  C   LIG d   1       5.439  -2.077  -4.721  0.00  0.00    -0.034 C 
ATOM     12  H   LIG d   1       5.675  -1.931  -5.793  0.00  0.00     0.031 H 
ATOM     13  C   LIG d   1       6.747  -1.966  -3.934  0.00  0.00    -0.032 C 
ATOM     14  H   LIG d   1       6.581  -2.381  -2.935  0.00  0.00     0.031 H 
ATOM     15  C   LIG d   1       7.127  -0.503  -3.782  0.00  0.00    -0.049 C 
ATOM     16  C   LIG d   1       6.141   0.202  -2.832  0.00  0.00    -0.040 C 
ATOM     17  C   LIG d   1       4.776  -0.422  -2.909  0.00  0.00     0.029 C 
ATOM     18  C   LIG d   1       4.474  -1.025  -4.290  0.00  0.00    -0.025 C 
ATOM     19  H   LIG d   1       4.519  -0.198  -5.036  0.00  0.00     0.031 H 
ATOM     20  C   LIG d   1       2.996  -1.407  -4.150  0.00  0.00    -0.042 C 
ATOM     21  C   LIG d   1       2.417  -0.206  -3.348  0.00  0.00     0.007 C 
ATOM     22  C   LIG d   1       3.610   0.538  -2.756  0.00  0.00     0.140 C 
ATOM     23  O   LIG d   1       3.641   1.636  -2.274  0.00  0.00    -0.297 OA
ATOM     24  H   LIG d   1       8.536  -1.037  -5.382  0.00  0.00     0.027 H 
ATOM     25  H   LIG d   1       9.749  -1.985  -4.529  0.00  0.00     0.027 H 
ATOM     26  H   LIG d   1       8.739  -2.235  -7.332  0.00  0.00     0.029 H 
ATOM     27  H   LIG d   1      10.402  -2.160  -6.719  0.00  0.00     0.029 H 
ATOM     28  H   LIG d   1       8.283  -5.776  -6.126  0.00  0.00     0.029 H 
ATOM     29  H   LIG d   1       7.526  -4.581  -7.181  0.00  0.00     0.029 H 
ATOM     30  H   LIG d   1       5.694  -4.203  -6.415  0.00  0.00     0.027 H 
ATOM     31  H   LIG d   1       5.675  -5.432  -5.146  0.00  0.00     0.027 H 
ATOM     32  H   LIG d   1       3.939  -3.627  -4.906  0.00  0.00     0.027 H 
ATOM     33  H   LIG d   1       5.008  -3.808  -3.488  0.00  0.00     0.027 H 
ATOM     34  H   LIG d   1       8.140  -0.416  -3.381  0.00  0.00     0.027 H 
ATOM     35  H   LIG d   1       7.095  -0.009  -4.758  0.00  0.00     0.027 H 
ATOM     36  H   LIG d   1       6.075   1.264  -3.104  0.00  0.00     0.028 H 
ATOM     37  H   LIG d   1       6.518   0.141  -1.804  0.00  0.00     0.028 H 
ATOM     38  H   LIG d   1       2.524  -1.467  -5.133  0.00  0.00     0.027 H 
ATOM     39  H   LIG d   1       2.867  -2.340  -3.612  0.00  0.00     0.027 H 
ATOM     40  H   LIG d   1       1.893   0.384  -3.962  0.00  0.00     0.034 H 
ATOM     41  H   LIG d   1       1.767  -0.568  -2.552  0.00  0.00     0.034 H 
ENDROOT
BRANCH   1  42
ATOM     42  C   LIG d   1       8.539  -3.310  -3.273  0.00  0.00    -0.059 C 
ATOM     43  H   LIG d   1       8.678  -4.391  -3.307  0.00  0.00     0.024 H 
ATOM     44  H   LIG d   1       9.511  -2.821  -3.208  0.00  0.00     0.024 H 
ATOM     45  H   LIG d   1       7.942  -3.048  -2.399  0.00  0.00     0.024 H 
ENDBRANCH   1  42
BRANCH   4  46
ATOM     46  O   LIG d   1      10.423  -4.533  -5.574  0.00  0.00    -0.392 OA
ATOM     47  H   LIG d   1      10.113  -5.283  -5.047  0.00  0.00     0.210 HD
ENDBRANCH   4  46
BRANCH  17  48
ATOM     48  C   LIG d   1       4.609  -1.457  -1.793  0.00  0.00    -0.053 C 
ATOM     49  H   LIG d   1       4.693  -2.460  -2.212  0.00  0.00     0.024 H 
ATOM     50  H   LIG d   1       5.384  -1.310  -1.042  0.00  0.00     0.024 H 
ATOM     51  H   LIG d   1       3.628  -1.337  -1.331  0.00  0.00     0.024 H 
ENDBRANCH  17  48
TORSDOF 3
ENDMDL
MODEL 6
REMARK VINA RESULT:      -5.7      2.680      3.657
REMARK  3 active torsions:
REMARK  status: ('A' for Active; 'I' for Inactive)
REMARK    1  A    between atoms: C_1  and  C_2 
REMARK    2  A    between atoms: C_5  and  O_26 
REMARK    3  A    between atoms: C_18  and  C_25 
ROOT
ATOM      1  C   LIG d   1       5.464  -1.020  -4.139  0.00  0.00    -0.026 C 
ATOM      2  C   LIG d   1       5.452  -1.558  -2.737  0.00  0.00    -0.045 C 
ATOM      3  C   LIG d   1       4.315  -1.118  -1.852  0.00  0.00    -0.026 C 
ATOM      4  C   LIG d   1       3.944   0.334  -2.087  0.00  0.00     0.056 C 
ATOM      5  H   LIG d   1       3.099   0.592  -1.440  0.00  0.00     0.059 H 
ATOM      6  C   LIG d   1       3.544   0.570  -3.519  0.00  0.00    -0.024 C 
ATOM      7  C   LIG d   1       4.471  -0.004  -4.566  0.00  0.00    -0.033 C 
ATOM      8  H   LIG d   1       5.090   0.853  -4.838  0.00  0.00     0.031 H 
ATOM      9  C   LIG d   1       3.656  -0.245  -5.823  0.00  0.00    -0.049 C 
ATOM     10  C   LIG d   1       4.277  -1.219  -6.818  0.00  0.00    -0.049 C 
ATOM     11  C   LIG d   1       4.646  -2.468  -6.015  0.00  0.00    -0.034 C 
ATOM     12  H   LIG d   1       3.804  -2.697  -5.333  0.00  0.00     0.031 H 
ATOM     13  C   LIG d   1       5.851  -2.074  -5.156  0.00  0.00    -0.032 C 
ATOM     14  H   LIG d   1       6.584  -1.582  -5.802  0.00  0.00     0.031 H 
ATOM     15  C   LIG d   1       6.493  -3.324  -4.578  0.00  0.00    -0.049 C 
ATOM     16  C   LIG d   1       7.171  -4.136  -5.698  0.00  0.00    -0.040 C 
ATOM     17  C   LIG d   1       6.454  -3.954  -7.007  0.00  0.00     0.029 C 
ATOM     18  C   LIG d   1       4.952  -3.678  -6.830  0.00  0.00    -0.025 C 
ATOM     19  H   LIG d   1       4.507  -4.558  -6.310  0.00  0.00     0.031 H 
ATOM     20  C   LIG d   1       4.452  -3.725  -8.279  0.00  0.00    -0.042 C 
ATOM     21  C   LIG d   1       5.268  -4.909  -8.874  0.00  0.00     0.007 C 
ATOM     22  C   LIG d   1       6.415  -5.177  -7.905  0.00  0.00     0.140 C 
ATOM     23  O   LIG d   1       7.136  -6.134  -7.848  0.00  0.00    -0.297 OA
ATOM     24  H   LIG d   1       5.426  -2.649  -2.779  0.00  0.00     0.027 H 
ATOM     25  H   LIG d   1       6.388  -1.273  -2.253  0.00  0.00     0.027 H 
ATOM     26  H   LIG d   1       3.444  -1.749  -2.044  0.00  0.00     0.029 H 
ATOM     27  H   LIG d   1       4.610  -1.244  -0.806  0.00  0.00     0.029 H 
ATOM     28  H   LIG d   1       3.471   1.645  -3.682  0.00  0.00     0.029 H 
ATOM     29  H   LIG d   1       2.553   0.139  -3.670  0.00  0.00     0.029 H 
ATOM     30  H   LIG d   1       2.678  -0.636  -5.531  0.00  0.00     0.027 H 
ATOM     31  H   LIG d   1       3.502   0.709  -6.327  0.00  0.00     0.027 H 
ATOM     32  H   LIG d   1       3.550  -1.466  -7.591  0.00  0.00     0.027 H 
ATOM     33  H   LIG d   1       5.163  -0.773  -7.265  0.00  0.00     0.027 H 
ATOM     34  H   LIG d   1       7.239  -3.052  -3.827  0.00  0.00     0.027 H 
ATOM     35  H   LIG d   1       5.729  -3.946  -4.101  0.00  0.00     0.027 H 
ATOM     36  H   LIG d   1       7.170  -5.198  -5.424  0.00  0.00     0.028 H 
ATOM     37  H   LIG d   1       8.214  -3.814  -5.801  0.00  0.00     0.028 H 
ATOM     38  H   LIG d   1       3.383  -3.953  -8.304  0.00  0.00     0.027 H 
ATOM     39  H   LIG d   1       4.653  -2.801  -8.808  0.00  0.00     0.027 H 
ATOM     40  H   LIG d   1       4.677  -5.711  -8.962  0.00  0.00     0.034 H 
ATOM     41  H   LIG d   1       5.658  -4.638  -9.853  0.00  0.00     0.034 H 
ENDROOT
BRANCH   1  42
ATOM     42  C   LIG d   1       6.749  -0.184  -4.119  0.00  0.00    -0.059 C 
ATOM     43  H   LIG d   1       6.500   0.867  -4.268  0.00  0.00     0.024 H 
ATOM     44  H   LIG d   1       7.247  -0.307  -3.157  0.00  0.00     0.024 H 
ATOM     45  H   LIG d   1       7.412  -0.518  -4.917  0.00  0.00     0.024 H 
ENDBRANCH   1  42
BRANCH   4  46
ATOM     46  O   LIG d   1       5.048   1.175  -1.752  0.00  0.00    -0.392 OA
ATOM     47  H   LIG d   1       5.912   0.769  -1.907  0.00  0.00     0.210 HD
ENDBRANCH   4  46
BRANCH  17  48
ATOM     48  C   LIG d   1       7.136  -2.858  -7.831  0.00  0.00    -0.053 C 
ATOM     49  H   LIG d   1       6.425  -2.446  -8.547  0.00  0.00     0.024 H 
ATOM     50  H   LIG d   1       7.483  -2.067  -7.167  0.00  0.00     0.024 H 
ATOM     51  H   LIG d   1       7.987  -3.282  -8.366  0.00  0.00     0.024 H 
ENDBRANCH  17  48
TORSDOF 3
ENDMDL
MODEL 7
REMARK VINA RESULT:      -5.7      2.524      6.129
REMARK  3 active torsions:
REMARK  status: ('A' for Active; 'I' for Inactive)
REMARK    1  A    between atoms: C_1  and  C_2 
REMARK    2  A    between atoms: C_5  and  O_26 
REMARK    3  A    between atoms: C_18  and  C_25 
ROOT
ATOM      1  C   LIG d   1       5.916  -3.050  -7.323  0.00  0.00    -0.026 C 
ATOM      2  C   LIG d   1       5.633  -2.221  -8.543  0.00  0.00    -0.045 C 
ATOM      3  C   LIG d   1       4.731  -2.832  -9.583  0.00  0.00    -0.026 C 
ATOM      4  C   LIG d   1       4.980  -4.319  -9.745  0.00  0.00     0.056 C 
ATOM      5  H   LIG d   1       4.282  -4.715 -10.491  0.00  0.00     0.059 H 
ATOM      6  C   LIG d   1       4.766  -5.052  -8.448  0.00  0.00    -0.024 C 
ATOM      7  C   LIG d   1       5.429  -4.448  -7.231  0.00  0.00    -0.033 C 
ATOM      8  H   LIG d   1       6.349  -5.029  -7.143  0.00  0.00     0.031 H 
ATOM      9  C   LIG d   1       4.638  -4.879  -6.011  0.00  0.00    -0.049 C 
ATOM     10  C   LIG d   1       4.859  -4.031  -4.765  0.00  0.00    -0.049 C 
ATOM     11  C   LIG d   1       4.667  -2.577  -5.202  0.00  0.00    -0.034 C 
ATOM     12  H   LIG d   1       3.776  -2.533  -5.859  0.00  0.00     0.031 H 
ATOM     13  C   LIG d   1       5.892  -2.228  -6.051  0.00  0.00    -0.032 C 
ATOM     14  H   LIG d   1       6.787  -2.538  -5.502  0.00  0.00     0.031 H 
ATOM     15  C   LIG d   1       5.959  -0.724  -6.253  0.00  0.00    -0.049 C 
ATOM     16  C   LIG d   1       6.302  -0.027  -4.922  0.00  0.00    -0.040 C 
ATOM     17  C   LIG d   1       5.771  -0.806  -3.751  0.00  0.00     0.029 C 
ATOM     18  C   LIG d   1       4.498  -1.597  -4.091  0.00  0.00    -0.025 C 
ATOM     19  H   LIG d   1       3.718  -0.864  -4.402  0.00  0.00     0.031 H 
ATOM     20  C   LIG d   1       4.080  -2.125  -2.713  0.00  0.00    -0.042 C 
ATOM     21  C   LIG d   1       4.380  -0.911  -1.787  0.00  0.00     0.007 C 
ATOM     22  C   LIG d   1       5.285   0.028  -2.580  0.00  0.00     0.140 C 
ATOM     23  O   LIG d   1       5.562   1.171  -2.347  0.00  0.00    -0.297 OA
ATOM     24  H   LIG d   1       5.177  -1.279  -8.230  0.00  0.00     0.027 H 
ATOM     25  H   LIG d   1       6.585  -1.978  -9.020  0.00  0.00     0.027 H 
ATOM     26  H   LIG d   1       3.690  -2.669  -9.297  0.00  0.00     0.029 H 
ATOM     27  H   LIG d   1       4.909  -2.335 -10.542  0.00  0.00     0.029 H 
ATOM     28  H   LIG d   1       5.135  -6.071  -8.566  0.00  0.00     0.029 H 
ATOM     29  H   LIG d   1       3.692  -5.102  -8.260  0.00  0.00     0.029 H 
ATOM     30  H   LIG d   1       3.575  -4.846  -6.259  0.00  0.00     0.027 H 
ATOM     31  H   LIG d   1       4.898  -5.911  -5.774  0.00  0.00     0.027 H 
ATOM     32  H   LIG d   1       4.127  -4.297  -4.004  0.00  0.00     0.027 H 
ATOM     33  H   LIG d   1       5.867  -4.188  -4.386  0.00  0.00     0.027 H 
ATOM     34  H   LIG d   1       6.720  -0.476  -6.997  0.00  0.00     0.027 H 
ATOM     35  H   LIG d   1       4.991  -0.355  -6.607  0.00  0.00     0.027 H 
ATOM     36  H   LIG d   1       5.866   0.981  -4.920  0.00  0.00     0.028 H 
ATOM     37  H   LIG d   1       7.390   0.076  -4.835  0.00  0.00     0.028 H 
ATOM     38  H   LIG d   1       3.011  -2.353  -2.702  0.00  0.00     0.027 H 
ATOM     39  H   LIG d   1       4.655  -2.996  -2.420  0.00  0.00     0.027 H 
ATOM     40  H   LIG d   1       3.522  -0.460  -1.540  0.00  0.00     0.034 H 
ATOM     41  H   LIG d   1       4.886  -1.247  -0.884  0.00  0.00     0.034 H 
ENDROOT
BRANCH   1  42
ATOM     42  C   LIG d   1       7.426  -3.274  -7.467  0.00  0.00    -0.059 C 
ATOM     43  H   LIG d   1       7.957  -2.642  -6.754  0.00  0.00     0.024 H 
ATOM     44  H   LIG d   1       7.659  -4.320  -7.268  0.00  0.00     0.024 H 
ATOM     45  H   LIG d   1       7.737  -3.020  -8.480  0.00  0.00     0.024 H 
ENDBRANCH   1  42
BRANCH   4  46
ATOM     46  O   LIG d   1       6.313  -4.539 -10.207  0.00  0.00    -0.392 OA
ATOM     47  H   LIG d   1       6.492  -4.168 -11.082  0.00  0.00     0.210 HD
ENDBRANCH   4  46
BRANCH  17  48
ATOM     48  C   LIG d   1       6.866  -1.714  -3.186  0.00  0.00    -0.053 C 
ATOM     49  H   LIG d   1       6.931  -1.577  -2.106  0.00  0.00     0.024 H 
ATOM     50  H   LIG d   1       6.627  -2.754  -3.407  0.00  0.00     0.024 H 
ATOM     51  H   LIG d   1       7.823  -1.457  -3.643  0.00  0.00     0.024 H 
ENDBRANCH  17  48
TORSDOF 3
ENDMDL
MODEL 8
REMARK VINA RESULT:      -5.7      3.489      6.550
REMARK  3 active torsions:
REMARK  status: ('A' for Active; 'I' for Inactive)
REMARK    1  A    between atoms: C_1  and  C_2 
REMARK    2  A    between atoms: C_5  and  O_26 
REMARK    3  A    between atoms: C_18  and  C_25 
ROOT
ATOM      1  C   LIG d   1       8.968  -0.565  -5.554  0.00  0.00    -0.026 C 
ATOM      2  C   LIG d   1       9.969  -1.659  -5.316  0.00  0.00    -0.045 C 
ATOM      3  C   LIG d   1      11.378  -1.231  -4.996  0.00  0.00    -0.026 C 
ATOM      4  C   LIG d   1      11.795  -0.013  -5.798  0.00  0.00     0.056 C 
ATOM      5  H   LIG d   1      12.813   0.270  -5.508  0.00  0.00     0.059 H 
ATOM      6  C   LIG d   1      10.879   1.152  -5.537  0.00  0.00    -0.024 C 
ATOM      7  C   LIG d   1       9.398   0.855  -5.599  0.00  0.00    -0.033 C 
ATOM      8  H   LIG d   1       9.130   1.166  -6.610  0.00  0.00     0.031 H 
ATOM      9  C   LIG d   1       8.684   1.873  -4.731  0.00  0.00    -0.049 C 
ATOM     10  C   LIG d   1       7.275   1.481  -4.302  0.00  0.00    -0.049 C 
ATOM     11  C   LIG d   1       7.386   0.072  -3.717  0.00  0.00    -0.034 C 
ATOM     12  H   LIG d   1       8.286   0.039  -3.072  0.00  0.00     0.031 H 
ATOM     13  C   LIG d   1       7.630  -0.859  -4.908  0.00  0.00    -0.032 C 
ATOM     14  H   LIG d   1       6.891  -0.626  -5.680  0.00  0.00     0.031 H 
ATOM     15  C   LIG d   1       7.425  -2.301  -4.477  0.00  0.00    -0.049 C 
ATOM     16  C   LIG d   1       5.933  -2.559  -4.189  0.00  0.00    -0.040 C 
ATOM     17  C   LIG d   1       5.255  -1.313  -3.693  0.00  0.00     0.029 C 
ATOM     18  C   LIG d   1       6.207  -0.382  -2.926  0.00  0.00    -0.025 C 
ATOM     19  H   LIG d   1       6.589  -0.944  -2.042  0.00  0.00     0.031 H 
ATOM     20  C   LIG d   1       5.241   0.680  -2.386  0.00  0.00    -0.042 C 
ATOM     21  C   LIG d   1       4.005  -0.173  -1.978  0.00  0.00     0.007 C 
ATOM     22  C   LIG d   1       4.170  -1.530  -2.654  0.00  0.00     0.140 C 
ATOM     23  O   LIG d   1       3.584  -2.553  -2.429  0.00  0.00    -0.297 OA
ATOM     24  H   LIG d   1       9.622  -2.278  -4.486  0.00  0.00     0.027 H 
ATOM     25  H   LIG d   1      10.002  -2.293  -6.204  0.00  0.00     0.027 H 
ATOM     26  H   LIG d   1      11.452  -1.004  -3.930  0.00  0.00     0.029 H 
ATOM     27  H   LIG d   1      12.059  -2.056  -5.223  0.00  0.00     0.029 H 
ATOM     28  H   LIG d   1      11.100   1.932  -6.265  0.00  0.00     0.029 H 
ATOM     29  H   LIG d   1      11.104   1.545  -4.544  0.00  0.00     0.029 H 
ATOM     30  H   LIG d   1       9.279   2.037  -3.830  0.00  0.00     0.027 H 
ATOM     31  H   LIG d   1       8.627   2.816  -5.275  0.00  0.00     0.027 H 
ATOM     32  H   LIG d   1       6.915   2.178  -3.545  0.00  0.00     0.027 H 
ATOM     33  H   LIG d   1       6.612   1.489  -5.164  0.00  0.00     0.027 H 
ATOM     34  H   LIG d   1       7.764  -2.982  -5.261  0.00  0.00     0.027 H 
ATOM     35  H   LIG d   1       8.001  -2.501  -3.567  0.00  0.00     0.027 H 
ATOM     36  H   LIG d   1       5.843  -3.351  -3.435  0.00  0.00     0.028 H 
ATOM     37  H   LIG d   1       5.441  -2.908  -5.105  0.00  0.00     0.028 H 
ATOM     38  H   LIG d   1       5.668   1.170  -1.508  0.00  0.00     0.027 H 
ATOM     39  H   LIG d   1       4.983   1.414  -3.140  0.00  0.00     0.027 H 
ATOM     40  H   LIG d   1       3.979  -0.268  -0.983  0.00  0.00     0.034 H 
ATOM     41  H   LIG d   1       3.090   0.309  -2.319  0.00  0.00     0.034 H 
ENDROOT
BRANCH   1  42
ATOM     42  C   LIG d   1       8.614  -0.811  -7.025  0.00  0.00    -0.059 C 
ATOM     43  H   LIG d   1       9.391  -1.418  -7.490  0.00  0.00     0.024 H 
ATOM     44  H   LIG d   1       7.659  -1.334  -7.087  0.00  0.00     0.024 H 
ATOM     45  H   LIG d   1       8.538   0.144  -7.546  0.00  0.00     0.024 H 
ENDBRANCH   1  42
BRANCH   4  46
ATOM     46  O   LIG d   1      11.789  -0.326  -7.191  0.00  0.00    -0.392 OA
ATOM     47  H   LIG d   1      12.568  -0.815  -7.487  0.00  0.00     0.210 HD
ENDBRANCH   4  46
BRANCH  17  48
ATOM     48  C   LIG d   1       4.574  -0.588  -4.857  0.00  0.00    -0.053 C 
ATOM     49  H   LIG d   1       3.644  -1.099  -5.109  0.00  0.00     0.024 H 
ATOM     50  H   LIG d   1       4.357   0.441  -4.569  0.00  0.00     0.024 H 
ATOM     51  H   LIG d   1       5.236  -0.590  -5.724  0.00  0.00     0.024 H 
ENDBRANCH  17  48
TORSDOF 3
ENDMDL
MODEL 9
REMARK VINA RESULT:      -5.6     11.224     13.838
REMARK  3 active torsions:
REMARK  status: ('A' for Active; 'I' for Inactive)
REMARK    1  A    between atoms: C_1  and  C_2 
REMARK    2  A    between atoms: C_5  and  O_26 
REMARK    3  A    between atoms: C_18  and  C_25 
ROOT
ATOM      1  C   LIG d   1      10.607  10.440  -2.714  0.00  0.00    -0.026 C 
ATOM      2  C   LIG d   1       9.656  11.557  -2.394  0.00  0.00    -0.045 C 
ATOM      3  C   LIG d   1       8.580  11.842  -3.409  0.00  0.00    -0.026 C 
ATOM      4  C   LIG d   1       9.087  11.691  -4.830  0.00  0.00     0.056 C 
ATOM      5  H   LIG d   1       8.261  11.883  -5.523  0.00  0.00     0.059 H 
ATOM      6  C   LIG d   1       9.612  10.302  -5.078  0.00  0.00    -0.024 C 
ATOM      7  C   LIG d   1      10.552   9.754  -4.029  0.00  0.00    -0.033 C 
ATOM      8  H   LIG d   1      11.536   9.954  -4.457  0.00  0.00     0.031 H 
ATOM      9  C   LIG d   1      10.464   8.241  -4.073  0.00  0.00    -0.049 C 
ATOM     10  C   LIG d   1      10.971   7.527  -2.825  0.00  0.00    -0.049 C 
ATOM     11  C   LIG d   1      10.273   8.199  -1.640  0.00  0.00    -0.034 C 
ATOM     12  H   LIG d   1       9.208   8.345  -1.909  0.00  0.00     0.031 H 
ATOM     13  C   LIG d   1      10.915   9.582  -1.503  0.00  0.00    -0.032 C 
ATOM     14  H   LIG d   1      12.001   9.457  -1.520  0.00  0.00     0.031 H 
ATOM     15  C   LIG d   1      10.530  10.191  -0.166  0.00  0.00    -0.049 C 
ATOM     16  C   LIG d   1      11.214   9.423   0.981  0.00  0.00    -0.040 C 
ATOM     17  C   LIG d   1      11.418   7.979   0.618  0.00  0.00     0.029 C 
ATOM     18  C   LIG d   1      10.349   7.452  -0.352  0.00  0.00    -0.025 C 
ATOM     19  H   LIG d   1       9.360   7.546   0.152  0.00  0.00     0.031 H 
ATOM     20  C   LIG d   1      10.677   5.955  -0.398  0.00  0.00    -0.042 C 
ATOM     21  C   LIG d   1      11.032   5.647   1.085  0.00  0.00     0.007 C 
ATOM     22  C   LIG d   1      11.275   6.993   1.763  0.00  0.00     0.140 C 
ATOM     23  O   LIG d   1      11.341   7.237   2.935  0.00  0.00    -0.297 OA
ATOM     24  H   LIG d   1       9.158  11.335  -1.447  0.00  0.00     0.027 H 
ATOM     25  H   LIG d   1      10.237  12.471  -2.250  0.00  0.00     0.027 H 
ATOM     26  H   LIG d   1       7.744  11.157  -3.250  0.00  0.00     0.029 H 
ATOM     27  H   LIG d   1       8.221  12.865  -3.267  0.00  0.00     0.029 H 
ATOM     28  H   LIG d   1      10.131  10.297  -6.036  0.00  0.00     0.029 H 
ATOM     29  H   LIG d   1       8.758   9.626  -5.154  0.00  0.00     0.029 H 
ATOM     30  H   LIG d   1       9.420   7.959  -4.224  0.00  0.00     0.027 H 
ATOM     31  H   LIG d   1      11.038   7.883  -4.928  0.00  0.00     0.027 H 
ATOM     32  H   LIG d   1      10.705   6.472  -2.872  0.00  0.00     0.027 H 
ATOM     33  H   LIG d   1      12.050   7.640  -2.749  0.00  0.00     0.027 H 
ATOM     34  H   LIG d   1      10.831  11.241  -0.128  0.00  0.00     0.027 H 
ATOM     35  H   LIG d   1       9.444  10.135  -0.033  0.00  0.00     0.027 H 
ATOM     36  H   LIG d   1      10.591   9.490   1.882  0.00  0.00     0.028 H 
ATOM     37  H   LIG d   1      12.181   9.888   1.204  0.00  0.00     0.028 H 
ATOM     38  H   LIG d   1       9.797   5.382  -0.702  0.00  0.00     0.027 H 
ATOM     39  H   LIG d   1      11.512   5.742  -1.057  0.00  0.00     0.027 H 
ATOM     40  H   LIG d   1      10.273   5.159   1.516  0.00  0.00     0.034 H 
ATOM     41  H   LIG d   1      11.931   5.034   1.134  0.00  0.00     0.034 H 
ENDROOT
BRANCH   1  42
ATOM     42  C   LIG d   1      11.928  11.208  -2.839  0.00  0.00    -0.059 C 
ATOM     43  H   LIG d   1      12.761  10.506  -2.799  0.00  0.00     0.024 H 
ATOM     44  H   LIG d   1      11.948  11.744  -3.788  0.00  0.00     0.024 H 
ATOM     45  H   LIG d   1      12.013  11.921  -2.018  0.00  0.00     0.024 H 
ENDBRANCH   1  42
BRANCH   4  46
ATOM     46  O   LIG d   1      10.121  12.645  -5.078  0.00  0.00    -0.392 OA
ATOM     47  H   LIG d   1       9.957  13.211  -5.844  0.00  0.00     0.210 HD
ENDBRANCH   4  46
BRANCH  17  48
ATOM     48  C   LIG d   1      12.831   7.772   0.067  0.00  0.00    -0.053 C 
ATOM     49  H   LIG d   1      13.072   8.576  -0.628  0.00  0.00     0.024 H 
ATOM     50  H   LIG d   1      13.546   7.776   0.890  0.00  0.00     0.024 H 
ATOM     51  H   LIG d   1      12.882   6.814  -0.453  0.00  0.00     0.024 H 
ENDBRANCH  17  48
TORSDOF 3
ENDMDL
MODEL 10
REMARK VINA RESULT:      -5.5      1.848      5.814
REMARK  3 active torsions:
REMARK  status: ('A' for Active; 'I' for Inactive)
REMARK    1  A    between atoms: C_1  and  C_2 
REMARK    2  A    between atoms: C_5  and  O_26 
REMARK    3  A    between atoms: C_18  and  C_25 
ROOT
ATOM      1  C   LIG d   1       4.014  -1.173  -8.573  0.00  0.00    -0.026 C 
ATOM      2  C   LIG d   1       4.876  -1.032  -9.794  0.00  0.00    -0.045 C 
ATOM      3  C   LIG d   1       4.676   0.207 -10.627  0.00  0.00    -0.026 C 
ATOM      4  C   LIG d   1       3.214   0.604 -10.709  0.00  0.00     0.056 C 
ATOM      5  H   LIG d   1       3.129   1.521 -11.301  0.00  0.00     0.059 H 
ATOM      6  C   LIG d   1       2.640   0.858  -9.340  0.00  0.00    -0.024 C 
ATOM      7  C   LIG d   1       2.933  -0.194  -8.295  0.00  0.00    -0.033 C 
ATOM      8  H   LIG d   1       2.030  -0.807  -8.308  0.00  0.00     0.031 H 
ATOM      9  C   LIG d   1       2.870   0.474  -6.935  0.00  0.00    -0.049 C 
ATOM     10  C   LIG d   1       3.566  -0.283  -5.810  0.00  0.00    -0.049 C 
ATOM     11  C   LIG d   1       4.969  -0.611  -6.325  0.00  0.00    -0.034 C 
ATOM     12  H   LIG d   1       5.366   0.289  -6.834  0.00  0.00     0.031 H 
ATOM     13  C   LIG d   1       4.785  -1.703  -7.382  0.00  0.00    -0.032 C 
ATOM     14  H   LIG d   1       4.143  -2.482  -6.959  0.00  0.00     0.031 H 
ATOM     15  C   LIG d   1       6.131  -2.326  -7.710  0.00  0.00    -0.049 C 
ATOM     16  C   LIG d   1       6.639  -3.147  -6.510  0.00  0.00    -0.040 C 
ATOM     17  C   LIG d   1       6.152  -2.566  -5.212  0.00  0.00     0.029 C 
ATOM     18  C   LIG d   1       5.942  -1.045  -5.282  0.00  0.00    -0.025 C 
ATOM     19  H   LIG d   1       6.926  -0.580  -5.522  0.00  0.00     0.031 H 
ATOM     20  C   LIG d   1       5.641  -0.703  -3.818  0.00  0.00    -0.042 C 
ATOM     21  C   LIG d   1       6.636  -1.620  -3.051  0.00  0.00     0.007 C 
ATOM     22  C   LIG d   1       7.120  -2.667  -4.048  0.00  0.00     0.140 C 
ATOM     23  O   LIG d   1       8.055  -3.413  -3.953  0.00  0.00    -0.297 OA
ATOM     24  H   LIG d   1       5.924  -1.051  -9.488  0.00  0.00     0.027 H 
ATOM     25  H   LIG d   1       4.708  -1.901 -10.434  0.00  0.00     0.027 H 
ATOM     26  H   LIG d   1       5.249   1.029 -10.193  0.00  0.00     0.029 H 
ATOM     27  H   LIG d   1       5.049   0.019 -11.638  0.00  0.00     0.029 H 
ATOM     28  H   LIG d   1       1.559   0.953  -9.434  0.00  0.00     0.029 H 
ATOM     29  H   LIG d   1       3.032   1.812  -8.981  0.00  0.00     0.029 H 
ATOM     30  H   LIG d   1       3.330   1.462  -7.013  0.00  0.00     0.027 H 
ATOM     31  H   LIG d   1       1.824   0.609  -6.661  0.00  0.00     0.027 H 
ATOM     32  H   LIG d   1       3.626   0.348  -4.924  0.00  0.00     0.027 H 
ATOM     33  H   LIG d   1       3.016  -1.195  -5.585  0.00  0.00     0.027 H 
ATOM     34  H   LIG d   1       6.043  -2.978  -8.583  0.00  0.00     0.027 H 
ATOM     35  H   LIG d   1       6.858  -1.539  -7.935  0.00  0.00     0.027 H 
ATOM     36  H   LIG d   1       7.737  -3.156  -6.519  0.00  0.00     0.028 H 
ATOM     37  H   LIG d   1       6.293  -4.183  -6.605  0.00  0.00     0.028 H 
ATOM     38  H   LIG d   1       5.866   0.348  -3.620  0.00  0.00     0.027 H 
ATOM     39  H   LIG d   1       4.613  -0.925  -3.552  0.00  0.00     0.027 H 
ATOM     40  H   LIG d   1       7.398  -1.071  -2.707  0.00  0.00     0.034 H 
ATOM     41  H   LIG d   1       6.131  -2.101  -2.215  0.00  0.00     0.034 H 
ENDROOT
BRANCH   1  42
ATOM     42  C   LIG d   1       3.195  -2.417  -8.937  0.00  0.00    -0.059 C 
ATOM     43  H   LIG d   1       2.488  -2.633  -8.135  0.00  0.00     0.024 H 
ATOM     44  H   LIG d   1       2.650  -2.236  -9.863  0.00  0.00     0.024 H 
ATOM     45  H   LIG d   1       3.864  -3.267  -9.070  0.00  0.00     0.024 H 
ENDBRANCH   1  42
BRANCH   4  46
ATOM     46  O   LIG d   1       2.468  -0.428 -11.357  0.00  0.00    -0.392 OA
ATOM     47  H   LIG d   1       1.963  -0.987 -10.751  0.00  0.00     0.210 HD
ENDBRANCH   4  46
BRANCH  17  48
ATOM     48  C   LIG d   1       4.882  -3.291  -4.758  0.00  0.00    -0.053 C 
ATOM     49  H   LIG d   1       4.514  -2.837  -3.838  0.00  0.00     0.024 H 
ATOM     50  H   LIG d   1       4.121  -3.212  -5.533  0.00  0.00     0.024 H 
ATOM     51  H   LIG d   1       5.109  -4.343  -4.578  0.00  0.00     0.024 H 
ENDBRANCH  17  48
TORSDOF 3
ENDMDL
