MODEL 1
REMARK VINA RESULT:      -4.7      0.000      0.000
REMARK  3 active torsions:
REMARK  status: ('A' for Active; 'I' for Inactive)
REMARK    1  A    between atoms: C_1  and  C_2 
REMARK    2  A    between atoms: C_4  and  O_12 
REMARK    3  A    between atoms: C_6  and  O_11 
ROOT
ATOM      1  C   LIG d   1       3.401   0.013  -4.008  0.00  0.00     0.125 C 
ATOM      2  H   LIG d   1       4.367   0.030  -4.512  0.00  0.00     0.076 H 
ATOM      3  C   LIG d   1       3.415   0.992  -2.827  0.00  0.00     0.121 C 
ATOM      4  H   LIG d   1       2.467   0.937  -2.291  0.00  0.00     0.066 H 
ATOM      5  C   LIG d   1       4.562   0.596  -1.890  0.00  0.00     0.106 C 
ATOM      6  H   LIG d   1       4.454   1.118  -0.941  0.00  0.00     0.067 H 
ATOM      7  C   LIG d   1       4.524  -0.890  -1.654  0.00  0.00    -0.019 C 
ATOM      8  C   LIG d   1       3.859  -1.707  -2.427  0.00  0.00     0.084 C 
ATOM      9  O   LIG d   1       3.144  -1.299  -3.499  0.00  0.00    -0.494 OA
ATOM     10  H   LIG d   1       5.067  -1.296  -0.814  0.00  0.00     0.063 H 
ATOM     11  H   LIG d   1       3.884  -2.762  -2.199  0.00  0.00     0.102 H 
ENDROOT
BRANCH   1  12
ATOM     12  C   LIG d   1       2.299   0.408  -4.993  0.00  0.00    -0.025 C 
ATOM     13  H   LIG d   1       2.673   1.181  -5.665  0.00  0.00     0.027 H 
ATOM     14  H   LIG d   1       1.439   0.791  -4.443  0.00  0.00     0.027 H 
ATOM     15  H   LIG d   1       2.000  -0.464  -5.573  0.00  0.00     0.027 H 
ENDBRANCH   1  12
BRANCH   3  16
ATOM     16  O   LIG d   1       3.621   2.323  -3.306  0.00  0.00    -0.385 OA
ATOM     17  H   LIG d   1       2.865   2.691  -3.783  0.00  0.00     0.210 HD
ENDBRANCH   3  16
BRANCH   5  18
ATOM     18  O   LIG d   1       5.810   0.951  -2.490  0.00  0.00    -0.385 OA
ATOM     19  H   LIG d   1       5.939   0.584  -3.376  0.00  0.00     0.210 HD
ENDBRANCH   5  18
TORSDOF 3
ENDMDL
MODEL 2
REMARK VINA RESULT:      -4.4      1.584      3.530
REMARK  3 active torsions:
REMARK  status: ('A' for Active; 'I' for Inactive)
REMARK    1  A    between atoms: C_1  and  C_2 
REMARK    2  A    between atoms: C_4  and  O_12 
REMARK    3  A    between atoms: C_6  and  O_11 
ROOT
ATOM      1  C   LIG d   1       5.509  -0.966  -3.351  0.00  0.00     0.125 C 
ATOM      2  H   LIG d   1       5.251  -0.754  -4.389  0.00  0.00     0.076 H 
ATOM      3  C   LIG d   1       4.329  -1.657  -2.655  0.00  0.00     0.121 C 
ATOM      4  H   LIG d   1       4.567  -1.823  -1.604  0.00  0.00     0.066 H 
ATOM      5  C   LIG d   1       3.103  -0.744  -2.771  0.00  0.00     0.106 C 
ATOM      6  H   LIG d   1       2.324  -1.094  -2.095  0.00  0.00     0.067 H 
ATOM      7  C   LIG d   1       3.492   0.663  -2.406  0.00  0.00    -0.019 C 
ATOM      8  C   LIG d   1       4.735   1.063  -2.376  0.00  0.00     0.084 C 
ATOM      9  O   LIG d   1       5.782   0.257  -2.662  0.00  0.00    -0.494 OA
ATOM     10  H   LIG d   1       2.713   1.369  -2.159  0.00  0.00     0.063 H 
ATOM     11  H   LIG d   1       4.936   2.090  -2.111  0.00  0.00     0.102 H 
ENDROOT
BRANCH   1  12
ATOM     12  C   LIG d   1       6.741  -1.872  -3.301  0.00  0.00    -0.025 C 
ATOM     13  H   LIG d   1       7.497  -1.495  -3.990  0.00  0.00     0.027 H 
ATOM     14  H   LIG d   1       6.459  -2.885  -3.590  0.00  0.00     0.027 H 
ATOM     15  H   LIG d   1       7.144  -1.882  -2.289  0.00  0.00     0.027 H 
ENDBRANCH   1  12
BRANCH   3  16
ATOM     16  O   LIG d   1       4.060  -2.909  -3.291  0.00  0.00    -0.385 OA
ATOM     17  H   LIG d   1       3.424  -3.463  -2.817  0.00  0.00     0.210 HD
ENDBRANCH   3  16
BRANCH   5  18
ATOM     18  O   LIG d   1       2.616  -0.771  -4.115  0.00  0.00    -0.385 OA
ATOM     19  H   LIG d   1       3.243  -0.428  -4.766  0.00  0.00     0.210 HD
ENDBRANCH   5  18
TORSDOF 3
ENDMDL
MODEL 3
REMARK VINA RESULT:      -4.3      1.242      2.708
REMARK  3 active torsions:
REMARK  status: ('A' for Active; 'I' for Inactive)
REMARK    1  A    between atoms: C_1  and  C_2 
REMARK    2  A    between atoms: C_4  and  O_12 
REMARK    3  A    between atoms: C_6  and  O_11 
ROOT
ATOM      1  C   LIG d   1       3.036  -0.049  -4.242  0.00  0.00     0.125 C 
ATOM      2  H   LIG d   1       2.149  -0.475  -3.774  0.00  0.00     0.076 H 
ATOM      3  C   LIG d   1       4.184  -1.066  -4.198  0.00  0.00     0.121 C 
ATOM      4  H   LIG d   1       5.086  -0.621  -4.620  0.00  0.00     0.066 H 
ATOM      5  C   LIG d   1       4.430  -1.446  -2.734  0.00  0.00     0.106 C 
ATOM      6  H   LIG d   1       5.377  -1.977  -2.650  0.00  0.00     0.067 H 
ATOM      7  C   LIG d   1       4.478  -0.198  -1.894  0.00  0.00    -0.019 C 
ATOM      8  C   LIG d   1       4.008   0.947  -2.312  0.00  0.00     0.084 C 
ATOM      9  O   LIG d   1       3.445   1.120  -3.528  0.00  0.00    -0.494 OA
ATOM     10  H   LIG d   1       4.918  -0.252  -0.910  0.00  0.00     0.063 H 
ATOM     11  H   LIG d   1       4.072   1.799  -1.650  0.00  0.00     0.102 H 
ENDROOT
BRANCH   1  12
ATOM     12  C   LIG d   1       2.726   0.317  -5.695  0.00  0.00    -0.025 C 
ATOM     13  H   LIG d   1       2.747   1.401  -5.809  0.00  0.00     0.027 H 
ATOM     14  H   LIG d   1       1.736  -0.056  -5.961  0.00  0.00     0.027 H 
ATOM     15  H   LIG d   1       3.472  -0.132  -6.350  0.00  0.00     0.027 H 
ENDBRANCH   1  12
BRANCH   3  16
ATOM     16  O   LIG d   1       3.826  -2.230  -4.946  0.00  0.00    -0.385 OA
ATOM     17  H   LIG d   1       3.849  -2.105  -5.904  0.00  0.00     0.210 HD
ENDBRANCH   3  16
BRANCH   5  18
ATOM     18  O   LIG d   1       3.370  -2.288  -2.276  0.00  0.00    -0.385 OA
ATOM     19  H   LIG d   1       2.578  -2.259  -2.832  0.00  0.00     0.210 HD
ENDBRANCH   5  18
TORSDOF 3
ENDMDL
MODEL 4
REMARK VINA RESULT:      -4.1      1.592      3.067
REMARK  3 active torsions:
REMARK  status: ('A' for Active; 'I' for Inactive)
REMARK    1  A    between atoms: C_1  and  C_2 
REMARK    2  A    between atoms: C_4  and  O_12 
REMARK    3  A    between atoms: C_6  and  O_11 
ROOT
ATOM      1  C   LIG d   1       4.368  -0.043  -2.559  0.00  0.00     0.125 C 
ATOM      2  H   LIG d   1       4.160  -0.700  -1.715  0.00  0.00     0.076 H 
ATOM      3  C   LIG d   1       3.837  -0.676  -3.852  0.00  0.00     0.121 C 
ATOM      4  H   LIG d   1       4.091  -0.044  -4.704  0.00  0.00     0.066 H 
ATOM      5  C   LIG d   1       4.491  -2.052  -4.015  0.00  0.00     0.106 C 
ATOM      6  H   LIG d   1       4.317  -2.420  -5.025  0.00  0.00     0.067 H 
ATOM      7  C   LIG d   1       5.972  -1.934  -3.772  0.00  0.00    -0.019 C 
ATOM      8  C   LIG d   1       6.503  -0.910  -3.159  0.00  0.00     0.084 C 
ATOM      9  O   LIG d   1       5.781   0.135  -2.695  0.00  0.00    -0.494 OA
ATOM     10  H   LIG d   1       6.619  -2.726  -4.117  0.00  0.00     0.063 H 
ATOM     11  H   LIG d   1       7.573  -0.898  -3.015  0.00  0.00     0.102 H 
ENDROOT
BRANCH   1  12
ATOM     12  C   LIG d   1       3.697   1.313  -2.334  0.00  0.00    -0.025 C 
ATOM     13  H   LIG d   1       2.803   1.383  -2.954  0.00  0.00     0.027 H 
ATOM     14  H   LIG d   1       4.390   2.111  -2.605  0.00  0.00     0.027 H 
ATOM     15  H   LIG d   1       3.421   1.413  -1.285  0.00  0.00     0.027 H 
ENDBRANCH   1  12
BRANCH   3  16
ATOM     16  O   LIG d   1       2.417  -0.823  -3.768  0.00  0.00    -0.385 OA
ATOM     17  H   LIG d   1       2.095  -1.694  -4.042  0.00  0.00     0.210 HD
ENDBRANCH   3  16
BRANCH   5  18
ATOM     18  O   LIG d   1       3.924  -2.963  -3.071  0.00  0.00    -0.385 OA
ATOM     19  H   LIG d   1       2.960  -3.024  -3.114  0.00  0.00     0.210 HD
ENDBRANCH   5  18
TORSDOF 3
ENDMDL
MODEL 5
REMARK VINA RESULT:      -3.9      1.876      3.420
REMARK  3 active torsions:
REMARK  status: ('A' for Active; 'I' for Inactive)
REMARK    1  A    between atoms: C_1  and  C_2 
REMARK    2  A    between atoms: C_4  and  O_12 
REMARK    3  A    between atoms: C_6  and  O_11 
ROOT
ATOM      1  C   LIG d   1       5.413   0.080  -3.797  0.00  0.00     0.125 C 
ATOM      2  H   LIG d   1       5.216  -0.216  -4.827  0.00  0.00     0.076 H 
ATOM      3  C   LIG d   1       5.282  -1.139  -2.874  0.00  0.00     0.121 C 
ATOM      4  H   LIG d   1       5.428  -0.833  -1.837  0.00  0.00     0.066 H 
ATOM      5  C   LIG d   1       3.875  -1.721  -3.048  0.00  0.00     0.106 C 
ATOM      6  H   LIG d   1       3.674  -2.432  -2.248  0.00  0.00     0.067 H 
ATOM      7  C   LIG d   1       2.863  -0.609  -2.998  0.00  0.00    -0.019 C 
ATOM      8  C   LIG d   1       3.190   0.645  -3.162  0.00  0.00     0.084 C 
ATOM      9  O   LIG d   1       4.457   1.060  -3.385  0.00  0.00    -0.494 OA
ATOM     10  H   LIG d   1       1.828  -0.857  -2.820  0.00  0.00     0.063 H 
ATOM     11  H   LIG d   1       2.407   1.388  -3.120  0.00  0.00     0.102 H 
ENDROOT
BRANCH   1  12
ATOM     12  C   LIG d   1       6.825   0.660  -3.689  0.00  0.00    -0.025 C 
ATOM     13  H   LIG d   1       6.769   1.688  -3.330  0.00  0.00     0.027 H 
ATOM     14  H   LIG d   1       7.301   0.644  -4.670  0.00  0.00     0.027 H 
ATOM     15  H   LIG d   1       7.411   0.063  -2.991  0.00  0.00     0.027 H 
ENDBRANCH   1  12
BRANCH   3  16
ATOM     16  O   LIG d   1       6.258  -2.120  -3.229  0.00  0.00    -0.385 OA
ATOM     17  H   LIG d   1       6.308  -2.866  -2.615  0.00  0.00     0.210 HD
ENDBRANCH   3  16
BRANCH   5  18
ATOM     18  O   LIG d   1       3.789  -2.387  -4.310  0.00  0.00    -0.385 OA
ATOM     19  H   LIG d   1       2.891  -2.447  -4.663  0.00  0.00     0.210 HD
ENDBRANCH   5  18
TORSDOF 3
ENDMDL
MODEL 6
REMARK VINA RESULT:      -3.8      1.857      2.800
REMARK  3 active torsions:
REMARK  status: ('A' for Active; 'I' for Inactive)
REMARK    1  A    between atoms: C_1  and  C_2 
REMARK    2  A    between atoms: C_4  and  O_12 
REMARK    3  A    between atoms: C_6  and  O_11 
ROOT
ATOM      1  C   LIG d   1       4.313  -0.020  -2.632  0.00  0.00     0.125 C 
ATOM      2  H   LIG d   1       3.505   0.255  -3.311  0.00  0.00     0.076 H 
ATOM      3  C   LIG d   1       5.596  -0.279  -3.433  0.00  0.00     0.121 C 
ATOM      4  H   LIG d   1       6.391  -0.603  -2.760  0.00  0.00     0.066 H 
ATOM      5  C   LIG d   1       5.306  -1.378  -4.460  0.00  0.00     0.106 C 
ATOM      6  H   LIG d   1       6.244  -1.743  -4.877  0.00  0.00     0.067 H 
ATOM      7  C   LIG d   1       4.580  -2.512  -3.787  0.00  0.00    -0.019 C 
ATOM      8  C   LIG d   1       3.986  -2.378  -2.632  0.00  0.00     0.084 C 
ATOM      9  O   LIG d   1       3.971  -1.220  -1.934  0.00  0.00    -0.494 OA
ATOM     10  H   LIG d   1       4.550  -3.473  -4.279  0.00  0.00     0.063 H 
ATOM     11  H   LIG d   1       3.478  -3.235  -2.214  0.00  0.00     0.102 H 
ENDROOT
BRANCH   1  12
ATOM     12  C   LIG d   1       4.549   1.111  -1.629  0.00  0.00    -0.025 C 
ATOM     13  H   LIG d   1       3.722   1.819  -1.678  0.00  0.00     0.027 H 
ATOM     14  H   LIG d   1       5.481   1.623  -1.870  0.00  0.00     0.027 H 
ATOM     15  H   LIG d   1       4.613   0.696  -0.623  0.00  0.00     0.027 H 
ENDBRANCH   1  12
BRANCH   3  16
ATOM     16  O   LIG d   1       5.994   0.918  -4.105  0.00  0.00    -0.385 OA
ATOM     17  H   LIG d   1       5.368   1.649  -4.013  0.00  0.00     0.210 HD
ENDBRANCH   3  16
BRANCH   5  18
ATOM     18  O   LIG d   1       4.493  -0.847  -5.508  0.00  0.00    -0.385 OA
ATOM     19  H   LIG d   1       4.333  -1.466  -6.234  0.00  0.00     0.210 HD
ENDBRANCH   5  18
TORSDOF 3
ENDMDL
MODEL 7
REMARK VINA RESULT:      -3.7      1.977      3.591
REMARK  3 active torsions:
REMARK  status: ('A' for Active; 'I' for Inactive)
REMARK    1  A    between atoms: C_1  and  C_2 
REMARK    2  A    between atoms: C_4  and  O_12 
REMARK    3  A    between atoms: C_6  and  O_11 
ROOT
ATOM      1  C   LIG d   1       3.857  -1.037  -3.430  0.00  0.00     0.125 C 
ATOM      2  H   LIG d   1       4.551  -0.234  -3.183  0.00  0.00     0.076 H 
ATOM      3  C   LIG d   1       4.278  -1.698  -4.749  0.00  0.00     0.121 C 
ATOM      4  H   LIG d   1       3.555  -2.467  -5.024  0.00  0.00     0.066 H 
ATOM      5  C   LIG d   1       4.321  -0.617  -5.835  0.00  0.00     0.106 C 
ATOM      6  H   LIG d   1       4.386  -1.088  -6.815  0.00  0.00     0.067 H 
ATOM      7  C   LIG d   1       3.069   0.216  -5.760  0.00  0.00    -0.019 C 
ATOM      8  C   LIG d   1       2.296   0.228  -4.707  0.00  0.00     0.084 C 
ATOM      9  O   LIG d   1       2.540  -0.504  -3.598  0.00  0.00    -0.494 OA
ATOM     10  H   LIG d   1       2.801   0.826  -6.609  0.00  0.00     0.063 H 
ATOM     11  H   LIG d   1       1.418   0.856  -4.724  0.00  0.00     0.102 H 
ENDROOT
BRANCH   1  12
ATOM     12  C   LIG d   1       3.853  -2.078  -2.309  0.00  0.00    -0.025 C 
ATOM     13  H   LIG d   1       4.867  -2.209  -1.932  0.00  0.00     0.027 H 
ATOM     14  H   LIG d   1       3.484  -3.028  -2.696  0.00  0.00     0.027 H 
ATOM     15  H   LIG d   1       3.206  -1.739  -1.500  0.00  0.00     0.027 H 
ENDBRANCH   1  12
BRANCH   3  16
ATOM     16  O   LIG d   1       5.573  -2.285  -4.602  0.00  0.00    -0.385 OA
ATOM     17  H   LIG d   1       6.212  -1.720  -4.146  0.00  0.00     0.210 HD
ENDBRANCH   3  16
BRANCH   5  18
ATOM     18  O   LIG d   1       5.462   0.218  -5.629  0.00  0.00    -0.385 OA
ATOM     19  H   LIG d   1       5.725   0.303  -4.702  0.00  0.00     0.210 HD
ENDBRANCH   5  18
TORSDOF 3
ENDMDL
MODEL 8
REMARK VINA RESULT:      -3.7      2.063      2.987
REMARK  3 active torsions:
REMARK  status: ('A' for Active; 'I' for Inactive)
REMARK    1  A    between atoms: C_1  and  C_2 
REMARK    2  A    between atoms: C_4  and  O_12 
REMARK    3  A    between atoms: C_6  and  O_11 
ROOT
ATOM      1  C   LIG d   1       5.602   0.088  -3.851  0.00  0.00     0.125 C 
ATOM      2  H   LIG d   1       5.503   1.169  -3.752  0.00  0.00     0.076 H 
ATOM      3  C   LIG d   1       4.517  -0.447  -4.795  0.00  0.00     0.121 C 
ATOM      4  H   LIG d   1       4.584  -1.534  -4.854  0.00  0.00     0.066 H 
ATOM      5  C   LIG d   1       3.150  -0.043  -4.231  0.00  0.00     0.106 C 
ATOM      6  H   LIG d   1       2.367  -0.600  -4.742  0.00  0.00     0.067 H 
ATOM      7  C   LIG d   1       3.106  -0.351  -2.759  0.00  0.00    -0.019 C 
ATOM      8  C   LIG d   1       4.185  -0.563  -2.053  0.00  0.00     0.084 C 
ATOM      9  O   LIG d   1       5.431  -0.533  -2.574  0.00  0.00    -0.494 OA
ATOM     10  H   LIG d   1       2.146  -0.398  -2.267  0.00  0.00     0.063 H 
ATOM     11  H   LIG d   1       4.075  -0.771  -0.999  0.00  0.00     0.102 H 
ENDROOT
BRANCH   1  12
ATOM     12  C   LIG d   1       6.986  -0.252  -4.409  0.00  0.00    -0.025 C 
ATOM     13  H   LIG d   1       7.373  -1.138  -3.905  0.00  0.00     0.027 H 
ATOM     14  H   LIG d   1       7.662   0.586  -4.241  0.00  0.00     0.027 H 
ATOM     15  H   LIG d   1       6.908  -0.447  -5.479  0.00  0.00     0.027 H 
ENDBRANCH   1  12
BRANCH   3  16
ATOM     16  O   LIG d   1       4.689   0.118  -6.097  0.00  0.00    -0.385 OA
ATOM     17  H   LIG d   1       4.248   0.971  -6.217  0.00  0.00     0.210 HD
ENDBRANCH   3  16
BRANCH   5  18
ATOM     18  O   LIG d   1       2.949   1.358  -4.431  0.00  0.00    -0.385 OA
ATOM     19  H   LIG d   1       2.643   1.828  -3.643  0.00  0.00     0.210 HD
ENDBRANCH   5  18
TORSDOF 3
ENDMDL
MODEL 9
REMARK VINA RESULT:      -3.7      9.669     10.999
REMARK  3 active torsions:
REMARK  status: ('A' for Active; 'I' for Inactive)
REMARK    1  A    between atoms: C_1  and  C_2 
REMARK    2  A    between atoms: C_4  and  O_12 
REMARK    3  A    between atoms: C_6  and  O_11 
ROOT
ATOM      1  C   LIG d   1       9.893   8.046  -2.121  0.00  0.00     0.125 C 
ATOM      2  H   LIG d   1       9.454   8.511  -3.003  0.00  0.00     0.076 H 
ATOM      3  C   LIG d   1       9.119   8.479  -0.869  0.00  0.00     0.121 C 
ATOM      4  H   LIG d   1       9.589   8.055   0.020  0.00  0.00     0.066 H 
ATOM      5  C   LIG d   1       9.151  10.009  -0.791  0.00  0.00     0.106 C 
ATOM      6  H   LIG d   1       8.818  10.330   0.194  0.00  0.00     0.067 H 
ATOM      7  C   LIG d   1      10.556  10.492  -1.029  0.00  0.00    -0.019 C 
ATOM      8  C   LIG d   1      11.473   9.741  -1.579  0.00  0.00     0.084 C 
ATOM      9  O   LIG d   1      11.251   8.469  -1.976  0.00  0.00    -0.494 OA
ATOM     10  H   LIG d   1      10.816  11.498  -0.735  0.00  0.00     0.063 H 
ATOM     11  H   LIG d   1      12.458  10.160  -1.724  0.00  0.00     0.102 H 
ENDROOT
BRANCH   1  12
ATOM     12  C   LIG d   1       9.839   6.523  -2.261  0.00  0.00    -0.025 C 
ATOM     13  H   LIG d   1      10.603   6.073  -1.627  0.00  0.00     0.027 H 
ATOM     14  H   LIG d   1      10.021   6.246  -3.300  0.00  0.00     0.027 H 
ATOM     15  H   LIG d   1       8.856   6.164  -1.956  0.00  0.00     0.027 H 
ENDBRANCH   1  12
BRANCH   3  16
ATOM     16  O   LIG d   1       7.765   8.028  -0.959  0.00  0.00    -0.385 OA
ATOM     17  H   LIG d   1       7.650   7.088  -0.762  0.00  0.00     0.210 HD
ENDBRANCH   3  16
BRANCH   5  18
ATOM     18  O   LIG d   1       8.284  10.553  -1.789  0.00  0.00    -0.385 OA
ATOM     19  H   LIG d   1       8.709  10.690  -2.646  0.00  0.00     0.210 HD
ENDBRANCH   5  18
TORSDOF 3
ENDMDL
MODEL 10
REMARK VINA RESULT:      -3.6      8.663      9.923
REMARK  3 active torsions:
REMARK  status: ('A' for Active; 'I' for Inactive)
REMARK    1  A    between atoms: C_1  and  C_2 
REMARK    2  A    between atoms: C_4  and  O_12 
REMARK    3  A    between atoms: C_6  and  O_11 
ROOT
ATOM      1  C   LIG d   1      10.066   6.283  -1.299  0.00  0.00     0.125 C 
ATOM      2  H   LIG d   1       9.215   5.946  -0.708  0.00  0.00     0.076 H 
ATOM      3  C   LIG d   1      11.348   5.608  -0.792  0.00  0.00     0.121 C 
ATOM      4  H   LIG d   1      12.207   5.984  -1.349  0.00  0.00     0.066 H 
ATOM      5  C   LIG d   1      11.508   5.941   0.695  0.00  0.00     0.106 C 
ATOM      6  H   LIG d   1      12.514   5.677   1.021  0.00  0.00     0.067 H 
ATOM      7  C   LIG d   1      11.283   7.414   0.905  0.00  0.00    -0.019 C 
ATOM      8  C   LIG d   1      10.685   8.166   0.020  0.00  0.00     0.084 C 
ATOM      9  O   LIG d   1      10.220   7.698  -1.160  0.00  0.00    -0.494 OA
ATOM     10  H   LIG d   1      11.630   7.866   1.822  0.00  0.00     0.063 H 
ATOM     11  H   LIG d   1      10.553   9.214   0.244  0.00  0.00     0.102 H 
ENDROOT
BRANCH   1  12
ATOM     12  C   LIG d   1       9.844   5.931  -2.771  0.00  0.00    -0.025 C 
ATOM     13  H   LIG d   1      10.053   6.805  -3.389  0.00  0.00     0.027 H 
ATOM     14  H   LIG d   1       8.809   5.621  -2.919  0.00  0.00     0.027 H 
ATOM     15  H   LIG d   1      10.511   5.118  -3.055  0.00  0.00     0.027 H 
ENDBRANCH   1  12
BRANCH   3  16
ATOM     16  O   LIG d   1      11.247   4.193  -0.962  0.00  0.00    -0.385 OA
ATOM     17  H   LIG d   1      10.575   3.920  -1.603  0.00  0.00     0.210 HD
ENDBRANCH   3  16
BRANCH   5  18
ATOM     18  O   LIG d   1      10.551   5.199   1.454  0.00  0.00    -0.385 OA
ATOM     19  H   LIG d   1      10.624   4.241   1.350  0.00  0.00     0.210 HD
ENDBRANCH   5  18
TORSDOF 3
ENDMDL
