MODEL 1
REMARK VINA RESULT:      -6.4      0.000      0.000
REMARK  9 active torsions:
REMARK  status: ('A' for Active; 'I' for Inactive)
REMARK    1  A    between atoms: C_1  and  O_2 
REMARK    2  A    between atoms: O_2  and  C_3 
REMARK    3  A    between atoms: C_5  and  C_13 
REMARK    4  A    between atoms: C_7  and  O_11 
REMARK    5  A    between atoms: C_8  and  O_9 
REMARK    6  A    between atoms: O_9  and  C_10 
REMARK    7  A    between atoms: O_11  and  C_12 
REMARK       I    between atoms: C_13  and  N_15 
REMARK       I    between atoms: N_15  and  CA_16 
REMARK    8  A    between atoms: CA_16  and  CB_18 
REMARK       I    between atoms: CA_16  and  C_25 
REMARK    9  A    between atoms: CB_18  and  CG_19 
ROOT
ATOM      1  C   UNK d   0       4.556   0.911  -9.238  0.00  0.00     0.166 A 
ATOM      2  C   UNK d   0       4.368   0.945  -7.869  0.00  0.00    -0.004 A 
ATOM      3  C   UNK d   0       3.250   0.328  -7.303  0.00  0.00     0.044 A 
ATOM      4  C   UNK d   0       2.324  -0.322  -8.123  0.00  0.00    -0.004 A 
ATOM      5  C   UNK d   0       2.516  -0.353  -9.492  0.00  0.00     0.166 A 
ATOM      6  C   UNK d   0       3.632   0.263 -10.053  0.00  0.00     0.203 A 
ATOM      7  H   UNK d   0       5.087   1.444  -7.237  0.00  0.00     0.066 H 
ATOM      8  H   UNK d   0       1.458  -0.800  -7.688  0.00  0.00     0.066 H 
ENDROOT
BRANCH   3   9
ATOM      9  C   UNK d   0       3.047   0.362  -5.841  0.00  0.00     0.245 C 
ATOM     10  O   UNK d   0       2.309   1.194  -5.350  0.00  0.00    -0.270 OA
ATOM     11  N   PHE d   1       3.681  -0.528  -5.052  0.00  0.00    -0.303 N 
ATOM     12  CA  PHE d   1       3.479  -0.494  -3.601  0.00  0.00     0.067 C 
ATOM     13  H   PHE d   1       4.270  -1.191  -5.444  0.00  0.00     0.150 HD
ATOM     14  HA  PHE d   1       2.451  -0.204  -3.383  0.00  0.00     0.056 H 
ATOM     15  C   PHE d   1       4.425   0.506  -2.986  0.00  0.00     0.062 C 
ATOM     16  O   PHE d   1       5.188   1.127  -3.688  0.00  0.00    -0.548 OA
ATOM     17  OXT PHE d   1       4.418   0.707  -1.659  0.00  0.00    -0.548 OA
BRANCH  12  18
ATOM     18  CB  PHE d   1       3.752  -1.880  -3.016  0.00  0.00    -0.004 C 
ATOM     19  HB1 PHE d   1       3.910  -1.797  -1.940  0.00  0.00     0.034 H 
ATOM     20  HB2 PHE d   1       2.899  -2.530  -3.208  0.00  0.00     0.034 H 
BRANCH  18  21
ATOM     21  CG  PHE d   1       4.983  -2.464  -3.660  0.00  0.00    -0.045 A 
ATOM     22  CD1 PHE d   1       6.238  -2.044  -3.260  0.00  0.00    -0.059 A 
ATOM     23  CE1 PHE d   1       7.367  -2.580  -3.851  0.00  0.00    -0.061 A 
ATOM     24  HD1 PHE d   1       6.336  -1.297  -2.485  0.00  0.00     0.062 H 
ATOM     25  CZ  PHE d   1       7.242  -3.535  -4.841  0.00  0.00    -0.062 A 
ATOM     26  HE1 PHE d   1       8.347  -2.251  -3.537  0.00  0.00     0.062 H 
ATOM     27  CE2 PHE d   1       5.987  -3.956  -5.241  0.00  0.00    -0.061 A 
ATOM     28  HZ  PHE d   1       8.124  -3.954  -5.302  0.00  0.00     0.062 H 
ATOM     29  CD2 PHE d   1       4.858  -3.424  -4.647  0.00  0.00    -0.059 A 
ATOM     30  HE2 PHE d   1       5.890  -4.703  -6.015  0.00  0.00     0.062 H 
ATOM     31  HD2 PHE d   1       3.878  -3.755  -4.956  0.00  0.00     0.062 H 
ENDBRANCH  18  21
ENDBRANCH  12  18
ENDBRANCH   3   9
BRANCH   1  32
ATOM     32  O   UNK d   0       5.644   1.512  -9.790  0.00  0.00    -0.491 OA
BRANCH  32  33
ATOM     33  C   UNK d   0       6.760   1.748  -8.929  0.00  0.00     0.079 C 
ATOM     34  H   UNK d   0       7.171   2.738  -9.130  0.00  0.00     0.066 H 
ATOM     35  H   UNK d   0       6.435   1.695  -7.889  0.00  0.00     0.066 H 
ATOM     36  H   UNK d   0       7.525   0.994  -9.109  0.00  0.00     0.066 H 
ENDBRANCH  32  33
ENDBRANCH   1  32
BRANCH   5  37
ATOM     37  O   UNK d   0       1.615  -0.985 -10.290  0.00  0.00    -0.491 OA
BRANCH  37  38
ATOM     38  C   UNK d   0       1.541  -2.409 -10.185  0.00  0.00     0.079 C 
ATOM     39  H   UNK d   0       2.426  -2.853 -10.640  0.00  0.00     0.066 H 
ATOM     40  H   UNK d   0       1.491  -2.693  -9.134  0.00  0.00     0.066 H 
ATOM     41  H   UNK d   0       0.649  -2.765 -10.701  0.00  0.00     0.066 H 
ENDBRANCH  37  38
ENDBRANCH   5  37
BRANCH   6  42
ATOM     42  O   UNK d   0       3.818   0.232 -11.399  0.00  0.00    -0.488 OA
BRANCH  42  43
ATOM     43  C   UNK d   0       4.615  -0.835 -11.919  0.00  0.00     0.079 C 
ATOM     44  H   UNK d   0       5.288  -0.447 -12.682  0.00  0.00     0.066 H 
ATOM     45  H   UNK d   0       5.198  -1.279 -11.112  0.00  0.00     0.066 H 
ATOM     46  H   UNK d   0       3.966  -1.593 -12.357  0.00  0.00     0.066 H 
ENDBRANCH  42  43
ENDBRANCH   6  42
TORSDOF 11
ENDMDL
MODEL 2
REMARK VINA RESULT:      -6.4      0.044      2.492
REMARK  9 active torsions:
REMARK  status: ('A' for Active; 'I' for Inactive)
REMARK    1  A    between atoms: C_1  and  O_2 
REMARK    2  A    between atoms: O_2  and  C_3 
REMARK    3  A    between atoms: C_5  and  C_13 
REMARK    4  A    between atoms: C_7  and  O_11 
REMARK    5  A    between atoms: C_8  and  O_9 
REMARK    6  A    between atoms: O_9  and  C_10 
REMARK    7  A    between atoms: O_11  and  C_12 
REMARK       I    between atoms: C_13  and  N_15 
REMARK       I    between atoms: N_15  and  CA_16 
REMARK    8  A    between atoms: CA_16  and  CB_18 
REMARK       I    between atoms: CA_16  and  C_25 
REMARK    9  A    between atoms: CB_18  and  CG_19 
ROOT
ATOM      1  C   UNK d   0       2.532  -0.357  -9.489  0.00  0.00     0.166 A 
ATOM      2  C   UNK d   0       2.340  -0.322  -8.121  0.00  0.00    -0.004 A 
ATOM      3  C   UNK d   0       3.271   0.321  -7.303  0.00  0.00     0.044 A 
ATOM      4  C   UNK d   0       4.396   0.926  -7.870  0.00  0.00    -0.004 A 
ATOM      5  C   UNK d   0       4.584   0.888  -9.239  0.00  0.00     0.166 A 
ATOM      6  C   UNK d   0       3.652   0.247 -10.053  0.00  0.00     0.203 A 
ATOM      7  H   UNK d   0       1.468  -0.786  -7.685  0.00  0.00     0.066 H 
ATOM      8  H   UNK d   0       5.118   1.424  -7.239  0.00  0.00     0.066 H 
ENDROOT
BRANCH   3   9
ATOM      9  C   UNK d   0       3.069   0.361  -5.841  0.00  0.00     0.245 C 
ATOM     10  O   UNK d   0       2.330   1.194  -5.353  0.00  0.00    -0.270 OA
ATOM     11  N   PHE d   1       3.704  -0.524  -5.048  0.00  0.00    -0.303 N 
ATOM     12  CA  PHE d   1       3.503  -0.484  -3.598  0.00  0.00     0.067 C 
ATOM     13  H   PHE d   1       4.294  -1.188  -5.438  0.00  0.00     0.150 HD
ATOM     14  HA  PHE d   1       2.475  -0.195  -3.381  0.00  0.00     0.056 H 
ATOM     15  C   PHE d   1       4.448   0.519  -2.987  0.00  0.00     0.062 C 
ATOM     16  O   PHE d   1       5.209   1.138  -3.691  0.00  0.00    -0.548 OA
ATOM     17  OXT PHE d   1       4.441   0.726  -1.661  0.00  0.00    -0.548 OA
BRANCH  12  18
ATOM     18  CB  PHE d   1       3.778  -1.868  -3.006  0.00  0.00    -0.004 C 
ATOM     19  HB1 PHE d   1       3.967  -1.776  -1.936  0.00  0.00     0.034 H 
ATOM     20  HB2 PHE d   1       2.913  -2.511  -3.168  0.00  0.00     0.034 H 
BRANCH  18  21
ATOM     21  CG  PHE d   1       4.985  -2.471  -3.679  0.00  0.00    -0.045 A 
ATOM     22  CD1 PHE d   1       6.255  -2.069  -3.310  0.00  0.00    -0.059 A 
ATOM     23  CE1 PHE d   1       7.361  -2.622  -3.927  0.00  0.00    -0.061 A 
ATOM     24  HD1 PHE d   1       6.382  -1.322  -2.539  0.00  0.00     0.062 H 
ATOM     25  CZ  PHE d   1       7.198  -3.577  -4.912  0.00  0.00    -0.062 A 
ATOM     26  HE1 PHE d   1       8.353  -2.308  -3.637  0.00  0.00     0.062 H 
ATOM     27  CE2 PHE d   1       5.928  -3.979  -5.281  0.00  0.00    -0.061 A 
ATOM     28  HZ  PHE d   1       8.063  -4.009  -5.394  0.00  0.00     0.062 H 
ATOM     29  CD2 PHE d   1       4.821  -3.430  -4.661  0.00  0.00    -0.059 A 
ATOM     30  HE2 PHE d   1       5.801  -4.726  -6.051  0.00  0.00     0.062 H 
ATOM     31  HD2 PHE d   1       3.829  -3.747  -4.946  0.00  0.00     0.062 H 
ENDBRANCH  18  21
ENDBRANCH  12  18
ENDBRANCH   3   9
BRANCH   1  32
ATOM     32  O   UNK d   0       1.624  -0.983 -10.287  0.00  0.00    -0.491 OA
BRANCH  32  33
ATOM     33  C   UNK d   0       1.545  -2.406 -10.186  0.00  0.00     0.079 C 
ATOM     34  H   UNK d   0       1.961  -2.726  -9.230  0.00  0.00     0.066 H 
ATOM     35  H   UNK d   0       0.502  -2.718 -10.250  0.00  0.00     0.066 H 
ATOM     36  H   UNK d   0       2.111  -2.861 -10.998  0.00  0.00     0.066 H 
ENDBRANCH  32  33
ENDBRANCH   1  32
BRANCH   5  37
ATOM     37  O   UNK d   0       5.677   1.477  -9.792  0.00  0.00    -0.491 OA
BRANCH  37  38
ATOM     38  C   UNK d   0       6.739   1.835  -8.906  0.00  0.00     0.079 C 
ATOM     39  H   UNK d   0       7.239   2.729  -9.279  0.00  0.00     0.066 H 
ATOM     40  H   UNK d   0       6.333   2.034  -7.913  0.00  0.00     0.066 H 
ATOM     41  H   UNK d   0       7.456   1.015  -8.847  0.00  0.00     0.066 H 
ENDBRANCH  37  38
ENDBRANCH   5  37
BRANCH   6  42
ATOM     42  O   UNK d   0       3.839   0.210 -11.398  0.00  0.00    -0.488 OA
BRANCH  42  43
ATOM     43  C   UNK d   0       4.602  -0.882 -11.917  0.00  0.00     0.079 C 
ATOM     44  H   UNK d   0       3.964  -1.762 -12.000  0.00  0.00     0.066 H 
ATOM     45  H   UNK d   0       4.988  -0.619 -12.902  0.00  0.00     0.066 H 
ATOM     46  H   UNK d   0       5.432  -1.097 -11.245  0.00  0.00     0.066 H 
ENDBRANCH  42  43
ENDBRANCH   6  42
TORSDOF 11
ENDMDL
MODEL 3
REMARK VINA RESULT:      -6.4      3.588      5.565
REMARK  9 active torsions:
REMARK  status: ('A' for Active; 'I' for Inactive)
REMARK    1  A    between atoms: C_1  and  O_2 
REMARK    2  A    between atoms: O_2  and  C_3 
REMARK    3  A    between atoms: C_5  and  C_13 
REMARK    4  A    between atoms: C_7  and  O_11 
REMARK    5  A    between atoms: C_8  and  O_9 
REMARK    6  A    between atoms: O_9  and  C_10 
REMARK    7  A    between atoms: O_11  and  C_12 
REMARK       I    between atoms: C_13  and  N_15 
REMARK       I    between atoms: N_15  and  CA_16 
REMARK    8  A    between atoms: CA_16  and  CB_18 
REMARK       I    between atoms: CA_16  and  C_25 
REMARK    9  A    between atoms: CB_18  and  CG_19 
ROOT
ATOM      1  C   UNK d   0       3.389  -6.627  -8.677  0.00  0.00     0.166 A 
ATOM      2  C   UNK d   0       4.012  -5.768  -7.792  0.00  0.00    -0.004 A 
ATOM      3  C   UNK d   0       3.923  -4.386  -7.982  0.00  0.00     0.044 A 
ATOM      4  C   UNK d   0       3.205  -3.878  -9.067  0.00  0.00    -0.004 A 
ATOM      5  C   UNK d   0       2.583  -4.742  -9.949  0.00  0.00     0.166 A 
ATOM      6  C   UNK d   0       2.673  -6.118  -9.757  0.00  0.00     0.203 A 
ATOM      7  H   UNK d   0       4.564  -6.163  -6.952  0.00  0.00     0.066 H 
ATOM      8  H   UNK d   0       3.135  -2.810  -9.216  0.00  0.00     0.066 H 
ENDROOT
BRANCH   3   9
ATOM      9  C   UNK d   0       4.588  -3.465  -7.039  0.00  0.00     0.245 C 
ATOM     10  O   UNK d   0       5.316  -2.588  -7.458  0.00  0.00    -0.270 OA
ATOM     11  N   PHE d   1       4.387  -3.600  -5.713  0.00  0.00    -0.303 N 
ATOM     12  CA  PHE d   1       5.047  -2.686  -4.777  0.00  0.00     0.067 C 
ATOM     13  H   PHE d   1       3.806  -4.300  -5.378  0.00  0.00     0.150 HD
ATOM     14  HA  PHE d   1       5.113  -1.693  -5.223  0.00  0.00     0.056 H 
ATOM     15  C   PHE d   1       6.432  -3.194  -4.471  0.00  0.00     0.062 C 
ATOM     16  O   PHE d   1       6.829  -4.213  -4.984  0.00  0.00    -0.548 OA
ATOM     17  OXT PHE d   1       7.227  -2.512  -3.630  0.00  0.00    -0.548 OA
BRANCH  12  18
ATOM     18  CB  PHE d   1       4.235  -2.609  -3.482  0.00  0.00    -0.004 C 
ATOM     19  HB1 PHE d   1       3.261  -3.075  -3.635  0.00  0.00     0.034 H 
ATOM     20  HB2 PHE d   1       4.767  -3.133  -2.688  0.00  0.00     0.034 H 
BRANCH  18  21
ATOM     21  CG  PHE d   1       4.045  -1.166  -3.092  0.00  0.00    -0.045 A 
ATOM     22  CD1 PHE d   1       4.633  -0.677  -1.941  0.00  0.00    -0.059 A 
ATOM     23  CE1 PHE d   1       4.459   0.646  -1.584  0.00  0.00    -0.061 A 
ATOM     24  HD1 PHE d   1       5.230  -1.331  -1.320  0.00  0.00     0.062 H 
ATOM     25  CZ  PHE d   1       3.697   1.482  -2.378  0.00  0.00    -0.062 A 
ATOM     26  HE1 PHE d   1       4.920   1.028  -0.684  0.00  0.00     0.062 H 
ATOM     27  CE2 PHE d   1       3.108   0.994  -3.529  0.00  0.00    -0.061 A 
ATOM     28  HZ  PHE d   1       3.561   2.516  -2.099  0.00  0.00     0.062 H 
ATOM     29  CD2 PHE d   1       3.286  -0.329  -3.890  0.00  0.00    -0.059 A 
ATOM     30  HE2 PHE d   1       2.513   1.647  -4.150  0.00  0.00     0.062 H 
ATOM     31  HD2 PHE d   1       2.831  -0.709  -4.791  0.00  0.00     0.062 H 
ENDBRANCH  18  21
ENDBRANCH  12  18
ENDBRANCH   3   9
BRANCH   1  32
ATOM     32  O   UNK d   0       3.475  -7.972  -8.492  0.00  0.00    -0.491 OA
BRANCH  32  33
ATOM     33  C   UNK d   0       4.406  -8.434  -7.511  0.00  0.00     0.079 C 
ATOM     34  H   UNK d   0       3.867  -8.930  -6.704  0.00  0.00     0.066 H 
ATOM     35  H   UNK d   0       5.100  -9.138  -7.971  0.00  0.00     0.066 H 
ATOM     36  H   UNK d   0       4.961  -7.586  -7.110  0.00  0.00     0.066 H 
ENDBRANCH  32  33
ENDBRANCH   1  32
BRANCH   5  37
ATOM     37  O   UNK d   0       1.883  -4.248 -11.005  0.00  0.00    -0.491 OA
BRANCH  37  38
ATOM     38  C   UNK d   0       0.729  -3.459 -10.707  0.00  0.00     0.079 C 
ATOM     39  H   UNK d   0      -0.161  -3.959 -11.089  0.00  0.00     0.066 H 
ATOM     40  H   UNK d   0       0.642  -3.336  -9.627  0.00  0.00     0.066 H 
ATOM     41  H   UNK d   0       0.826  -2.480 -11.177  0.00  0.00     0.066 H 
ENDBRANCH  37  38
ENDBRANCH   5  37
BRANCH   6  42
ATOM     42  O   UNK d   0       2.061  -6.966 -10.626  0.00  0.00    -0.488 OA
BRANCH  42  43
ATOM     43  C   UNK d   0       0.715  -7.341 -10.327  0.00  0.00     0.079 C 
ATOM     44  H   UNK d   0       0.371  -8.072 -11.059  0.00  0.00     0.066 H 
ATOM     45  H   UNK d   0       0.674  -7.779  -9.329  0.00  0.00     0.066 H 
ATOM     46  H   UNK d   0       0.075  -6.460 -10.364  0.00  0.00     0.066 H 
ENDBRANCH  42  43
ENDBRANCH   6  42
TORSDOF 11
ENDMDL
MODEL 4
REMARK VINA RESULT:      -6.4      3.109      4.941
REMARK  9 active torsions:
REMARK  status: ('A' for Active; 'I' for Inactive)
REMARK    1  A    between atoms: C_1  and  O_2 
REMARK    2  A    between atoms: O_2  and  C_3 
REMARK    3  A    between atoms: C_5  and  C_13 
REMARK    4  A    between atoms: C_7  and  O_11 
REMARK    5  A    between atoms: C_8  and  O_9 
REMARK    6  A    between atoms: O_9  and  C_10 
REMARK    7  A    between atoms: O_11  and  C_12 
REMARK       I    between atoms: C_13  and  N_15 
REMARK       I    between atoms: N_15  and  CA_16 
REMARK    8  A    between atoms: CA_16  and  CB_18 
REMARK       I    between atoms: CA_16  and  C_25 
REMARK    9  A    between atoms: CB_18  and  CG_19 
ROOT
ATOM      1  C   UNK d   0       2.301  -3.278 -10.268  0.00  0.00     0.166 A 
ATOM      2  C   UNK d   0       3.094  -2.709  -9.290  0.00  0.00    -0.004 A 
ATOM      3  C   UNK d   0       3.686  -3.516  -8.315  0.00  0.00     0.044 A 
ATOM      4  C   UNK d   0       3.473  -4.897  -8.332  0.00  0.00    -0.004 A 
ATOM      5  C   UNK d   0       2.680  -5.461  -9.312  0.00  0.00     0.166 A 
ATOM      6  C   UNK d   0       2.092  -4.654 -10.283  0.00  0.00     0.203 A 
ATOM      7  H   UNK d   0       3.261  -1.642  -9.281  0.00  0.00     0.066 H 
ATOM      8  H   UNK d   0       3.930  -5.523  -7.579  0.00  0.00     0.066 H 
ENDROOT
BRANCH   3   9
ATOM      9  C   UNK d   0       4.534  -2.911  -7.269  0.00  0.00     0.245 C 
ATOM     10  O   UNK d   0       5.411  -2.127  -7.576  0.00  0.00    -0.270 OA
ATOM     11  N   PHE d   1       4.337  -3.230  -5.974  0.00  0.00    -0.303 N 
ATOM     12  CA  PHE d   1       5.179  -2.630  -4.936  0.00  0.00     0.067 C 
ATOM     13  H   PHE d   1       3.638  -3.856  -5.729  0.00  0.00     0.150 HD
ATOM     14  HA  PHE d   1       5.428  -1.606  -5.216  0.00  0.00     0.056 H 
ATOM     15  C   PHE d   1       6.446  -3.433  -4.790  0.00  0.00     0.062 C 
ATOM     16  O   PHE d   1       6.628  -4.406  -5.483  0.00  0.00    -0.548 OA
ATOM     17  OXT PHE d   1       7.373  -3.067  -3.891  0.00  0.00    -0.548 OA
BRANCH  12  18
ATOM     18  CB  PHE d   1       4.423  -2.625  -3.606  0.00  0.00    -0.004 C 
ATOM     19  HB1 PHE d   1       3.472  -3.146  -3.726  0.00  0.00     0.034 H 
ATOM     20  HB2 PHE d   1       5.020  -3.131  -2.847  0.00  0.00     0.034 H 
BRANCH  18  21
ATOM     21  CG  PHE d   1       4.166  -1.203  -3.179  0.00  0.00    -0.045 A 
ATOM     22  CD1 PHE d   1       3.344  -0.391  -3.938  0.00  0.00    -0.059 A 
ATOM     23  CE1 PHE d   1       3.109   0.913  -3.545  0.00  0.00    -0.061 A 
ATOM     24  HD1 PHE d   1       2.886  -0.776  -4.837  0.00  0.00     0.062 H 
ATOM     25  CZ  PHE d   1       3.695   1.405  -2.395  0.00  0.00    -0.062 A 
ATOM     26  HE1 PHE d   1       2.466   1.547  -4.138  0.00  0.00     0.062 H 
ATOM     27  CE2 PHE d   1       4.517   0.594  -1.636  0.00  0.00    -0.061 A 
ATOM     28  HZ  PHE d   1       3.511   2.425  -2.088  0.00  0.00     0.062 H 
ATOM     29  CD2 PHE d   1       4.749  -0.712  -2.025  0.00  0.00    -0.059 A 
ATOM     30  HE2 PHE d   1       4.975   0.978  -0.737  0.00  0.00     0.062 H 
ATOM     31  HD2 PHE d   1       5.387  -1.348  -1.430  0.00  0.00     0.062 H 
ENDBRANCH  18  21
ENDBRANCH  12  18
ENDBRANCH   3   9
BRANCH   1  32
ATOM     32  O   UNK d   0       1.725  -2.493 -11.218  0.00  0.00    -0.491 OA
BRANCH  32  33
ATOM     33  C   UNK d   0       1.637  -1.095 -10.936  0.00  0.00     0.079 C 
ATOM     34  H   UNK d   0       1.622  -0.942  -9.857  0.00  0.00     0.066 H 
ATOM     35  H   UNK d   0       2.498  -0.581 -11.364  0.00  0.00     0.066 H 
ATOM     36  H   UNK d   0       0.722  -0.693 -11.372  0.00  0.00     0.066 H 
ENDBRANCH  32  33
ENDBRANCH   1  32
BRANCH   5  37
ATOM     37  O   UNK d   0       2.473  -6.805  -9.330  0.00  0.00    -0.491 OA
BRANCH  37  38
ATOM     38  C   UNK d   0       3.629  -7.641  -9.250  0.00  0.00     0.079 C 
ATOM     39  H   UNK d   0       3.910  -7.969 -10.251  0.00  0.00     0.066 H 
ATOM     40  H   UNK d   0       4.453  -7.080  -8.807  0.00  0.00     0.066 H 
ATOM     41  H   UNK d   0       3.407  -8.510  -8.631  0.00  0.00     0.066 H 
ENDBRANCH  37  38
ENDBRANCH   5  37
BRANCH   6  42
ATOM     42  O   UNK d   0       1.311  -5.211 -11.246  0.00  0.00    -0.488 OA
BRANCH  42  43
ATOM     43  C   UNK d   0      -0.087  -5.316 -10.967  0.00  0.00     0.079 C 
ATOM     44  H   UNK d   0      -0.561  -5.945 -11.721  0.00  0.00     0.066 H 
ATOM     45  H   UNK d   0      -0.228  -5.761  -9.982  0.00  0.00     0.066 H 
ATOM     46  H   UNK d   0      -0.537  -4.324 -10.986  0.00  0.00     0.066 H 
ENDBRANCH  42  43
ENDBRANCH   6  42
TORSDOF 11
ENDMDL
MODEL 5
REMARK VINA RESULT:      -6.2      6.116      8.642
REMARK  9 active torsions:
REMARK  status: ('A' for Active; 'I' for Inactive)
REMARK    1  A    between atoms: C_1  and  O_2 
REMARK    2  A    between atoms: O_2  and  C_3 
REMARK    3  A    between atoms: C_5  and  C_13 
REMARK    4  A    between atoms: C_7  and  O_11 
REMARK    5  A    between atoms: C_8  and  O_9 
REMARK    6  A    between atoms: O_9  and  C_10 
REMARK    7  A    between atoms: O_11  and  C_12 
REMARK       I    between atoms: C_13  and  N_15 
REMARK       I    between atoms: N_15  and  CA_16 
REMARK    8  A    between atoms: CA_16  and  CB_18 
REMARK       I    between atoms: CA_16  and  C_25 
REMARK    9  A    between atoms: CB_18  and  CG_19 
ROOT
ATOM      1  C   UNK d   0      10.229   6.717  -2.504  0.00  0.00     0.166 A 
ATOM      2  C   UNK d   0      10.056   5.347  -2.448  0.00  0.00    -0.004 A 
ATOM      3  C   UNK d   0       9.581   4.658  -3.567  0.00  0.00     0.044 A 
ATOM      4  C   UNK d   0       9.283   5.358  -4.739  0.00  0.00    -0.004 A 
ATOM      5  C   UNK d   0       9.458   6.728  -4.790  0.00  0.00     0.166 A 
ATOM      6  C   UNK d   0       9.932   7.411  -3.673  0.00  0.00     0.203 A 
ATOM      7  H   UNK d   0      10.291   4.808  -1.542  0.00  0.00     0.066 H 
ATOM      8  H   UNK d   0       8.915   4.827  -5.606  0.00  0.00     0.066 H 
ENDROOT
BRANCH   3   9
ATOM      9  C   UNK d   0       9.395   3.195  -3.511  0.00  0.00     0.245 C 
ATOM     10  O   UNK d   0      10.000   2.537  -2.687  0.00  0.00    -0.270 OA
ATOM     11  N   PHE d   1       8.557   2.589  -4.375  0.00  0.00    -0.303 N 
ATOM     12  CA  PHE d   1       8.372   1.137  -4.319  0.00  0.00     0.067 C 
ATOM     13  H   PHE d   1       8.074   3.114  -5.033  0.00  0.00     0.150 HD
ATOM     14  HA  PHE d   1       8.426   0.802  -3.283  0.00  0.00     0.056 H 
ATOM     15  C   PHE d   1       9.454   0.462  -5.122  0.00  0.00     0.062 C 
ATOM     16  O   PHE d   1      10.294   1.126  -5.683  0.00  0.00    -0.548 OA
ATOM     17  OXT PHE d   1       9.486  -0.877  -5.214  0.00  0.00    -0.548 OA
BRANCH  12  18
ATOM     18  CB  PHE d   1       7.004   0.774  -4.900  0.00  0.00    -0.004 C 
ATOM     19  HB1 PHE d   1       6.551   1.660  -5.346  0.00  0.00     0.034 H 
ATOM     20  HB2 PHE d   1       7.127   0.006  -5.664  0.00  0.00     0.034 H 
BRANCH  18  21
ATOM     21  CG  PHE d   1       6.113   0.254  -3.802  0.00  0.00    -0.045 A 
ATOM     22  CD1 PHE d   1       5.485   1.137  -2.944  0.00  0.00    -0.059 A 
ATOM     23  CE1 PHE d   1       4.668   0.660  -1.937  0.00  0.00    -0.061 A 
ATOM     24  HD1 PHE d   1       5.634   2.201  -3.062  0.00  0.00     0.062 H 
ATOM     25  CZ  PHE d   1       4.478  -0.700  -1.788  0.00  0.00    -0.062 A 
ATOM     26  HE1 PHE d   1       4.177   1.351  -1.268  0.00  0.00     0.062 H 
ATOM     27  CE2 PHE d   1       5.105  -1.585  -2.645  0.00  0.00    -0.061 A 
ATOM     28  HZ  PHE d   1       3.839  -1.073  -1.001  0.00  0.00     0.062 H 
ATOM     29  CD2 PHE d   1       5.919  -1.107  -3.656  0.00  0.00    -0.059 A 
ATOM     30  HE2 PHE d   1       4.957  -2.648  -2.528  0.00  0.00     0.062 H 
ATOM     31  HD2 PHE d   1       6.406  -1.798  -4.328  0.00  0.00     0.062 H 
ENDBRANCH  18  21
ENDBRANCH  12  18
ENDBRANCH   3   9
BRANCH   1  32
ATOM     32  O   UNK d   0      10.692   7.389  -1.414  0.00  0.00    -0.491 OA
BRANCH  32  33
ATOM     33  C   UNK d   0      10.668   6.693  -0.167  0.00  0.00     0.079 C 
ATOM     34  H   UNK d   0      11.442   7.094   0.488  0.00  0.00     0.066 H 
ATOM     35  H   UNK d   0       9.693   6.822   0.304  0.00  0.00     0.066 H 
ATOM     36  H   UNK d   0      10.851   5.633  -0.338  0.00  0.00     0.066 H 
ENDBRANCH  32  33
ENDBRANCH   1  32
BRANCH   5  37
ATOM     37  O   UNK d   0       9.168   7.408  -5.931  0.00  0.00    -0.491 OA
BRANCH  37  38
ATOM     38  C   UNK d   0       9.926   7.076  -7.096  0.00  0.00     0.079 C 
ATOM     39  H   UNK d   0       9.443   6.253  -7.622  0.00  0.00     0.066 H 
ATOM     40  H   UNK d   0       9.982   7.944  -7.753  0.00  0.00     0.066 H 
ATOM     41  H   UNK d   0      10.933   6.778  -6.802  0.00  0.00     0.066 H 
ENDBRANCH  37  38
ENDBRANCH   5  37
BRANCH   6  42
ATOM     42  O   UNK d   0      10.103   8.759  -3.725  0.00  0.00    -0.488 OA
BRANCH  42  43
ATOM     43  C   UNK d   0      11.378   9.234  -4.163  0.00  0.00     0.079 C 
ATOM     44  H   UNK d   0      12.107   8.427  -4.099  0.00  0.00     0.066 H 
ATOM     45  H   UNK d   0      11.303   9.575  -5.196  0.00  0.00     0.066 H 
ATOM     46  H   UNK d   0      11.694  10.062  -3.528  0.00  0.00     0.066 H 
ENDBRANCH  42  43
ENDBRANCH   6  42
TORSDOF 11
ENDMDL
MODEL 6
REMARK VINA RESULT:      -6.2      3.302      6.082
REMARK  9 active torsions:
REMARK  status: ('A' for Active; 'I' for Inactive)
REMARK    1  A    between atoms: C_1  and  O_2 
REMARK    2  A    between atoms: O_2  and  C_3 
REMARK    3  A    between atoms: C_5  and  C_13 
REMARK    4  A    between atoms: C_7  and  O_11 
REMARK    5  A    between atoms: C_8  and  O_9 
REMARK    6  A    between atoms: O_9  and  C_10 
REMARK    7  A    between atoms: O_11  and  C_12 
REMARK       I    between atoms: C_13  and  N_15 
REMARK       I    between atoms: N_15  and  CA_16 
REMARK    8  A    between atoms: CA_16  and  CB_18 
REMARK       I    between atoms: CA_16  and  C_25 
REMARK    9  A    between atoms: CB_18  and  CG_19 
ROOT
ATOM      1  C   UNK d   0       9.062   1.615  -6.117  0.00  0.00     0.166 A 
ATOM      2  C   UNK d   0       7.772   1.202  -6.392  0.00  0.00    -0.004 A 
ATOM      3  C   UNK d   0       7.450  -0.157  -6.345  0.00  0.00     0.044 A 
ATOM      4  C   UNK d   0       8.434  -1.094  -6.021  0.00  0.00    -0.004 A 
ATOM      5  C   UNK d   0       9.723  -0.676  -5.746  0.00  0.00     0.166 A 
ATOM      6  C   UNK d   0      10.040   0.679  -5.793  0.00  0.00     0.203 A 
ATOM      7  H   UNK d   0       7.012   1.928  -6.639  0.00  0.00     0.066 H 
ATOM      8  H   UNK d   0       8.188  -2.145  -5.984  0.00  0.00     0.066 H 
ENDROOT
BRANCH   3   9
ATOM      9  C   UNK d   0       6.073  -0.602  -6.638  0.00  0.00     0.245 C 
ATOM     10  O   UNK d   0       5.886  -1.633  -7.254  0.00  0.00    -0.270 OA
ATOM     11  N   PHE d   1       5.025   0.137  -6.225  0.00  0.00    -0.303 N 
ATOM     12  CA  PHE d   1       3.659  -0.305  -6.516  0.00  0.00     0.067 C 
ATOM     13  H   PHE d   1       5.174   0.960  -5.734  0.00  0.00     0.150 HD
ATOM     14  HA  PHE d   1       3.611  -1.393  -6.476  0.00  0.00     0.056 H 
ATOM     15  C   PHE d   1       3.261   0.166  -7.891  0.00  0.00     0.062 C 
ATOM     16  O   PHE d   1       4.039   0.804  -8.560  0.00  0.00    -0.548 OA
ATOM     17  OXT PHE d   1       2.042  -0.124  -8.373  0.00  0.00    -0.548 OA
BRANCH  12  18
ATOM     18  CB  PHE d   1       2.701   0.285  -5.479  0.00  0.00    -0.004 C 
ATOM     19  HB1 PHE d   1       2.580   1.354  -5.661  0.00  0.00     0.034 H 
ATOM     20  HB2 PHE d   1       1.732  -0.208  -5.557  0.00  0.00     0.034 H 
BRANCH  18  21
ATOM     21  CG  PHE d   1       3.262   0.072  -4.097  0.00  0.00    -0.045 A 
ATOM     22  CD1 PHE d   1       3.626   1.159  -3.323  0.00  0.00    -0.059 A 
ATOM     23  CE1 PHE d   1       4.141   0.963  -2.055  0.00  0.00    -0.061 A 
ATOM     24  HD1 PHE d   1       3.506   2.161  -3.710  0.00  0.00     0.062 H 
ATOM     25  CZ  PHE d   1       4.293  -0.318  -1.562  0.00  0.00    -0.062 A 
ATOM     26  HE1 PHE d   1       4.424   1.812  -1.451  0.00  0.00     0.062 H 
ATOM     27  CE2 PHE d   1       3.930  -1.405  -2.334  0.00  0.00    -0.061 A 
ATOM     28  HZ  PHE d   1       4.695  -0.471  -0.571  0.00  0.00     0.062 H 
ATOM     29  CD2 PHE d   1       3.410  -1.210  -3.601  0.00  0.00    -0.059 A 
ATOM     30  HE2 PHE d   1       4.048  -2.406  -1.948  0.00  0.00     0.062 H 
ATOM     31  HD2 PHE d   1       3.122  -2.058  -4.203  0.00  0.00     0.062 H 
ENDBRANCH  18  21
ENDBRANCH  12  18
ENDBRANCH   3   9
BRANCH   1  32
ATOM     32  O   UNK d   0       9.376   2.938  -6.162  0.00  0.00    -0.491 OA
BRANCH  32  33
ATOM     33  C   UNK d   0       9.535   3.522  -7.456  0.00  0.00     0.079 C 
ATOM     34  H   UNK d   0       8.779   3.121  -8.132  0.00  0.00     0.066 H 
ATOM     35  H   UNK d   0       9.420   4.604  -7.384  0.00  0.00     0.066 H 
ATOM     36  H   UNK d   0      10.527   3.288  -7.842  0.00  0.00     0.066 H 
ENDBRANCH  32  33
ENDBRANCH   1  32
BRANCH   5  37
ATOM     37  O   UNK d   0      10.681  -1.588  -5.430  0.00  0.00    -0.491 OA
BRANCH  37  38
ATOM     38  C   UNK d   0      10.258  -2.754  -4.721  0.00  0.00     0.079 C 
ATOM     39  H   UNK d   0       9.444  -3.235  -5.264  0.00  0.00     0.066 H 
ATOM     40  H   UNK d   0      11.094  -3.448  -4.631  0.00  0.00     0.066 H 
ATOM     41  H   UNK d   0       9.913  -2.470  -3.726  0.00  0.00     0.066 H 
ENDBRANCH  37  38
ENDBRANCH   5  37
BRANCH   6  42
ATOM     42  O   UNK d   0      11.308   1.088  -5.524  0.00  0.00    -0.488 OA
BRANCH  42  43
ATOM     43  C   UNK d   0      11.605   1.430  -4.168  0.00  0.00     0.079 C 
ATOM     44  H   UNK d   0      11.225   2.429  -3.955  0.00  0.00     0.066 H 
ATOM     45  H   UNK d   0      11.131   0.711  -3.500  0.00  0.00     0.066 H 
ATOM     46  H   UNK d   0      12.684   1.412  -4.017  0.00  0.00     0.066 H 
ENDBRANCH  42  43
ENDBRANCH   6  42
TORSDOF 11
ENDMDL
MODEL 7
REMARK VINA RESULT:      -6.2      6.387      9.153
REMARK  9 active torsions:
REMARK  status: ('A' for Active; 'I' for Inactive)
REMARK    1  A    between atoms: C_1  and  O_2 
REMARK    2  A    between atoms: O_2  and  C_3 
REMARK    3  A    between atoms: C_5  and  C_13 
REMARK    4  A    between atoms: C_7  and  O_11 
REMARK    5  A    between atoms: C_8  and  O_9 
REMARK    6  A    between atoms: O_9  and  C_10 
REMARK    7  A    between atoms: O_11  and  C_12 
REMARK       I    between atoms: C_13  and  N_15 
REMARK       I    between atoms: N_15  and  CA_16 
REMARK    8  A    between atoms: CA_16  and  CB_18 
REMARK       I    between atoms: CA_16  and  C_25 
REMARK    9  A    between atoms: CB_18  and  CG_19 
ROOT
ATOM      1  C   UNK d   0       9.813   6.852  -4.048  0.00  0.00     0.166 A 
ATOM      2  C   UNK d   0       9.556   5.498  -4.157  0.00  0.00    -0.004 A 
ATOM      3  C   UNK d   0       9.915   4.634  -3.119  0.00  0.00     0.044 A 
ATOM      4  C   UNK d   0      10.534   5.142  -1.975  0.00  0.00    -0.004 A 
ATOM      5  C   UNK d   0      10.789   6.496  -1.870  0.00  0.00     0.166 A 
ATOM      6  C   UNK d   0      10.429   7.355  -2.906  0.00  0.00     0.203 A 
ATOM      7  H   UNK d   0       9.073   5.109  -5.041  0.00  0.00     0.066 H 
ATOM      8  H   UNK d   0      10.812   4.476  -1.171  0.00  0.00     0.066 H 
ENDROOT
BRANCH   3   9
ATOM      9  C   UNK d   0       9.641   3.188  -3.232  0.00  0.00     0.245 C 
ATOM     10  O   UNK d   0      10.247   2.399  -2.535  0.00  0.00    -0.270 OA
ATOM     11  N   PHE d   1       8.720   2.744  -4.110  0.00  0.00    -0.303 N 
ATOM     12  CA  PHE d   1       8.448   1.308  -4.222  0.00  0.00     0.067 C 
ATOM     13  H   PHE d   1       8.236   3.374  -4.667  0.00  0.00     0.150 HD
ATOM     14  HA  PHE d   1       8.538   0.843  -3.241  0.00  0.00     0.056 H 
ATOM     15  C   PHE d   1       9.441   0.682  -5.169  0.00  0.00     0.062 C 
ATOM     16  O   PHE d   1      10.288   1.364  -5.694  0.00  0.00    -0.548 OA
ATOM     17  OXT PHE d   1       9.383  -0.634  -5.426  0.00  0.00    -0.548 OA
BRANCH  12  18
ATOM     18  CB  PHE d   1       7.031   1.098  -4.758  0.00  0.00    -0.004 C 
ATOM     19  HB1 PHE d   1       6.614   2.056  -5.071  0.00  0.00     0.034 H 
ATOM     20  HB2 PHE d   1       7.062   0.420  -5.612  0.00  0.00     0.034 H 
BRANCH  18  21
ATOM     21  CG  PHE d   1       6.167   0.504  -3.676  0.00  0.00    -0.045 A 
ATOM     22  CD1 PHE d   1       5.453   1.331  -2.829  0.00  0.00    -0.059 A 
ATOM     23  CE1 PHE d   1       4.661   0.786  -1.836  0.00  0.00    -0.061 A 
ATOM     24  HD1 PHE d   1       5.515   2.404  -2.944  0.00  0.00     0.062 H 
ATOM     25  CZ  PHE d   1       4.583  -0.585  -1.690  0.00  0.00    -0.062 A 
ATOM     26  HE1 PHE d   1       4.103   1.433  -1.175  0.00  0.00     0.062 H 
ATOM     27  CE2 PHE d   1       5.296  -1.413  -2.536  0.00  0.00    -0.061 A 
ATOM     28  HZ  PHE d   1       3.963  -1.012  -0.914  0.00  0.00     0.062 H 
ATOM     29  CD2 PHE d   1       6.085  -0.869  -3.532  0.00  0.00    -0.059 A 
ATOM     30  HE2 PHE d   1       5.234  -2.485  -2.422  0.00  0.00     0.062 H 
ATOM     31  HD2 PHE d   1       6.639  -1.515  -4.197  0.00  0.00     0.062 H 
ENDBRANCH  18  21
ENDBRANCH  12  18
ENDBRANCH   3   9
BRANCH   1  32
ATOM     32  O   UNK d   0       9.463   7.694  -5.058  0.00  0.00    -0.491 OA
BRANCH  32  33
ATOM     33  C   UNK d   0       9.935   7.367  -6.367  0.00  0.00     0.079 C 
ATOM     34  H   UNK d   0       9.827   6.296  -6.535  0.00  0.00     0.066 H 
ATOM     35  H   UNK d   0       9.353   7.912  -7.111  0.00  0.00     0.066 H 
ATOM     36  H   UNK d   0      10.986   7.644  -6.453  0.00  0.00     0.066 H 
ENDBRANCH  32  33
ENDBRANCH   1  32
BRANCH   5  37
ATOM     37  O   UNK d   0      11.391   6.991  -0.756  0.00  0.00    -0.491 OA
BRANCH  37  38
ATOM     38  C   UNK d   0      11.018   6.411   0.496  0.00  0.00     0.079 C 
ATOM     39  H   UNK d   0       9.945   6.527   0.645  0.00  0.00     0.066 H 
ATOM     40  H   UNK d   0      11.272   5.350   0.494  0.00  0.00     0.066 H 
ATOM     41  H   UNK d   0      11.554   6.911   1.303  0.00  0.00     0.066 H 
ENDBRANCH  37  38
ENDBRANCH   5  37
BRANCH   6  42
ATOM     42  O   UNK d   0      10.682   8.686  -2.802  0.00  0.00    -0.488 OA
BRANCH  42  43
ATOM     43  C   UNK d   0       9.725   9.474  -2.090  0.00  0.00     0.079 C 
ATOM     44  H   UNK d   0       8.742   9.348  -2.544  0.00  0.00     0.066 H 
ATOM     45  H   UNK d   0       9.689   9.150  -1.050  0.00  0.00     0.066 H 
ATOM     46  H   UNK d   0      10.014  10.524  -2.134  0.00  0.00     0.066 H 
ENDBRANCH  42  43
ENDBRANCH   6  42
TORSDOF 11
ENDMDL
MODEL 8
REMARK VINA RESULT:      -6.1      3.265      6.012
REMARK  9 active torsions:
REMARK  status: ('A' for Active; 'I' for Inactive)
REMARK    1  A    between atoms: C_1  and  O_2 
REMARK    2  A    between atoms: O_2  and  C_3 
REMARK    3  A    between atoms: C_5  and  C_13 
REMARK    4  A    between atoms: C_7  and  O_11 
REMARK    5  A    between atoms: C_8  and  O_9 
REMARK    6  A    between atoms: O_9  and  C_10 
REMARK    7  A    between atoms: O_11  and  C_12 
REMARK       I    between atoms: C_13  and  N_15 
REMARK       I    between atoms: N_15  and  CA_16 
REMARK    8  A    between atoms: CA_16  and  CB_18 
REMARK       I    between atoms: CA_16  and  C_25 
REMARK    9  A    between atoms: CB_18  and  CG_19 
ROOT
ATOM      1  C   UNK d   0       9.232   1.173  -5.262  0.00  0.00     0.166 A 
ATOM      2  C   UNK d   0       7.974   0.620  -5.406  0.00  0.00    -0.004 A 
ATOM      3  C   UNK d   0       7.534   0.206  -6.667  0.00  0.00     0.044 A 
ATOM      4  C   UNK d   0       8.369   0.353  -7.777  0.00  0.00    -0.004 A 
ATOM      5  C   UNK d   0       9.627   0.905  -7.628  0.00  0.00     0.166 A 
ATOM      6  C   UNK d   0      10.063   1.317  -6.370  0.00  0.00     0.203 A 
ATOM      7  H   UNK d   0       7.332   0.504  -4.546  0.00  0.00     0.066 H 
ATOM      8  H   UNK d   0       8.032   0.033  -8.753  0.00  0.00     0.066 H 
ENDROOT
BRANCH   3   9
ATOM      9  C   UNK d   0       6.191  -0.385  -6.824  0.00  0.00     0.245 C 
ATOM     10  O   UNK d   0       6.062  -1.464  -7.368  0.00  0.00    -0.270 OA
ATOM     11  N   PHE d   1       5.108   0.273  -6.367  0.00  0.00    -0.303 N 
ATOM     12  CA  PHE d   1       3.774  -0.313  -6.523  0.00  0.00     0.067 C 
ATOM     13  H   PHE d   1       5.211   1.135  -5.933  0.00  0.00     0.150 HD
ATOM     14  HA  PHE d   1       3.839  -1.396  -6.423  0.00  0.00     0.056 H 
ATOM     15  C   PHE d   1       3.230   0.035  -7.885  0.00  0.00     0.062 C 
ATOM     16  O   PHE d   1       3.888   0.702  -8.646  0.00  0.00    -0.548 OA
ATOM     17  OXT PHE d   1       2.013  -0.399  -8.251  0.00  0.00    -0.548 OA
BRANCH  12  18
ATOM     18  CB  PHE d   1       2.843   0.244  -5.445  0.00  0.00    -0.004 C 
ATOM     19  HB1 PHE d   1       2.755   1.324  -5.561  0.00  0.00     0.034 H 
ATOM     20  HB2 PHE d   1       1.858  -0.213  -5.544  0.00  0.00     0.034 H 
BRANCH  18  21
ATOM     21  CG  PHE d   1       3.407  -0.070  -4.083  0.00  0.00    -0.045 A 
ATOM     22  CD1 PHE d   1       3.578  -1.384  -3.691  0.00  0.00    -0.059 A 
ATOM     23  CE1 PHE d   1       4.095  -1.672  -2.442  0.00  0.00    -0.061 A 
ATOM     24  HD1 PHE d   1       3.308  -2.187  -4.362  0.00  0.00     0.062 H 
ATOM     25  CZ  PHE d   1       4.441  -0.645  -1.584  0.00  0.00    -0.062 A 
ATOM     26  HE1 PHE d   1       4.229  -2.699  -2.137  0.00  0.00     0.062 H 
ATOM     27  CE2 PHE d   1       4.270   0.670  -1.975  0.00  0.00    -0.061 A 
ATOM     28  HZ  PHE d   1       4.845  -0.869  -0.608  0.00  0.00     0.062 H 
ATOM     29  CD2 PHE d   1       3.757   0.958  -3.227  0.00  0.00    -0.059 A 
ATOM     30  HE2 PHE d   1       4.540   1.472  -1.305  0.00  0.00     0.062 H 
ATOM     31  HD2 PHE d   1       3.628   1.985  -3.534  0.00  0.00     0.062 H 
ENDBRANCH  18  21
ENDBRANCH  12  18
ENDBRANCH   3   9
BRANCH   1  32
ATOM     32  O   UNK d   0       9.661   1.576  -4.035  0.00  0.00    -0.491 OA
BRANCH  32  33
ATOM     33  C   UNK d   0       9.175   2.832  -3.559  0.00  0.00     0.079 C 
ATOM     34  H   UNK d   0       8.233   3.068  -4.056  0.00  0.00     0.066 H 
ATOM     35  H   UNK d   0       9.013   2.776  -2.482  0.00  0.00     0.066 H 
ATOM     36  H   UNK d   0       9.905   3.611  -3.777  0.00  0.00     0.066 H 
ENDBRANCH  32  33
ENDBRANCH   1  32
BRANCH   5  37
ATOM     37  O   UNK d   0      10.440   1.048  -8.708  0.00  0.00    -0.491 OA
BRANCH  37  38
ATOM     38  C   UNK d   0       9.978   1.897  -9.761  0.00  0.00     0.079 C 
ATOM     39  H   UNK d   0      10.422   1.581 -10.705  0.00  0.00     0.066 H 
ATOM     40  H   UNK d   0       8.892   1.831  -9.830  0.00  0.00     0.066 H 
ATOM     41  H   UNK d   0      10.267   2.927  -9.550  0.00  0.00     0.066 H 
ENDBRANCH  37  38
ENDBRANCH   5  37
BRANCH   6  42
ATOM     42  O   UNK d   0      11.300   1.861  -6.225  0.00  0.00    -0.488 OA
BRANCH  42  43
ATOM     43  C   UNK d   0      11.421   3.266  -6.459  0.00  0.00     0.079 C 
ATOM     44  H   UNK d   0      10.428   3.706  -6.546  0.00  0.00     0.066 H 
ATOM     45  H   UNK d   0      11.952   3.727  -5.626  0.00  0.00     0.066 H 
ATOM     46  H   UNK d   0      11.976   3.433  -7.382  0.00  0.00     0.066 H 
ENDBRANCH  42  43
ENDBRANCH   6  42
TORSDOF 11
ENDMDL
MODEL 9
REMARK VINA RESULT:      -6.1      3.377      6.129
REMARK  9 active torsions:
REMARK  status: ('A' for Active; 'I' for Inactive)
REMARK    1  A    between atoms: C_1  and  O_2 
REMARK    2  A    between atoms: O_2  and  C_3 
REMARK    3  A    between atoms: C_5  and  C_13 
REMARK    4  A    between atoms: C_7  and  O_11 
REMARK    5  A    between atoms: C_8  and  O_9 
REMARK    6  A    between atoms: O_9  and  C_10 
REMARK    7  A    between atoms: O_11  and  C_12 
REMARK       I    between atoms: C_13  and  N_15 
REMARK       I    between atoms: N_15  and  CA_16 
REMARK    8  A    between atoms: CA_16  and  CB_18 
REMARK       I    between atoms: CA_16  and  C_25 
REMARK    9  A    between atoms: CB_18  and  CG_19 
ROOT
ATOM      1  C   UNK d   0       9.609   1.018  -7.584  0.00  0.00     0.166 A 
ATOM      2  C   UNK d   0       8.363   0.443  -7.749  0.00  0.00    -0.004 A 
ATOM      3  C   UNK d   0       7.531   0.253  -6.642  0.00  0.00     0.044 A 
ATOM      4  C   UNK d   0       7.962   0.644  -5.372  0.00  0.00    -0.004 A 
ATOM      5  C   UNK d   0       9.209   1.218  -5.212  0.00  0.00     0.166 A 
ATOM      6  C   UNK d   0      10.036   1.407  -6.317  0.00  0.00     0.203 A 
ATOM      7  H   UNK d   0       8.030   0.147  -8.732  0.00  0.00     0.066 H 
ATOM      8  H   UNK d   0       7.321   0.497  -4.515  0.00  0.00     0.066 H 
ENDROOT
BRANCH   3   9
ATOM      9  C   UNK d   0       6.199  -0.360  -6.815  0.00  0.00     0.245 C 
ATOM     10  O   UNK d   0       6.095  -1.440  -7.363  0.00  0.00    -0.270 OA
ATOM     11  N   PHE d   1       5.101   0.279  -6.368  0.00  0.00    -0.303 N 
ATOM     12  CA  PHE d   1       3.779  -0.330  -6.540  0.00  0.00     0.067 C 
ATOM     13  H   PHE d   1       5.184   1.141  -5.931  0.00  0.00     0.150 HD
ATOM     14  HA  PHE d   1       3.861  -1.412  -6.441  0.00  0.00     0.056 H 
ATOM     15  C   PHE d   1       3.243   0.011  -7.906  0.00  0.00     0.062 C 
ATOM     16  O   PHE d   1       3.898   0.691  -8.660  0.00  0.00    -0.548 OA
ATOM     17  OXT PHE d   1       2.038  -0.442  -8.287  0.00  0.00    -0.548 OA
BRANCH  12  18
ATOM     18  CB  PHE d   1       2.827   0.209  -5.470  0.00  0.00    -0.004 C 
ATOM     19  HB1 PHE d   1       2.716   1.287  -5.591  0.00  0.00     0.034 H 
ATOM     20  HB2 PHE d   1       1.853  -0.270  -5.576  0.00  0.00     0.034 H 
BRANCH  18  21
ATOM     21  CG  PHE d   1       3.387  -0.088  -4.103  0.00  0.00    -0.045 A 
ATOM     22  CD1 PHE d   1       3.583  -1.397  -3.705  0.00  0.00    -0.059 A 
ATOM     23  CE1 PHE d   1       4.097  -1.669  -2.451  0.00  0.00    -0.061 A 
ATOM     24  HD1 PHE d   1       3.335  -2.208  -4.375  0.00  0.00     0.062 H 
ATOM     25  CZ  PHE d   1       4.414  -0.632  -1.595  0.00  0.00    -0.062 A 
ATOM     26  HE1 PHE d   1       4.250  -2.692  -2.141  0.00  0.00     0.062 H 
ATOM     27  CE2 PHE d   1       4.219   0.677  -1.992  0.00  0.00    -0.061 A 
ATOM     28  HZ  PHE d   1       4.816  -0.845  -0.615  0.00  0.00     0.062 H 
ATOM     29  CD2 PHE d   1       3.709   0.950  -3.248  0.00  0.00    -0.059 A 
ATOM     30  HE2 PHE d   1       4.467   1.487  -1.323  0.00  0.00     0.062 H 
ATOM     31  HD2 PHE d   1       3.560   1.972  -3.560  0.00  0.00     0.062 H 
ENDBRANCH  18  21
ENDBRANCH  12  18
ENDBRANCH   3   9
BRANCH   1  32
ATOM     32  O   UNK d   0      10.419   1.205  -8.661  0.00  0.00    -0.491 OA
BRANCH  32  33
ATOM     33  C   UNK d   0      10.948   0.033  -9.284  0.00  0.00     0.079 C 
ATOM     34  H   UNK d   0      10.136  -0.535  -9.738  0.00  0.00     0.066 H 
ATOM     35  H   UNK d   0      11.664   0.321 -10.055  0.00  0.00     0.066 H 
ATOM     36  H   UNK d   0      11.448  -0.583  -8.536  0.00  0.00     0.066 H 
ENDBRANCH  32  33
ENDBRANCH   1  32
BRANCH   5  37
ATOM     37  O   UNK d   0       9.629   1.598  -3.977  0.00  0.00    -0.491 OA
BRANCH  37  38
ATOM     38  C   UNK d   0       9.217   2.888  -3.519  0.00  0.00     0.079 C 
ATOM     39  H   UNK d   0       9.390   3.625  -4.304  0.00  0.00     0.066 H 
ATOM     40  H   UNK d   0       8.156   2.864  -3.272  0.00  0.00     0.066 H 
ATOM     41  H   UNK d   0       9.790   3.160  -2.633  0.00  0.00     0.066 H 
ENDBRANCH  37  38
ENDBRANCH   5  37
BRANCH   6  42
ATOM     42  O   UNK d   0      11.262   1.972  -6.158  0.00  0.00    -0.488 OA
BRANCH  42  43
ATOM     43  C   UNK d   0      12.351   1.089  -5.878  0.00  0.00     0.079 C 
ATOM     44  H   UNK d   0      12.332   0.256  -6.581  0.00  0.00     0.066 H 
ATOM     45  H   UNK d   0      13.292   1.629  -5.980  0.00  0.00     0.066 H 
ATOM     46  H   UNK d   0      12.258   0.708  -4.861  0.00  0.00     0.066 H 
ENDBRANCH  42  43
ENDBRANCH   6  42
TORSDOF 11
ENDMDL
MODEL 10
REMARK VINA RESULT:      -5.9      2.584      3.925
REMARK  9 active torsions:
REMARK  status: ('A' for Active; 'I' for Inactive)
REMARK    1  A    between atoms: C_1  and  O_2 
REMARK    2  A    between atoms: O_2  and  C_3 
REMARK    3  A    between atoms: C_5  and  C_13 
REMARK    4  A    between atoms: C_7  and  O_11 
REMARK    5  A    between atoms: C_8  and  O_9 
REMARK    6  A    between atoms: O_9  and  C_10 
REMARK    7  A    between atoms: O_11  and  C_12 
REMARK       I    between atoms: C_13  and  N_15 
REMARK       I    between atoms: N_15  and  CA_16 
REMARK    8  A    between atoms: CA_16  and  CB_18 
REMARK       I    between atoms: CA_16  and  C_25 
REMARK    9  A    between atoms: CB_18  and  CG_19 
ROOT
ATOM      1  C   UNK d   0       4.304  -1.454 -10.064  0.00  0.00     0.166 A 
ATOM      2  C   UNK d   0       5.003  -0.628  -9.204  0.00  0.00    -0.004 A 
ATOM      3  C   UNK d   0       5.209  -1.018  -7.878  0.00  0.00     0.044 A 
ATOM      4  C   UNK d   0       4.707  -2.241  -7.426  0.00  0.00    -0.004 A 
ATOM      5  C   UNK d   0       4.009  -3.063  -8.290  0.00  0.00     0.166 A 
ATOM      6  C   UNK d   0       3.806  -2.672  -9.612  0.00  0.00     0.203 A 
ATOM      7  H   UNK d   0       5.394   0.314  -9.557  0.00  0.00     0.066 H 
ATOM      8  H   UNK d   0       4.865  -2.544  -6.401  0.00  0.00     0.066 H 
ENDROOT
BRANCH   3   9
ATOM      9  C   UNK d   0       5.955  -0.138  -6.956  0.00  0.00     0.245 C 
ATOM     10  O   UNK d   0       6.176   1.017  -7.264  0.00  0.00    -0.270 OA
ATOM     11  N   PHE d   1       6.393  -0.617  -5.775  0.00  0.00    -0.303 N 
ATOM     12  CA  PHE d   1       7.133   0.256  -4.861  0.00  0.00     0.067 C 
ATOM     13  H   PHE d   1       6.217  -1.539  -5.529  0.00  0.00     0.150 HD
ATOM     14  HA  PHE d   1       6.742   1.271  -4.929  0.00  0.00     0.056 H 
ATOM     15  C   PHE d   1       8.593   0.254  -5.236  0.00  0.00     0.062 C 
ATOM     16  O   PHE d   1       8.975  -0.407  -6.172  0.00  0.00    -0.548 OA
ATOM     17  OXT PHE d   1       9.468   0.988  -4.531  0.00  0.00    -0.548 OA
BRANCH  12  18
ATOM     18  CB  PHE d   1       6.976  -0.256  -3.427  0.00  0.00    -0.004 C 
ATOM     19  HB1 PHE d   1       7.509  -1.201  -3.317  0.00  0.00     0.034 H 
ATOM     20  HB2 PHE d   1       7.387   0.476  -2.733  0.00  0.00     0.034 H 
BRANCH  18  21
ATOM     21  CG  PHE d   1       5.514  -0.467  -3.127  0.00  0.00    -0.045 A 
ATOM     22  CD1 PHE d   1       5.039  -1.738  -2.862  0.00  0.00    -0.059 A 
ATOM     23  CE1 PHE d   1       3.699  -1.932  -2.587  0.00  0.00    -0.061 A 
ATOM     24  HD1 PHE d   1       5.717  -2.580  -2.871  0.00  0.00     0.062 H 
ATOM     25  CZ  PHE d   1       2.833  -0.855  -2.576  0.00  0.00    -0.062 A 
ATOM     26  HE1 PHE d   1       3.329  -2.925  -2.379  0.00  0.00     0.062 H 
ATOM     27  CE2 PHE d   1       3.307   0.416  -2.840  0.00  0.00    -0.061 A 
ATOM     28  HZ  PHE d   1       1.785  -1.007  -2.360  0.00  0.00     0.062 H 
ATOM     29  CD2 PHE d   1       4.649   0.611  -3.111  0.00  0.00    -0.059 A 
ATOM     30  HE2 PHE d   1       2.630   1.257  -2.831  0.00  0.00     0.062 H 
ATOM     31  HD2 PHE d   1       5.020   1.604  -3.313  0.00  0.00     0.062 H 
ENDBRANCH  18  21
ENDBRANCH  12  18
ENDBRANCH   3   9
BRANCH   1  32
ATOM     32  O   UNK d   0       4.104  -1.076 -11.356  0.00  0.00    -0.491 OA
BRANCH  32  33
ATOM     33  C   UNK d   0       3.958   0.323 -11.606  0.00  0.00     0.079 C 
ATOM     34  H   UNK d   0       3.254   0.749 -10.891  0.00  0.00     0.066 H 
ATOM     35  H   UNK d   0       4.926   0.815 -11.499  0.00  0.00     0.066 H 
ATOM     36  H   UNK d   0       3.583   0.475 -12.618  0.00  0.00     0.066 H 
ENDBRANCH  32  33
ENDBRANCH   1  32
BRANCH   5  37
ATOM     37  O   UNK d   0       3.521  -4.253  -7.851  0.00  0.00    -0.491 OA
BRANCH  37  38
ATOM     38  C   UNK d   0       4.085  -4.783  -6.649  0.00  0.00     0.079 C 
ATOM     39  H   UNK d   0       3.290  -5.184  -6.020  0.00  0.00     0.066 H 
ATOM     40  H   UNK d   0       4.788  -5.578  -6.897  0.00  0.00     0.066 H 
ATOM     41  H   UNK d   0       4.608  -3.990  -6.113  0.00  0.00     0.066 H 
ENDBRANCH  37  38
ENDBRANCH   5  37
BRANCH   6  42
ATOM     42  O   UNK d   0       3.119  -3.482 -10.460  0.00  0.00    -0.488 OA
BRANCH  42  43
ATOM     43  C   UNK d   0       1.701  -3.309 -10.516  0.00  0.00     0.079 C 
ATOM     44  H   UNK d   0       1.329  -3.671 -11.474  0.00  0.00     0.066 H 
ATOM     45  H   UNK d   0       1.235  -3.873  -9.708  0.00  0.00     0.066 H 
ATOM     46  H   UNK d   0       1.460  -2.252 -10.408  0.00  0.00     0.066 H 
ENDBRANCH  42  43
ENDBRANCH   6  42
TORSDOF 11
ENDMDL
