MODEL 1
REMARK VINA RESULT:      -6.9      0.000      0.000
REMARK  12 active torsions:
REMARK  status: ('A' for Active; 'I' for Inactive)
REMARK    1  A    between atoms: C_1  and  C_2 
REMARK    2  A    between atoms: C_4  and  C_31 
REMARK    3  A    between atoms: C_6  and  C_28 
REMARK    4  A    between atoms: C_9  and  C_11 
REMARK    5  A    between atoms: C_11  and  C_12 
REMARK    6  A    between atoms: C_15  and  C_17 
REMARK    7  A    between atoms: C_17  and  C_18 
REMARK    8  A    between atoms: C_28  and  C_29 
REMARK    9  A    between atoms: C_28  and  C_30 
REMARK   10  A    between atoms: C_31  and  N_32 
REMARK   11  A    between atoms: C_36  and  C_38 
REMARK   12  A    between atoms: C_38  and  O_39 
ROOT
ATOM      1  C   LIG d   1       9.934   3.837  -7.868  0.00  0.00    -0.072 C 
ATOM      2  C   LIG d   1      10.178   4.648  -6.888  0.00  0.00    -0.076 C 
ATOM      3  C   LIG d   1       9.852   4.353  -5.453  0.00  0.00     0.021 C 
ATOM      4  H   LIG d   1      10.765   4.073  -4.926  0.00  0.00     0.040 H 
ATOM      5  C   LIG d   1       8.843   3.206  -5.365  0.00  0.00    -0.027 C 
ATOM      6  H   LIG d   1       7.872   3.545  -5.725  0.00  0.00     0.031 H 
ATOM      7  C   LIG d   1       9.344   2.052  -6.243  0.00  0.00    -0.042 C 
ATOM      8  C   LIG d   1       9.277   2.497  -7.707  0.00  0.00    -0.011 C 
ATOM      9  H   LIG d   1       9.793   1.766  -8.329  0.00  0.00     0.035 H 
ATOM     10  H   LIG d   1      10.644   5.594  -7.118  0.00  0.00     0.058 H 
ATOM     11  H   LIG d   1      10.372   1.808  -5.977  0.00  0.00     0.027 H 
ATOM     12  H   LIG d   1       8.708   1.179  -6.098  0.00  0.00     0.027 H 
ENDROOT
BRANCH   8  13
ATOM     13  C   LIG d   1       7.815   2.593  -8.148  0.00  0.00     0.032 C 
ATOM     14  H   LIG d   1       7.278   3.265  -7.480  0.00  0.00     0.037 H 
ATOM     15  H   LIG d   1       7.767   2.979  -9.167  0.00  0.00     0.037 H 
BRANCH  13  16
ATOM     16  C   LIG d   1       7.184   1.225  -8.098  0.00  0.00     0.218 A 
ATOM     17  O   LIG d   1       6.096   0.877  -7.393  0.00  0.00    -0.424 OA
ATOM     18  C   LIG d   1       5.886  -0.427  -7.639  0.00  0.00     0.222 A 
ATOM     19  N   LIG d   1       6.822  -0.826  -8.453  0.00  0.00    -0.112 NA
ATOM     20  N   LIG d   1       7.599   0.163  -8.728  0.00  0.00    -0.112 NA
BRANCH  18  21
ATOM     21  C   LIG d   1       4.774  -1.274  -7.076  0.00  0.00     0.053 C 
ATOM     22  H   LIG d   1       4.079  -1.538  -7.873  0.00  0.00     0.041 H 
ATOM     23  H   LIG d   1       5.193  -2.182  -6.643  0.00  0.00     0.041 H 
BRANCH  21  24
ATOM     24  C   LIG d   1       4.043  -0.499  -6.010  0.00  0.00    -0.013 A 
ATOM     25  C   LIG d   1       4.320  -0.521  -4.571  0.00  0.00     0.003 A 
ATOM     26  C   LIG d   1       3.391   0.356  -3.983  0.00  0.00     0.047 A 
ATOM     27  C   LIG d   1       5.251  -1.188  -3.772  0.00  0.00    -0.052 A 
ATOM     28  N   LIG d   1       2.606   0.858  -4.998  0.00  0.00    -0.360 N 
ATOM     29  C   LIG d   1       3.412   0.548  -2.606  0.00  0.00    -0.038 A 
ATOM     30  C   LIG d   1       3.010   0.337  -6.198  0.00  0.00     0.006 A 
ATOM     31  H   LIG d   1       1.877   1.486  -4.879  0.00  0.00     0.165 HD
ATOM     32  H   LIG d   1       2.563   0.566  -7.154  0.00  0.00     0.081 H 
ATOM     33  C   LIG d   1       4.333  -0.128  -1.834  0.00  0.00    -0.060 A 
ATOM     34  H   LIG d   1       2.701   1.214  -2.140  0.00  0.00     0.064 H 
ATOM     35  C   LIG d   1       5.252  -0.989  -2.420  0.00  0.00    -0.061 A 
ATOM     36  H   LIG d   1       4.345   0.019  -0.765  0.00  0.00     0.062 H 
ATOM     37  H   LIG d   1       5.971  -1.505  -1.803  0.00  0.00     0.062 H 
ATOM     38  H   LIG d   1       5.968  -1.860  -4.221  0.00  0.00     0.062 H 
ENDBRANCH  21  24
ENDBRANCH  18  21
ENDBRANCH  13  16
ENDBRANCH   8  13
BRANCH   1  39
ATOM     39  C   LIG d   1      10.329   4.269  -9.256  0.00  0.00    -0.043 C 
ATOM     40  H   LIG d   1      11.231   3.738  -9.559  0.00  0.00     0.027 H 
ATOM     41  H   LIG d   1       9.522   4.039  -9.951  0.00  0.00     0.027 H 
ATOM     42  H   LIG d   1      10.519   5.343  -9.263  0.00  0.00     0.027 H 
ENDBRANCH   1  39
BRANCH   5  43
ATOM     43  C   LIG d   1       8.721   2.738  -3.914  0.00  0.00    -0.043 C 
ATOM     44  H   LIG d   1       8.462   3.587  -3.280  0.00  0.00     0.030 H 
BRANCH  43  45
ATOM     45  C   LIG d   1       7.629   1.672  -3.813  0.00  0.00    -0.062 C 
ATOM     46  H   LIG d   1       8.088   0.683  -3.776  0.00  0.00     0.023 H 
ATOM     47  H   LIG d   1       7.045   1.834  -2.906  0.00  0.00     0.023 H 
ATOM     48  H   LIG d   1       6.975   1.738  -4.682  0.00  0.00     0.023 H 
ENDBRANCH  43  45
BRANCH  43  49
ATOM     49  C   LIG d   1      10.055   2.146  -3.454  0.00  0.00    -0.062 C 
ATOM     50  H   LIG d   1       9.895   1.131  -3.089  0.00  0.00     0.023 H 
ATOM     51  H   LIG d   1      10.751   2.126  -4.293  0.00  0.00     0.023 H 
ATOM     52  H   LIG d   1      10.468   2.759  -2.654  0.00  0.00     0.023 H 
ENDBRANCH  43  49
ENDBRANCH   5  43
BRANCH   3  53
ATOM     53  C   LIG d   1       9.254   5.602  -4.802  0.00  0.00    -0.025 C 
ATOM     54  H   LIG d   1       9.019   6.336  -5.571  0.00  0.00     0.082 H 
ATOM     55  H   LIG d   1       8.344   5.331  -4.266  0.00  0.00     0.082 H 
BRANCH  53  56
ATOM     56  N   LIG d   1      10.225   6.175  -3.860  0.00  0.00     0.239 N 
ATOM     57  C   LIG d   1       9.668   6.145  -2.494  0.00  0.00     0.003 C 
ATOM     58  C   LIG d   1      10.629   5.306  -1.626  0.00  0.00    -0.003 C 
ATOM     59  H   LIG d   1       8.681   5.684  -2.507  0.00  0.00     0.087 H 
ATOM     60  C   LIG d   1      11.965   5.382  -2.411  0.00  0.00    -0.007 C 
ATOM     61  H   LIG d   1      10.282   4.275  -1.554  0.00  0.00     0.032 H 
ATOM     62  H   LIG d   1      10.738   5.747  -0.636  0.00  0.00     0.032 H 
ATOM     63  C   LIG d   1      11.468   5.374  -3.877  0.00  0.00    -0.031 C 
ATOM     64  H   LIG d   1      12.589   4.512  -2.205  0.00  0.00     0.032 H 
ATOM     65  H   LIG d   1      12.498   6.305  -2.184  0.00  0.00     0.032 H 
ATOM     66  H   LIG d   1      11.259   4.355  -4.201  0.00  0.00     0.081 H 
ATOM     67  H   LIG d   1      12.207   5.837  -4.531  0.00  0.00     0.081 H 
ATOM     68  H   LIG d   1      10.433   7.126  -4.121  0.00  0.00     0.204 HD
BRANCH  57  69
ATOM     69  C   LIG d   1       9.575   7.568  -1.940  0.00  0.00     0.087 C 
ATOM     70  H   LIG d   1      10.434   7.765  -1.298  0.00  0.00     0.061 H 
ATOM     71  H   LIG d   1       9.567   8.280  -2.765  0.00  0.00     0.061 H 
BRANCH  69  72
ATOM     72  O   LIG d   1       8.373   7.705  -1.180  0.00  0.00    -0.390 OA
ATOM     73  H   LIG d   1       7.847   8.484  -1.411  0.00  0.00     0.210 HD
ENDBRANCH  69  72
ENDBRANCH  57  69
ENDBRANCH  53  56
ENDBRANCH   3  53
TORSDOF 12
ENDMDL
MODEL 2
REMARK VINA RESULT:      -6.9      5.001      8.520
REMARK  12 active torsions:
REMARK  status: ('A' for Active; 'I' for Inactive)
REMARK    1  A    between atoms: C_1  and  C_2 
REMARK    2  A    between atoms: C_4  and  C_31 
REMARK    3  A    between atoms: C_6  and  C_28 
REMARK    4  A    between atoms: C_9  and  C_11 
REMARK    5  A    between atoms: C_11  and  C_12 
REMARK    6  A    between atoms: C_15  and  C_17 
REMARK    7  A    between atoms: C_17  and  C_18 
REMARK    8  A    between atoms: C_28  and  C_29 
REMARK    9  A    between atoms: C_28  and  C_30 
REMARK   10  A    between atoms: C_31  and  N_32 
REMARK   11  A    between atoms: C_36  and  C_38 
REMARK   12  A    between atoms: C_38  and  O_39 
ROOT
ATOM      1  C   LIG d   1       5.190  -0.471 -11.528  0.00  0.00    -0.072 C 
ATOM      2  C   LIG d   1       3.927  -0.255 -11.713  0.00  0.00    -0.076 C 
ATOM      3  C   LIG d   1       2.973   0.137 -10.623  0.00  0.00     0.021 C 
ATOM      4  H   LIG d   1       2.761   1.204 -10.695  0.00  0.00     0.040 H 
ATOM      5  C   LIG d   1       3.584  -0.168  -9.252  0.00  0.00    -0.027 C 
ATOM      6  H   LIG d   1       3.626  -1.246  -9.102  0.00  0.00     0.031 H 
ATOM      7  C   LIG d   1       5.002   0.415  -9.214  0.00  0.00    -0.042 C 
ATOM      8  C   LIG d   1       5.873  -0.376 -10.195  0.00  0.00    -0.011 C 
ATOM      9  H   LIG d   1       6.830   0.132 -10.316  0.00  0.00     0.035 H 
ATOM     10  H   LIG d   1       3.536  -0.364 -12.713  0.00  0.00     0.058 H 
ATOM     11  H   LIG d   1       4.976   1.464  -9.506  0.00  0.00     0.027 H 
ATOM     12  H   LIG d   1       5.409   0.320  -8.207  0.00  0.00     0.027 H 
ENDROOT
BRANCH   8  13
ATOM     13  C   LIG d   1       6.115  -1.784  -9.647  0.00  0.00     0.032 C 
ATOM     14  H   LIG d   1       5.161  -2.300  -9.538  0.00  0.00     0.037 H 
ATOM     15  H   LIG d   1       6.751  -2.338 -10.338  0.00  0.00     0.037 H 
BRANCH  13  16
ATOM     16  C   LIG d   1       6.793  -1.691  -8.305  0.00  0.00     0.218 A 
ATOM     17  O   LIG d   1       6.331  -2.186  -7.145  0.00  0.00    -0.424 OA
ATOM     18  C   LIG d   1       7.246  -1.879  -6.211  0.00  0.00     0.222 A 
ATOM     19  N   LIG d   1       8.204  -1.224  -6.803  0.00  0.00    -0.112 NA
ATOM     20  N   LIG d   1       7.933  -1.111  -8.056  0.00  0.00    -0.112 NA
BRANCH  18  21
ATOM     21  C   LIG d   1       7.177  -2.226  -4.746  0.00  0.00     0.053 C 
ATOM     22  H   LIG d   1       7.451  -3.272  -4.607  0.00  0.00     0.041 H 
ATOM     23  H   LIG d   1       7.868  -1.593  -4.189  0.00  0.00     0.041 H 
BRANCH  21  24
ATOM     24  C   LIG d   1       5.774  -2.004  -4.243  0.00  0.00    -0.013 A 
ATOM     25  C   LIG d   1       5.264  -0.797  -3.588  0.00  0.00     0.003 A 
ATOM     26  C   LIG d   1       3.910  -1.052  -3.303  0.00  0.00     0.047 A 
ATOM     27  C   LIG d   1       5.829   0.432  -3.241  0.00  0.00    -0.052 A 
ATOM     28  N   LIG d   1       3.634  -2.327  -3.746  0.00  0.00    -0.360 N 
ATOM     29  C   LIG d   1       3.148  -0.072  -2.676  0.00  0.00    -0.038 A 
ATOM     30  C   LIG d   1       4.757  -2.878  -4.302  0.00  0.00     0.006 A 
ATOM     31  H   LIG d   1       2.774  -2.767  -3.674  0.00  0.00     0.165 HD
ATOM     32  H   LIG d   1       4.815  -3.869  -4.727  0.00  0.00     0.081 H 
ATOM     33  C   LIG d   1       3.729   1.131  -2.333  0.00  0.00    -0.060 A 
ATOM     34  H   LIG d   1       2.110  -0.256  -2.446  0.00  0.00     0.064 H 
ATOM     35  C   LIG d   1       5.064   1.380  -2.621  0.00  0.00    -0.061 A 
ATOM     36  H   LIG d   1       3.138   1.889  -1.842  0.00  0.00     0.062 H 
ATOM     37  H   LIG d   1       5.502   2.329  -2.353  0.00  0.00     0.062 H 
ATOM     38  H   LIG d   1       6.867   0.632  -3.461  0.00  0.00     0.062 H 
ENDBRANCH  21  24
ENDBRANCH  18  21
ENDBRANCH  13  16
ENDBRANCH   8  13
BRANCH   1  39
ATOM     39  C   LIG d   1       6.024  -0.848 -12.725  0.00  0.00    -0.043 C 
ATOM     40  H   LIG d   1       5.427  -0.746 -13.631  0.00  0.00     0.027 H 
ATOM     41  H   LIG d   1       6.890  -0.190 -12.785  0.00  0.00     0.027 H 
ATOM     42  H   LIG d   1       6.358  -1.881 -12.625  0.00  0.00     0.027 H 
ENDBRANCH   1  39
BRANCH   5  43
ATOM     43  C   LIG d   1       2.731   0.472  -8.155  0.00  0.00    -0.043 C 
ATOM     44  H   LIG d   1       1.700   0.129  -8.250  0.00  0.00     0.030 H 
BRANCH  43  45
ATOM     45  C   LIG d   1       3.279   0.071  -6.785  0.00  0.00    -0.062 C 
ATOM     46  H   LIG d   1       2.502   0.202  -6.030  0.00  0.00     0.023 H 
ATOM     47  H   LIG d   1       3.588  -0.974  -6.809  0.00  0.00     0.023 H 
ATOM     48  H   LIG d   1       4.135   0.698  -6.538  0.00  0.00     0.023 H 
ENDBRANCH  43  45
BRANCH  43  49
ATOM     49  C   LIG d   1       2.776   1.995  -8.297  0.00  0.00    -0.062 C 
ATOM     50  H   LIG d   1       2.974   2.444  -7.323  0.00  0.00     0.023 H 
ATOM     51  H   LIG d   1       3.567   2.272  -8.993  0.00  0.00     0.023 H 
ATOM     52  H   LIG d   1       1.818   2.353  -8.673  0.00  0.00     0.023 H 
ENDBRANCH  43  49
ENDBRANCH   5  43
BRANCH   3  53
ATOM     53  C   LIG d   1       1.671  -0.651 -10.780  0.00  0.00    -0.025 C 
ATOM     54  H   LIG d   1       1.150  -0.687  -9.825  0.00  0.00     0.082 H 
ATOM     55  H   LIG d   1       1.038  -0.162 -11.521  0.00  0.00     0.082 H 
BRANCH  53  56
ATOM     56  N   LIG d   1       1.976  -2.018 -11.223  0.00  0.00     0.239 N 
ATOM     57  C   LIG d   1       1.633  -2.974 -10.154  0.00  0.00     0.003 C 
ATOM     58  C   LIG d   1       0.586  -3.950 -10.731  0.00  0.00    -0.003 C 
ATOM     59  H   LIG d   1       1.214  -2.441  -9.301  0.00  0.00     0.087 H 
ATOM     60  C   LIG d   1       0.815  -3.843 -12.262  0.00  0.00    -0.007 C 
ATOM     61  H   LIG d   1      -0.423  -3.631 -10.469  0.00  0.00     0.032 H 
ATOM     62  H   LIG d   1       0.773  -4.965 -10.383  0.00  0.00     0.032 H 
ATOM     63  C   LIG d   1       1.172  -2.344 -12.421  0.00  0.00    -0.031 C 
ATOM     64  H   LIG d   1      -0.095  -4.088 -12.811  0.00  0.00     0.032 H 
ATOM     65  H   LIG d   1       1.643  -4.477 -12.578  0.00  0.00     0.032 H 
ATOM     66  H   LIG d   1       0.266  -1.739 -12.446  0.00  0.00     0.081 H 
ATOM     67  H   LIG d   1       1.760  -2.188 -13.325  0.00  0.00     0.081 H 
ATOM     68  H   LIG d   1       2.957  -2.093 -11.445  0.00  0.00     0.204 HD
BRANCH  57  69
ATOM     69  C   LIG d   1       2.883  -3.746  -9.726  0.00  0.00     0.087 C 
ATOM     70  H   LIG d   1       2.728  -4.812  -9.897  0.00  0.00     0.061 H 
ATOM     71  H   LIG d   1       3.738  -3.405 -10.311  0.00  0.00     0.061 H 
BRANCH  69  72
ATOM     72  O   LIG d   1       3.132  -3.518  -8.338  0.00  0.00    -0.390 OA
ATOM     73  H   LIG d   1       3.405  -4.308  -7.852  0.00  0.00     0.210 HD
ENDBRANCH  69  72
ENDBRANCH  57  69
ENDBRANCH  53  56
ENDBRANCH   3  53
TORSDOF 12
ENDMDL
MODEL 3
REMARK VINA RESULT:      -6.8      6.293      8.794
REMARK  12 active torsions:
REMARK  status: ('A' for Active; 'I' for Inactive)
REMARK    1  A    between atoms: C_1  and  C_2 
REMARK    2  A    between atoms: C_4  and  C_31 
REMARK    3  A    between atoms: C_6  and  C_28 
REMARK    4  A    between atoms: C_9  and  C_11 
REMARK    5  A    between atoms: C_11  and  C_12 
REMARK    6  A    between atoms: C_15  and  C_17 
REMARK    7  A    between atoms: C_17  and  C_18 
REMARK    8  A    between atoms: C_28  and  C_29 
REMARK    9  A    between atoms: C_28  and  C_30 
REMARK   10  A    between atoms: C_31  and  N_32 
REMARK   11  A    between atoms: C_36  and  C_38 
REMARK   12  A    between atoms: C_38  and  O_39 
ROOT
ATOM      1  C   LIG d   1       5.464  -2.719  -6.404  0.00  0.00    -0.072 C 
ATOM      2  C   LIG d   1       6.017  -1.717  -5.799  0.00  0.00    -0.076 C 
ATOM      3  C   LIG d   1       7.197  -1.838  -4.879  0.00  0.00     0.021 C 
ATOM      4  H   LIG d   1       8.096  -1.508  -5.400  0.00  0.00     0.040 H 
ATOM      5  C   LIG d   1       7.372  -3.292  -4.434  0.00  0.00    -0.027 C 
ATOM      6  H   LIG d   1       6.563  -3.567  -3.758  0.00  0.00     0.031 H 
ATOM      7  C   LIG d   1       7.333  -4.188  -5.678  0.00  0.00    -0.042 C 
ATOM      8  C   LIG d   1       5.915  -4.143  -6.258  0.00  0.00    -0.011 C 
ATOM      9  H   LIG d   1       5.912  -4.625  -7.236  0.00  0.00     0.035 H 
ATOM     10  H   LIG d   1       5.604  -0.734  -5.966  0.00  0.00     0.058 H 
ATOM     11  H   LIG d   1       8.046  -3.822  -6.416  0.00  0.00     0.027 H 
ATOM     12  H   LIG d   1       7.580  -5.212  -5.399  0.00  0.00     0.027 H 
ENDROOT
BRANCH   8  13
ATOM     13  C   LIG d   1       4.956  -4.886  -5.326  0.00  0.00     0.032 C 
ATOM     14  H   LIG d   1       5.399  -4.961  -4.333  0.00  0.00     0.037 H 
ATOM     15  H   LIG d   1       4.014  -4.339  -5.263  0.00  0.00     0.037 H 
BRANCH  13  16
ATOM     16  C   LIG d   1       4.699  -6.269  -5.867  0.00  0.00     0.218 A 
ATOM     17  O   LIG d   1       5.215  -7.415  -5.395  0.00  0.00    -0.424 OA
ATOM     18  C   LIG d   1       4.724  -8.398  -6.168  0.00  0.00     0.222 A 
ATOM     19  N   LIG d   1       3.955  -7.844  -7.062  0.00  0.00    -0.112 NA
ATOM     20  N   LIG d   1       3.941  -6.570  -6.883  0.00  0.00    -0.112 NA
BRANCH  18  21
ATOM     21  C   LIG d   1       5.011  -9.871  -6.029  0.00  0.00     0.053 C 
ATOM     22  H   LIG d   1       4.276 -10.439  -6.599  0.00  0.00     0.041 H 
ATOM     23  H   LIG d   1       6.009 -10.085  -6.408  0.00  0.00     0.041 H 
BRANCH  21  24
ATOM     24  C   LIG d   1       4.931 -10.263  -4.576  0.00  0.00    -0.013 A 
ATOM     25  C   LIG d   1       5.976 -10.082  -3.565  0.00  0.00     0.003 A 
ATOM     26  C   LIG d   1       5.448 -10.592  -2.365  0.00  0.00     0.047 A 
ATOM     27  C   LIG d   1       7.264  -9.543  -3.586  0.00  0.00    -0.052 A 
ATOM     28  N   LIG d   1       4.182 -11.057  -2.642  0.00  0.00    -0.360 N 
ATOM     29  C   LIG d   1       6.221 -10.553  -1.209  0.00  0.00    -0.038 A 
ATOM     30  C   LIG d   1       3.891 -10.852  -3.964  0.00  0.00     0.006 A 
ATOM     31  H   LIG d   1       3.586 -11.467  -1.997  0.00  0.00     0.165 HD
ATOM     32  H   LIG d   1       2.962 -11.124  -4.443  0.00  0.00     0.081 H 
ATOM     33  C   LIG d   1       7.494 -10.026  -1.255  0.00  0.00    -0.060 A 
ATOM     34  H   LIG d   1       5.831 -10.947  -0.282  0.00  0.00     0.064 H 
ATOM     35  C   LIG d   1       8.008  -9.518  -2.441  0.00  0.00    -0.061 A 
ATOM     36  H   LIG d   1       8.095 -10.000  -0.358  0.00  0.00     0.062 H 
ATOM     37  H   LIG d   1       9.004  -9.102  -2.458  0.00  0.00     0.062 H 
ATOM     38  H   LIG d   1       7.670  -9.147  -4.506  0.00  0.00     0.062 H 
ENDBRANCH  21  24
ENDBRANCH  18  21
ENDBRANCH  13  16
ENDBRANCH   8  13
BRANCH   1  39
ATOM     39  C   LIG d   1       4.291  -2.438  -7.306  0.00  0.00    -0.043 C 
ATOM     40  H   LIG d   1       4.610  -1.798  -8.129  0.00  0.00     0.027 H 
ATOM     41  H   LIG d   1       3.907  -3.376  -7.705  0.00  0.00     0.027 H 
ATOM     42  H   LIG d   1       3.507  -1.936  -6.739  0.00  0.00     0.027 H 
ENDBRANCH   1  39
BRANCH   5  43
ATOM     43  C   LIG d   1       8.717  -3.453  -3.721  0.00  0.00    -0.043 C 
ATOM     44  H   LIG d   1       8.687  -2.927  -2.766  0.00  0.00     0.030 H 
BRANCH  43  45
ATOM     45  C   LIG d   1       8.989  -4.938  -3.478  0.00  0.00    -0.062 C 
ATOM     46  H   LIG d   1       8.594  -5.521  -4.311  0.00  0.00     0.023 H 
ATOM     47  H   LIG d   1      10.064  -5.103  -3.399  0.00  0.00     0.023 H 
ATOM     48  H   LIG d   1       8.504  -5.250  -2.554  0.00  0.00     0.023 H 
ENDBRANCH  43  45
BRANCH  43  49
ATOM     49  C   LIG d   1       9.829  -2.866  -4.592  0.00  0.00    -0.062 C 
ATOM     50  H   LIG d   1       9.530  -1.879  -4.946  0.00  0.00     0.023 H 
ATOM     51  H   LIG d   1      10.743  -2.781  -4.005  0.00  0.00     0.023 H 
ATOM     52  H   LIG d   1      10.005  -3.520  -5.446  0.00  0.00     0.023 H 
ENDBRANCH  43  49
ENDBRANCH   5  43
BRANCH   3  53
ATOM     53  C   LIG d   1       6.973  -0.957  -3.648  0.00  0.00    -0.025 C 
ATOM     54  H   LIG d   1       7.277  -1.498  -2.754  0.00  0.00     0.082 H 
ATOM     55  H   LIG d   1       7.565  -0.046  -3.741  0.00  0.00     0.082 H 
BRANCH  53  56
ATOM     56  N   LIG d   1       5.550  -0.608  -3.549  0.00  0.00     0.239 N 
ATOM     57  C   LIG d   1       4.988  -1.163  -2.303  0.00  0.00     0.003 C 
ATOM     58  C   LIG d   1       4.445   0.022  -1.478  0.00  0.00    -0.003 C 
ATOM     59  H   LIG d   1       5.768  -1.679  -1.743  0.00  0.00     0.087 H 
ATOM     60  C   LIG d   1       4.217   1.119  -2.550  0.00  0.00    -0.007 C 
ATOM     61  H   LIG d   1       5.181   0.349  -0.742  0.00  0.00     0.032 H 
ATOM     62  H   LIG d   1       3.506  -0.245  -0.993  0.00  0.00     0.032 H 
ATOM     63  C   LIG d   1       5.399   0.863  -3.517  0.00  0.00    -0.031 C 
ATOM     64  H   LIG d   1       4.280   2.115  -2.110  0.00  0.00     0.032 H 
ATOM     65  H   LIG d   1       3.261   0.978  -3.055  0.00  0.00     0.032 H 
ATOM     66  H   LIG d   1       6.308   1.330  -3.137  0.00  0.00     0.081 H 
ATOM     67  H   LIG d   1       5.164   1.241  -4.512  0.00  0.00     0.081 H 
ATOM     68  H   LIG d   1       5.051  -0.981  -4.342  0.00  0.00     0.204 HD
BRANCH  57  69
ATOM     69  C   LIG d   1       3.852  -2.132  -2.632  0.00  0.00     0.087 C 
ATOM     70  H   LIG d   1       4.251  -3.144  -2.722  0.00  0.00     0.061 H 
ATOM     71  H   LIG d   1       3.109  -2.106  -1.834  0.00  0.00     0.061 H 
BRANCH  69  72
ATOM     72  O   LIG d   1       3.241  -1.750  -3.865  0.00  0.00    -0.390 OA
ATOM     73  H   LIG d   1       3.531  -2.271  -4.627  0.00  0.00     0.210 HD
ENDBRANCH  69  72
ENDBRANCH  57  69
ENDBRANCH  53  56
ENDBRANCH   3  53
TORSDOF 12
ENDMDL
MODEL 4
REMARK VINA RESULT:      -6.6      2.772      4.644
REMARK  12 active torsions:
REMARK  status: ('A' for Active; 'I' for Inactive)
REMARK    1  A    between atoms: C_1  and  C_2 
REMARK    2  A    between atoms: C_4  and  C_31 
REMARK    3  A    between atoms: C_6  and  C_28 
REMARK    4  A    between atoms: C_9  and  C_11 
REMARK    5  A    between atoms: C_11  and  C_12 
REMARK    6  A    between atoms: C_15  and  C_17 
REMARK    7  A    between atoms: C_17  and  C_18 
REMARK    8  A    between atoms: C_28  and  C_29 
REMARK    9  A    between atoms: C_28  and  C_30 
REMARK   10  A    between atoms: C_31  and  N_32 
REMARK   11  A    between atoms: C_36  and  C_38 
REMARK   12  A    between atoms: C_38  and  O_39 
ROOT
ATOM      1  C   LIG d   1      10.472   6.029  -4.353  0.00  0.00    -0.072 C 
ATOM      2  C   LIG d   1      10.555   7.238  -3.901  0.00  0.00    -0.076 C 
ATOM      3  C   LIG d   1      11.111   7.595  -2.553  0.00  0.00     0.021 C 
ATOM      4  H   LIG d   1      12.120   7.993  -2.672  0.00  0.00     0.040 H 
ATOM      5  C   LIG d   1      11.156   6.356  -1.656  0.00  0.00    -0.027 C 
ATOM      6  H   LIG d   1      10.142   6.065  -1.384  0.00  0.00     0.031 H 
ATOM      7  C   LIG d   1      11.828   5.218  -2.435  0.00  0.00    -0.042 C 
ATOM      8  C   LIG d   1      10.903   4.812  -3.587  0.00  0.00    -0.011 C 
ATOM      9  H   LIG d   1      11.436   4.135  -4.254  0.00  0.00     0.035 H 
ATOM     10  H   LIG d   1      10.204   8.041  -4.533  0.00  0.00     0.058 H 
ATOM     11  H   LIG d   1      12.784   5.559  -2.831  0.00  0.00     0.027 H 
ATOM     12  H   LIG d   1      11.984   4.365  -1.775  0.00  0.00     0.027 H 
ENDROOT
BRANCH   8  13
ATOM     13  C   LIG d   1       9.668   4.102  -3.027  0.00  0.00     0.032 C 
ATOM     14  H   LIG d   1       9.844   3.834  -1.986  0.00  0.00     0.037 H 
ATOM     15  H   LIG d   1       8.806   4.766  -3.092  0.00  0.00     0.037 H 
BRANCH  13  16
ATOM     16  C   LIG d   1       9.402   2.853  -3.828  0.00  0.00     0.218 A 
ATOM     17  O   LIG d   1       8.258   2.543  -4.460  0.00  0.00    -0.424 OA
ATOM     18  C   LIG d   1       8.459   1.350  -5.044  0.00  0.00     0.222 A 
ATOM     19  N   LIG d   1       9.673   0.974  -4.756  0.00  0.00    -0.112 NA
ATOM     20  N   LIG d   1      10.237   1.873  -4.028  0.00  0.00    -0.112 NA
BRANCH  18  21
ATOM     21  C   LIG d   1       7.463   0.584  -5.875  0.00  0.00     0.053 C 
ATOM     22  H   LIG d   1       6.720   1.272  -6.277  0.00  0.00     0.041 H 
ATOM     23  H   LIG d   1       7.979   0.087  -6.696  0.00  0.00     0.041 H 
BRANCH  21  24
ATOM     24  C   LIG d   1       6.778  -0.447  -5.015  0.00  0.00    -0.013 A 
ATOM     25  C   LIG d   1       5.952  -0.186  -3.833  0.00  0.00     0.003 A 
ATOM     26  C   LIG d   1       5.529  -1.445  -3.369  0.00  0.00     0.047 A 
ATOM     27  C   LIG d   1       5.551   0.973  -3.165  0.00  0.00    -0.052 A 
ATOM     28  N   LIG d   1       6.074  -2.392  -4.208  0.00  0.00    -0.360 N 
ATOM     29  C   LIG d   1       4.714  -1.519  -2.245  0.00  0.00    -0.038 A 
ATOM     30  C   LIG d   1       6.815  -1.779  -5.182  0.00  0.00     0.006 A 
ATOM     31  H   LIG d   1       5.951  -3.349  -4.121  0.00  0.00     0.165 HD
ATOM     32  H   LIG d   1       7.349  -2.290  -5.968  0.00  0.00     0.081 H 
ATOM     33  C   LIG d   1       4.338  -0.363  -1.595  0.00  0.00    -0.060 A 
ATOM     34  H   LIG d   1       4.386  -2.479  -1.874  0.00  0.00     0.064 H 
ATOM     35  C   LIG d   1       4.754   0.878  -2.060  0.00  0.00    -0.061 A 
ATOM     36  H   LIG d   1       3.710  -0.421  -0.719  0.00  0.00     0.062 H 
ATOM     37  H   LIG d   1       4.445   1.774  -1.544  0.00  0.00     0.062 H 
ATOM     38  H   LIG d   1       5.871   1.941  -3.521  0.00  0.00     0.062 H 
ENDBRANCH  21  24
ENDBRANCH  18  21
ENDBRANCH  13  16
ENDBRANCH   8  13
BRANCH   1  39
ATOM     39  C   LIG d   1       9.900   5.828  -5.733  0.00  0.00    -0.043 C 
ATOM     40  H   LIG d   1       9.318   4.906  -5.755  0.00  0.00     0.027 H 
ATOM     41  H   LIG d   1       9.255   6.670  -5.984  0.00  0.00     0.027 H 
ATOM     42  H   LIG d   1      10.711   5.763  -6.458  0.00  0.00     0.027 H 
ENDBRANCH   1  39
BRANCH   5  43
ATOM     43  C   LIG d   1      11.961   6.665  -0.392  0.00  0.00    -0.043 C 
ATOM     44  H   LIG d   1      12.018   7.745  -0.253  0.00  0.00     0.030 H 
BRANCH  43  45
ATOM     45  C   LIG d   1      11.274   6.029   0.817  0.00  0.00    -0.062 C 
ATOM     46  H   LIG d   1      10.522   6.715   1.210  0.00  0.00     0.023 H 
ATOM     47  H   LIG d   1      10.793   5.099   0.515  0.00  0.00     0.023 H 
ATOM     48  H   LIG d   1      12.015   5.822   1.588  0.00  0.00     0.023 H 
ENDBRANCH  43  45
BRANCH  43  49
ATOM     49  C   LIG d   1      13.374   6.094  -0.535  0.00  0.00    -0.062 C 
ATOM     50  H   LIG d   1      14.088   6.775  -0.071  0.00  0.00     0.023 H 
ATOM     51  H   LIG d   1      13.424   5.123  -0.043  0.00  0.00     0.023 H 
ATOM     52  H   LIG d   1      13.614   5.980  -1.591  0.00  0.00     0.023 H 
ENDBRANCH  43  49
ENDBRANCH   5  43
BRANCH   3  53
ATOM     53  C   LIG d   1      10.222   8.657  -1.903  0.00  0.00    -0.025 C 
ATOM     54  H   LIG d   1       9.177   8.435  -2.115  0.00  0.00     0.082 H 
ATOM     55  H   LIG d   1      10.382   8.654  -0.825  0.00  0.00     0.082 H 
BRANCH  53  56
ATOM     56  N   LIG d   1      10.562   9.979  -2.445  0.00  0.00     0.239 N 
ATOM     57  C   LIG d   1       9.560  10.968  -2.005  0.00  0.00     0.003 C 
ATOM     58  C   LIG d   1      10.311  12.059  -1.214  0.00  0.00    -0.003 C 
ATOM     59  H   LIG d   1       8.821  10.487  -1.365  0.00  0.00     0.087 H 
ATOM     60  C   LIG d   1      11.767  11.927  -1.732  0.00  0.00    -0.007 C 
ATOM     61  H   LIG d   1      10.263  11.861  -0.143  0.00  0.00     0.032 H 
ATOM     62  H   LIG d   1       9.909  13.046  -1.442  0.00  0.00     0.032 H 
ATOM     63  C   LIG d   1      11.887  10.398  -1.941  0.00  0.00    -0.031 C 
ATOM     64  H   LIG d   1      12.481  12.278  -0.986  0.00  0.00     0.032 H 
ATOM     65  H   LIG d   1      11.896  12.461  -2.674  0.00  0.00     0.032 H 
ATOM     66  H   LIG d   1      12.108   9.902  -0.996  0.00  0.00     0.081 H 
ATOM     67  H   LIG d   1      12.660  10.175  -2.677  0.00  0.00     0.081 H 
ATOM     68  H   LIG d   1      10.581   9.939  -3.452  0.00  0.00     0.204 HD
BRANCH  57  69
ATOM     69  C   LIG d   1       8.873  11.589  -3.223  0.00  0.00     0.087 C 
ATOM     70  H   LIG d   1       9.216  12.616  -3.350  0.00  0.00     0.061 H 
ATOM     71  H   LIG d   1       9.120  11.011  -4.114  0.00  0.00     0.061 H 
BRANCH  69  72
ATOM     72  O   LIG d   1       7.458  11.581  -3.027  0.00  0.00    -0.390 OA
ATOM     73  H   LIG d   1       7.141  10.857  -2.469  0.00  0.00     0.210 HD
ENDBRANCH  69  72
ENDBRANCH  57  69
ENDBRANCH  53  56
ENDBRANCH   3  53
TORSDOF 12
ENDMDL
MODEL 5
REMARK VINA RESULT:      -6.6      2.602      3.964
REMARK  12 active torsions:
REMARK  status: ('A' for Active; 'I' for Inactive)
REMARK    1  A    between atoms: C_1  and  C_2 
REMARK    2  A    between atoms: C_4  and  C_31 
REMARK    3  A    between atoms: C_6  and  C_28 
REMARK    4  A    between atoms: C_9  and  C_11 
REMARK    5  A    between atoms: C_11  and  C_12 
REMARK    6  A    between atoms: C_15  and  C_17 
REMARK    7  A    between atoms: C_17  and  C_18 
REMARK    8  A    between atoms: C_28  and  C_29 
REMARK    9  A    between atoms: C_28  and  C_30 
REMARK   10  A    between atoms: C_31  and  N_32 
REMARK   11  A    between atoms: C_36  and  C_38 
REMARK   12  A    between atoms: C_38  and  O_39 
ROOT
ATOM      1  C   LIG d   1       9.148   3.311  -5.224  0.00  0.00    -0.072 C 
ATOM      2  C   LIG d   1       9.686   4.459  -5.489  0.00  0.00    -0.076 C 
ATOM      3  C   LIG d   1       9.929   4.973  -6.877  0.00  0.00     0.021 C 
ATOM      4  H   LIG d   1       9.171   5.717  -7.125  0.00  0.00     0.040 H 
ATOM      5  C   LIG d   1       9.860   3.824  -7.886  0.00  0.00    -0.027 C 
ATOM      6  H   LIG d   1      10.725   3.174  -7.759  0.00  0.00     0.031 H 
ATOM      7  C   LIG d   1       8.575   3.028  -7.626  0.00  0.00    -0.042 C 
ATOM      8  C   LIG d   1       8.708   2.328  -6.270  0.00  0.00    -0.011 C 
ATOM      9  H   LIG d   1       7.743   1.907  -5.986  0.00  0.00     0.035 H 
ATOM     10  H   LIG d   1       9.977   5.084  -4.658  0.00  0.00     0.058 H 
ATOM     11  H   LIG d   1       7.721   3.705  -7.610  0.00  0.00     0.027 H 
ATOM     12  H   LIG d   1       8.441   2.282  -8.410  0.00  0.00     0.027 H 
ENDROOT
BRANCH   8  13
ATOM     13  C   LIG d   1       9.739   1.202  -6.373  0.00  0.00     0.032 C 
ATOM     14  H   LIG d   1      10.110   1.141  -7.396  0.00  0.00     0.037 H 
ATOM     15  H   LIG d   1      10.570   1.407  -5.697  0.00  0.00     0.037 H 
BRANCH  13  16
ATOM     16  C   LIG d   1       9.094  -0.106  -5.993  0.00  0.00     0.218 A 
ATOM     17  O   LIG d   1       8.604  -0.430  -4.786  0.00  0.00    -0.424 OA
ATOM     18  C   LIG d   1       8.126  -1.680  -4.894  0.00  0.00     0.222 A 
ATOM     19  N   LIG d   1       8.335  -2.074  -6.118  0.00  0.00    -0.112 NA
ATOM     20  N   LIG d   1       8.915  -1.132  -6.776  0.00  0.00    -0.112 NA
BRANCH  18  21
ATOM     21  C   LIG d   1       7.469  -2.483  -3.801  0.00  0.00     0.053 C 
ATOM     22  H   LIG d   1       7.669  -3.543  -3.959  0.00  0.00     0.041 H 
ATOM     23  H   LIG d   1       7.870  -2.178  -2.834  0.00  0.00     0.041 H 
BRANCH  21  24
ATOM     24  C   LIG d   1       5.982  -2.244  -3.825  0.00  0.00    -0.013 A 
ATOM     25  C   LIG d   1       5.276  -1.086  -3.270  0.00  0.00     0.003 A 
ATOM     26  C   LIG d   1       3.911  -1.301  -3.533  0.00  0.00     0.047 A 
ATOM     27  C   LIG d   1       5.683   0.070  -2.602  0.00  0.00    -0.052 A 
ATOM     28  N   LIG d   1       3.807  -2.507  -4.189  0.00  0.00    -0.360 N 
ATOM     29  C   LIG d   1       2.979  -0.353  -3.121  0.00  0.00    -0.038 A 
ATOM     30  C   LIG d   1       5.051  -3.054  -4.354  0.00  0.00     0.006 A 
ATOM     31  H   LIG d   1       2.977  -2.909  -4.488  0.00  0.00     0.165 HD
ATOM     32  H   LIG d   1       5.254  -3.998  -4.838  0.00  0.00     0.081 H 
ATOM     33  C   LIG d   1       3.403   0.777  -2.454  0.00  0.00    -0.060 A 
ATOM     34  H   LIG d   1       1.928  -0.507  -3.311  0.00  0.00     0.064 H 
ATOM     35  C   LIG d   1       4.752   0.987  -2.202  0.00  0.00    -0.061 A 
ATOM     36  H   LIG d   1       2.679   1.510  -2.131  0.00  0.00     0.062 H 
ATOM     37  H   LIG d   1       5.067   1.880  -1.685  0.00  0.00     0.062 H 
ATOM     38  H   LIG d   1       6.731   0.240  -2.401  0.00  0.00     0.062 H 
ENDBRANCH  21  24
ENDBRANCH  18  21
ENDBRANCH  13  16
ENDBRANCH   8  13
BRANCH   1  39
ATOM     39  C   LIG d   1       8.958   2.937  -3.777  0.00  0.00    -0.043 C 
ATOM     40  H   LIG d   1       8.078   3.445  -3.383  0.00  0.00     0.027 H 
ATOM     41  H   LIG d   1       8.822   1.859  -3.696  0.00  0.00     0.027 H 
ATOM     42  H   LIG d   1       9.836   3.237  -3.205  0.00  0.00     0.027 H 
ENDBRANCH   1  39
BRANCH   5  43
ATOM     43  C   LIG d   1       9.843   4.387  -9.308  0.00  0.00    -0.043 C 
ATOM     44  H   LIG d   1      10.662   5.097  -9.427  0.00  0.00     0.030 H 
BRANCH  43  45
ATOM     45  C   LIG d   1      10.007   3.244 -10.310  0.00  0.00    -0.062 C 
ATOM     46  H   LIG d   1       9.876   3.627 -11.323  0.00  0.00     0.023 H 
ATOM     47  H   LIG d   1      11.005   2.815 -10.212  0.00  0.00     0.023 H 
ATOM     48  H   LIG d   1       9.260   2.477 -10.113  0.00  0.00     0.023 H 
ENDBRANCH  43  45
BRANCH  43  49
ATOM     49  C   LIG d   1       8.511   5.098  -9.559  0.00  0.00    -0.062 C 
ATOM     50  H   LIG d   1       8.315   5.798  -8.746  0.00  0.00     0.023 H 
ATOM     51  H   LIG d   1       8.561   5.640 -10.503  0.00  0.00     0.023 H 
ATOM     52  H   LIG d   1       7.709   4.361  -9.604  0.00  0.00     0.023 H 
ENDBRANCH  43  49
ENDBRANCH   5  43
BRANCH   3  53
ATOM     53  C   LIG d   1      11.314   5.619  -6.943  0.00  0.00    -0.025 C 
ATOM     54  H   LIG d   1      11.921   5.265  -6.111  0.00  0.00     0.082 H 
ATOM     55  H   LIG d   1      11.795   5.352  -7.884  0.00  0.00     0.082 H 
BRANCH  53  56
ATOM     56  N   LIG d   1      11.177   7.080  -6.862  0.00  0.00     0.239 N 
ATOM     57  C   LIG d   1       9.783   7.465  -7.156  0.00  0.00     0.003 C 
ATOM     58  C   LIG d   1       9.245   8.214  -5.920  0.00  0.00    -0.003 C 
ATOM     59  H   LIG d   1       9.184   6.573  -7.340  0.00  0.00     0.087 H 
ATOM     60  C   LIG d   1      10.538   8.709  -5.221  0.00  0.00    -0.007 C 
ATOM     61  H   LIG d   1       8.690   7.538  -5.270  0.00  0.00     0.032 H 
ATOM     62  H   LIG d   1       8.623   9.057  -6.221  0.00  0.00     0.032 H 
ATOM     63  C   LIG d   1      11.511   7.536  -5.496  0.00  0.00    -0.031 C 
ATOM     64  H   LIG d   1      10.378   8.841  -4.150  0.00  0.00     0.032 H 
ATOM     65  H   LIG d   1      10.900   9.631  -5.676  0.00  0.00     0.032 H 
ATOM     66  H   LIG d   1      11.350   6.733  -4.777  0.00  0.00     0.081 H 
ATOM     67  H   LIG d   1      12.544   7.882  -5.455  0.00  0.00     0.081 H 
ATOM     68  H   LIG d   1      11.797   7.517  -7.525  0.00  0.00     0.204 HD
BRANCH  57  69
ATOM     69  C   LIG d   1       9.745   8.382  -8.379  0.00  0.00     0.087 C 
ATOM     70  H   LIG d   1      10.426   9.221  -8.227  0.00  0.00     0.061 H 
ATOM     71  H   LIG d   1      10.051   7.823  -9.264  0.00  0.00     0.061 H 
BRANCH  69  72
ATOM     72  O   LIG d   1       8.417   8.876  -8.563  0.00  0.00    -0.390 OA
ATOM     73  H   LIG d   1       8.366   9.834  -8.687  0.00  0.00     0.210 HD
ENDBRANCH  69  72
ENDBRANCH  57  69
ENDBRANCH  53  56
ENDBRANCH   3  53
TORSDOF 12
ENDMDL
MODEL 6
REMARK VINA RESULT:      -6.6      5.270      7.672
REMARK  12 active torsions:
REMARK  status: ('A' for Active; 'I' for Inactive)
REMARK    1  A    between atoms: C_1  and  C_2 
REMARK    2  A    between atoms: C_4  and  C_31 
REMARK    3  A    between atoms: C_6  and  C_28 
REMARK    4  A    between atoms: C_9  and  C_11 
REMARK    5  A    between atoms: C_11  and  C_12 
REMARK    6  A    between atoms: C_15  and  C_17 
REMARK    7  A    between atoms: C_17  and  C_18 
REMARK    8  A    between atoms: C_28  and  C_29 
REMARK    9  A    between atoms: C_28  and  C_30 
REMARK   10  A    between atoms: C_31  and  N_32 
REMARK   11  A    between atoms: C_36  and  C_38 
REMARK   12  A    between atoms: C_38  and  O_39 
ROOT
ATOM      1  C   LIG d   1       7.019  -2.435  -3.909  0.00  0.00    -0.072 C 
ATOM      2  C   LIG d   1       7.353  -1.228  -3.580  0.00  0.00    -0.076 C 
ATOM      3  C   LIG d   1       6.371  -0.160  -3.197  0.00  0.00     0.021 C 
ATOM      4  H   LIG d   1       6.378  -0.033  -2.114  0.00  0.00     0.040 H 
ATOM      5  C   LIG d   1       4.963  -0.549  -3.653  0.00  0.00    -0.027 C 
ATOM      6  H   LIG d   1       4.902  -0.496  -4.740  0.00  0.00     0.031 H 
ATOM      7  C   LIG d   1       4.683  -1.984  -3.190  0.00  0.00    -0.042 C 
ATOM      8  C   LIG d   1       5.603  -2.929  -3.970  0.00  0.00    -0.011 C 
ATOM      9  H   LIG d   1       5.550  -3.926  -3.533  0.00  0.00     0.035 H 
ATOM     10  H   LIG d   1       8.402  -0.975  -3.580  0.00  0.00     0.058 H 
ATOM     11  H   LIG d   1       4.884  -2.071  -2.123  0.00  0.00     0.027 H 
ATOM     12  H   LIG d   1       3.643  -2.239  -3.393  0.00  0.00     0.027 H 
ENDROOT
BRANCH   8  13
ATOM     13  C   LIG d   1       5.152  -2.994  -5.431  0.00  0.00     0.032 C 
ATOM     14  H   LIG d   1       4.230  -2.427  -5.552  0.00  0.00     0.037 H 
ATOM     15  H   LIG d   1       5.927  -2.569  -6.070  0.00  0.00     0.037 H 
BRANCH  13  16
ATOM     16  C   LIG d   1       4.913  -4.431  -5.819  0.00  0.00     0.218 A 
ATOM     17  O   LIG d   1       5.855  -5.350  -6.086  0.00  0.00    -0.424 OA
ATOM     18  C   LIG d   1       5.203  -6.486  -6.383  0.00  0.00     0.222 A 
ATOM     19  N   LIG d   1       3.927  -6.237  -6.299  0.00  0.00    -0.112 NA
ATOM     20  N   LIG d   1       3.753  -5.007  -5.962  0.00  0.00    -0.112 NA
BRANCH  18  21
ATOM     21  C   LIG d   1       5.831  -7.805  -6.750  0.00  0.00     0.053 C 
ATOM     22  H   LIG d   1       5.059  -8.489  -7.104  0.00  0.00     0.041 H 
ATOM     23  H   LIG d   1       6.569  -7.651  -7.538  0.00  0.00     0.041 H 
BRANCH  21  24
ATOM     24  C   LIG d   1       6.506  -8.395  -5.538  0.00  0.00    -0.013 A 
ATOM     25  C   LIG d   1       5.862  -9.163  -4.470  0.00  0.00     0.003 A 
ATOM     26  C   LIG d   1       6.884  -9.504  -3.566  0.00  0.00     0.047 A 
ATOM     27  C   LIG d   1       4.550  -9.575  -4.226  0.00  0.00    -0.052 A 
ATOM     28  N   LIG d   1       8.055  -8.966  -4.054  0.00  0.00    -0.360 N 
ATOM     29  C   LIG d   1       6.573 -10.250  -2.434  0.00  0.00    -0.038 A 
ATOM     30  C   LIG d   1       7.810  -8.309  -5.229  0.00  0.00     0.006 A 
ATOM     31  H   LIG d   1       8.922  -9.042  -3.628  0.00  0.00     0.165 HD
ATOM     32  H   LIG d   1       8.554  -7.798  -5.821  0.00  0.00     0.081 H 
ATOM     33  C   LIG d   1       5.270 -10.638  -2.207  0.00  0.00    -0.060 A 
ATOM     34  H   LIG d   1       7.347 -10.513  -1.728  0.00  0.00     0.064 H 
ATOM     35  C   LIG d   1       4.265 -10.304  -3.105  0.00  0.00    -0.061 A 
ATOM     36  H   LIG d   1       5.029 -11.213  -1.326  0.00  0.00     0.062 H 
ATOM     37  H   LIG d   1       3.251 -10.622  -2.917  0.00  0.00     0.062 H 
ATOM     38  H   LIG d   1       3.763  -9.319  -4.920  0.00  0.00     0.062 H 
ENDBRANCH  21  24
ENDBRANCH  18  21
ENDBRANCH  13  16
ENDBRANCH   8  13
BRANCH   1  39
ATOM     39  C   LIG d   1       8.121  -3.401  -4.258  0.00  0.00    -0.043 C 
ATOM     40  H   LIG d   1       8.985  -2.849  -4.628  0.00  0.00     0.027 H 
ATOM     41  H   LIG d   1       8.404  -3.966  -3.371  0.00  0.00     0.027 H 
ATOM     42  H   LIG d   1       7.772  -4.088  -5.030  0.00  0.00     0.027 H 
ENDBRANCH   1  39
BRANCH   5  43
ATOM     43  C   LIG d   1       3.939   0.404  -3.033  0.00  0.00    -0.043 C 
ATOM     44  H   LIG d   1       3.840   1.289  -3.662  0.00  0.00     0.030 H 
BRANCH  43  45
ATOM     45  C   LIG d   1       2.586  -0.301  -2.926  0.00  0.00    -0.062 C 
ATOM     46  H   LIG d   1       2.597  -0.981  -2.073  0.00  0.00     0.023 H 
ATOM     47  H   LIG d   1       1.799   0.441  -2.788  0.00  0.00     0.023 H 
ATOM     48  H   LIG d   1       2.398  -0.866  -3.838  0.00  0.00     0.023 H 
ENDBRANCH  43  45
BRANCH  43  49
ATOM     49  C   LIG d   1       4.409   0.820  -1.637  0.00  0.00    -0.062 C 
ATOM     50  H   LIG d   1       3.801   0.317  -0.885  0.00  0.00     0.023 H 
ATOM     51  H   LIG d   1       5.454   0.540  -1.508  0.00  0.00     0.023 H 
ATOM     52  H   LIG d   1       4.305   1.899  -1.526  0.00  0.00     0.023 H 
ENDBRANCH  43  49
ENDBRANCH   5  43
BRANCH   3  53
ATOM     53  C   LIG d   1       6.770   1.158  -3.864  0.00  0.00    -0.025 C 
ATOM     54  H   LIG d   1       6.065   1.391  -4.660  0.00  0.00     0.082 H 
ATOM     55  H   LIG d   1       6.760   1.958  -3.123  0.00  0.00     0.082 H 
BRANCH  53  56
ATOM     56  N   LIG d   1       8.121   1.032  -4.428  0.00  0.00     0.239 N 
ATOM     57  C   LIG d   1       8.090   1.357  -5.866  0.00  0.00     0.003 C 
ATOM     58  C   LIG d   1       9.049   2.545  -6.087  0.00  0.00    -0.003 C 
ATOM     59  H   LIG d   1       7.079   1.637  -6.161  0.00  0.00     0.087 H 
ATOM     60  C   LIG d   1       9.999   2.461  -4.863  0.00  0.00    -0.007 C 
ATOM     61  H   LIG d   1       8.502   3.488  -6.086  0.00  0.00     0.032 H 
ATOM     62  H   LIG d   1       9.606   2.423  -7.016  0.00  0.00     0.032 H 
ATOM     63  C   LIG d   1       9.034   1.978  -3.752  0.00  0.00    -0.031 C 
ATOM     64  H   LIG d   1      10.414   3.440  -4.622  0.00  0.00     0.032 H 
ATOM     65  H   LIG d   1      10.792   1.733  -5.034  0.00  0.00     0.032 H 
ATOM     66  H   LIG d   1       8.474   2.820  -3.344  0.00  0.00     0.081 H 
ATOM     67  H   LIG d   1       9.588   1.471  -2.962  0.00  0.00     0.081 H 
ATOM     68  H   LIG d   1       8.456   0.090  -4.300  0.00  0.00     0.204 HD
BRANCH  57  69
ATOM     69  C   LIG d   1       8.560   0.151  -6.682  0.00  0.00     0.087 C 
ATOM     70  H   LIG d   1       9.073   0.498  -7.580  0.00  0.00     0.061 H 
ATOM     71  H   LIG d   1       9.243  -0.450  -6.083  0.00  0.00     0.061 H 
BRANCH  69  72
ATOM     72  O   LIG d   1       7.430  -0.640  -7.055  0.00  0.00    -0.390 OA
ATOM     73  H   LIG d   1       6.701  -0.131  -7.437  0.00  0.00     0.210 HD
ENDBRANCH  69  72
ENDBRANCH  57  69
ENDBRANCH  53  56
ENDBRANCH   3  53
TORSDOF 12
ENDMDL
MODEL 7
REMARK VINA RESULT:      -6.4      2.985      7.960
REMARK  12 active torsions:
REMARK  status: ('A' for Active; 'I' for Inactive)
REMARK    1  A    between atoms: C_1  and  C_2 
REMARK    2  A    between atoms: C_4  and  C_31 
REMARK    3  A    between atoms: C_6  and  C_28 
REMARK    4  A    between atoms: C_9  and  C_11 
REMARK    5  A    between atoms: C_11  and  C_12 
REMARK    6  A    between atoms: C_15  and  C_17 
REMARK    7  A    between atoms: C_17  and  C_18 
REMARK    8  A    between atoms: C_28  and  C_29 
REMARK    9  A    between atoms: C_28  and  C_30 
REMARK   10  A    between atoms: C_31  and  N_32 
REMARK   11  A    between atoms: C_36  and  C_38 
REMARK   12  A    between atoms: C_38  and  O_39 
ROOT
ATOM      1  C   LIG d   1       6.791  -0.747  -7.105  0.00  0.00    -0.072 C 
ATOM      2  C   LIG d   1       5.794  -1.153  -6.387  0.00  0.00    -0.076 C 
ATOM      3  C   LIG d   1       4.367  -0.759  -6.631  0.00  0.00     0.021 C 
ATOM      4  H   LIG d   1       3.841  -1.584  -7.114  0.00  0.00     0.040 H 
ATOM      5  C   LIG d   1       4.307   0.478  -7.531  0.00  0.00    -0.027 C 
ATOM      6  H   LIG d   1       4.664   1.348  -6.981  0.00  0.00     0.031 H 
ATOM      7  C   LIG d   1       5.206   0.234  -8.749  0.00  0.00    -0.042 C 
ATOM      8  C   LIG d   1       6.661   0.189  -8.272  0.00  0.00    -0.011 C 
ATOM      9  H   LIG d   1       7.296  -0.160  -9.087  0.00  0.00     0.035 H 
ATOM     10  H   LIG d   1       6.002  -1.817  -5.562  0.00  0.00     0.058 H 
ATOM     11  H   LIG d   1       4.941  -0.714  -9.217  0.00  0.00     0.027 H 
ATOM     12  H   LIG d   1       5.082   1.047  -9.465  0.00  0.00     0.027 H 
ENDROOT
BRANCH   8  13
ATOM     13  C   LIG d   1       7.106   1.591  -7.850  0.00  0.00     0.032 C 
ATOM     14  H   LIG d   1       6.245   2.259  -7.845  0.00  0.00     0.037 H 
ATOM     15  H   LIG d   1       7.540   1.548  -6.850  0.00  0.00     0.037 H 
BRANCH  13  16
ATOM     16  C   LIG d   1       8.136   2.105  -8.823  0.00  0.00     0.218 A 
ATOM     17  O   LIG d   1       8.932   3.173  -8.647  0.00  0.00    -0.424 OA
ATOM     18  C   LIG d   1       9.688   3.266  -9.753  0.00  0.00     0.222 A 
ATOM     19  N   LIG d   1       9.342   2.293 -10.547  0.00  0.00    -0.112 NA
ATOM     20  N   LIG d   1       8.413   1.598  -9.990  0.00  0.00    -0.112 NA
BRANCH  18  21
ATOM     21  C   LIG d   1      10.743   4.308 -10.027  0.00  0.00     0.053 C 
ATOM     22  H   LIG d   1      11.568   4.182  -9.327  0.00  0.00     0.041 H 
ATOM     23  H   LIG d   1      11.110   4.194 -11.047  0.00  0.00     0.041 H 
BRANCH  21  24
ATOM     24  C   LIG d   1      10.147   5.682  -9.858  0.00  0.00    -0.013 A 
ATOM     25  C   LIG d   1       9.922   6.385  -8.592  0.00  0.00     0.003 A 
ATOM     26  C   LIG d   1       9.355   7.626  -8.933  0.00  0.00     0.047 A 
ATOM     27  C   LIG d   1      10.154   6.069  -7.252  0.00  0.00    -0.052 A 
ATOM     28  N   LIG d   1       9.239   7.658 -10.305  0.00  0.00    -0.360 N 
ATOM     29  C   LIG d   1       9.031   8.528  -7.924  0.00  0.00    -0.038 A 
ATOM     30  C   LIG d   1       9.715   6.491 -10.839  0.00  0.00     0.006 A 
ATOM     31  H   LIG d   1       8.873   8.396 -10.816  0.00  0.00     0.165 HD
ATOM     32  H   LIG d   1       9.741   6.256 -11.892  0.00  0.00     0.081 H 
ATOM     33  C   LIG d   1       9.260   8.192  -6.607  0.00  0.00    -0.060 A 
ATOM     34  H   LIG d   1       8.590   9.482  -8.171  0.00  0.00     0.064 H 
ATOM     35  C   LIG d   1       9.825   6.967  -6.276  0.00  0.00    -0.061 A 
ATOM     36  H   LIG d   1       9.004   8.890  -5.825  0.00  0.00     0.062 H 
ATOM     37  H   LIG d   1      10.004   6.722  -5.241  0.00  0.00     0.062 H 
ATOM     38  H   LIG d   1      10.593   5.118  -6.988  0.00  0.00     0.062 H 
ENDBRANCH  21  24
ENDBRANCH  18  21
ENDBRANCH  13  16
ENDBRANCH   8  13
BRANCH   1  39
ATOM     39  C   LIG d   1       8.168  -1.239  -6.744  0.00  0.00    -0.043 C 
ATOM     40  H   LIG d   1       8.833  -0.386  -6.603  0.00  0.00     0.027 H 
ATOM     41  H   LIG d   1       8.118  -1.815  -5.821  0.00  0.00     0.027 H 
ATOM     42  H   LIG d   1       8.552  -1.869  -7.546  0.00  0.00     0.027 H 
ENDBRANCH   1  39
BRANCH   5  43
ATOM     43  C   LIG d   1       2.866   0.712  -7.989  0.00  0.00    -0.043 C 
ATOM     44  H   LIG d   1       2.214   0.778  -7.117  0.00  0.00     0.030 H 
BRANCH  43  45
ATOM     45  C   LIG d   1       2.790   2.017  -8.783  0.00  0.00    -0.062 C 
ATOM     46  H   LIG d   1       3.680   2.615  -8.585  0.00  0.00     0.023 H 
ATOM     47  H   LIG d   1       2.735   1.791  -9.849  0.00  0.00     0.023 H 
ATOM     48  H   LIG d   1       1.903   2.573  -8.484  0.00  0.00     0.023 H 
ENDBRANCH  43  45
BRANCH  43  49
ATOM     49  C   LIG d   1       2.416  -0.452  -8.874  0.00  0.00    -0.062 C 
ATOM     50  H   LIG d   1       3.279  -1.067  -9.131  0.00  0.00     0.023 H 
ATOM     51  H   LIG d   1       1.686  -1.056  -8.336  0.00  0.00     0.023 H 
ATOM     52  H   LIG d   1       1.965  -0.061  -9.786  0.00  0.00     0.023 H 
ENDBRANCH  43  49
ENDBRANCH   5  43
BRANCH   3  53
ATOM     53  C   LIG d   1       3.692  -0.443  -5.294  0.00  0.00    -0.025 C 
ATOM     54  H   LIG d   1       3.500   0.627  -5.228  0.00  0.00     0.082 H 
ATOM     55  H   LIG d   1       2.750  -0.986  -5.225  0.00  0.00     0.082 H 
BRANCH  53  56
ATOM     56  N   LIG d   1       4.574  -0.851  -4.193  0.00  0.00     0.239 N 
ATOM     57  C   LIG d   1       4.886   0.318  -3.348  0.00  0.00     0.003 C 
ATOM     58  C   LIG d   1       4.395  -0.004  -1.922  0.00  0.00    -0.003 C 
ATOM     59  H   LIG d   1       4.369   1.198  -3.729  0.00  0.00     0.087 H 
ATOM     60  C   LIG d   1       4.346  -1.555  -1.910  0.00  0.00    -0.007 C 
ATOM     61  H   LIG d   1       3.402   0.414  -1.752  0.00  0.00     0.032 H 
ATOM     62  H   LIG d   1       5.101   0.364  -1.178  0.00  0.00     0.032 H 
ATOM     63  C   LIG d   1       3.893  -1.864  -3.359  0.00  0.00    -0.031 C 
ATOM     64  H   LIG d   1       3.615  -1.918  -1.187  0.00  0.00     0.032 H 
ATOM     65  H   LIG d   1       5.332  -1.975  -1.712  0.00  0.00     0.032 H 
ATOM     66  H   LIG d   1       2.811  -1.764  -3.447  0.00  0.00     0.081 H 
ATOM     67  H   LIG d   1       4.208  -2.867  -3.649  0.00  0.00     0.081 H 
ATOM     68  H   LIG d   1       5.427  -1.238  -4.565  0.00  0.00     0.204 HD
BRANCH  57  69
ATOM     69  C   LIG d   1       6.396   0.562  -3.335  0.00  0.00     0.087 C 
ATOM     70  H   LIG d   1       6.711   0.840  -2.329  0.00  0.00     0.061 H 
ATOM     71  H   LIG d   1       6.914  -0.349  -3.638  0.00  0.00     0.061 H 
BRANCH  69  72
ATOM     72  O   LIG d   1       6.716   1.617  -4.243  0.00  0.00    -0.390 OA
ATOM     73  H   LIG d   1       6.945   2.452  -3.812  0.00  0.00     0.210 HD
ENDBRANCH  69  72
ENDBRANCH  57  69
ENDBRANCH  53  56
ENDBRANCH   3  53
TORSDOF 12
ENDMDL
MODEL 8
REMARK VINA RESULT:      -6.4      5.248     10.877
REMARK  12 active torsions:
REMARK  status: ('A' for Active; 'I' for Inactive)
REMARK    1  A    between atoms: C_1  and  C_2 
REMARK    2  A    between atoms: C_4  and  C_31 
REMARK    3  A    between atoms: C_6  and  C_28 
REMARK    4  A    between atoms: C_9  and  C_11 
REMARK    5  A    between atoms: C_11  and  C_12 
REMARK    6  A    between atoms: C_15  and  C_17 
REMARK    7  A    between atoms: C_17  and  C_18 
REMARK    8  A    between atoms: C_28  and  C_29 
REMARK    9  A    between atoms: C_28  and  C_30 
REMARK   10  A    between atoms: C_31  and  N_32 
REMARK   11  A    between atoms: C_36  and  C_38 
REMARK   12  A    between atoms: C_38  and  O_39 
ROOT
ATOM      1  C   LIG d   1       3.353  -5.090  -9.635  0.00  0.00    -0.072 C 
ATOM      2  C   LIG d   1       2.252  -4.926 -10.294  0.00  0.00    -0.076 C 
ATOM      3  C   LIG d   1       1.694  -3.587 -10.679  0.00  0.00     0.021 C 
ATOM      4  H   LIG d   1       1.889  -3.406 -11.737  0.00  0.00     0.040 H 
ATOM      5  C   LIG d   1       2.349  -2.483  -9.846  0.00  0.00    -0.027 C 
ATOM      6  H   LIG d   1       2.007  -2.552  -8.814  0.00  0.00     0.031 H 
ATOM      7  C   LIG d   1       3.870  -2.674  -9.899  0.00  0.00    -0.042 C 
ATOM      8  C   LIG d   1       4.219  -3.964  -9.150  0.00  0.00    -0.011 C 
ATOM      9  H   LIG d   1       5.266  -4.211  -9.329  0.00  0.00     0.035 H 
ATOM     10  H   LIG d   1       1.699  -5.807 -10.584  0.00  0.00     0.058 H 
ATOM     11  H   LIG d   1       4.195  -2.749 -10.937  0.00  0.00     0.027 H 
ATOM     12  H   LIG d   1       4.362  -1.828  -9.418  0.00  0.00     0.027 H 
ENDROOT
BRANCH   8  13
ATOM     13  C   LIG d   1       3.997  -3.763  -7.650  0.00  0.00     0.032 C 
ATOM     14  H   LIG d   1       3.425  -2.850  -7.487  0.00  0.00     0.037 H 
ATOM     15  H   LIG d   1       3.447  -4.614  -7.247  0.00  0.00     0.037 H 
BRANCH  13  16
ATOM     16  C   LIG d   1       5.330  -3.652  -6.955  0.00  0.00     0.218 A 
ATOM     17  O   LIG d   1       5.577  -2.995  -5.810  0.00  0.00    -0.424 OA
ATOM     18  C   LIG d   1       6.886  -3.156  -5.556  0.00  0.00     0.222 A 
ATOM     19  N   LIG d   1       7.386  -3.874  -6.521  0.00  0.00    -0.112 NA
ATOM     20  N   LIG d   1       6.455  -4.171  -7.359  0.00  0.00    -0.112 NA
BRANCH  18  21
ATOM     21  C   LIG d   1       7.640  -2.604  -4.374  0.00  0.00     0.053 C 
ATOM     22  H   LIG d   1       7.424  -3.207  -3.492  0.00  0.00     0.041 H 
ATOM     23  H   LIG d   1       8.710  -2.631  -4.579  0.00  0.00     0.041 H 
BRANCH  21  24
ATOM     24  C   LIG d   1       7.212  -1.181  -4.124  0.00  0.00    -0.013 A 
ATOM     25  C   LIG d   1       6.095  -0.741  -3.284  0.00  0.00     0.003 A 
ATOM     26  C   LIG d   1       6.086   0.664  -3.354  0.00  0.00     0.047 A 
ATOM     27  C   LIG d   1       5.145  -1.406  -2.507  0.00  0.00    -0.052 A 
ATOM     28  N   LIG d   1       7.118   1.037  -4.187  0.00  0.00    -0.360 N 
ATOM     29  C   LIG d   1       5.125   1.376  -2.644  0.00  0.00    -0.038 A 
ATOM     30  C   LIG d   1       7.777  -0.075  -4.636  0.00  0.00     0.006 A 
ATOM     31  H   LIG d   1       7.343   1.950  -4.420  0.00  0.00     0.165 HD
ATOM     32  H   LIG d   1       8.626  -0.066  -5.303  0.00  0.00     0.081 H 
ATOM     33  C   LIG d   1       4.190   0.699  -1.890  0.00  0.00    -0.060 A 
ATOM     34  H   LIG d   1       5.103   2.455  -2.693  0.00  0.00     0.064 H 
ATOM     35  C   LIG d   1       4.207  -0.687  -1.820  0.00  0.00    -0.061 A 
ATOM     36  H   LIG d   1       3.442   1.253  -1.343  0.00  0.00     0.062 H 
ATOM     37  H   LIG d   1       3.472  -1.202  -1.220  0.00  0.00     0.062 H 
ATOM     38  H   LIG d   1       5.151  -2.484  -2.448  0.00  0.00     0.062 H 
ENDBRANCH  21  24
ENDBRANCH  18  21
ENDBRANCH  13  16
ENDBRANCH   8  13
BRANCH   1  39
ATOM     39  C   LIG d   1       3.791  -6.500  -9.330  0.00  0.00    -0.043 C 
ATOM     40  H   LIG d   1       3.327  -6.831  -8.401  0.00  0.00     0.027 H 
ATOM     41  H   LIG d   1       3.487  -7.158 -10.143  0.00  0.00     0.027 H 
ATOM     42  H   LIG d   1       4.876  -6.529  -9.224  0.00  0.00     0.027 H 
ENDBRANCH   1  39
BRANCH   5  43
ATOM     43  C   LIG d   1       1.978  -1.115 -10.422  0.00  0.00    -0.043 C 
ATOM     44  H   LIG d   1       0.914  -1.098 -10.660  0.00  0.00     0.030 H 
BRANCH  43  45
ATOM     45  C   LIG d   1       2.287  -0.028  -9.391  0.00  0.00    -0.062 C 
ATOM     46  H   LIG d   1       3.326   0.290  -9.498  0.00  0.00     0.023 H 
ATOM     47  H   LIG d   1       1.629   0.826  -9.554  0.00  0.00     0.023 H 
ATOM     48  H   LIG d   1       2.130  -0.423  -8.388  0.00  0.00     0.023 H 
ENDBRANCH  43  45
BRANCH  43  49
ATOM     49  C   LIG d   1       2.790  -0.859 -11.693  0.00  0.00    -0.062 C 
ATOM     50  H   LIG d   1       3.229   0.139 -11.648  0.00  0.00     0.023 H 
ATOM     51  H   LIG d   1       3.583  -1.602 -11.773  0.00  0.00     0.023 H 
ATOM     52  H   LIG d   1       2.136  -0.929 -12.562  0.00  0.00     0.023 H 
ENDBRANCH  43  49
ENDBRANCH   5  43
BRANCH   3  53
ATOM     53  C   LIG d   1       0.184  -3.576 -10.433  0.00  0.00    -0.025 C 
ATOM     54  H   LIG d   1      -0.009  -3.520  -9.363  0.00  0.00     0.082 H 
ATOM     55  H   LIG d   1      -0.258  -2.712 -10.929  0.00  0.00     0.082 H 
BRANCH  53  56
ATOM     56  N   LIG d   1      -0.409  -4.807 -10.973  0.00  0.00     0.239 N 
ATOM     57  C   LIG d   1      -1.604  -5.168 -10.188  0.00  0.00     0.003 C 
ATOM     58  C   LIG d   1      -2.800  -5.196 -11.162  0.00  0.00    -0.003 C 
ATOM     59  H   LIG d   1      -1.775  -4.424  -9.411  0.00  0.00     0.087 H 
ATOM     60  C   LIG d   1      -2.123  -5.405 -12.542  0.00  0.00    -0.007 C 
ATOM     61  H   LIG d   1      -3.339  -4.249 -11.137  0.00  0.00     0.032 H 
ATOM     62  H   LIG d   1      -3.467  -6.026 -10.930  0.00  0.00     0.032 H 
ATOM     63  C   LIG d   1      -0.818  -4.588 -12.377  0.00  0.00    -0.031 C 
ATOM     64  H   LIG d   1      -2.739  -5.001 -13.345  0.00  0.00     0.032 H 
ATOM     65  H   LIG d   1      -1.904  -6.460 -12.713  0.00  0.00     0.032 H 
ATOM     66  H   LIG d   1      -1.008  -3.530 -12.557  0.00  0.00     0.081 H 
ATOM     67  H   LIG d   1      -0.050  -4.957 -13.057  0.00  0.00     0.081 H 
ATOM     68  H   LIG d   1       0.265  -5.556 -10.931  0.00  0.00     0.204 HD
BRANCH  57  69
ATOM     69  C   LIG d   1      -1.414  -6.549  -9.558  0.00  0.00     0.087 C 
ATOM     70  H   LIG d   1      -2.178  -7.229  -9.936  0.00  0.00     0.061 H 
ATOM     71  H   LIG d   1      -0.427  -6.934  -9.815  0.00  0.00     0.061 H 
BRANCH  69  72
ATOM     72  O   LIG d   1      -1.530  -6.445  -8.138  0.00  0.00    -0.390 OA
ATOM     73  H   LIG d   1      -2.059  -7.146  -7.733  0.00  0.00     0.210 HD
ENDBRANCH  69  72
ENDBRANCH  57  69
ENDBRANCH  53  56
ENDBRANCH   3  53
TORSDOF 12
ENDMDL
MODEL 9
REMARK VINA RESULT:      -6.3      2.840      3.949
REMARK  12 active torsions:
REMARK  status: ('A' for Active; 'I' for Inactive)
REMARK    1  A    between atoms: C_1  and  C_2 
REMARK    2  A    between atoms: C_4  and  C_31 
REMARK    3  A    between atoms: C_6  and  C_28 
REMARK    4  A    between atoms: C_9  and  C_11 
REMARK    5  A    between atoms: C_11  and  C_12 
REMARK    6  A    between atoms: C_15  and  C_17 
REMARK    7  A    between atoms: C_17  and  C_18 
REMARK    8  A    between atoms: C_28  and  C_29 
REMARK    9  A    between atoms: C_28  and  C_30 
REMARK   10  A    between atoms: C_31  and  N_32 
REMARK   11  A    between atoms: C_36  and  C_38 
REMARK   12  A    between atoms: C_38  and  O_39 
ROOT
ATOM      1  C   LIG d   1      10.594   4.412  -6.107  0.00  0.00    -0.072 C 
ATOM      2  C   LIG d   1      10.988   5.642  -6.022  0.00  0.00    -0.076 C 
ATOM      3  C   LIG d   1      11.199   6.369  -4.726  0.00  0.00     0.021 C 
ATOM      4  H   LIG d   1      12.267   6.428  -4.514  0.00  0.00     0.040 H 
ATOM      5  C   LIG d   1      10.496   5.630  -3.585  0.00  0.00    -0.027 C 
ATOM      6  H   LIG d   1       9.416   5.728  -3.696  0.00  0.00     0.031 H 
ATOM      7  C   LIG d   1      10.888   4.149  -3.653  0.00  0.00    -0.042 C 
ATOM      8  C   LIG d   1      10.276   3.547  -4.922  0.00  0.00    -0.011 C 
ATOM      9  H   LIG d   1      10.688   2.550  -5.082  0.00  0.00     0.035 H 
ATOM     10  H   LIG d   1      11.178   6.177  -6.940  0.00  0.00     0.058 H 
ATOM     11  H   LIG d   1      11.973   4.058  -3.687  0.00  0.00     0.027 H 
ATOM     12  H   LIG d   1      10.500   3.627  -2.778  0.00  0.00     0.027 H 
ENDROOT
BRANCH   8  13
ATOM     13  C   LIG d   1       8.758   3.445  -4.761  0.00  0.00     0.032 C 
ATOM     14  H   LIG d   1       8.484   3.691  -3.735  0.00  0.00     0.037 H 
ATOM     15  H   LIG d   1       8.273   4.143  -5.444  0.00  0.00     0.037 H 
BRANCH  13  16
ATOM     16  C   LIG d   1       8.312   2.040  -5.077  0.00  0.00     0.218 A 
ATOM     17  O   LIG d   1       8.350   0.988  -4.243  0.00  0.00    -0.424 OA
ATOM     18  C   LIG d   1       7.860  -0.057  -4.930  0.00  0.00     0.222 A 
ATOM     19  N   LIG d   1       7.554   0.369  -6.123  0.00  0.00    -0.112 NA
ATOM     20  N   LIG d   1       7.824   1.623  -6.211  0.00  0.00    -0.112 NA
BRANCH  18  21
ATOM     21  C   LIG d   1       7.697  -1.465  -4.417  0.00  0.00     0.053 C 
ATOM     22  H   LIG d   1       8.130  -2.164  -5.133  0.00  0.00     0.041 H 
ATOM     23  H   LIG d   1       8.205  -1.564  -3.459  0.00  0.00     0.041 H 
BRANCH  21  24
ATOM     24  C   LIG d   1       6.231  -1.769  -4.243  0.00  0.00    -0.013 A 
ATOM     25  C   LIG d   1       5.250  -0.949  -3.529  0.00  0.00     0.003 A 
ATOM     26  C   LIG d   1       4.023  -1.630  -3.636  0.00  0.00     0.047 A 
ATOM     27  C   LIG d   1       5.315   0.264  -2.840  0.00  0.00    -0.052 A 
ATOM     28  N   LIG d   1       4.258  -2.782  -4.353  0.00  0.00    -0.360 N 
ATOM     29  C   LIG d   1       2.886  -1.083  -3.050  0.00  0.00    -0.038 A 
ATOM     30  C   LIG d   1       5.579  -2.848  -4.706  0.00  0.00     0.006 A 
ATOM     31  H   LIG d   1       3.588  -3.446  -4.575  0.00  0.00     0.165 HD
ATOM     32  H   LIG d   1       6.030  -3.648  -5.273  0.00  0.00     0.081 H 
ATOM     33  C   LIG d   1       2.976   0.111  -2.366  0.00  0.00    -0.060 A 
ATOM     34  H   LIG d   1       1.939  -1.597  -3.120  0.00  0.00     0.064 H 
ATOM     35  C   LIG d   1       4.187   0.782  -2.268  0.00  0.00    -0.061 A 
ATOM     36  H   LIG d   1       2.094   0.532  -1.908  0.00  0.00     0.062 H 
ATOM     37  H   LIG d   1       4.239   1.719  -1.735  0.00  0.00     0.062 H 
ATOM     38  H   LIG d   1       6.255   0.791  -2.759  0.00  0.00     0.062 H 
ENDBRANCH  21  24
ENDBRANCH  18  21
ENDBRANCH  13  16
ENDBRANCH   8  13
BRANCH   1  39
ATOM     39  C   LIG d   1      10.438   3.814  -7.481  0.00  0.00    -0.043 C 
ATOM     40  H   LIG d   1      10.688   2.753  -7.446  0.00  0.00     0.027 H 
ATOM     41  H   LIG d   1       9.408   3.933  -7.814  0.00  0.00     0.027 H 
ATOM     42  H   LIG d   1      11.106   4.321  -8.177  0.00  0.00     0.027 H 
ENDBRANCH   1  39
BRANCH   5  43
ATOM     43  C   LIG d   1      10.931   6.221  -2.243  0.00  0.00    -0.043 C 
ATOM     44  H   LIG d   1      11.657   7.017  -2.415  0.00  0.00     0.030 H 
BRANCH  43  45
ATOM     45  C   LIG d   1       9.711   6.790  -1.517  0.00  0.00    -0.062 C 
ATOM     46  H   LIG d   1       9.869   6.728  -0.439  0.00  0.00     0.023 H 
ATOM     47  H   LIG d   1       9.571   7.832  -1.803  0.00  0.00     0.023 H 
ATOM     48  H   LIG d   1       8.826   6.215  -1.788  0.00  0.00     0.023 H 
ENDBRANCH  43  45
BRANCH  43  49
ATOM     49  C   LIG d   1      11.570   5.126  -1.386  0.00  0.00    -0.062 C 
ATOM     50  H   LIG d   1      11.445   5.371  -0.331  0.00  0.00     0.023 H 
ATOM     51  H   LIG d   1      11.088   4.172  -1.598  0.00  0.00     0.023 H 
ATOM     52  H   LIG d   1      12.633   5.057  -1.619  0.00  0.00     0.023 H 
ENDBRANCH  43  49
ENDBRANCH   5  43
BRANCH   3  53
ATOM     53  C   LIG d   1      10.626   7.783  -4.839  0.00  0.00    -0.025 C 
ATOM     54  H   LIG d   1       9.562   7.764  -4.608  0.00  0.00     0.082 H 
ATOM     55  H   LIG d   1      11.140   8.440  -4.137  0.00  0.00     0.082 H 
BRANCH  53  56
ATOM     56  N   LIG d   1      10.821   8.282  -6.207  0.00  0.00     0.239 N 
ATOM     57  C   LIG d   1       9.598   8.969  -6.664  0.00  0.00     0.003 C 
ATOM     58  C   LIG d   1       9.990  10.421  -7.007  0.00  0.00    -0.003 C 
ATOM     59  H   LIG d   1       8.852   8.963  -5.869  0.00  0.00     0.087 H 
ATOM     60  C   LIG d   1      11.516  10.319  -7.267  0.00  0.00    -0.007 C 
ATOM     61  H   LIG d   1       9.785  11.084  -6.166  0.00  0.00     0.032 H 
ATOM     62  H   LIG d   1       9.468  10.760  -7.901  0.00  0.00     0.032 H 
ATOM     63  C   LIG d   1      11.939   9.249  -6.230  0.00  0.00    -0.031 C 
ATOM     64  H   LIG d   1      12.010  11.271  -7.070  0.00  0.00     0.032 H 
ATOM     65  H   LIG d   1      11.716   9.980  -8.283  0.00  0.00     0.032 H 
ATOM     66  H   LIG d   1      12.069   9.703  -5.248  0.00  0.00     0.081 H 
ATOM     67  H   LIG d   1      12.859   8.757  -6.547  0.00  0.00     0.081 H 
ATOM     68  H   LIG d   1      11.028   7.512  -6.824  0.00  0.00     0.204 HD
BRANCH  57  69
ATOM     69  C   LIG d   1       9.044   8.272  -7.907  0.00  0.00     0.087 C 
ATOM     70  H   LIG d   1       9.869   7.874  -8.500  0.00  0.00     0.061 H 
ATOM     71  H   LIG d   1       8.388   7.455  -7.605  0.00  0.00     0.061 H 
BRANCH  69  72
ATOM     72  O   LIG d   1       8.305   9.211  -8.691  0.00  0.00    -0.390 OA
ATOM     73  H   LIG d   1       8.254   8.987  -9.631  0.00  0.00     0.210 HD
ENDBRANCH  69  72
ENDBRANCH  57  69
ENDBRANCH  53  56
ENDBRANCH   3  53
TORSDOF 12
ENDMDL
MODEL 10
REMARK VINA RESULT:      -6.3      7.262     11.269
REMARK  12 active torsions:
REMARK  status: ('A' for Active; 'I' for Inactive)
REMARK    1  A    between atoms: C_1  and  C_2 
REMARK    2  A    between atoms: C_4  and  C_31 
REMARK    3  A    between atoms: C_6  and  C_28 
REMARK    4  A    between atoms: C_9  and  C_11 
REMARK    5  A    between atoms: C_11  and  C_12 
REMARK    6  A    between atoms: C_15  and  C_17 
REMARK    7  A    between atoms: C_17  and  C_18 
REMARK    8  A    between atoms: C_28  and  C_29 
REMARK    9  A    between atoms: C_28  and  C_30 
REMARK   10  A    between atoms: C_31  and  N_32 
REMARK   11  A    between atoms: C_36  and  C_38 
REMARK   12  A    between atoms: C_38  and  O_39 
ROOT
ATOM      1  C   LIG d   1       6.888  -7.500  -5.365  0.00  0.00    -0.072 C 
ATOM      2  C   LIG d   1       7.358  -8.383  -4.543  0.00  0.00    -0.076 C 
ATOM      3  C   LIG d   1       6.604  -9.603  -4.100  0.00  0.00     0.021 C 
ATOM      4  H   LIG d   1       6.984 -10.476  -4.632  0.00  0.00     0.040 H 
ATOM      5  C   LIG d   1       5.112  -9.438  -4.395  0.00  0.00    -0.027 C 
ATOM      6  H   LIG d   1       4.687  -8.687  -3.729  0.00  0.00     0.031 H 
ATOM      7  C   LIG d   1       4.954  -8.983  -5.852  0.00  0.00    -0.042 C 
ATOM      8  C   LIG d   1       5.519  -7.564  -5.976  0.00  0.00    -0.011 C 
ATOM      9  H   LIG d   1       5.581  -7.293  -7.030  0.00  0.00     0.035 H 
ATOM     10  H   LIG d   1       8.353  -8.233  -4.153  0.00  0.00     0.058 H 
ATOM     11  H   LIG d   1       5.502  -9.658  -6.508  0.00  0.00     0.027 H 
ATOM     12  H   LIG d   1       3.898  -8.980  -6.122  0.00  0.00     0.027 H 
ENDROOT
BRANCH   8  13
ATOM     13  C   LIG d   1       4.596  -6.579  -5.255  0.00  0.00     0.032 C 
ATOM     14  H   LIG d   1       3.619  -7.040  -5.105  0.00  0.00     0.037 H 
ATOM     15  H   LIG d   1       5.027  -6.318  -4.288  0.00  0.00     0.037 H 
BRANCH  13  16
ATOM     16  C   LIG d   1       4.440  -5.334  -6.089  0.00  0.00     0.218 A 
ATOM     17  O   LIG d   1       5.091  -4.172  -5.912  0.00  0.00    -0.424 OA
ATOM     18  C   LIG d   1       4.652  -3.342  -6.873  0.00  0.00     0.222 A 
ATOM     19  N   LIG d   1       3.772  -3.994  -7.580  0.00  0.00    -0.112 NA
ATOM     20  N   LIG d   1       3.645  -5.185  -7.111  0.00  0.00    -0.112 NA
BRANCH  18  21
ATOM     21  C   LIG d   1       5.092  -1.918  -7.091  0.00  0.00     0.053 C 
ATOM     22  H   LIG d   1       6.152  -1.825  -6.853  0.00  0.00     0.041 H 
ATOM     23  H   LIG d   1       4.929  -1.642  -8.132  0.00  0.00     0.041 H 
BRANCH  21  24
ATOM     24  C   LIG d   1       4.295  -1.003  -6.197  0.00  0.00    -0.013 A 
ATOM     25  C   LIG d   1       4.367  -0.932  -4.736  0.00  0.00     0.003 A 
ATOM     26  C   LIG d   1       3.450   0.062  -4.349  0.00  0.00     0.047 A 
ATOM     27  C   LIG d   1       5.113  -1.606  -3.767  0.00  0.00    -0.052 A 
ATOM     28  N   LIG d   1       2.863   0.544  -5.499  0.00  0.00    -0.360 N 
ATOM     29  C   LIG d   1       3.298   0.362  -3.000  0.00  0.00    -0.038 A 
ATOM     30  C   LIG d   1       3.379  -0.103  -6.589  0.00  0.00     0.006 A 
ATOM     31  H   LIG d   1       2.186   1.236  -5.530  0.00  0.00     0.165 HD
ATOM     32  H   LIG d   1       3.092   0.084  -7.613  0.00  0.00     0.081 H 
ATOM     33  C   LIG d   1       4.037  -0.322  -2.059  0.00  0.00    -0.060 A 
ATOM     34  H   LIG d   1       2.594   1.119  -2.688  0.00  0.00     0.064 H 
ATOM     35  C   LIG d   1       4.945  -1.300  -2.446  0.00  0.00    -0.061 A 
ATOM     36  H   LIG d   1       3.915  -0.092  -1.012  0.00  0.00     0.062 H 
ATOM     37  H   LIG d   1       5.521  -1.821  -1.697  0.00  0.00     0.062 H 
ATOM     38  H   LIG d   1       5.820  -2.368  -4.061  0.00  0.00     0.062 H 
ENDBRANCH  21  24
ENDBRANCH  18  21
ENDBRANCH  13  16
ENDBRANCH   8  13
BRANCH   1  39
ATOM     39  C   LIG d   1       7.769  -6.332  -5.726  0.00  0.00    -0.043 C 
ATOM     40  H   LIG d   1       8.222  -5.925  -4.821  0.00  0.00     0.027 H 
ATOM     41  H   LIG d   1       8.553  -6.665  -6.405  0.00  0.00     0.027 H 
ATOM     42  H   LIG d   1       7.171  -5.561  -6.210  0.00  0.00     0.027 H 
ENDBRANCH   1  39
BRANCH   5  43
ATOM     43  C   LIG d   1       4.396 -10.774  -4.190  0.00  0.00    -0.043 C 
ATOM     44  H   LIG d   1       5.063 -11.468  -3.677  0.00  0.00     0.030 H 
BRANCH  43  45
ATOM     45  C   LIG d   1       3.140 -10.554  -3.344  0.00  0.00    -0.062 C 
ATOM     46  H   LIG d   1       3.423 -10.149  -2.372  0.00  0.00     0.023 H 
ATOM     47  H   LIG d   1       2.479  -9.851  -3.851  0.00  0.00     0.023 H 
ATOM     48  H   LIG d   1       2.624 -11.504  -3.206  0.00  0.00     0.023 H 
ENDBRANCH  43  45
BRANCH  43  49
ATOM     49  C   LIG d   1       4.000 -11.356  -5.548  0.00  0.00    -0.062 C 
ATOM     50  H   LIG d   1       4.280 -12.409  -5.587  0.00  0.00     0.023 H 
ATOM     51  H   LIG d   1       2.923 -11.261  -5.684  0.00  0.00     0.023 H 
ATOM     52  H   LIG d   1       4.517 -10.813  -6.340  0.00  0.00     0.023 H 
ENDBRANCH  43  49
ENDBRANCH   5  43
BRANCH   3  53
ATOM     53  C   LIG d   1       6.801  -9.801  -2.595  0.00  0.00    -0.025 C 
ATOM     54  H   LIG d   1       6.927  -8.832  -2.114  0.00  0.00     0.082 H 
ATOM     55  H   LIG d   1       5.929 -10.304  -2.178  0.00  0.00     0.082 H 
BRANCH  53  56
ATOM     56  N   LIG d   1       7.997 -10.622  -2.362  0.00  0.00     0.239 N 
ATOM     57  C   LIG d   1       8.492 -10.400  -0.991  0.00  0.00     0.003 C 
ATOM     58  C   LIG d   1       8.477 -11.765  -0.272  0.00  0.00    -0.003 C 
ATOM     59  H   LIG d   1       7.839  -9.699  -0.471  0.00  0.00     0.087 H 
ATOM     60  C   LIG d   1       8.513 -12.778  -1.446  0.00  0.00    -0.007 C 
ATOM     61  H   LIG d   1       7.564 -11.884   0.311  0.00  0.00     0.032 H 
ATOM     62  H   LIG d   1       9.357 -11.877   0.361  0.00  0.00     0.032 H 
ATOM     63  C   LIG d   1       7.656 -12.053  -2.513  0.00  0.00    -0.031 C 
ATOM     64  H   LIG d   1       8.058 -13.727  -1.158  0.00  0.00     0.032 H 
ATOM     65  H   LIG d   1       9.533 -12.928  -1.801  0.00  0.00     0.032 H 
ATOM     66  H   LIG d   1       6.595 -12.213  -2.320  0.00  0.00     0.081 H 
ATOM     67  H   LIG d   1       7.918 -12.402  -3.512  0.00  0.00     0.081 H 
ATOM     68  H   LIG d   1       8.714 -10.374  -3.027  0.00  0.00     0.204 HD
BRANCH  57  69
ATOM     69  C   LIG d   1       9.919  -9.851  -1.036  0.00  0.00     0.087 C 
ATOM     70  H   LIG d   1      10.624 -10.650  -0.800  0.00  0.00     0.061 H 
ATOM     71  H   LIG d   1      10.130  -9.466  -2.034  0.00  0.00     0.061 H 
BRANCH  69  72
ATOM     72  O   LIG d   1      10.056  -8.799  -0.079  0.00  0.00    -0.390 OA
ATOM     73  H   LIG d   1       9.347  -8.770   0.579  0.00  0.00     0.210 HD
ENDBRANCH  69  72
ENDBRANCH  57  69
ENDBRANCH  53  56
ENDBRANCH   3  53
TORSDOF 12
ENDMDL
