MODEL 1
REMARK VINA RESULT:      -7.1      0.000      0.000
REMARK  4 active torsions:
REMARK  status: ('A' for Active; 'I' for Inactive)
REMARK    1  A    between atoms: C_4  and  C_7 
REMARK       I    between atoms: C_7  and  N_9 
REMARK       I    between atoms: N_9  and  CA_10 
REMARK    2  A    between atoms: CA_10  and  CB_12 
REMARK       I    between atoms: CA_10  and  C_20 
REMARK    3  A    between atoms: CB_12  and  CG_13 
REMARK    4  A    between atoms: CZ_16  and  OH_19 
ROOT
ATOM      1  C   UNK d   0       5.050  -2.698  -5.373  0.00  0.00     0.245 C 
ATOM      2  O   UNK d   0       6.060  -3.358  -5.515  0.00  0.00    -0.270 OA
ATOM      3  N   TYR d   1       4.091  -2.719  -6.319  0.00  0.00    -0.303 N 
ATOM      4  CA  TYR d   1       4.266  -3.538  -7.521  0.00  0.00     0.067 C 
ATOM      5  HA  TYR d   1       5.318  -3.543  -7.807  0.00  0.00     0.056 H 
ATOM      6  C   TYR d   1       3.816  -4.948  -7.238  0.00  0.00     0.062 C 
ATOM      7  O   TYR d   1       3.392  -5.239  -6.144  0.00  0.00    -0.548 OA
ATOM      8  H   TYR d   1       3.284  -2.192  -6.204  0.00  0.00     0.150 HD
ATOM      9  OXT TYR d   1       3.886  -5.881  -8.201  0.00  0.00    -0.548 OA
ENDROOT
BRANCH   4  10
ATOM     10  CB  TYR d   1       3.430  -2.955  -8.662  0.00  0.00    -0.004 C 
ATOM     11  HB1 TYR d   1       3.749  -3.393  -9.607  0.00  0.00     0.034 H 
ATOM     12  HB2 TYR d   1       2.377  -3.180  -8.492  0.00  0.00     0.034 H 
BRANCH  10  13
ATOM     13  CG  TYR d   1       3.621  -1.461  -8.712  0.00  0.00    -0.045 A 
ATOM     14  CD1 TYR d   1       4.883  -0.933  -8.918  0.00  0.00    -0.055 A 
ATOM     15  CE1 TYR d   1       5.061   0.436  -8.965  0.00  0.00    -0.020 A 
ATOM     16  HD1 TYR d   1       5.729  -1.592  -9.043  0.00  0.00     0.062 H 
ATOM     17  CZ  TYR d   1       3.974   1.282  -8.804  0.00  0.00     0.117 A 
ATOM     18  HE1 TYR d   1       6.047   0.848  -9.126  0.00  0.00     0.065 H 
ATOM     19  CE2 TYR d   1       2.709   0.750  -8.596  0.00  0.00    -0.020 A 
ATOM     20  CD2 TYR d   1       2.536  -0.620  -8.557  0.00  0.00    -0.055 A 
ATOM     21  HE2 TYR d   1       1.861   1.407  -8.471  0.00  0.00     0.065 H 
ATOM     22  HD2 TYR d   1       1.550  -1.034  -8.399  0.00  0.00     0.062 H 
BRANCH  17  23
ATOM     23  OH  TYR d   1       4.147   2.629  -8.849  0.00  0.00    -0.507 OA
ATOM     24  HH  TYR d   1       5.067   2.905  -8.955  0.00  0.00     0.292 HD
ENDBRANCH  17  23
ENDBRANCH  10  13
ENDBRANCH   4  10
BRANCH   1  25
ATOM     25  C   UNK d   0       4.873  -1.871  -4.158  0.00  0.00     0.037 A 
ATOM     26  C   UNK d   0       5.364  -0.566  -4.122  0.00  0.00    -0.050 A 
ATOM     27  C   UNK d   0       5.196   0.201  -2.987  0.00  0.00    -0.061 A 
ATOM     28  H   UNK d   0       5.875  -0.155  -4.981  0.00  0.00     0.062 H 
ATOM     29  C   UNK d   0       4.542  -0.325  -1.886  0.00  0.00    -0.062 A 
ATOM     30  H   UNK d   0       5.575   1.211  -2.958  0.00  0.00     0.062 H 
ATOM     31  C   UNK d   0       4.053  -1.618  -1.916  0.00  0.00    -0.061 A 
ATOM     32  H   UNK d   0       4.408   0.281  -1.001  0.00  0.00     0.062 H 
ATOM     33  C   UNK d   0       4.213  -2.394  -3.045  0.00  0.00    -0.050 A 
ATOM     34  H   UNK d   0       3.543  -2.022  -1.054  0.00  0.00     0.062 H 
ATOM     35  H   UNK d   0       3.832  -3.403  -3.067  0.00  0.00     0.062 H 
ENDBRANCH   1  25
TORSDOF 6
ENDMDL
MODEL 2
REMARK VINA RESULT:      -7.0      3.705      6.352
REMARK  4 active torsions:
REMARK  status: ('A' for Active; 'I' for Inactive)
REMARK    1  A    between atoms: C_4  and  C_7 
REMARK       I    between atoms: C_7  and  N_9 
REMARK       I    between atoms: N_9  and  CA_10 
REMARK    2  A    between atoms: CA_10  and  CB_12 
REMARK       I    between atoms: CA_10  and  C_20 
REMARK    3  A    between atoms: CB_12  and  CG_13 
REMARK    4  A    between atoms: CZ_16  and  OH_19 
ROOT
ATOM      1  C   UNK d   0       4.882  -2.453  -3.923  0.00  0.00     0.245 C 
ATOM      2  O   UNK d   0       4.205  -3.441  -3.721  0.00  0.00    -0.270 OA
ATOM      3  N   TYR d   1       6.033  -2.553  -4.617  0.00  0.00    -0.303 N 
ATOM      4  CA  TYR d   1       6.468  -3.854  -5.128  0.00  0.00     0.067 C 
ATOM      5  HA  TYR d   1       6.184  -4.635  -4.423  0.00  0.00     0.056 H 
ATOM      6  C   TYR d   1       5.812  -4.117  -6.459  0.00  0.00     0.062 C 
ATOM      7  O   TYR d   1       5.058  -3.299  -6.932  0.00  0.00    -0.548 OA
ATOM      8  H   TYR d   1       6.572  -1.763  -4.777  0.00  0.00     0.150 HD
ATOM      9  OXT TYR d   1       6.066  -5.257  -7.119  0.00  0.00    -0.548 OA
ENDROOT
BRANCH   4  10
ATOM     10  CB  TYR d   1       7.989  -3.851  -5.300  0.00  0.00    -0.004 C 
ATOM     11  HB1 TYR d   1       8.249  -4.357  -6.230  0.00  0.00     0.034 H 
ATOM     12  HB2 TYR d   1       8.349  -2.823  -5.331  0.00  0.00     0.034 H 
BRANCH  10  13
ATOM     13  CG  TYR d   1       8.628  -4.572  -4.142  0.00  0.00    -0.045 A 
ATOM     14  CD1 TYR d   1       9.090  -3.857  -3.053  0.00  0.00    -0.055 A 
ATOM     15  CE1 TYR d   1       9.676  -4.515  -1.990  0.00  0.00    -0.020 A 
ATOM     16  HD1 TYR d   1       8.993  -2.781  -3.034  0.00  0.00     0.062 H 
ATOM     17  CZ  TYR d   1       9.801  -5.896  -2.015  0.00  0.00     0.117 A 
ATOM     18  HE1 TYR d   1      10.037  -3.955  -1.139  0.00  0.00     0.065 H 
ATOM     19  CE2 TYR d   1       9.337  -6.613  -3.109  0.00  0.00    -0.020 A 
ATOM     20  CD2 TYR d   1       8.747  -5.949  -4.166  0.00  0.00    -0.055 A 
ATOM     21  HE2 TYR d   1       9.433  -7.688  -3.130  0.00  0.00     0.065 H 
ATOM     22  HD2 TYR d   1       8.381  -6.507  -5.017  0.00  0.00     0.062 H 
BRANCH  17  23
ATOM     23  OH  TYR d   1      10.378  -6.547  -0.970  0.00  0.00    -0.507 OA
ATOM     24  HH  TYR d   1       9.895  -7.333  -0.681  0.00  0.00     0.292 HD
ENDBRANCH  17  23
ENDBRANCH  10  13
ENDBRANCH   4  10
BRANCH   1  25
ATOM     25  C   UNK d   0       4.441  -1.138  -3.406  0.00  0.00     0.037 A 
ATOM     26  C   UNK d   0       4.894  -0.684  -2.167  0.00  0.00    -0.050 A 
ATOM     27  C   UNK d   0       4.480   0.543  -1.691  0.00  0.00    -0.061 A 
ATOM     28  H   UNK d   0       5.569  -1.292  -1.581  0.00  0.00     0.062 H 
ATOM     29  C   UNK d   0       3.616   1.323  -2.441  0.00  0.00    -0.062 A 
ATOM     30  H   UNK d   0       4.830   0.895  -0.733  0.00  0.00     0.062 H 
ATOM     31  C   UNK d   0       3.164   0.878  -3.670  0.00  0.00    -0.061 A 
ATOM     32  H   UNK d   0       3.298   2.284  -2.066  0.00  0.00     0.062 H 
ATOM     33  C   UNK d   0       3.571  -0.346  -4.158  0.00  0.00    -0.050 A 
ATOM     34  H   UNK d   0       2.490   1.491  -4.250  0.00  0.00     0.062 H 
ATOM     35  H   UNK d   0       3.217  -0.692  -5.117  0.00  0.00     0.062 H 
ENDBRANCH   1  25
TORSDOF 6
ENDMDL
MODEL 3
REMARK VINA RESULT:      -6.9      4.728      6.895
REMARK  4 active torsions:
REMARK  status: ('A' for Active; 'I' for Inactive)
REMARK    1  A    between atoms: C_4  and  C_7 
REMARK       I    between atoms: C_7  and  N_9 
REMARK       I    between atoms: N_9  and  CA_10 
REMARK    2  A    between atoms: CA_10  and  CB_12 
REMARK       I    between atoms: CA_10  and  C_20 
REMARK    3  A    between atoms: CB_12  and  CG_13 
REMARK    4  A    between atoms: CZ_16  and  OH_19 
ROOT
ATOM      1  C   UNK d   0       7.180   0.236  -4.697  0.00  0.00     0.245 C 
ATOM      2  O   UNK d   0       7.791  -0.719  -5.134  0.00  0.00    -0.270 OA
ATOM      3  N   TYR d   1       7.416   1.470  -5.184  0.00  0.00    -0.303 N 
ATOM      4  CA  TYR d   1       8.412   1.660  -6.242  0.00  0.00     0.067 C 
ATOM      5  HA  TYR d   1       9.235   0.962  -6.095  0.00  0.00     0.056 H 
ATOM      6  C   TYR d   1       7.774   1.410  -7.584  0.00  0.00     0.062 C 
ATOM      7  O   TYR d   1       6.607   1.104  -7.650  0.00  0.00    -0.548 OA
ATOM      8  H   TYR d   1       6.927   2.231  -4.835  0.00  0.00     0.150 HD
ATOM      9  OXT TYR d   1       8.502   1.528  -8.706  0.00  0.00    -0.548 OA
ENDROOT
BRANCH   4  10
ATOM     10  CB  TYR d   1       8.944   3.094  -6.189  0.00  0.00    -0.004 C 
ATOM     11  HB1 TYR d   1       9.693   3.232  -6.968  0.00  0.00     0.034 H 
ATOM     12  HB2 TYR d   1       8.122   3.792  -6.346  0.00  0.00     0.034 H 
BRANCH  10  13
ATOM     13  CG  TYR d   1       9.568   3.350  -4.842  0.00  0.00    -0.045 A 
ATOM     14  CD1 TYR d   1      10.356   2.379  -4.250  0.00  0.00    -0.055 A 
ATOM     15  CE1 TYR d   1      10.930   2.610  -3.016  0.00  0.00    -0.020 A 
ATOM     16  HD1 TYR d   1      10.523   1.439  -4.756  0.00  0.00     0.062 H 
ATOM     17  CZ  TYR d   1      10.714   3.817  -2.367  0.00  0.00     0.117 A 
ATOM     18  HE1 TYR d   1      11.545   1.852  -2.554  0.00  0.00     0.065 H 
ATOM     19  CE2 TYR d   1       9.922   4.790  -2.962  0.00  0.00    -0.020 A 
ATOM     20  CD2 TYR d   1       9.356   4.555  -4.200  0.00  0.00    -0.055 A 
ATOM     21  HE2 TYR d   1       9.753   5.730  -2.459  0.00  0.00     0.065 H 
ATOM     22  HD2 TYR d   1       8.743   5.314  -4.665  0.00  0.00     0.062 H 
BRANCH  17  23
ATOM     23  OH  TYR d   1      11.276   4.048  -1.152  0.00  0.00    -0.507 OA
ATOM     24  HH  TYR d   1      10.769   4.650  -0.591  0.00  0.00     0.292 HD
ENDBRANCH  17  23
ENDBRANCH  10  13
ENDBRANCH   4  10
BRANCH   1  25
ATOM     25  C   UNK d   0       6.174   0.043  -3.629  0.00  0.00     0.037 A 
ATOM     26  C   UNK d   0       5.716  -1.238  -3.320  0.00  0.00    -0.050 A 
ATOM     27  C   UNK d   0       4.778  -1.412  -2.324  0.00  0.00    -0.061 A 
ATOM     28  H   UNK d   0       6.096  -2.094  -3.861  0.00  0.00     0.062 H 
ATOM     29  C   UNK d   0       4.291  -0.317  -1.631  0.00  0.00    -0.062 A 
ATOM     30  H   UNK d   0       4.423  -2.402  -2.084  0.00  0.00     0.062 H 
ATOM     31  C   UNK d   0       4.740   0.956  -1.932  0.00  0.00    -0.061 A 
ATOM     32  H   UNK d   0       3.560  -0.458  -0.849  0.00  0.00     0.062 H 
ATOM     33  C   UNK d   0       5.679   1.143  -2.926  0.00  0.00    -0.050 A 
ATOM     34  H   UNK d   0       4.357   1.806  -1.388  0.00  0.00     0.062 H 
ATOM     35  H   UNK d   0       6.029   2.136  -3.160  0.00  0.00     0.062 H 
ENDBRANCH   1  25
TORSDOF 6
ENDMDL
MODEL 4
REMARK VINA RESULT:      -6.8      2.794      4.352
REMARK  4 active torsions:
REMARK  status: ('A' for Active; 'I' for Inactive)
REMARK    1  A    between atoms: C_4  and  C_7 
REMARK       I    between atoms: C_7  and  N_9 
REMARK       I    between atoms: N_9  and  CA_10 
REMARK    2  A    between atoms: CA_10  and  CB_12 
REMARK       I    between atoms: CA_10  and  C_20 
REMARK    3  A    between atoms: CB_12  and  CG_13 
REMARK    4  A    between atoms: CZ_16  and  OH_19 
ROOT
ATOM      1  C   UNK d   0       3.658  -0.122  -6.262  0.00  0.00     0.245 C 
ATOM      2  O   UNK d   0       3.009   0.894  -6.415  0.00  0.00    -0.270 OA
ATOM      3  N   TYR d   1       4.339  -0.650  -7.297  0.00  0.00    -0.303 N 
ATOM      4  CA  TYR d   1       4.297   0.000  -8.609  0.00  0.00     0.067 C 
ATOM      5  HA  TYR d   1       3.311   0.435  -8.767  0.00  0.00     0.056 H 
ATOM      6  C   TYR d   1       5.340   1.087  -8.665  0.00  0.00     0.062 C 
ATOM      7  O   TYR d   1       6.046   1.296  -7.707  0.00  0.00    -0.548 OA
ATOM      8  H   TYR d   1       4.857  -1.461  -7.174  0.00  0.00     0.150 HD
ATOM      9  OXT TYR d   1       5.485   1.821  -9.779  0.00  0.00    -0.548 OA
ENDROOT
BRANCH   4  10
ATOM     10  CB  TYR d   1       4.579  -1.035  -9.701  0.00  0.00    -0.004 C 
ATOM     11  HB1 TYR d   1       5.183  -0.579 -10.485  0.00  0.00     0.034 H 
ATOM     12  HB2 TYR d   1       5.118  -1.879  -9.270  0.00  0.00     0.034 H 
BRANCH  10  13
ATOM     13  CG  TYR d   1       3.277  -1.516 -10.286  0.00  0.00    -0.045 A 
ATOM     14  CD1 TYR d   1       2.592  -0.726 -11.190  0.00  0.00    -0.055 A 
ATOM     15  CE1 TYR d   1       1.398  -1.165 -11.728  0.00  0.00    -0.020 A 
ATOM     16  HD1 TYR d   1       2.992   0.236 -11.477  0.00  0.00     0.062 H 
ATOM     17  CZ  TYR d   1       0.885  -2.399 -11.359  0.00  0.00     0.117 A 
ATOM     18  HE1 TYR d   1       0.863  -0.547 -12.435  0.00  0.00     0.065 H 
ATOM     19  CE2 TYR d   1       1.573  -3.191 -10.450  0.00  0.00    -0.020 A 
ATOM     20  CD2 TYR d   1       2.770  -2.749  -9.921  0.00  0.00    -0.055 A 
ATOM     21  HE2 TYR d   1       1.176  -4.152 -10.162  0.00  0.00     0.065 H 
ATOM     22  HD2 TYR d   1       3.309  -3.367  -9.216  0.00  0.00     0.062 H 
BRANCH  17  23
ATOM     23  OH  TYR d   1      -0.290  -2.833 -11.886  0.00  0.00    -0.507 OA
ATOM     24  HH  TYR d   1      -1.041  -2.770 -11.280  0.00  0.00     0.292 HD
ENDBRANCH  17  23
ENDBRANCH  10  13
ENDBRANCH   4  10
BRANCH   1  25
ATOM     25  C   UNK d   0       3.700  -0.778  -4.936  0.00  0.00     0.037 A 
ATOM     26  C   UNK d   0       2.919  -0.292  -3.888  0.00  0.00    -0.050 A 
ATOM     27  C   UNK d   0       2.963  -0.908  -2.654  0.00  0.00    -0.061 A 
ATOM     28  H   UNK d   0       2.279   0.566  -4.042  0.00  0.00     0.062 H 
ATOM     29  C   UNK d   0       3.781  -2.007  -2.456  0.00  0.00    -0.062 A 
ATOM     30  H   UNK d   0       2.359  -0.533  -1.843  0.00  0.00     0.062 H 
ATOM     31  C   UNK d   0       4.559  -2.494  -3.492  0.00  0.00    -0.061 A 
ATOM     32  H   UNK d   0       3.809  -2.489  -1.490  0.00  0.00     0.062 H 
ATOM     33  C   UNK d   0       4.523  -1.887  -4.730  0.00  0.00    -0.050 A 
ATOM     34  H   UNK d   0       5.195  -3.351  -3.331  0.00  0.00     0.062 H 
ATOM     35  H   UNK d   0       5.130  -2.267  -5.538  0.00  0.00     0.062 H 
ENDBRANCH   1  25
TORSDOF 6
ENDMDL
MODEL 5
REMARK VINA RESULT:      -6.4      2.540      6.522
REMARK  4 active torsions:
REMARK  status: ('A' for Active; 'I' for Inactive)
REMARK    1  A    between atoms: C_4  and  C_7 
REMARK       I    between atoms: C_7  and  N_9 
REMARK       I    between atoms: N_9  and  CA_10 
REMARK    2  A    between atoms: CA_10  and  CB_12 
REMARK       I    between atoms: CA_10  and  C_20 
REMARK    3  A    between atoms: CB_12  and  CG_13 
REMARK    4  A    between atoms: CZ_16  and  OH_19 
ROOT
ATOM      1  C   UNK d   0       3.713  -0.275  -7.134  0.00  0.00     0.245 C 
ATOM      2  O   UNK d   0       4.484   0.656  -7.251  0.00  0.00    -0.270 OA
ATOM      3  N   TYR d   1       3.503  -0.830  -5.924  0.00  0.00    -0.303 N 
ATOM      4  CA  TYR d   1       4.207  -0.311  -4.749  0.00  0.00     0.067 C 
ATOM      5  HA  TYR d   1       5.206   0.013  -5.038  0.00  0.00     0.056 H 
ATOM      6  C   TYR d   1       3.444   0.859  -4.183  0.00  0.00     0.062 C 
ATOM      7  O   TYR d   1       2.418   1.222  -4.708  0.00  0.00    -0.548 OA
ATOM      8  H   TYR d   1       2.887  -1.574  -5.831  0.00  0.00     0.150 HD
ATOM      9  OXT TYR d   1       3.904   1.498  -3.096  0.00  0.00    -0.548 OA
ENDROOT
BRANCH   4  10
ATOM     10  CB  TYR d   1       4.312  -1.411  -3.690  0.00  0.00    -0.004 C 
ATOM     11  HB1 TYR d   1       4.443  -0.958  -2.708  0.00  0.00     0.034 H 
ATOM     12  HB2 TYR d   1       3.402  -2.010  -3.697  0.00  0.00     0.034 H 
BRANCH  10  13
ATOM     13  CG  TYR d   1       5.496  -2.292  -3.997  0.00  0.00    -0.045 A 
ATOM     14  CD1 TYR d   1       6.752  -1.950  -3.532  0.00  0.00    -0.055 A 
ATOM     15  CE1 TYR d   1       7.838  -2.755  -3.812  0.00  0.00    -0.020 A 
ATOM     16  HD1 TYR d   1       6.883  -1.050  -2.948  0.00  0.00     0.062 H 
ATOM     17  CZ  TYR d   1       7.668  -3.909  -4.562  0.00  0.00     0.117 A 
ATOM     18  HE1 TYR d   1       8.819  -2.487  -3.448  0.00  0.00     0.065 H 
ATOM     19  CE2 TYR d   1       6.407  -4.251  -5.029  0.00  0.00    -0.020 A 
ATOM     20  CD2 TYR d   1       5.323  -3.445  -4.741  0.00  0.00    -0.055 A 
ATOM     21  HE2 TYR d   1       6.273  -5.150  -5.613  0.00  0.00     0.065 H 
ATOM     22  HD2 TYR d   1       4.340  -3.713  -5.101  0.00  0.00     0.062 H 
BRANCH  17  23
ATOM     23  OH  TYR d   1       8.735  -4.704  -4.840  0.00  0.00    -0.507 OA
ATOM     24  HH  TYR d   1       8.928  -5.358  -4.154  0.00  0.00     0.292 HD
ENDBRANCH  17  23
ENDBRANCH  10  13
ENDBRANCH   4  10
BRANCH   1  25
ATOM     25  C   UNK d   0       3.002  -0.800  -8.321  0.00  0.00     0.037 A 
ATOM     26  C   UNK d   0       2.164   0.035  -9.061  0.00  0.00    -0.050 A 
ATOM     27  C   UNK d   0       1.504  -0.460 -10.167  0.00  0.00    -0.061 A 
ATOM     28  H   UNK d   0       2.032   1.067  -8.769  0.00  0.00     0.062 H 
ATOM     29  C   UNK d   0       1.671  -1.782 -10.542  0.00  0.00    -0.062 A 
ATOM     30  H   UNK d   0       0.855   0.185 -10.740  0.00  0.00     0.062 H 
ATOM     31  C   UNK d   0       2.501  -2.614  -9.812  0.00  0.00    -0.061 A 
ATOM     32  H   UNK d   0       1.156  -2.164 -11.411  0.00  0.00     0.062 H 
ATOM     33  C   UNK d   0       3.168  -2.132  -8.705  0.00  0.00    -0.050 A 
ATOM     34  H   UNK d   0       2.628  -3.644 -10.109  0.00  0.00     0.062 H 
ATOM     35  H   UNK d   0       3.815  -2.782  -8.136  0.00  0.00     0.062 H 
ENDBRANCH   1  25
TORSDOF 6
ENDMDL
MODEL 6
REMARK VINA RESULT:      -6.3      1.990      4.140
REMARK  4 active torsions:
REMARK  status: ('A' for Active; 'I' for Inactive)
REMARK    1  A    between atoms: C_4  and  C_7 
REMARK       I    between atoms: C_7  and  N_9 
REMARK       I    between atoms: N_9  and  CA_10 
REMARK    2  A    between atoms: CA_10  and  CB_12 
REMARK       I    between atoms: CA_10  and  C_20 
REMARK    3  A    between atoms: CB_12  and  CG_13 
REMARK    4  A    between atoms: CZ_16  and  OH_19 
ROOT
ATOM      1  C   UNK d   0       3.076   0.321  -5.383  0.00  0.00     0.245 C 
ATOM      2  O   UNK d   0       2.520   1.400  -5.443  0.00  0.00    -0.270 OA
ATOM      3  N   TYR d   1       3.251  -0.411  -6.501  0.00  0.00    -0.303 N 
ATOM      4  CA  TYR d   1       2.771   0.094  -7.789  0.00  0.00     0.067 C 
ATOM      5  HA  TYR d   1       1.847   0.652  -7.639  0.00  0.00     0.056 H 
ATOM      6  C   TYR d   1       3.812   1.001  -8.393  0.00  0.00     0.062 C 
ATOM      7  O   TYR d   1       4.849   1.204  -7.807  0.00  0.00    -0.548 OA
ATOM      8  H   TYR d   1       3.695  -1.272  -6.452  0.00  0.00     0.150 HD
ATOM      9  OXT TYR d   1       3.588   1.582  -9.582  0.00  0.00    -0.548 OA
ENDROOT
BRANCH   4  10
ATOM     10  CB  TYR d   1       2.509  -1.082  -8.733  0.00  0.00    -0.004 C 
ATOM     11  HB1 TYR d   1       1.673  -1.670  -8.356  0.00  0.00     0.034 H 
ATOM     12  HB2 TYR d   1       2.270  -0.705  -9.727  0.00  0.00     0.034 H 
BRANCH  10  13
ATOM     13  CG  TYR d   1       3.739  -1.949  -8.807  0.00  0.00    -0.045 A 
ATOM     14  CD1 TYR d   1       4.632  -1.794  -9.851  0.00  0.00    -0.055 A 
ATOM     15  CE1 TYR d   1       5.760  -2.587  -9.922  0.00  0.00    -0.020 A 
ATOM     16  HD1 TYR d   1       4.446  -1.050 -10.613  0.00  0.00     0.062 H 
ATOM     17  CZ  TYR d   1       5.997  -3.542  -8.945  0.00  0.00     0.117 A 
ATOM     18  HE1 TYR d   1       6.457  -2.465 -10.738  0.00  0.00     0.065 H 
ATOM     19  CE2 TYR d   1       5.099  -3.697  -7.897  0.00  0.00    -0.020 A 
ATOM     20  CD2 TYR d   1       3.976  -2.897  -7.829  0.00  0.00    -0.055 A 
ATOM     21  HE2 TYR d   1       5.282  -4.440  -7.135  0.00  0.00     0.065 H 
ATOM     22  HD2 TYR d   1       3.279  -3.014  -7.011  0.00  0.00     0.062 H 
BRANCH  17  23
ATOM     23  OH  TYR d   1       7.106  -4.325  -9.012  0.00  0.00    -0.507 OA
ATOM     24  HH  TYR d   1       7.728  -4.189  -8.284  0.00  0.00     0.292 HD
ENDBRANCH  17  23
ENDBRANCH  10  13
ENDBRANCH   4  10
BRANCH   1  25
ATOM     25  C   UNK d   0       3.561  -0.189  -4.082  0.00  0.00     0.037 A 
ATOM     26  C   UNK d   0       3.940   0.702  -3.077  0.00  0.00    -0.050 A 
ATOM     27  C   UNK d   0       4.392   0.220  -1.866  0.00  0.00    -0.061 A 
ATOM     28  H   UNK d   0       3.880   1.767  -3.247  0.00  0.00     0.062 H 
ATOM     29  C   UNK d   0       4.470  -1.144  -1.647  0.00  0.00    -0.062 A 
ATOM     30  H   UNK d   0       4.686   0.909  -1.088  0.00  0.00     0.062 H 
ATOM     31  C   UNK d   0       4.096  -2.033  -2.639  0.00  0.00    -0.061 A 
ATOM     32  H   UNK d   0       4.820  -1.517  -0.695  0.00  0.00     0.062 H 
ATOM     33  C   UNK d   0       3.641  -1.564  -3.854  0.00  0.00    -0.050 A 
ATOM     34  H   UNK d   0       4.158  -3.096  -2.462  0.00  0.00     0.062 H 
ATOM     35  H   UNK d   0       3.349  -2.258  -4.627  0.00  0.00     0.062 H 
ENDBRANCH   1  25
TORSDOF 6
ENDMDL
MODEL 7
REMARK VINA RESULT:      -6.1      4.480      6.574
REMARK  4 active torsions:
REMARK  status: ('A' for Active; 'I' for Inactive)
REMARK    1  A    between atoms: C_4  and  C_7 
REMARK       I    between atoms: C_7  and  N_9 
REMARK       I    between atoms: N_9  and  CA_10 
REMARK    2  A    between atoms: CA_10  and  CB_12 
REMARK       I    between atoms: CA_10  and  C_20 
REMARK    3  A    between atoms: CB_12  and  CG_13 
REMARK    4  A    between atoms: CZ_16  and  OH_19 
ROOT
ATOM      1  C   UNK d   0       8.647   1.975  -4.687  0.00  0.00     0.245 C 
ATOM      2  O   UNK d   0       8.307   1.978  -5.854  0.00  0.00    -0.270 OA
ATOM      3  N   TYR d   1       8.447   0.879  -3.929  0.00  0.00    -0.303 N 
ATOM      4  CA  TYR d   1       7.817  -0.309  -4.511  0.00  0.00     0.067 C 
ATOM      5  HA  TYR d   1       7.068  -0.002  -5.240  0.00  0.00     0.056 H 
ATOM      6  C   TYR d   1       8.866  -1.149  -5.192  0.00  0.00     0.062 C 
ATOM      7  O   TYR d   1      10.021  -0.793  -5.191  0.00  0.00    -0.548 OA
ATOM      8  H   TYR d   1       8.719   0.877  -2.998  0.00  0.00     0.150 HD
ATOM      9  OXT TYR d   1       8.518  -2.295  -5.799  0.00  0.00    -0.548 OA
ENDROOT
BRANCH   4  10
ATOM     10  CB  TYR d   1       7.149  -1.126  -3.403  0.00  0.00    -0.004 C 
ATOM     11  HB1 TYR d   1       7.441  -2.171  -3.497  0.00  0.00     0.034 H 
ATOM     12  HB2 TYR d   1       7.462  -0.745  -2.431  0.00  0.00     0.034 H 
BRANCH  10  13
ATOM     13  CG  TYR d   1       5.651  -1.011  -3.528  0.00  0.00    -0.045 A 
ATOM     14  CD1 TYR d   1       4.833  -1.569  -2.564  0.00  0.00    -0.055 A 
ATOM     15  CE1 TYR d   1       3.460  -1.465  -2.676  0.00  0.00    -0.020 A 
ATOM     16  HD1 TYR d   1       5.268  -2.087  -1.722  0.00  0.00     0.062 H 
ATOM     17  CZ  TYR d   1       2.903  -0.800  -3.758  0.00  0.00     0.117 A 
ATOM     18  HE1 TYR d   1       2.821  -1.901  -1.922  0.00  0.00     0.065 H 
ATOM     19  CE2 TYR d   1       3.726  -0.241  -4.725  0.00  0.00    -0.020 A 
ATOM     20  CD2 TYR d   1       5.098  -0.343  -4.604  0.00  0.00    -0.055 A 
ATOM     21  HE2 TYR d   1       3.293   0.277  -5.568  0.00  0.00     0.065 H 
ATOM     22  HD2 TYR d   1       5.739   0.096  -5.355  0.00  0.00     0.062 H 
BRANCH  17  23
ATOM     23  OH  TYR d   1       1.552  -0.697  -3.871  0.00  0.00    -0.507 OA
ATOM     24  HH  TYR d   1       1.148  -1.389  -4.412  0.00  0.00     0.292 HD
ENDBRANCH  17  23
ENDBRANCH  10  13
ENDBRANCH   4  10
BRANCH   1  25
ATOM     25  C   UNK d   0       9.283   3.175  -4.099  0.00  0.00     0.037 A 
ATOM     26  C   UNK d   0       9.141   4.417  -4.718  0.00  0.00    -0.050 A 
ATOM     27  C   UNK d   0       9.737   5.533  -4.165  0.00  0.00    -0.061 A 
ATOM     28  H   UNK d   0       8.566   4.506  -5.629  0.00  0.00     0.062 H 
ATOM     29  C   UNK d   0      10.474   5.419  -3.000  0.00  0.00    -0.062 A 
ATOM     30  H   UNK d   0       9.628   6.494  -4.643  0.00  0.00     0.062 H 
ATOM     31  C   UNK d   0      10.618   4.191  -2.381  0.00  0.00    -0.061 A 
ATOM     32  H   UNK d   0      10.934   6.296  -2.568  0.00  0.00     0.062 H 
ATOM     33  C   UNK d   0      10.027   3.068  -2.923  0.00  0.00    -0.050 A 
ATOM     34  H   UNK d   0      11.195   4.109  -1.472  0.00  0.00     0.062 H 
ATOM     35  H   UNK d   0      10.140   2.110  -2.440  0.00  0.00     0.062 H 
ENDBRANCH   1  25
TORSDOF 6
ENDMDL
MODEL 8
REMARK VINA RESULT:      -5.9      2.522      6.519
REMARK  4 active torsions:
REMARK  status: ('A' for Active; 'I' for Inactive)
REMARK    1  A    between atoms: C_4  and  C_7 
REMARK       I    between atoms: C_7  and  N_9 
REMARK       I    between atoms: N_9  and  CA_10 
REMARK    2  A    between atoms: CA_10  and  CB_12 
REMARK       I    between atoms: CA_10  and  C_20 
REMARK    3  A    between atoms: CB_12  and  CG_13 
REMARK    4  A    between atoms: CZ_16  and  OH_19 
ROOT
ATOM      1  C   UNK d   0       3.365  -2.355  -8.996  0.00  0.00     0.245 C 
ATOM      2  O   UNK d   0       4.572  -2.493  -9.019  0.00  0.00    -0.270 OA
ATOM      3  N   TYR d   1       2.820  -1.281  -8.391  0.00  0.00    -0.303 N 
ATOM      4  CA  TYR d   1       3.683  -0.280  -7.759  0.00  0.00     0.067 C 
ATOM      5  HA  TYR d   1       4.551  -0.773  -7.322  0.00  0.00     0.056 H 
ATOM      6  C   TYR d   1       4.138   0.716  -8.794  0.00  0.00     0.062 C 
ATOM      7  O   TYR d   1       3.779   0.601  -9.942  0.00  0.00    -0.548 OA
ATOM      8  H   TYR d   1       1.856  -1.172  -8.374  0.00  0.00     0.150 HD
ATOM      9  OXT TYR d   1       4.942   1.731  -8.441  0.00  0.00    -0.548 OA
ENDROOT
BRANCH   4  10
ATOM     10  CB  TYR d   1       2.902   0.446  -6.661  0.00  0.00    -0.004 C 
ATOM     11  HB1 TYR d   1       3.128   1.511  -6.699  0.00  0.00     0.034 H 
ATOM     12  HB2 TYR d   1       1.833   0.294  -6.814  0.00  0.00     0.034 H 
BRANCH  10  13
ATOM     13  CG  TYR d   1       3.298  -0.104  -5.315  0.00  0.00    -0.045 A 
ATOM     14  CD1 TYR d   1       4.544  -0.678  -5.144  0.00  0.00    -0.055 A 
ATOM     15  CE1 TYR d   1       4.911  -1.182  -3.912  0.00  0.00    -0.020 A 
ATOM     16  HD1 TYR d   1       5.232  -0.733  -5.976  0.00  0.00     0.062 H 
ATOM     17  CZ  TYR d   1       4.027  -1.113  -2.845  0.00  0.00     0.117 A 
ATOM     18  HE1 TYR d   1       5.884  -1.631  -3.778  0.00  0.00     0.065 H 
ATOM     19  CE2 TYR d   1       2.776  -0.536  -3.019  0.00  0.00    -0.020 A 
ATOM     20  CD2 TYR d   1       2.418  -0.028  -4.252  0.00  0.00    -0.055 A 
ATOM     21  HE2 TYR d   1       2.088  -0.481  -2.189  0.00  0.00     0.065 H 
ATOM     22  HD2 TYR d   1       1.446   0.425  -4.387  0.00  0.00     0.062 H 
BRANCH  17  23
ATOM     23  OH  TYR d   1       4.385  -1.608  -1.631  0.00  0.00    -0.507 OA
ATOM     24  HH  TYR d   1       5.160  -1.180  -1.243  0.00  0.00     0.292 HD
ENDBRANCH  17  23
ENDBRANCH  10  13
ENDBRANCH   4  10
BRANCH   1  25
ATOM     25  C   UNK d   0       2.494  -3.366  -9.635  0.00  0.00     0.037 A 
ATOM     26  C   UNK d   0       2.832  -4.718  -9.578  0.00  0.00    -0.050 A 
ATOM     27  C   UNK d   0       2.015  -5.656 -10.176  0.00  0.00    -0.061 A 
ATOM     28  H   UNK d   0       3.731  -5.031  -9.067  0.00  0.00     0.062 H 
ATOM     29  C   UNK d   0       0.863  -5.257 -10.831  0.00  0.00    -0.062 A 
ATOM     30  H   UNK d   0       2.275  -6.703 -10.132  0.00  0.00     0.062 H 
ATOM     31  C   UNK d   0       0.523  -3.918 -10.891  0.00  0.00    -0.061 A 
ATOM     32  H   UNK d   0       0.225  -5.995 -11.294  0.00  0.00     0.062 H 
ATOM     33  C   UNK d   0       1.330  -2.970 -10.297  0.00  0.00    -0.050 A 
ATOM     34  H   UNK d   0      -0.377  -3.612 -11.404  0.00  0.00     0.062 H 
ATOM     35  H   UNK d   0       1.064  -1.925 -10.344  0.00  0.00     0.062 H 
ENDBRANCH   1  25
TORSDOF 6
ENDMDL
MODEL 9
REMARK VINA RESULT:      -5.9      2.850      4.317
REMARK  4 active torsions:
REMARK  status: ('A' for Active; 'I' for Inactive)
REMARK    1  A    between atoms: C_4  and  C_7 
REMARK       I    between atoms: C_7  and  N_9 
REMARK       I    between atoms: N_9  and  CA_10 
REMARK    2  A    between atoms: CA_10  and  CB_12 
REMARK       I    between atoms: CA_10  and  C_20 
REMARK    3  A    between atoms: CB_12  and  CG_13 
REMARK    4  A    between atoms: CZ_16  and  OH_19 
ROOT
ATOM      1  C   UNK d   0       5.343  -2.638  -5.015  0.00  0.00     0.245 C 
ATOM      2  O   UNK d   0       4.298  -3.009  -4.517  0.00  0.00    -0.270 OA
ATOM      3  N   TYR d   1       5.352  -1.590  -5.862  0.00  0.00    -0.303 N 
ATOM      4  CA  TYR d   1       4.101  -0.898  -6.184  0.00  0.00     0.067 C 
ATOM      5  HA  TYR d   1       3.285  -1.619  -6.213  0.00  0.00     0.056 H 
ATOM      6  C   TYR d   1       3.817   0.141  -5.131  0.00  0.00     0.062 C 
ATOM      7  O   TYR d   1       4.581   0.289  -4.207  0.00  0.00    -0.548 OA
ATOM      8  H   TYR d   1       6.186  -1.295  -6.259  0.00  0.00     0.150 HD
ATOM      9  OXT TYR d   1       2.716   0.904  -5.221  0.00  0.00    -0.548 OA
ENDROOT
BRANCH   4  10
ATOM     10  CB  TYR d   1       4.231  -0.220  -7.550  0.00  0.00    -0.004 C 
ATOM     11  HB1 TYR d   1       4.018   0.844  -7.447  0.00  0.00     0.034 H 
ATOM     12  HB2 TYR d   1       5.245  -0.354  -7.927  0.00  0.00     0.034 H 
BRANCH  10  13
ATOM     13  CG  TYR d   1       3.251  -0.837  -8.513  0.00  0.00    -0.045 A 
ATOM     14  CD1 TYR d   1       2.265  -0.058  -9.089  0.00  0.00    -0.055 A 
ATOM     15  CE1 TYR d   1       1.365  -0.621  -9.972  0.00  0.00    -0.020 A 
ATOM     16  HD1 TYR d   1       2.199   0.993  -8.848  0.00  0.00     0.062 H 
ATOM     17  CZ  TYR d   1       1.450  -1.970 -10.281  0.00  0.00     0.117 A 
ATOM     18  HE1 TYR d   1       0.595  -0.012 -10.422  0.00  0.00     0.065 H 
ATOM     19  CE2 TYR d   1       2.440  -2.752  -9.701  0.00  0.00    -0.020 A 
ATOM     20  CD2 TYR d   1       3.341  -2.181  -8.823  0.00  0.00    -0.055 A 
ATOM     21  HE2 TYR d   1       2.508  -3.802  -9.940  0.00  0.00     0.065 H 
ATOM     22  HD2 TYR d   1       4.115  -2.788  -8.375  0.00  0.00     0.062 H 
BRANCH  17  23
ATOM     23  OH  TYR d   1       0.565  -2.528 -11.149  0.00  0.00    -0.507 OA
ATOM     24  HH  TYR d   1       0.382  -1.984 -11.928  0.00  0.00     0.292 HD
ENDBRANCH  17  23
ENDBRANCH  10  13
ENDBRANCH   4  10
BRANCH   1  25
ATOM     25  C   UNK d   0       6.605  -3.337  -4.689  0.00  0.00     0.037 A 
ATOM     26  C   UNK d   0       7.523  -2.754  -3.815  0.00  0.00    -0.050 A 
ATOM     27  C   UNK d   0       8.700  -3.411  -3.515  0.00  0.00    -0.061 A 
ATOM     28  H   UNK d   0       7.314  -1.791  -3.373  0.00  0.00     0.062 H 
ATOM     29  C   UNK d   0       8.969  -4.645  -4.081  0.00  0.00    -0.062 A 
ATOM     30  H   UNK d   0       9.410  -2.961  -2.839  0.00  0.00     0.062 H 
ATOM     31  C   UNK d   0       8.063  -5.228  -4.949  0.00  0.00    -0.061 A 
ATOM     32  H   UNK d   0       9.889  -5.157  -3.840  0.00  0.00     0.062 H 
ATOM     33  C   UNK d   0       6.883  -4.582  -5.256  0.00  0.00    -0.050 A 
ATOM     34  H   UNK d   0       8.279  -6.191  -5.387  0.00  0.00     0.062 H 
ATOM     35  H   UNK d   0       6.177  -5.038  -5.933  0.00  0.00     0.062 H 
ENDBRANCH   1  25
TORSDOF 6
ENDMDL
MODEL 10
REMARK VINA RESULT:      -5.9      2.913      4.789
REMARK  4 active torsions:
REMARK  status: ('A' for Active; 'I' for Inactive)
REMARK    1  A    between atoms: C_4  and  C_7 
REMARK       I    between atoms: C_7  and  N_9 
REMARK       I    between atoms: N_9  and  CA_10 
REMARK    2  A    between atoms: CA_10  and  CB_12 
REMARK       I    between atoms: CA_10  and  C_20 
REMARK    3  A    between atoms: CB_12  and  CG_13 
REMARK    4  A    between atoms: CZ_16  and  OH_19 
ROOT
ATOM      1  C   UNK d   0       3.868  -0.449  -6.719  0.00  0.00     0.245 C 
ATOM      2  O   UNK d   0       3.197  -1.025  -7.553  0.00  0.00    -0.270 OA
ATOM      3  N   TYR d   1       4.694   0.549  -7.090  0.00  0.00    -0.303 N 
ATOM      4  CA  TYR d   1       4.784   0.940  -8.499  0.00  0.00     0.067 C 
ATOM      5  HA  TYR d   1       4.674   0.057  -9.128  0.00  0.00     0.056 H 
ATOM      6  C   TYR d   1       3.688   1.923  -8.818  0.00  0.00     0.062 C 
ATOM      7  O   TYR d   1       2.911   2.263  -7.957  0.00  0.00    -0.548 OA
ATOM      8  H   TYR d   1       5.229   1.008  -6.424  0.00  0.00     0.150 HD
ATOM      9  OXT TYR d   1       3.575   2.423 -10.059  0.00  0.00    -0.548 OA
ENDROOT
BRANCH   4  10
ATOM     10  CB  TYR d   1       6.145   1.589  -8.762  0.00  0.00    -0.004 C 
ATOM     11  HB1 TYR d   1       5.997   2.592  -9.160  0.00  0.00     0.034 H 
ATOM     12  HB2 TYR d   1       6.707   1.646  -7.830  0.00  0.00     0.034 H 
BRANCH  10  13
ATOM     13  CG  TYR d   1       6.912   0.761  -9.760  0.00  0.00    -0.045 A 
ATOM     14  CD1 TYR d   1       8.280   0.915  -9.880  0.00  0.00    -0.055 A 
ATOM     15  CE1 TYR d   1       8.986   0.158 -10.794  0.00  0.00    -0.020 A 
ATOM     16  HD1 TYR d   1       8.798   1.630  -9.257  0.00  0.00     0.062 H 
ATOM     17  CZ  TYR d   1       8.320  -0.758 -11.594  0.00  0.00     0.117 A 
ATOM     18  HE1 TYR d   1      10.055   0.279 -10.887  0.00  0.00     0.065 H 
ATOM     19  CE2 TYR d   1       6.946  -0.912 -11.473  0.00  0.00    -0.020 A 
ATOM     20  CD2 TYR d   1       6.247  -0.156 -10.553  0.00  0.00    -0.055 A 
ATOM     21  HE2 TYR d   1       6.426  -1.625 -12.095  0.00  0.00     0.065 H 
ATOM     22  HD2 TYR d   1       5.177  -0.278 -10.455  0.00  0.00     0.062 H 
BRANCH  17  23
ATOM     23  OH  TYR d   1       9.011  -1.505 -12.495  0.00  0.00    -0.507 OA
ATOM     24  HH  TYR d   1       9.586  -2.172 -12.095  0.00  0.00     0.292 HD
ENDBRANCH  17  23
ENDBRANCH  10  13
ENDBRANCH   4  10
BRANCH   1  25
ATOM     25  C   UNK d   0       3.777  -0.844  -5.296  0.00  0.00     0.037 A 
ATOM     26  C   UNK d   0       4.524  -1.921  -4.819  0.00  0.00    -0.050 A 
ATOM     27  C   UNK d   0       4.435  -2.285  -3.490  0.00  0.00    -0.061 A 
ATOM     28  H   UNK d   0       5.172  -2.470  -5.487  0.00  0.00     0.062 H 
ATOM     29  C   UNK d   0       3.605  -1.583  -2.633  0.00  0.00    -0.062 A 
ATOM     30  H   UNK d   0       5.012  -3.117  -3.120  0.00  0.00     0.062 H 
ATOM     31  C   UNK d   0       2.862  -0.514  -3.101  0.00  0.00    -0.061 A 
ATOM     32  H   UNK d   0       3.542  -1.868  -1.593  0.00  0.00     0.062 H 
ATOM     33  C   UNK d   0       2.943  -0.140  -4.426  0.00  0.00    -0.050 A 
ATOM     34  H   UNK d   0       2.217   0.030  -2.427  0.00  0.00     0.062 H 
ATOM     35  H   UNK d   0       2.362   0.694  -4.790  0.00  0.00     0.062 H 
ENDBRANCH   1  25
TORSDOF 6
ENDMDL
