MODEL 1
REMARK VINA RESULT:      -6.5      0.000      0.000
REMARK  5 active torsions:
REMARK  status: ('A' for Active; 'I' for Inactive)
REMARK    1  A    between atoms: C_1  and  C_2 
REMARK    2  A    between atoms: C_2  and  C_3 
REMARK    3  A    between atoms: C_3  and  C_4 
REMARK    4  A    between atoms: C_4  and  N_5 
REMARK       I    between atoms: N_5  and  C_6 
REMARK       I    between atoms: C_6  and  N_8 
REMARK    5  A    between atoms: C_13  and  C_15 
ROOT
ATOM      1  N   LIG d   1       3.828  -0.897  -7.036  0.00  0.00    -0.299 N 
ATOM      2  C   LIG d   1       4.627  -0.774  -5.958  0.00  0.00     0.303 C 
ATOM      3  O   LIG d   1       4.347   0.018  -5.079  0.00  0.00    -0.253 OA
ATOM      4  N   LIG d   1       5.739  -1.529  -5.854  0.00  0.00    -0.279 N 
ATOM      5  C   LIG d   1       6.160  -2.397  -6.962  0.00  0.00     0.017 C 
ATOM      6  C   LIG d   1       6.347  -3.821  -6.429  0.00  0.00    -0.037 C 
ATOM      7  C   LIG d   1       7.317  -3.796  -5.246  0.00  0.00    -0.050 C 
ATOM      8  C   LIG d   1       6.735  -2.933  -4.124  0.00  0.00    -0.030 C 
ATOM      9  C   LIG d   1       6.553  -1.499  -4.631  0.00  0.00     0.054 C 
ATOM     10  H   LIG d   1       7.527  -1.063  -4.851  0.00  0.00     0.055 H 
ATOM     11  H   LIG d   1       4.011  -1.579  -7.700  0.00  0.00     0.150 HD
ATOM     12  H   LIG d   1       7.103  -2.034  -7.372  0.00  0.00     0.046 H 
ATOM     13  H   LIG d   1       5.396  -2.395  -7.739  0.00  0.00     0.046 H 
ATOM     14  H   LIG d   1       6.751  -4.455  -7.218  0.00  0.00     0.028 H 
ATOM     15  H   LIG d   1       5.385  -4.216  -6.102  0.00  0.00     0.028 H 
ATOM     16  H   LIG d   1       7.471  -4.811  -4.880  0.00  0.00     0.027 H 
ATOM     17  H   LIG d   1       8.271  -3.378  -5.568  0.00  0.00     0.027 H 
ATOM     18  H   LIG d   1       5.770  -3.336  -3.819  0.00  0.00     0.029 H 
ATOM     19  H   LIG d   1       7.416  -2.934  -3.272  0.00  0.00     0.029 H 
ENDROOT
BRANCH   9  20
ATOM     20  C   LIG d   1       5.854  -0.675  -3.579  0.00  0.00    -0.009 A 
ATOM     21  C   LIG d   1       6.174   0.658  -3.409  0.00  0.00     0.033 A 
ATOM     22  N   LIG d   1       5.563   1.386  -2.495  0.00  0.00    -0.263 NA
ATOM     23  H   LIG d   1       6.930   1.110  -4.033  0.00  0.00     0.083 H 
ATOM     24  C   LIG d   1       4.637   0.875  -1.706  0.00  0.00     0.028 A 
ATOM     25  C   LIG d   1       4.269  -0.452  -1.816  0.00  0.00    -0.043 A 
ATOM     26  H   LIG d   1       4.161   1.502  -0.967  0.00  0.00     0.083 H 
ATOM     27  C   LIG d   1       4.885  -1.248  -2.769  0.00  0.00    -0.054 A 
ATOM     28  H   LIG d   1       3.509  -0.864  -1.167  0.00  0.00     0.063 H 
ATOM     29  H   LIG d   1       4.618  -2.288  -2.877  0.00  0.00     0.062 H 
ENDBRANCH   9  20
BRANCH   1  30
ATOM     30  C   LIG d   1       2.681  -0.000  -7.203  0.00  0.00     0.013 C 
ATOM     31  H   LIG d   1       1.757  -0.566  -7.083  0.00  0.00     0.046 H 
ATOM     32  H   LIG d   1       2.725   0.789  -6.453  0.00  0.00     0.046 H 
BRANCH  30  33
ATOM     33  C   LIG d   1       2.720   0.622  -8.600  0.00  0.00    -0.038 C 
ATOM     34  H   LIG d   1       3.575   0.228  -9.150  0.00  0.00     0.028 H 
ATOM     35  H   LIG d   1       1.801   0.378  -9.132  0.00  0.00     0.028 H 
BRANCH  33  36
ATOM     36  C   LIG d   1       2.850   2.142  -8.477  0.00  0.00    -0.054 C 
ATOM     37  H   LIG d   1       1.935   2.615  -8.834  0.00  0.00     0.026 H 
ATOM     38  H   LIG d   1       3.013   2.410  -7.433  0.00  0.00     0.026 H 
BRANCH  36  39
ATOM     39  C   LIG d   1       4.034   2.623  -9.318  0.00  0.00    -0.065 C 
ATOM     40  H   LIG d   1       4.012   3.711  -9.388  0.00  0.00     0.023 H 
ATOM     41  H   LIG d   1       4.965   2.308  -8.848  0.00  0.00     0.023 H 
ATOM     42  H   LIG d   1       3.968   2.194 -10.318  0.00  0.00     0.023 H 
ENDBRANCH  36  39
ENDBRANCH  33  36
ENDBRANCH  30  33
ENDBRANCH   1  30
TORSDOF 5
ENDMDL
MODEL 2
REMARK VINA RESULT:      -6.4      1.452      3.828
REMARK  5 active torsions:
REMARK  status: ('A' for Active; 'I' for Inactive)
REMARK    1  A    between atoms: C_1  and  C_2 
REMARK    2  A    between atoms: C_2  and  C_3 
REMARK    3  A    between atoms: C_3  and  C_4 
REMARK    4  A    between atoms: C_4  and  N_5 
REMARK       I    between atoms: N_5  and  C_6 
REMARK       I    between atoms: C_6  and  N_8 
REMARK    5  A    between atoms: C_13  and  C_15 
ROOT
ATOM      1  N   LIG d   1       3.357   0.613  -6.410  0.00  0.00    -0.299 N 
ATOM      2  C   LIG d   1       3.879  -0.395  -5.682  0.00  0.00     0.303 C 
ATOM      3  O   LIG d   1       4.426  -1.327  -6.239  0.00  0.00    -0.253 OA
ATOM      4  N   LIG d   1       3.792  -0.370  -4.337  0.00  0.00    -0.279 N 
ATOM      5  C   LIG d   1       3.025   0.682  -3.656  0.00  0.00     0.017 C 
ATOM      6  C   LIG d   1       3.927   1.354  -2.616  0.00  0.00    -0.037 C 
ATOM      7  C   LIG d   1       4.502   0.288  -1.680  0.00  0.00    -0.050 C 
ATOM      8  C   LIG d   1       5.349  -0.700  -2.487  0.00  0.00    -0.030 C 
ATOM      9  C   LIG d   1       4.463  -1.395  -3.526  0.00  0.00     0.054 C 
ATOM     10  H   LIG d   1       3.716  -2.005  -3.019  0.00  0.00     0.055 H 
ATOM     11  H   LIG d   1       2.987   1.391  -5.964  0.00  0.00     0.150 HD
ATOM     12  H   LIG d   1       2.162   0.240  -3.160  0.00  0.00     0.046 H 
ATOM     13  H   LIG d   1       2.693   1.422  -4.384  0.00  0.00     0.046 H 
ATOM     14  H   LIG d   1       3.344   2.070  -2.037  0.00  0.00     0.028 H 
ATOM     15  H   LIG d   1       4.742   1.872  -3.121  0.00  0.00     0.028 H 
ATOM     16  H   LIG d   1       5.125   0.766  -0.924  0.00  0.00     0.027 H 
ATOM     17  H   LIG d   1       3.686  -0.247  -1.194  0.00  0.00     0.027 H 
ATOM     18  H   LIG d   1       6.150  -0.162  -2.993  0.00  0.00     0.029 H 
ATOM     19  H   LIG d   1       5.777  -1.445  -1.817  0.00  0.00     0.029 H 
ENDROOT
BRANCH   9  20
ATOM     20  C   LIG d   1       5.314  -2.266  -4.414  0.00  0.00    -0.009 A 
ATOM     21  C   LIG d   1       6.556  -1.831  -4.837  0.00  0.00     0.033 A 
ATOM     22  N   LIG d   1       7.308  -2.590  -5.609  0.00  0.00    -0.263 NA
ATOM     23  H   LIG d   1       6.915  -0.862  -4.529  0.00  0.00     0.083 H 
ATOM     24  C   LIG d   1       6.907  -3.780  -6.015  0.00  0.00     0.028 A 
ATOM     25  C   LIG d   1       5.675  -4.278  -5.636  0.00  0.00    -0.043 A 
ATOM     26  H   LIG d   1       7.550  -4.371  -6.650  0.00  0.00     0.083 H 
ATOM     27  C   LIG d   1       4.858  -3.511  -4.820  0.00  0.00    -0.054 A 
ATOM     28  H   LIG d   1       5.353  -5.253  -5.972  0.00  0.00     0.063 H 
ATOM     29  H   LIG d   1       3.890  -3.875  -4.508  0.00  0.00     0.062 H 
ENDBRANCH   9  20
BRANCH   1  30
ATOM     30  C   LIG d   1       3.352   0.535  -7.873  0.00  0.00     0.013 C 
ATOM     31  H   LIG d   1       4.366   0.353  -8.231  0.00  0.00     0.046 H 
ATOM     32  H   LIG d   1       2.703  -0.281  -8.190  0.00  0.00     0.046 H 
BRANCH  30  33
ATOM     33  C   LIG d   1       2.834   1.852  -8.452  0.00  0.00    -0.038 C 
ATOM     34  H   LIG d   1       1.889   1.677  -8.966  0.00  0.00     0.028 H 
ATOM     35  H   LIG d   1       2.681   2.568  -7.645  0.00  0.00     0.028 H 
BRANCH  33  36
ATOM     36  C   LIG d   1       3.858   2.411  -9.442  0.00  0.00    -0.054 C 
ATOM     37  H   LIG d   1       3.556   3.413  -9.750  0.00  0.00     0.026 H 
ATOM     38  H   LIG d   1       4.837   2.457  -8.965  0.00  0.00     0.026 H 
BRANCH  36  39
ATOM     39  C   LIG d   1       3.930   1.501 -10.670  0.00  0.00    -0.065 C 
ATOM     40  H   LIG d   1       2.922   1.299 -11.033  0.00  0.00     0.023 H 
ATOM     41  H   LIG d   1       4.505   1.993 -11.453  0.00  0.00     0.023 H 
ATOM     42  H   LIG d   1       4.413   0.562 -10.399  0.00  0.00     0.023 H 
ENDBRANCH  36  39
ENDBRANCH  33  36
ENDBRANCH  30  33
ENDBRANCH   1  30
TORSDOF 5
ENDMDL
MODEL 3
REMARK VINA RESULT:      -5.9      1.929      3.286
REMARK  5 active torsions:
REMARK  status: ('A' for Active; 'I' for Inactive)
REMARK    1  A    between atoms: C_1  and  C_2 
REMARK    2  A    between atoms: C_2  and  C_3 
REMARK    3  A    between atoms: C_3  and  C_4 
REMARK    4  A    between atoms: C_4  and  N_5 
REMARK       I    between atoms: N_5  and  C_6 
REMARK       I    between atoms: C_6  and  N_8 
REMARK    5  A    between atoms: C_13  and  C_15 
ROOT
ATOM      1  N   LIG d   1       4.076  -0.081  -6.683  0.00  0.00    -0.299 N 
ATOM      2  C   LIG d   1       5.096  -0.202  -5.811  0.00  0.00     0.303 C 
ATOM      3  O   LIG d   1       6.185   0.269  -6.078  0.00  0.00    -0.253 OA
ATOM      4  N   LIG d   1       4.911  -0.848  -4.642  0.00  0.00    -0.279 N 
ATOM      5  C   LIG d   1       3.641  -1.531  -4.359  0.00  0.00     0.017 C 
ATOM      6  C   LIG d   1       3.096  -1.023  -3.020  0.00  0.00    -0.037 C 
ATOM      7  C   LIG d   1       4.162  -1.203  -1.937  0.00  0.00    -0.050 C 
ATOM      8  C   LIG d   1       5.402  -0.379  -2.298  0.00  0.00    -0.030 C 
ATOM      9  C   LIG d   1       5.973  -0.881  -3.628  0.00  0.00     0.054 C 
ATOM     10  H   LIG d   1       6.333  -1.903  -3.509  0.00  0.00     0.055 H 
ATOM     11  H   LIG d   1       3.190  -0.391  -6.439  0.00  0.00     0.150 HD
ATOM     12  H   LIG d   1       3.811  -2.606  -4.299  0.00  0.00     0.046 H 
ATOM     13  H   LIG d   1       2.924  -1.315  -5.150  0.00  0.00     0.046 H 
ATOM     14  H   LIG d   1       2.205  -1.591  -2.751  0.00  0.00     0.028 H 
ATOM     15  H   LIG d   1       2.841   0.033  -3.108  0.00  0.00     0.028 H 
ATOM     16  H   LIG d   1       3.769  -0.865  -0.979  0.00  0.00     0.027 H 
ATOM     17  H   LIG d   1       4.435  -2.256  -1.867  0.00  0.00     0.027 H 
ATOM     18  H   LIG d   1       5.126   0.670  -2.393  0.00  0.00     0.029 H 
ATOM     19  H   LIG d   1       6.152  -0.490  -1.515  0.00  0.00     0.029 H 
ENDROOT
BRANCH   9  20
ATOM     20  C   LIG d   1       7.110   0.011  -4.058  0.00  0.00    -0.009 A 
ATOM     21  C   LIG d   1       8.177  -0.509  -4.765  0.00  0.00     0.033 A 
ATOM     22  N   LIG d   1       9.172   0.266  -5.150  0.00  0.00    -0.263 NA
ATOM     23  H   LIG d   1       8.195  -1.560  -5.008  0.00  0.00     0.083 H 
ATOM     24  C   LIG d   1       9.195   1.555  -4.870  0.00  0.00     0.028 A 
ATOM     25  C   LIG d   1       8.164   2.144  -4.163  0.00  0.00    -0.043 A 
ATOM     26  H   LIG d   1      10.029   2.157  -5.200  0.00  0.00     0.083 H 
ATOM     27  C   LIG d   1       7.098   1.362  -3.746  0.00  0.00    -0.054 A 
ATOM     28  H   LIG d   1       8.189   3.200  -3.938  0.00  0.00     0.063 H 
ATOM     29  H   LIG d   1       6.279   1.795  -3.191  0.00  0.00     0.062 H 
ENDBRANCH   9  20
BRANCH   1  30
ATOM     30  C   LIG d   1       4.305   0.522  -7.998  0.00  0.00     0.013 C 
ATOM     31  H   LIG d   1       5.255   1.056  -7.993  0.00  0.00     0.046 H 
ATOM     32  H   LIG d   1       4.332  -0.261  -8.757  0.00  0.00     0.046 H 
BRANCH  30  33
ATOM     33  C   LIG d   1       3.171   1.499  -8.315  0.00  0.00    -0.038 C 
ATOM     34  H   LIG d   1       2.262   0.941  -8.537  0.00  0.00     0.028 H 
ATOM     35  H   LIG d   1       3.000   2.147  -7.456  0.00  0.00     0.028 H 
BRANCH  33  36
ATOM     36  C   LIG d   1       3.556   2.350  -9.527  0.00  0.00    -0.054 C 
ATOM     37  H   LIG d   1       2.723   3.001  -9.793  0.00  0.00     0.026 H 
ATOM     38  H   LIG d   1       4.427   2.958  -9.282  0.00  0.00     0.026 H 
BRANCH  36  39
ATOM     39  C   LIG d   1       3.887   1.436 -10.709  0.00  0.00    -0.065 C 
ATOM     40  H   LIG d   1       3.238   0.561 -10.684  0.00  0.00     0.023 H 
ATOM     41  H   LIG d   1       3.731   1.978 -11.641  0.00  0.00     0.023 H 
ATOM     42  H   LIG d   1       4.928   1.119 -10.642  0.00  0.00     0.023 H 
ENDBRANCH  36  39
ENDBRANCH  33  36
ENDBRANCH  30  33
ENDBRANCH   1  30
TORSDOF 5
ENDMDL
MODEL 4
REMARK VINA RESULT:      -5.5      1.804      5.051
REMARK  5 active torsions:
REMARK  status: ('A' for Active; 'I' for Inactive)
REMARK    1  A    between atoms: C_1  and  C_2 
REMARK    2  A    between atoms: C_2  and  C_3 
REMARK    3  A    between atoms: C_3  and  C_4 
REMARK    4  A    between atoms: C_4  and  N_5 
REMARK       I    between atoms: N_5  and  C_6 
REMARK       I    between atoms: C_6  and  N_8 
REMARK    5  A    between atoms: C_13  and  C_15 
ROOT
ATOM      1  N   LIG d   1       3.745  -0.853  -4.928  0.00  0.00    -0.299 N 
ATOM      2  C   LIG d   1       3.856  -0.644  -6.255  0.00  0.00     0.303 C 
ATOM      3  O   LIG d   1       3.566   0.439  -6.727  0.00  0.00    -0.253 OA
ATOM      4  N   LIG d   1       4.288  -1.635  -7.061  0.00  0.00    -0.279 N 
ATOM      5  C   LIG d   1       4.521  -2.984  -6.527  0.00  0.00     0.017 C 
ATOM      6  C   LIG d   1       5.945  -3.418  -6.891  0.00  0.00    -0.037 C 
ATOM      7  C   LIG d   1       6.141  -3.297  -8.404  0.00  0.00    -0.050 C 
ATOM      8  C   LIG d   1       5.957  -1.837  -8.829  0.00  0.00    -0.030 C 
ATOM      9  C   LIG d   1       4.534  -1.386  -8.487  0.00  0.00     0.054 C 
ATOM     10  H   LIG d   1       3.818  -1.950  -9.085  0.00  0.00     0.055 H 
ATOM     11  H   LIG d   1       4.046  -1.691  -4.544  0.00  0.00     0.150 HD
ATOM     12  H   LIG d   1       3.805  -3.678  -6.965  0.00  0.00     0.046 H 
ATOM     13  H   LIG d   1       4.408  -2.973  -5.443  0.00  0.00     0.046 H 
ATOM     14  H   LIG d   1       6.099  -4.453  -6.586  0.00  0.00     0.028 H 
ATOM     15  H   LIG d   1       6.663  -2.777  -6.379  0.00  0.00     0.028 H 
ATOM     16  H   LIG d   1       7.144  -3.628  -8.668  0.00  0.00     0.027 H 
ATOM     17  H   LIG d   1       5.406  -3.919  -8.916  0.00  0.00     0.027 H 
ATOM     18  H   LIG d   1       6.675  -1.212  -8.299  0.00  0.00     0.029 H 
ATOM     19  H   LIG d   1       6.120  -1.748  -9.903  0.00  0.00     0.029 H 
ENDROOT
BRANCH   9  20
ATOM     20  C   LIG d   1       4.388   0.086  -8.776  0.00  0.00    -0.009 A 
ATOM     21  C   LIG d   1       5.463   0.940  -8.618  0.00  0.00     0.033 A 
ATOM     22  N   LIG d   1       5.345   2.228  -8.874  0.00  0.00    -0.263 NA
ATOM     23  H   LIG d   1       6.411   0.547  -8.284  0.00  0.00     0.083 H 
ATOM     24  C   LIG d   1       4.203   2.752  -9.278  0.00  0.00     0.028 A 
ATOM     25  C   LIG d   1       3.084   1.961  -9.454  0.00  0.00    -0.043 A 
ATOM     26  H   LIG d   1       4.144   3.812  -9.475  0.00  0.00     0.083 H 
ATOM     27  C   LIG d   1       3.172   0.601  -9.200  0.00  0.00    -0.054 A 
ATOM     28  H   LIG d   1       2.153   2.397  -9.785  0.00  0.00     0.063 H 
ATOM     29  H   LIG d   1       2.313  -0.042  -9.328  0.00  0.00     0.062 H 
ENDBRANCH   9  20
BRANCH   1  30
ATOM     30  C   LIG d   1       3.172   0.185  -4.068  0.00  0.00     0.013 C 
ATOM     31  H   LIG d   1       3.649   1.141  -4.284  0.00  0.00     0.046 H 
ATOM     32  H   LIG d   1       2.101   0.262  -4.257  0.00  0.00     0.046 H 
BRANCH  30  33
ATOM     33  C   LIG d   1       3.406  -0.182  -2.602  0.00  0.00    -0.038 C 
ATOM     34  H   LIG d   1       2.446  -0.298  -2.098  0.00  0.00     0.028 H 
ATOM     35  H   LIG d   1       3.961  -1.119  -2.546  0.00  0.00     0.028 H 
BRANCH  33  36
ATOM     36  C   LIG d   1       4.208   0.927  -1.920  0.00  0.00    -0.054 C 
ATOM     37  H   LIG d   1       3.606   1.834  -1.871  0.00  0.00     0.026 H 
ATOM     38  H   LIG d   1       4.477   0.614  -0.911  0.00  0.00     0.026 H 
BRANCH  36  39
ATOM     39  C   LIG d   1       5.481   1.204  -2.724  0.00  0.00    -0.065 C 
ATOM     40  H   LIG d   1       5.238   1.824  -3.587  0.00  0.00     0.023 H 
ATOM     41  H   LIG d   1       6.202   1.725  -2.094  0.00  0.00     0.023 H 
ATOM     42  H   LIG d   1       5.909   0.261  -3.063  0.00  0.00     0.023 H 
ENDBRANCH  36  39
ENDBRANCH  33  36
ENDBRANCH  30  33
ENDBRANCH   1  30
TORSDOF 5
ENDMDL
MODEL 5
REMARK VINA RESULT:      -5.3      2.193      5.626
REMARK  5 active torsions:
REMARK  status: ('A' for Active; 'I' for Inactive)
REMARK    1  A    between atoms: C_1  and  C_2 
REMARK    2  A    between atoms: C_2  and  C_3 
REMARK    3  A    between atoms: C_3  and  C_4 
REMARK    4  A    between atoms: C_4  and  N_5 
REMARK       I    between atoms: N_5  and  C_6 
REMARK       I    between atoms: C_6  and  N_8 
REMARK    5  A    between atoms: C_13  and  C_15 
ROOT
ATOM      1  N   LIG d   1       4.057  -4.197  -5.691  0.00  0.00    -0.299 N 
ATOM      2  C   LIG d   1       4.300  -2.883  -5.861  0.00  0.00     0.303 C 
ATOM      3  O   LIG d   1       4.308  -2.405  -6.980  0.00  0.00    -0.253 OA
ATOM      4  N   LIG d   1       4.536  -2.096  -4.792  0.00  0.00    -0.279 N 
ATOM      5  C   LIG d   1       4.655  -2.678  -3.448  0.00  0.00     0.017 C 
ATOM      6  C   LIG d   1       3.679  -1.958  -2.511  0.00  0.00    -0.037 C 
ATOM      7  C   LIG d   1       3.939  -0.451  -2.570  0.00  0.00    -0.050 C 
ATOM      8  C   LIG d   1       3.702   0.054  -3.996  0.00  0.00    -0.030 C 
ATOM      9  C   LIG d   1       4.678  -0.642  -4.949  0.00  0.00     0.054 C 
ATOM     10  H   LIG d   1       5.699  -0.347  -4.707  0.00  0.00     0.055 H 
ATOM     11  H   LIG d   1       3.978  -4.563  -4.796  0.00  0.00     0.150 HD
ATOM     12  H   LIG d   1       5.674  -2.548  -3.083  0.00  0.00     0.046 H 
ATOM     13  H   LIG d   1       4.410  -3.739  -3.485  0.00  0.00     0.046 H 
ATOM     14  H   LIG d   1       3.826  -2.313  -1.491  0.00  0.00     0.028 H 
ATOM     15  H   LIG d   1       2.656  -2.163  -2.824  0.00  0.00     0.028 H 
ATOM     16  H   LIG d   1       3.263   0.061  -1.886  0.00  0.00     0.027 H 
ATOM     17  H   LIG d   1       4.971  -0.249  -2.280  0.00  0.00     0.027 H 
ATOM     18  H   LIG d   1       2.678  -0.170  -4.295  0.00  0.00     0.029 H 
ATOM     19  H   LIG d   1       3.864   1.132  -4.032  0.00  0.00     0.029 H 
ENDROOT
BRANCH   9  20
ATOM     20  C   LIG d   1       4.360  -0.254  -6.370  0.00  0.00    -0.009 A 
ATOM     21  C   LIG d   1       5.373  -0.118  -7.300  0.00  0.00     0.033 A 
ATOM     22  N   LIG d   1       5.103   0.215  -8.547  0.00  0.00    -0.263 NA
ATOM     23  H   LIG d   1       6.396  -0.290  -7.004  0.00  0.00     0.083 H 
ATOM     24  C   LIG d   1       3.868   0.441  -8.952  0.00  0.00     0.028 A 
ATOM     25  C   LIG d   1       2.805   0.329  -8.076  0.00  0.00    -0.043 A 
ATOM     26  H   LIG d   1       3.686   0.716  -9.981  0.00  0.00     0.083 H 
ATOM     27  C   LIG d   1       3.049  -0.025  -6.759  0.00  0.00    -0.054 A 
ATOM     28  H   LIG d   1       1.796   0.515  -8.415  0.00  0.00     0.063 H 
ATOM     29  H   LIG d   1       2.238  -0.120  -6.052  0.00  0.00     0.062 H 
ENDBRANCH   9  20
BRANCH   1  30
ATOM     30  C   LIG d   1       3.911  -5.072  -6.857  0.00  0.00     0.013 C 
ATOM     31  H   LIG d   1       3.015  -5.683  -6.743  0.00  0.00     0.046 H 
ATOM     32  H   LIG d   1       3.825  -4.465  -7.758  0.00  0.00     0.046 H 
BRANCH  30  33
ATOM     33  C   LIG d   1       5.137  -5.980  -6.969  0.00  0.00    -0.038 C 
ATOM     34  H   LIG d   1       4.918  -6.805  -7.647  0.00  0.00     0.028 H 
ATOM     35  H   LIG d   1       5.979  -5.406  -7.355  0.00  0.00     0.028 H 
BRANCH  33  36
ATOM     36  C   LIG d   1       5.489  -6.535  -5.587  0.00  0.00    -0.054 C 
ATOM     37  H   LIG d   1       6.572  -6.537  -5.461  0.00  0.00     0.026 H 
ATOM     38  H   LIG d   1       5.035  -5.910  -4.818  0.00  0.00     0.026 H 
BRANCH  36  39
ATOM     39  C   LIG d   1       4.959  -7.966  -5.462  0.00  0.00    -0.065 C 
ATOM     40  H   LIG d   1       4.172  -8.127  -6.198  0.00  0.00     0.023 H 
ATOM     41  H   LIG d   1       5.771  -8.670  -5.637  0.00  0.00     0.023 H 
ATOM     42  H   LIG d   1       4.556  -8.117  -4.460  0.00  0.00     0.023 H 
ENDBRANCH  36  39
ENDBRANCH  33  36
ENDBRANCH  30  33
ENDBRANCH   1  30
TORSDOF 5
ENDMDL
MODEL 6
REMARK VINA RESULT:      -5.2      2.271      4.555
REMARK  5 active torsions:
REMARK  status: ('A' for Active; 'I' for Inactive)
REMARK    1  A    between atoms: C_1  and  C_2 
REMARK    2  A    between atoms: C_2  and  C_3 
REMARK    3  A    between atoms: C_3  and  C_4 
REMARK    4  A    between atoms: C_4  and  N_5 
REMARK       I    between atoms: N_5  and  C_6 
REMARK       I    between atoms: C_6  and  N_8 
REMARK    5  A    between atoms: C_13  and  C_15 
ROOT
ATOM      1  N   LIG d   1       7.418   0.470  -6.315  0.00  0.00    -0.299 N 
ATOM      2  C   LIG d   1       6.307  -0.041  -5.748  0.00  0.00     0.303 C 
ATOM      3  O   LIG d   1       6.291  -0.293  -4.558  0.00  0.00    -0.253 OA
ATOM      4  N   LIG d   1       5.213  -0.275  -6.500  0.00  0.00    -0.279 N 
ATOM      5  C   LIG d   1       5.255  -0.097  -7.958  0.00  0.00     0.017 C 
ATOM      6  C   LIG d   1       4.117   0.841  -8.373  0.00  0.00    -0.037 C 
ATOM      7  C   LIG d   1       2.790   0.292  -7.844  0.00  0.00    -0.050 C 
ATOM      8  C   LIG d   1       2.833   0.232  -6.315  0.00  0.00    -0.030 C 
ATOM      9  C   LIG d   1       3.956  -0.713  -5.877  0.00  0.00     0.054 C 
ATOM     10  H   LIG d   1       3.725  -1.729  -6.197  0.00  0.00     0.055 H 
ATOM     11  H   LIG d   1       7.406   0.739  -7.246  0.00  0.00     0.150 HD
ATOM     12  H   LIG d   1       5.129  -1.063  -8.447  0.00  0.00     0.046 H 
ATOM     13  H   LIG d   1       6.211   0.339  -8.245  0.00  0.00     0.046 H 
ATOM     14  H   LIG d   1       4.077   0.905  -9.460  0.00  0.00     0.028 H 
ATOM     15  H   LIG d   1       4.292   1.832  -7.956  0.00  0.00     0.028 H 
ATOM     16  H   LIG d   1       1.976   0.944  -8.158  0.00  0.00     0.027 H 
ATOM     17  H   LIG d   1       2.627  -0.710  -8.242  0.00  0.00     0.027 H 
ATOM     18  H   LIG d   1       3.020   1.229  -5.917  0.00  0.00     0.029 H 
ATOM     19  H   LIG d   1       1.879  -0.138  -5.938  0.00  0.00     0.029 H 
ENDROOT
BRANCH   9  20
ATOM     20  C   LIG d   1       4.095  -0.673  -4.376  0.00  0.00    -0.009 A 
ATOM     21  C   LIG d   1       4.422  -1.816  -3.673  0.00  0.00     0.033 A 
ATOM     22  N   LIG d   1       4.552  -1.787  -2.361  0.00  0.00    -0.263 NA
ATOM     23  H   LIG d   1       4.578  -2.743  -4.204  0.00  0.00     0.083 H 
ATOM     24  C   LIG d   1       4.365  -0.679  -1.671  0.00  0.00     0.028 A 
ATOM     25  C   LIG d   1       4.030   0.502  -2.306  0.00  0.00    -0.043 A 
ATOM     26  H   LIG d   1       4.476  -0.695  -0.597  0.00  0.00     0.083 H 
ATOM     27  C   LIG d   1       3.891   0.512  -3.685  0.00  0.00    -0.054 A 
ATOM     28  H   LIG d   1       3.879   1.406  -1.734  0.00  0.00     0.063 H 
ATOM     29  H   LIG d   1       3.631   1.420  -4.208  0.00  0.00     0.062 H 
ENDBRANCH   9  20
BRANCH   1  30
ATOM     30  C   LIG d   1       8.641   0.621  -5.523  0.00  0.00     0.013 C 
ATOM     31  H   LIG d   1       8.543   0.063  -4.592  0.00  0.00     0.046 H 
ATOM     32  H   LIG d   1       9.489   0.236  -6.089  0.00  0.00     0.046 H 
BRANCH  30  33
ATOM     33  C   LIG d   1       8.866   2.101  -5.210  0.00  0.00    -0.038 C 
ATOM     34  H   LIG d   1       9.864   2.394  -5.538  0.00  0.00     0.028 H 
ATOM     35  H   LIG d   1       8.121   2.700  -5.733  0.00  0.00     0.028 H 
BRANCH  33  36
ATOM     36  C   LIG d   1       8.737   2.329  -3.703  0.00  0.00    -0.054 C 
ATOM     37  H   LIG d   1       7.697   2.541  -3.455  0.00  0.00     0.026 H 
ATOM     38  H   LIG d   1       9.062   1.435  -3.171  0.00  0.00     0.026 H 
BRANCH  36  39
ATOM     39  C   LIG d   1       9.612   3.515  -3.290  0.00  0.00    -0.065 C 
ATOM     40  H   LIG d   1       9.298   3.874  -2.309  0.00  0.00     0.023 H 
ATOM     41  H   LIG d   1      10.654   3.199  -3.244  0.00  0.00     0.023 H 
ATOM     42  H   LIG d   1       9.507   4.317  -4.020  0.00  0.00     0.023 H 
ENDBRANCH  36  39
ENDBRANCH  33  36
ENDBRANCH  30  33
ENDBRANCH   1  30
TORSDOF 5
ENDMDL
MODEL 7
REMARK VINA RESULT:      -5.2      2.229      5.991
REMARK  5 active torsions:
REMARK  status: ('A' for Active; 'I' for Inactive)
REMARK    1  A    between atoms: C_1  and  C_2 
REMARK    2  A    between atoms: C_2  and  C_3 
REMARK    3  A    between atoms: C_3  and  C_4 
REMARK    4  A    between atoms: C_4  and  N_5 
REMARK       I    between atoms: N_5  and  C_6 
REMARK       I    between atoms: C_6  and  N_8 
REMARK    5  A    between atoms: C_13  and  C_15 
ROOT
ATOM      1  N   LIG d   1       4.479  -1.538  -4.576  0.00  0.00    -0.299 N 
ATOM      2  C   LIG d   1       4.669  -2.231  -5.716  0.00  0.00     0.303 C 
ATOM      3  O   LIG d   1       5.100  -3.368  -5.673  0.00  0.00    -0.253 OA
ATOM      4  N   LIG d   1       4.382  -1.665  -6.905  0.00  0.00    -0.279 N 
ATOM      5  C   LIG d   1       3.982  -0.253  -6.984  0.00  0.00     0.017 C 
ATOM      6  C   LIG d   1       2.655  -0.158  -7.744  0.00  0.00    -0.037 C 
ATOM      7  C   LIG d   1       2.800  -0.847  -9.102  0.00  0.00    -0.050 C 
ATOM      8  C   LIG d   1       3.132  -2.327  -8.893  0.00  0.00    -0.030 C 
ATOM      9  C   LIG d   1       4.464  -2.446  -8.146  0.00  0.00     0.054 C 
ATOM     10  H   LIG d   1       5.269  -2.058  -8.770  0.00  0.00     0.055 H 
ATOM     11  H   LIG d   1       4.067  -0.661  -4.605  0.00  0.00     0.150 HD
ATOM     12  H   LIG d   1       4.748   0.314  -7.513  0.00  0.00     0.046 H 
ATOM     13  H   LIG d   1       3.857   0.148  -5.978  0.00  0.00     0.046 H 
ATOM     14  H   LIG d   1       2.396   0.890  -7.894  0.00  0.00     0.028 H 
ATOM     15  H   LIG d   1       1.871  -0.648  -7.169  0.00  0.00     0.028 H 
ATOM     16  H   LIG d   1       1.865  -0.760  -9.655  0.00  0.00     0.027 H 
ATOM     17  H   LIG d   1       3.602  -0.372  -9.668  0.00  0.00     0.027 H 
ATOM     18  H   LIG d   1       2.342  -2.797  -8.307  0.00  0.00     0.029 H 
ATOM     19  H   LIG d   1       3.211  -2.823  -9.861  0.00  0.00     0.029 H 
ENDROOT
BRANCH   9  20
ATOM     20  C   LIG d   1       4.730  -3.893  -7.815  0.00  0.00    -0.009 A 
ATOM     21  C   LIG d   1       3.693  -4.728  -7.448  0.00  0.00     0.033 A 
ATOM     22  N   LIG d   1       3.917  -5.996  -7.164  0.00  0.00    -0.263 NA
ATOM     23  H   LIG d   1       2.687  -4.340  -7.398  0.00  0.00     0.083 H 
ATOM     24  C   LIG d   1       5.131  -6.512  -7.206  0.00  0.00     0.028 A 
ATOM     25  C   LIG d   1       6.217  -5.735  -7.560  0.00  0.00    -0.043 A 
ATOM     26  H   LIG d   1       5.276  -7.554  -6.962  0.00  0.00     0.083 H 
ATOM     27  C   LIG d   1       6.020  -4.399  -7.872  0.00  0.00    -0.054 A 
ATOM     28  H   LIG d   1       7.208  -6.165  -7.593  0.00  0.00     0.063 H 
ATOM     29  H   LIG d   1       6.851  -3.769  -8.151  0.00  0.00     0.062 H 
ENDBRANCH   9  20
BRANCH   1  30
ATOM     30  C   LIG d   1       4.893  -2.111  -3.293  0.00  0.00     0.013 C 
ATOM     31  H   LIG d   1       4.797  -3.197  -3.331  0.00  0.00     0.046 H 
ATOM     32  H   LIG d   1       5.931  -1.845  -3.095  0.00  0.00     0.046 H 
BRANCH  30  33
ATOM     33  C   LIG d   1       4.004  -1.559  -2.177  0.00  0.00    -0.038 C 
ATOM     34  H   LIG d   1       3.102  -2.167  -2.097  0.00  0.00     0.028 H 
ATOM     35  H   LIG d   1       4.547  -1.588  -1.233  0.00  0.00     0.028 H 
BRANCH  33  36
ATOM     36  C   LIG d   1       3.619  -0.115  -2.500  0.00  0.00    -0.054 C 
ATOM     37  H   LIG d   1       3.729   0.061  -3.570  0.00  0.00     0.026 H 
ATOM     38  H   LIG d   1       2.583   0.059  -2.209  0.00  0.00     0.026 H 
BRANCH  36  39
ATOM     39  C   LIG d   1       4.533   0.842  -1.730  0.00  0.00    -0.065 C 
ATOM     40  H   LIG d   1       5.113   0.279  -0.998  0.00  0.00     0.023 H 
ATOM     41  H   LIG d   1       5.209   1.337  -2.426  0.00  0.00     0.023 H 
ATOM     42  H   LIG d   1       3.928   1.588  -1.216  0.00  0.00     0.023 H 
ENDBRANCH  36  39
ENDBRANCH  33  36
ENDBRANCH  30  33
ENDBRANCH   1  30
TORSDOF 5
ENDMDL
MODEL 8
REMARK VINA RESULT:      -5.0      2.565      6.093
REMARK  5 active torsions:
REMARK  status: ('A' for Active; 'I' for Inactive)
REMARK    1  A    between atoms: C_1  and  C_2 
REMARK    2  A    between atoms: C_2  and  C_3 
REMARK    3  A    between atoms: C_3  and  C_4 
REMARK    4  A    between atoms: C_4  and  N_5 
REMARK       I    between atoms: N_5  and  C_6 
REMARK       I    between atoms: C_6  and  N_8 
REMARK    5  A    between atoms: C_13  and  C_15 
ROOT
ATOM      1  N   LIG d   1       3.677  -0.710  -6.348  0.00  0.00    -0.299 N 
ATOM      2  C   LIG d   1       4.149  -0.033  -7.413  0.00  0.00     0.303 C 
ATOM      3  O   LIG d   1       5.246   0.489  -7.365  0.00  0.00    -0.253 OA
ATOM      4  N   LIG d   1       3.404   0.068  -8.532  0.00  0.00    -0.279 N 
ATOM      5  C   LIG d   1       2.028  -0.447  -8.563  0.00  0.00     0.017 C 
ATOM      6  C   LIG d   1       1.887  -1.405  -9.751  0.00  0.00    -0.037 C 
ATOM      7  C   LIG d   1       2.321  -0.690 -11.032  0.00  0.00    -0.050 C 
ATOM      8  C   LIG d   1       3.791  -0.278 -10.916  0.00  0.00    -0.030 C 
ATOM      9  C   LIG d   1       3.953   0.693  -9.743  0.00  0.00     0.054 C 
ATOM     10  H   LIG d   1       3.413   1.615  -9.954  0.00  0.00     0.055 H 
ATOM     11  H   LIG d   1       2.835  -1.188  -6.411  0.00  0.00     0.150 HD
ATOM     12  H   LIG d   1       1.331   0.383  -8.679  0.00  0.00     0.046 H 
ATOM     13  H   LIG d   1       1.816  -0.979  -7.637  0.00  0.00     0.046 H 
ATOM     14  H   LIG d   1       0.847  -1.718  -9.843  0.00  0.00     0.028 H 
ATOM     15  H   LIG d   1       2.517  -2.279  -9.590  0.00  0.00     0.028 H 
ATOM     16  H   LIG d   1       2.198  -1.361 -11.882  0.00  0.00     0.027 H 
ATOM     17  H   LIG d   1       1.706   0.198 -11.179  0.00  0.00     0.027 H 
ATOM     18  H   LIG d   1       4.404  -1.163 -10.745  0.00  0.00     0.029 H 
ATOM     19  H   LIG d   1       4.106   0.210 -11.839  0.00  0.00     0.029 H 
ENDROOT
BRANCH   9  20
ATOM     20  C   LIG d   1       5.415   0.996  -9.536  0.00  0.00    -0.009 A 
ATOM     21  C   LIG d   1       5.820   2.262  -9.158  0.00  0.00     0.033 A 
ATOM     22  N   LIG d   1       7.097   2.533  -8.969  0.00  0.00    -0.263 NA
ATOM     23  H   LIG d   1       5.083   3.036  -9.011  0.00  0.00     0.083 H 
ATOM     24  C   LIG d   1       8.032   1.620  -9.142  0.00  0.00     0.028 A 
ATOM     25  C   LIG d   1       7.703   0.334  -9.525  0.00  0.00    -0.043 A 
ATOM     26  H   LIG d   1       9.068   1.880  -8.982  0.00  0.00     0.083 H 
ATOM     27  C   LIG d   1       6.370   0.009  -9.728  0.00  0.00    -0.054 A 
ATOM     28  H   LIG d   1       8.475  -0.410  -9.665  0.00  0.00     0.063 H 
ATOM     29  H   LIG d   1       6.084  -0.988 -10.028  0.00  0.00     0.062 H 
ENDBRANCH   9  20
BRANCH   1  30
ATOM     30  C   LIG d   1       4.435  -0.726  -5.095  0.00  0.00     0.013 C 
ATOM     31  H   LIG d   1       5.443  -0.351  -5.275  0.00  0.00     0.046 H 
ATOM     32  H   LIG d   1       3.938  -0.093  -4.360  0.00  0.00     0.046 H 
BRANCH  30  33
ATOM     33  C   LIG d   1       4.512  -2.159  -4.563  0.00  0.00    -0.038 C 
ATOM     34  H   LIG d   1       3.837  -2.795  -5.136  0.00  0.00     0.028 H 
ATOM     35  H   LIG d   1       5.532  -2.528  -4.662  0.00  0.00     0.028 H 
BRANCH  33  36
ATOM     36  C   LIG d   1       4.104  -2.178  -3.089  0.00  0.00    -0.054 C 
ATOM     37  H   LIG d   1       3.130  -2.657  -2.988  0.00  0.00     0.026 H 
ATOM     38  H   LIG d   1       4.843  -2.736  -2.514  0.00  0.00     0.026 H 
BRANCH  36  39
ATOM     39  C   LIG d   1       4.023  -0.743  -2.563  0.00  0.00    -0.065 C 
ATOM     40  H   LIG d   1       4.817  -0.579  -1.834  0.00  0.00     0.023 H 
ATOM     41  H   LIG d   1       4.140  -0.046  -3.391  0.00  0.00     0.023 H 
ATOM     42  H   LIG d   1       3.056  -0.585  -2.087  0.00  0.00     0.023 H 
ENDBRANCH  36  39
ENDBRANCH  33  36
ENDBRANCH  30  33
ENDBRANCH   1  30
TORSDOF 5
ENDMDL
MODEL 9
REMARK VINA RESULT:      -4.9      2.995      5.272
REMARK  5 active torsions:
REMARK  status: ('A' for Active; 'I' for Inactive)
REMARK    1  A    between atoms: C_1  and  C_2 
REMARK    2  A    between atoms: C_2  and  C_3 
REMARK    3  A    between atoms: C_3  and  C_4 
REMARK    4  A    between atoms: C_4  and  N_5 
REMARK       I    between atoms: N_5  and  C_6 
REMARK       I    between atoms: C_6  and  N_8 
REMARK    5  A    between atoms: C_13  and  C_15 
ROOT
ATOM      1  N   LIG d   1       4.244  -3.456  -4.977  0.00  0.00    -0.299 N 
ATOM      2  C   LIG d   1       5.266  -2.628  -4.682  0.00  0.00     0.303 C 
ATOM      3  O   LIG d   1       6.229  -2.563  -5.422  0.00  0.00    -0.253 OA
ATOM      4  N   LIG d   1       5.223  -1.873  -3.567  0.00  0.00    -0.279 N 
ATOM      5  C   LIG d   1       4.128  -2.032  -2.598  0.00  0.00     0.017 C 
ATOM      6  C   LIG d   1       3.486  -0.662  -2.351  0.00  0.00    -0.037 C 
ATOM      7  C   LIG d   1       4.566   0.334  -1.923  0.00  0.00    -0.050 C 
ATOM      8  C   LIG d   1       5.601   0.480  -3.042  0.00  0.00    -0.030 C 
ATOM      9  C   LIG d   1       6.267  -0.876  -3.296  0.00  0.00     0.054 C 
ATOM     10  H   LIG d   1       6.837  -1.174  -2.416  0.00  0.00     0.055 H 
ATOM     11  H   LIG d   1       3.445  -3.453  -4.427  0.00  0.00     0.150 HD
ATOM     12  H   LIG d   1       4.524  -2.424  -1.662  0.00  0.00     0.046 H 
ATOM     13  H   LIG d   1       3.383  -2.718  -2.999  0.00  0.00     0.046 H 
ATOM     14  H   LIG d   1       2.738  -0.749  -1.564  0.00  0.00     0.028 H 
ATOM     15  H   LIG d   1       3.012  -0.312  -3.268  0.00  0.00     0.028 H 
ATOM     16  H   LIG d   1       4.109   1.302  -1.723  0.00  0.00     0.027 H 
ATOM     17  H   LIG d   1       5.058  -0.030  -1.020  0.00  0.00     0.027 H 
ATOM     18  H   LIG d   1       5.107   0.820  -3.951  0.00  0.00     0.029 H 
ATOM     19  H   LIG d   1       6.358   1.207  -2.745  0.00  0.00     0.029 H 
ENDROOT
BRANCH   9  20
ATOM     20  C   LIG d   1       7.187  -0.772  -4.486  0.00  0.00    -0.009 A 
ATOM     21  C   LIG d   1       8.352  -1.513  -4.535  0.00  0.00     0.033 A 
ATOM     22  N   LIG d   1       9.158  -1.432  -5.576  0.00  0.00    -0.263 NA
ATOM     23  H   LIG d   1       8.603  -2.168  -3.716  0.00  0.00     0.083 H 
ATOM     24  C   LIG d   1       8.895  -0.640  -6.597  0.00  0.00     0.028 A 
ATOM     25  C   LIG d   1       7.750   0.134  -6.615  0.00  0.00    -0.043 A 
ATOM     26  H   LIG d   1       9.581  -0.598  -7.430  0.00  0.00     0.083 H 
ATOM     27  C   LIG d   1       6.876   0.071  -5.541  0.00  0.00    -0.054 A 
ATOM     28  H   LIG d   1       7.541   0.780  -7.455  0.00  0.00     0.063 H 
ATOM     29  H   LIG d   1       5.974   0.665  -5.528  0.00  0.00     0.062 H 
ENDBRANCH   9  20
BRANCH   1  30
ATOM     30  C   LIG d   1       4.340  -4.357  -6.127  0.00  0.00     0.013 C 
ATOM     31  H   LIG d   1       3.406  -4.330  -6.689  0.00  0.00     0.046 H 
ATOM     32  H   LIG d   1       5.160  -4.039  -6.771  0.00  0.00     0.046 H 
BRANCH  30  33
ATOM     33  C   LIG d   1       4.599  -5.783  -5.638  0.00  0.00    -0.038 C 
ATOM     34  H   LIG d   1       5.572  -5.827  -5.147  0.00  0.00     0.028 H 
ATOM     35  H   LIG d   1       3.822  -6.071  -4.931  0.00  0.00     0.028 H 
BRANCH  33  36
ATOM     36  C   LIG d   1       4.585  -6.741  -6.830  0.00  0.00    -0.054 C 
ATOM     37  H   LIG d   1       4.649  -7.769  -6.471  0.00  0.00     0.026 H 
ATOM     38  H   LIG d   1       3.660  -6.610  -7.391  0.00  0.00     0.026 H 
BRANCH  36  39
ATOM     39  C   LIG d   1       5.780  -6.444  -7.739  0.00  0.00    -0.065 C 
ATOM     40  H   LIG d   1       5.645  -6.951  -8.694  0.00  0.00     0.023 H 
ATOM     41  H   LIG d   1       5.852  -5.370  -7.904  0.00  0.00     0.023 H 
ATOM     42  H   LIG d   1       6.694  -6.801  -7.265  0.00  0.00     0.023 H 
ENDBRANCH  36  39
ENDBRANCH  33  36
ENDBRANCH  30  33
ENDBRANCH   1  30
TORSDOF 5
ENDMDL
MODEL 10
REMARK VINA RESULT:      -4.8      2.321      5.621
REMARK  5 active torsions:
REMARK  status: ('A' for Active; 'I' for Inactive)
REMARK    1  A    between atoms: C_1  and  C_2 
REMARK    2  A    between atoms: C_2  and  C_3 
REMARK    3  A    between atoms: C_3  and  C_4 
REMARK    4  A    between atoms: C_4  and  N_5 
REMARK       I    between atoms: N_5  and  C_6 
REMARK       I    between atoms: C_6  and  N_8 
REMARK    5  A    between atoms: C_13  and  C_15 
ROOT
ATOM      1  N   LIG d   1       7.886  -3.558  -4.301  0.00  0.00    -0.299 N 
ATOM      2  C   LIG d   1       6.741  -2.855  -4.197  0.00  0.00     0.303 C 
ATOM      3  O   LIG d   1       6.574  -2.100  -3.258  0.00  0.00    -0.253 OA
ATOM      4  N   LIG d   1       5.779  -2.989  -5.132  0.00  0.00    -0.279 N 
ATOM      5  C   LIG d   1       5.911  -3.989  -6.201  0.00  0.00     0.017 C 
ATOM      6  C   LIG d   1       5.736  -3.290  -7.553  0.00  0.00    -0.037 C 
ATOM      7  C   LIG d   1       4.409  -2.529  -7.562  0.00  0.00    -0.050 C 
ATOM      8  C   LIG d   1       4.422  -1.461  -6.465  0.00  0.00    -0.030 C 
ATOM      9  C   LIG d   1       4.581  -2.140  -5.101  0.00  0.00     0.054 C 
ATOM     10  H   LIG d   1       3.704  -2.753  -4.893  0.00  0.00     0.055 H 
ATOM     11  H   LIG d   1       8.050  -4.103  -5.086  0.00  0.00     0.150 HD
ATOM     12  H   LIG d   1       5.142  -4.752  -6.083  0.00  0.00     0.046 H 
ATOM     13  H   LIG d   1       6.897  -4.449  -6.152  0.00  0.00     0.046 H 
ATOM     14  H   LIG d   1       5.735  -4.034  -8.349  0.00  0.00     0.028 H 
ATOM     15  H   LIG d   1       6.557  -2.591  -7.710  0.00  0.00     0.028 H 
ATOM     16  H   LIG d   1       4.270  -2.051  -8.531  0.00  0.00     0.027 H 
ATOM     17  H   LIG d   1       3.589  -3.225  -7.381  0.00  0.00     0.027 H 
ATOM     18  H   LIG d   1       5.255  -0.779  -6.632  0.00  0.00     0.029 H 
ATOM     19  H   LIG d   1       3.485  -0.904  -6.487  0.00  0.00     0.029 H 
ENDROOT
BRANCH   9  20
ATOM     20  C   LIG d   1       4.733  -1.091  -4.029  0.00  0.00    -0.009 A 
ATOM     21  C   LIG d   1       5.437   0.071  -4.283  0.00  0.00     0.033 A 
ATOM     22  N   LIG d   1       5.569   0.996  -3.353  0.00  0.00    -0.263 NA
ATOM     23  H   LIG d   1       5.879   0.225  -5.255  0.00  0.00     0.083 H 
ATOM     24  C   LIG d   1       5.049   0.848  -2.149  0.00  0.00     0.028 A 
ATOM     25  C   LIG d   1       4.337  -0.290  -1.821  0.00  0.00    -0.043 A 
ATOM     26  H   LIG d   1       5.181   1.626  -1.412  0.00  0.00     0.083 H 
ATOM     27  C   LIG d   1       4.173  -1.282  -2.775  0.00  0.00    -0.054 A 
ATOM     28  H   LIG d   1       3.915  -0.405  -0.834  0.00  0.00     0.063 H 
ATOM     29  H   LIG d   1       3.621  -2.182  -2.547  0.00  0.00     0.062 H 
ENDBRANCH   9  20
BRANCH   1  30
ATOM     30  C   LIG d   1       8.884  -3.496  -3.230  0.00  0.00     0.013 C 
ATOM     31  H   LIG d   1       9.519  -2.622  -3.374  0.00  0.00     0.046 H 
ATOM     32  H   LIG d   1       8.379  -3.424  -2.267  0.00  0.00     0.046 H 
BRANCH  30  33
ATOM     33  C   LIG d   1       9.743  -4.761  -3.261  0.00  0.00    -0.038 C 
ATOM     34  H   LIG d   1       9.313  -5.476  -3.963  0.00  0.00     0.028 H 
ATOM     35  H   LIG d   1      10.755  -4.505  -3.576  0.00  0.00     0.028 H 
BRANCH  33  36
ATOM     36  C   LIG d   1       9.787  -5.383  -1.864  0.00  0.00    -0.054 C 
ATOM     37  H   LIG d   1      10.713  -5.093  -1.366  0.00  0.00     0.026 H 
ATOM     38  H   LIG d   1       8.936  -5.028  -1.282  0.00  0.00     0.026 H 
BRANCH  36  39
ATOM     39  C   LIG d   1       9.726  -6.908  -1.981  0.00  0.00    -0.065 C 
ATOM     40  H   LIG d   1       8.946  -7.291  -1.323  0.00  0.00     0.023 H 
ATOM     41  H   LIG d   1       9.501  -7.183  -3.010  0.00  0.00     0.023 H 
ATOM     42  H   LIG d   1      10.686  -7.333  -1.692  0.00  0.00     0.023 H 
ENDBRANCH  36  39
ENDBRANCH  33  36
ENDBRANCH  30  33
ENDBRANCH   1  30
TORSDOF 5
ENDMDL
