MODEL 1
REMARK VINA RESULT:      -5.8      0.000      0.000
REMARK  5 active torsions:
REMARK  status: ('A' for Active; 'I' for Inactive)
REMARK    1  A    between atoms: C_1  and  C_2 
REMARK    2  A    between atoms: C_7  and  C_15 
REMARK    3  A    between atoms: N_10  and  N_11 
REMARK       I    between atoms: N_11  and  C_12 
REMARK       I    between atoms: C_12  and  N_14 
REMARK    4  A    between atoms: C_15  and  C_16 
REMARK    5  A    between atoms: C_15  and  C_17 
ROOT
ATOM      1  C   LIG d   1       3.231   0.292  -3.064  0.00  0.00    -0.001 C 
ATOM      2  H   LIG d   1       2.200   0.224  -2.718  0.00  0.00     0.036 H 
ATOM      3  C   LIG d   1       4.097  -0.793  -2.390  0.00  0.00    -0.026 A 
ATOM      4  H   LIG d   1       4.395  -0.628  -1.354  0.00  0.00     0.031 H 
ATOM      5  C   LIG d   1       4.012  -2.223  -2.927  0.00  0.00    -0.043 A 
ATOM      6  C   LIG d   1       5.087  -1.276  -3.465  0.00  0.00    -0.018 A 
ATOM      7  C   LIG d   1       4.768  -0.459  -4.736  0.00  0.00    -0.006 C 
ATOM      8  C   LIG d   1       3.317  -0.028  -4.552  0.00  0.00     0.041 C 
ATOM      9  N   LIG d   1       2.394   0.049  -5.435  0.00  0.00    -0.188 NA
ATOM     10  H   LIG d   1       4.336  -3.028  -2.268  0.00  0.00     0.027 H 
ATOM     11  H   LIG d   1       3.178  -2.463  -3.586  0.00  0.00     0.027 H 
ATOM     12  H   LIG d   1       4.872  -1.081  -5.625  0.00  0.00     0.033 H 
ATOM     13  H   LIG d   1       5.420   0.411  -4.801  0.00  0.00     0.033 H 
ENDROOT
BRANCH   6  14
ATOM     14  C   LIG d   1       6.557  -1.544  -3.136  0.00  0.00    -0.040 C 
ATOM     15  H   LIG d   1       6.667  -1.692  -2.061  0.00  0.00     0.030 H 
BRANCH  14  16
ATOM     16  C   LIG d   1       7.024  -2.799  -3.875  0.00  0.00    -0.062 C 
ATOM     17  H   LIG d   1       8.113  -2.835  -3.878  0.00  0.00     0.023 H 
ATOM     18  H   LIG d   1       6.632  -3.683  -3.374  0.00  0.00     0.023 H 
ATOM     19  H   LIG d   1       6.659  -2.773  -4.902  0.00  0.00     0.023 H 
ENDBRANCH  14  16
BRANCH  14  20
ATOM     20  C   LIG d   1       7.404  -0.347  -3.575  0.00  0.00    -0.062 C 
ATOM     21  H   LIG d   1       7.214   0.495  -2.911  0.00  0.00     0.023 H 
ATOM     22  H   LIG d   1       8.460  -0.614  -3.530  0.00  0.00     0.023 H 
ATOM     23  H   LIG d   1       7.142  -0.073  -4.596  0.00  0.00     0.023 H 
ENDBRANCH  14  20
ENDBRANCH   6  14
BRANCH   1  24
ATOM     24  C   LIG d   1       3.802   1.683  -2.781  0.00  0.00    -0.057 C 
ATOM     25  H   LIG d   1       4.883   1.668  -2.920  0.00  0.00     0.024 H 
ATOM     26  H   LIG d   1       3.357   2.404  -3.467  0.00  0.00     0.024 H 
ATOM     27  H   LIG d   1       3.571   1.968  -1.755  0.00  0.00     0.024 H 
ENDBRANCH   1  24
BRANCH   9  28
ATOM     28  N   LIG d   1       2.668  -0.291  -6.767  0.00  0.00    -0.191 N 
ATOM     29  C   LIG d   1       2.860   0.679  -7.684  0.00  0.00     0.317 C 
ATOM     30  O   LIG d   1       3.098   0.385  -8.839  0.00  0.00    -0.251 OA
ATOM     31  N   LIG d   1       2.787   1.975  -7.320  0.00  0.00    -0.312 N 
ATOM     32  H   LIG d   1       2.597   2.210  -6.398  0.00  0.00     0.146 HD
ATOM     33  H   LIG d   1       2.925   2.672  -7.980  0.00  0.00     0.146 HD
ATOM     34  H   LIG d   1       2.720  -1.222  -7.029  0.00  0.00     0.179 HD
ENDBRANCH   9  28
TORSDOF 5
ENDMDL
MODEL 2
REMARK VINA RESULT:      -5.3      3.579      4.944
REMARK  5 active torsions:
REMARK  status: ('A' for Active; 'I' for Inactive)
REMARK    1  A    between atoms: C_1  and  C_2 
REMARK    2  A    between atoms: C_7  and  C_15 
REMARK    3  A    between atoms: N_10  and  N_11 
REMARK       I    between atoms: N_11  and  C_12 
REMARK       I    between atoms: C_12  and  N_14 
REMARK    4  A    between atoms: C_15  and  C_16 
REMARK    5  A    between atoms: C_15  and  C_17 
ROOT
ATOM      1  C   LIG d   1       5.142  -2.903  -3.997  0.00  0.00    -0.001 C 
ATOM      2  H   LIG d   1       5.539  -3.831  -3.587  0.00  0.00     0.036 H 
ATOM      3  C   LIG d   1       4.078  -2.308  -3.050  0.00  0.00    -0.026 A 
ATOM      4  H   LIG d   1       3.091  -2.772  -3.047  0.00  0.00     0.031 H 
ATOM      5  C   LIG d   1       4.556  -1.554  -1.808  0.00  0.00    -0.043 A 
ATOM      6  C   LIG d   1       4.273  -0.782  -3.097  0.00  0.00    -0.018 A 
ATOM      7  C   LIG d   1       5.445  -0.531  -4.069  0.00  0.00    -0.006 C 
ATOM      8  C   LIG d   1       6.231  -1.838  -4.056  0.00  0.00     0.041 C 
ATOM      9  N   LIG d   1       7.500  -2.001  -4.088  0.00  0.00    -0.188 NA
ATOM     10  H   LIG d   1       3.849  -1.439  -0.986  0.00  0.00     0.027 H 
ATOM     11  H   LIG d   1       5.599  -1.679  -1.515  0.00  0.00     0.027 H 
ATOM     12  H   LIG d   1       6.066   0.291  -3.714  0.00  0.00     0.033 H 
ATOM     13  H   LIG d   1       5.071  -0.321  -5.070  0.00  0.00     0.033 H 
ENDROOT
BRANCH   6  14
ATOM     14  C   LIG d   1       3.079   0.174  -3.153  0.00  0.00    -0.040 C 
ATOM     15  H   LIG d   1       2.229  -0.275  -2.637  0.00  0.00     0.030 H 
BRANCH  14  16
ATOM     16  C   LIG d   1       3.451   1.493  -2.471  0.00  0.00    -0.062 C 
ATOM     17  H   LIG d   1       3.018   1.519  -1.471  0.00  0.00     0.023 H 
ATOM     18  H   LIG d   1       4.535   1.573  -2.401  0.00  0.00     0.023 H 
ATOM     19  H   LIG d   1       3.063   2.326  -3.057  0.00  0.00     0.023 H 
ENDBRANCH  14  16
BRANCH  14  20
ATOM     20  C   LIG d   1       2.707   0.441  -4.613  0.00  0.00    -0.062 C 
ATOM     21  H   LIG d   1       3.366   1.206  -5.022  0.00  0.00     0.023 H 
ATOM     22  H   LIG d   1       2.815  -0.478  -5.189  0.00  0.00     0.023 H 
ATOM     23  H   LIG d   1       1.674   0.784  -4.666  0.00  0.00     0.023 H 
ENDBRANCH  14  20
ENDBRANCH   6  14
BRANCH   1  24
ATOM     24  C   LIG d   1       4.548  -3.140  -5.386  0.00  0.00    -0.057 C 
ATOM     25  H   LIG d   1       3.687  -3.803  -5.305  0.00  0.00     0.024 H 
ATOM     26  H   LIG d   1       4.236  -2.188  -5.815  0.00  0.00     0.024 H 
ATOM     27  H   LIG d   1       5.299  -3.598  -6.028  0.00  0.00     0.024 H 
ENDBRANCH   1  24
BRANCH   9  28
ATOM     28  N   LIG d   1       8.349  -0.887  -4.143  0.00  0.00    -0.191 N 
ATOM     29  C   LIG d   1       9.128  -0.685  -5.225  0.00  0.00     0.317 C 
ATOM     30  O   LIG d   1       9.864   0.281  -5.272  0.00  0.00    -0.251 OA
ATOM     31  N   LIG d   1       9.090  -1.555  -6.254  0.00  0.00    -0.312 N 
ATOM     32  H   LIG d   1       8.503  -2.326  -6.216  0.00  0.00     0.146 HD
ATOM     33  H   LIG d   1       9.651  -1.410  -7.032  0.00  0.00     0.146 HD
ATOM     34  H   LIG d   1       8.376  -0.261  -3.403  0.00  0.00     0.179 HD
ENDBRANCH   9  28
TORSDOF 5
ENDMDL
MODEL 3
REMARK VINA RESULT:      -5.2      2.107      3.509
REMARK  5 active torsions:
REMARK  status: ('A' for Active; 'I' for Inactive)
REMARK    1  A    between atoms: C_1  and  C_2 
REMARK    2  A    between atoms: C_7  and  C_15 
REMARK    3  A    between atoms: N_10  and  N_11 
REMARK       I    between atoms: N_11  and  C_12 
REMARK       I    between atoms: C_12  and  N_14 
REMARK    4  A    between atoms: C_15  and  C_16 
REMARK    5  A    between atoms: C_15  and  C_17 
ROOT
ATOM      1  C   LIG d   1       5.920  -2.470  -5.186  0.00  0.00    -0.001 C 
ATOM      2  H   LIG d   1       6.857  -2.925  -5.507  0.00  0.00     0.036 H 
ATOM      3  C   LIG d   1       5.950  -2.189  -3.669  0.00  0.00    -0.026 A 
ATOM      4  H   LIG d   1       5.810  -3.037  -2.998  0.00  0.00     0.031 H 
ATOM      5  C   LIG d   1       6.714  -0.959  -3.177  0.00  0.00    -0.043 A 
ATOM      6  C   LIG d   1       5.217  -0.850  -3.471  0.00  0.00    -0.018 A 
ATOM      7  C   LIG d   1       4.782  -0.388  -4.878  0.00  0.00    -0.006 C 
ATOM      8  C   LIG d   1       5.751  -1.095  -5.821  0.00  0.00     0.041 C 
ATOM      9  N   LIG d   1       6.290  -0.641  -6.890  0.00  0.00    -0.188 NA
ATOM     10  H   LIG d   1       7.024  -0.945  -2.132  0.00  0.00     0.027 H 
ATOM     11  H   LIG d   1       7.400  -0.481  -3.876  0.00  0.00     0.027 H 
ATOM     12  H   LIG d   1       4.879   0.693  -4.971  0.00  0.00     0.033 H 
ATOM     13  H   LIG d   1       3.758  -0.699  -5.080  0.00  0.00     0.033 H 
ENDROOT
BRANCH   6  14
ATOM     14  C   LIG d   1       4.238  -0.639  -2.313  0.00  0.00    -0.040 C 
ATOM     15  H   LIG d   1       4.390  -1.416  -1.563  0.00  0.00     0.030 H 
BRANCH  14  16
ATOM     16  C   LIG d   1       4.483   0.734  -1.683  0.00  0.00    -0.062 C 
ATOM     17  H   LIG d   1       5.423   1.142  -2.055  0.00  0.00     0.023 H 
ATOM     18  H   LIG d   1       3.666   1.405  -1.945  0.00  0.00     0.023 H 
ATOM     19  H   LIG d   1       4.536   0.631  -0.599  0.00  0.00     0.023 H 
ENDBRANCH  14  16
BRANCH  14  20
ATOM     20  C   LIG d   1       2.803  -0.711  -2.839  0.00  0.00    -0.062 C 
ATOM     21  H   LIG d   1       2.575  -1.735  -3.132  0.00  0.00     0.023 H 
ATOM     22  H   LIG d   1       2.114  -0.394  -2.057  0.00  0.00     0.023 H 
ATOM     23  H   LIG d   1       2.700  -0.053  -3.702  0.00  0.00     0.023 H 
ENDBRANCH  14  20
ENDBRANCH   6  14
BRANCH   1  24
ATOM     24  C   LIG d   1       4.736  -3.373  -5.540  0.00  0.00    -0.057 C 
ATOM     25  H   LIG d   1       4.643  -3.442  -6.623  0.00  0.00     0.024 H 
ATOM     26  H   LIG d   1       4.901  -4.367  -5.124  0.00  0.00     0.024 H 
ATOM     27  H   LIG d   1       3.822  -2.952  -5.123  0.00  0.00     0.024 H 
ENDBRANCH   1  24
BRANCH   9  28
ATOM     28  N   LIG d   1       6.008   0.663  -7.318  0.00  0.00    -0.191 N 
ATOM     29  C   LIG d   1       5.228   0.864  -8.400  0.00  0.00     0.317 C 
ATOM     30  O   LIG d   1       4.984   1.994  -8.771  0.00  0.00    -0.251 OA
ATOM     31  N   LIG d   1       4.720  -0.191  -9.069  0.00  0.00    -0.312 N 
ATOM     32  H   LIG d   1       4.915  -1.093  -8.773  0.00  0.00     0.146 HD
ATOM     33  H   LIG d   1       4.160  -0.046  -9.847  0.00  0.00     0.146 HD
ATOM     34  H   LIG d   1       6.374   1.421  -6.837  0.00  0.00     0.179 HD
ENDBRANCH   9  28
TORSDOF 5
ENDMDL
MODEL 4
REMARK VINA RESULT:      -4.8      4.367      5.435
REMARK  5 active torsions:
REMARK  status: ('A' for Active; 'I' for Inactive)
REMARK    1  A    between atoms: C_1  and  C_2 
REMARK    2  A    between atoms: C_7  and  C_15 
REMARK    3  A    between atoms: N_10  and  N_11 
REMARK       I    between atoms: N_11  and  C_12 
REMARK       I    between atoms: C_12  and  N_14 
REMARK    4  A    between atoms: C_15  and  C_16 
REMARK    5  A    between atoms: C_15  and  C_17 
ROOT
ATOM      1  C   LIG d   1       7.264  -0.425  -5.420  0.00  0.00    -0.001 C 
ATOM      2  H   LIG d   1       8.049  -1.035  -5.865  0.00  0.00     0.036 H 
ATOM      3  C   LIG d   1       6.334  -1.295  -4.548  0.00  0.00    -0.026 A 
ATOM      4  H   LIG d   1       5.606  -1.923  -5.061  0.00  0.00     0.031 H 
ATOM      5  C   LIG d   1       6.817  -1.692  -3.152  0.00  0.00    -0.043 A 
ATOM      6  C   LIG d   1       5.967  -0.432  -3.327  0.00  0.00    -0.018 A 
ATOM      7  C   LIG d   1       6.693   0.916  -3.522  0.00  0.00    -0.006 C 
ATOM      8  C   LIG d   1       7.862   0.583  -4.445  0.00  0.00     0.041 C 
ATOM      9  N   LIG d   1       9.056   1.042  -4.408  0.00  0.00    -0.188 NA
ATOM     10  H   LIG d   1       6.345  -2.556  -2.683  0.00  0.00     0.027 H 
ATOM     11  H   LIG d   1       7.875  -1.557  -2.928  0.00  0.00     0.027 H 
ATOM     12  H   LIG d   1       7.056   1.295  -2.568  0.00  0.00     0.033 H 
ATOM     13  H   LIG d   1       6.030   1.640  -3.993  0.00  0.00     0.033 H 
ENDROOT
BRANCH   6  14
ATOM     14  C   LIG d   1       4.542  -0.404  -2.770  0.00  0.00    -0.040 C 
ATOM     15  H   LIG d   1       3.830  -0.369  -3.595  0.00  0.00     0.030 H 
BRANCH  14  16
ATOM     16  C   LIG d   1       4.296  -1.663  -1.936  0.00  0.00    -0.062 C 
ATOM     17  H   LIG d   1       4.497  -2.546  -2.543  0.00  0.00     0.023 H 
ATOM     18  H   LIG d   1       4.956  -1.659  -1.069  0.00  0.00     0.023 H 
ATOM     19  H   LIG d   1       3.258  -1.680  -1.602  0.00  0.00     0.023 H 
ENDBRANCH  14  16
BRANCH  14  20
ATOM     20  C   LIG d   1       4.363   0.835  -1.889  0.00  0.00    -0.062 C 
ATOM     21  H   LIG d   1       5.341   1.216  -1.596  0.00  0.00     0.023 H 
ATOM     22  H   LIG d   1       3.827   1.602  -2.447  0.00  0.00     0.023 H 
ATOM     23  H   LIG d   1       3.794   0.568  -0.999  0.00  0.00     0.023 H 
ENDBRANCH  14  20
ENDBRANCH   6  14
BRANCH   1  24
ATOM     24  C   LIG d   1       6.461   0.293  -6.506  0.00  0.00    -0.057 C 
ATOM     25  H   LIG d   1       5.801   1.027  -6.045  0.00  0.00     0.024 H 
ATOM     26  H   LIG d   1       7.144   0.796  -7.190  0.00  0.00     0.024 H 
ATOM     27  H   LIG d   1       5.865  -0.434  -7.057  0.00  0.00     0.024 H 
ENDBRANCH   1  24
BRANCH   9  28
ATOM     28  N   LIG d   1       9.420   1.973  -3.426  0.00  0.00    -0.191 N 
ATOM     29  C   LIG d   1       9.493   3.283  -3.734  0.00  0.00     0.317 C 
ATOM     30  O   LIG d   1       9.809   4.091  -2.882  0.00  0.00    -0.251 OA
ATOM     31  N   LIG d   1       9.217   3.698  -4.986  0.00  0.00    -0.312 N 
ATOM     32  H   LIG d   1       8.965   3.054  -5.666  0.00  0.00     0.146 HD
ATOM     33  H   LIG d   1       9.270   4.641  -5.207  0.00  0.00     0.146 HD
ATOM     34  H   LIG d   1       9.619   1.674  -2.526  0.00  0.00     0.179 HD
ENDBRANCH   9  28
TORSDOF 5
ENDMDL
MODEL 5
REMARK VINA RESULT:      -4.8      2.760      3.935
REMARK  5 active torsions:
REMARK  status: ('A' for Active; 'I' for Inactive)
REMARK    1  A    between atoms: C_1  and  C_2 
REMARK    2  A    between atoms: C_7  and  C_15 
REMARK    3  A    between atoms: N_10  and  N_11 
REMARK       I    between atoms: N_11  and  C_12 
REMARK       I    between atoms: C_12  and  N_14 
REMARK    4  A    between atoms: C_15  and  C_16 
REMARK    5  A    between atoms: C_15  and  C_17 
ROOT
ATOM      1  C   LIG d   1       2.821   0.054  -6.222  0.00  0.00    -0.001 C 
ATOM      2  H   LIG d   1       1.883  -0.359  -6.594  0.00  0.00     0.036 H 
ATOM      3  C   LIG d   1       2.666   0.507  -4.755  0.00  0.00    -0.026 A 
ATOM      4  H   LIG d   1       2.138   1.444  -4.572  0.00  0.00     0.031 H 
ATOM      5  C   LIG d   1       2.703  -0.560  -3.661  0.00  0.00    -0.043 A 
ATOM      6  C   LIG d   1       3.993   0.158  -4.059  0.00  0.00    -0.018 A 
ATOM      7  C   LIG d   1       4.884  -0.491  -5.140  0.00  0.00    -0.006 C 
ATOM      8  C   LIG d   1       3.896  -1.027  -6.171  0.00  0.00     0.041 C 
ATOM      9  N   LIG d   1       3.955  -2.120  -6.833  0.00  0.00    -0.188 NA
ATOM     10  H   LIG d   1       2.263  -0.307  -2.696  0.00  0.00     0.027 H 
ATOM     11  H   LIG d   1       2.590  -1.600  -3.969  0.00  0.00     0.027 H 
ATOM     12  H   LIG d   1       5.470  -1.305  -4.713  0.00  0.00     0.033 H 
ATOM     13  H   LIG d   1       5.538   0.255  -5.591  0.00  0.00     0.033 H 
ENDROOT
BRANCH   6  14
ATOM     14  C   LIG d   1       4.654   1.120  -3.069  0.00  0.00    -0.040 C 
ATOM     15  H   LIG d   1       4.227   2.116  -3.192  0.00  0.00     0.030 H 
BRANCH  14  16
ATOM     16  C   LIG d   1       4.406   0.631  -1.641  0.00  0.00    -0.062 C 
ATOM     17  H   LIG d   1       4.485   1.470  -0.950  0.00  0.00     0.023 H 
ATOM     18  H   LIG d   1       3.408   0.197  -1.573  0.00  0.00     0.023 H 
ATOM     19  H   LIG d   1       5.148  -0.124  -1.382  0.00  0.00     0.023 H 
ENDBRANCH  14  16
BRANCH  14  20
ATOM     20  C   LIG d   1       6.159   1.173  -3.337  0.00  0.00    -0.062 C 
ATOM     21  H   LIG d   1       6.461   2.206  -3.511  0.00  0.00     0.023 H 
ATOM     22  H   LIG d   1       6.695   0.778  -2.474  0.00  0.00     0.023 H 
ATOM     23  H   LIG d   1       6.393   0.572  -4.216  0.00  0.00     0.023 H 
ENDBRANCH  14  20
ENDBRANCH   6  14
BRANCH   1  24
ATOM     24  C   LIG d   1       3.278   1.222  -7.098  0.00  0.00    -0.057 C 
ATOM     25  H   LIG d   1       3.553   2.065  -6.464  0.00  0.00     0.024 H 
ATOM     26  H   LIG d   1       4.139   0.916  -7.690  0.00  0.00     0.024 H 
ATOM     27  H   LIG d   1       2.466   1.517  -7.761  0.00  0.00     0.024 H 
ENDBRANCH   1  24
BRANCH   9  28
ATOM     28  N   LIG d   1       5.034  -2.995  -6.647  0.00  0.00    -0.191 N 
ATOM     29  C   LIG d   1       4.809  -4.302  -6.408  0.00  0.00     0.317 C 
ATOM     30  O   LIG d   1       5.744  -5.061  -6.247  0.00  0.00    -0.251 OA
ATOM     31  N   LIG d   1       3.545  -4.768  -6.348  0.00  0.00    -0.312 N 
ATOM     32  H   LIG d   1       2.798  -4.163  -6.476  0.00  0.00     0.146 HD
ATOM     33  H   LIG d   1       3.383  -5.709  -6.175  0.00  0.00     0.146 HD
ATOM     34  H   LIG d   1       5.943  -2.660  -6.690  0.00  0.00     0.179 HD
ENDBRANCH   9  28
TORSDOF 5
ENDMDL
MODEL 6
REMARK VINA RESULT:      -4.8      2.954      6.010
REMARK  5 active torsions:
REMARK  status: ('A' for Active; 'I' for Inactive)
REMARK    1  A    between atoms: C_1  and  C_2 
REMARK    2  A    between atoms: C_7  and  C_15 
REMARK    3  A    between atoms: N_10  and  N_11 
REMARK       I    between atoms: N_11  and  C_12 
REMARK       I    between atoms: C_12  and  N_14 
REMARK    4  A    between atoms: C_15  and  C_16 
REMARK    5  A    between atoms: C_15  and  C_17 
ROOT
ATOM      1  C   LIG d   1       4.074   1.192  -8.756  0.00  0.00    -0.001 C 
ATOM      2  H   LIG d   1       5.025   1.613  -8.432  0.00  0.00     0.036 H 
ATOM      3  C   LIG d   1       4.302   0.122  -9.845  0.00  0.00    -0.026 A 
ATOM      4  H   LIG d   1       4.533   0.470 -10.852  0.00  0.00     0.031 H 
ATOM      5  C   LIG d   1       4.766  -1.268  -9.406  0.00  0.00    -0.043 A 
ATOM      6  C   LIG d   1       3.271  -0.988  -9.572  0.00  0.00    -0.018 A 
ATOM      7  C   LIG d   1       2.472  -0.534  -8.332  0.00  0.00    -0.006 C 
ATOM      8  C   LIG d   1       3.410   0.432  -7.614  0.00  0.00     0.041 C 
ATOM      9  N   LIG d   1       3.593   0.571  -6.355  0.00  0.00    -0.188 NA
ATOM     10  H   LIG d   1       5.246  -1.898 -10.155  0.00  0.00     0.027 H 
ATOM     11  H   LIG d   1       5.147  -1.372  -8.390  0.00  0.00     0.027 H 
ATOM     12  H   LIG d   1       2.241  -1.386  -7.693  0.00  0.00     0.033 H 
ATOM     13  H   LIG d   1       1.558  -0.024  -8.634  0.00  0.00     0.033 H 
ENDROOT
BRANCH   6  14
ATOM     14  C   LIG d   1       2.502  -1.662 -10.711  0.00  0.00    -0.040 C 
ATOM     15  H   LIG d   1       3.114  -1.659 -11.614  0.00  0.00     0.030 H 
BRANCH  14  16
ATOM     16  C   LIG d   1       2.177  -3.105 -10.321  0.00  0.00    -0.062 C 
ATOM     17  H   LIG d   1       1.162  -3.155  -9.926  0.00  0.00     0.023 H 
ATOM     18  H   LIG d   1       2.257  -3.746 -11.198  0.00  0.00     0.023 H 
ATOM     19  H   LIG d   1       2.879  -3.443  -9.559  0.00  0.00     0.023 H 
ENDBRANCH  14  16
BRANCH  14  20
ATOM     20  C   LIG d   1       1.203  -0.898 -10.972  0.00  0.00    -0.062 C 
ATOM     21  H   LIG d   1       0.627  -0.834 -10.049  0.00  0.00     0.023 H 
ATOM     22  H   LIG d   1       1.438   0.107 -11.324  0.00  0.00     0.023 H 
ATOM     23  H   LIG d   1       0.621  -1.421 -11.730  0.00  0.00     0.023 H 
ENDBRANCH  14  20
ENDBRANCH   6  14
BRANCH   1  24
ATOM     24  C   LIG d   1       3.149   2.294  -9.276  0.00  0.00    -0.057 C 
ATOM     25  H   LIG d   1       3.668   3.252  -9.237  0.00  0.00     0.024 H 
ATOM     26  H   LIG d   1       2.865   2.075 -10.305  0.00  0.00     0.024 H 
ATOM     27  H   LIG d   1       2.255   2.341  -8.654  0.00  0.00     0.024 H 
ENDBRANCH   1  24
BRANCH   9  28
ATOM     28  N   LIG d   1       2.881  -0.228  -5.450  0.00  0.00    -0.191 N 
ATOM     29  C   LIG d   1       2.922   0.047  -4.131  0.00  0.00     0.317 C 
ATOM     30  O   LIG d   1       2.305  -0.646  -3.346  0.00  0.00    -0.251 OA
ATOM     31  N   LIG d   1       3.648   1.091  -3.682  0.00  0.00    -0.312 N 
ATOM     32  H   LIG d   1       4.141   1.644  -4.308  0.00  0.00     0.146 HD
ATOM     33  H   LIG d   1       3.678   1.288  -2.733  0.00  0.00     0.146 HD
ATOM     34  H   LIG d   1       2.359  -0.978  -5.773  0.00  0.00     0.179 HD
ENDBRANCH   9  28
TORSDOF 5
ENDMDL
MODEL 7
REMARK VINA RESULT:      -4.7      4.594      5.970
REMARK  5 active torsions:
REMARK  status: ('A' for Active; 'I' for Inactive)
REMARK    1  A    between atoms: C_1  and  C_2 
REMARK    2  A    between atoms: C_7  and  C_15 
REMARK    3  A    between atoms: N_10  and  N_11 
REMARK       I    between atoms: N_11  and  C_12 
REMARK       I    between atoms: C_12  and  N_14 
REMARK    4  A    between atoms: C_15  and  C_16 
REMARK    5  A    between atoms: C_15  and  C_17 
ROOT
ATOM      1  C   LIG d   1       6.183  -1.595  -5.326  0.00  0.00    -0.001 C 
ATOM      2  H   LIG d   1       6.298  -2.201  -6.225  0.00  0.00     0.036 H 
ATOM      3  C   LIG d   1       4.781  -1.802  -4.713  0.00  0.00    -0.026 A 
ATOM      4  H   LIG d   1       3.942  -1.305  -5.200  0.00  0.00     0.031 H 
ATOM      5  C   LIG d   1       4.531  -3.068  -3.891  0.00  0.00    -0.043 A 
ATOM      6  C   LIG d   1       4.978  -1.785  -3.187  0.00  0.00    -0.018 A 
ATOM      7  C   LIG d   1       6.488  -1.571  -2.953  0.00  0.00    -0.006 C 
ATOM      8  C   LIG d   1       7.143  -2.067  -4.239  0.00  0.00     0.041 C 
ATOM      9  N   LIG d   1       8.235  -2.720  -4.372  0.00  0.00    -0.188 NA
ATOM     10  H   LIG d   1       3.496  -3.382  -3.755  0.00  0.00     0.027 H 
ATOM     11  H   LIG d   1       5.259  -3.874  -3.977  0.00  0.00     0.027 H 
ATOM     12  H   LIG d   1       6.830  -2.157  -2.101  0.00  0.00     0.033 H 
ATOM     13  H   LIG d   1       6.703  -0.514  -2.800  0.00  0.00     0.033 H 
ENDROOT
BRANCH   6  14
ATOM     14  C   LIG d   1       4.000  -1.056  -2.263  0.00  0.00    -0.040 C 
ATOM     15  H   LIG d   1       3.810  -1.667  -1.380  0.00  0.00     0.030 H 
BRANCH  14  16
ATOM     16  C   LIG d   1       4.605   0.283  -1.837  0.00  0.00    -0.062 C 
ATOM     17  H   LIG d   1       3.847   0.879  -1.328  0.00  0.00     0.023 H 
ATOM     18  H   LIG d   1       5.442   0.106  -1.163  0.00  0.00     0.023 H 
ATOM     19  H   LIG d   1       4.956   0.820  -2.719  0.00  0.00     0.023 H 
ENDBRANCH  14  16
BRANCH  14  20
ATOM     20  C   LIG d   1       2.685  -0.809  -3.005  0.00  0.00    -0.062 C 
ATOM     21  H   LIG d   1       2.866  -0.157  -3.859  0.00  0.00     0.023 H 
ATOM     22  H   LIG d   1       2.281  -1.760  -3.353  0.00  0.00     0.023 H 
ATOM     23  H   LIG d   1       1.971  -0.337  -2.331  0.00  0.00     0.023 H 
ENDBRANCH  14  20
ENDBRANCH   6  14
BRANCH   1  24
ATOM     24  C   LIG d   1       6.416  -0.117  -5.642  0.00  0.00    -0.057 C 
ATOM     25  H   LIG d   1       7.310  -0.014  -6.256  0.00  0.00     0.024 H 
ATOM     26  H   LIG d   1       5.556   0.279  -6.182  0.00  0.00     0.024 H 
ATOM     27  H   LIG d   1       6.548   0.436  -4.713  0.00  0.00     0.024 H 
ENDBRANCH   1  24
BRANCH   9  28
ATOM     28  N   LIG d   1       8.988  -3.066  -3.242  0.00  0.00    -0.191 N 
ATOM     29  C   LIG d   1       9.350  -4.349  -3.040  0.00  0.00     0.317 C 
ATOM     30  O   LIG d   1      10.002  -4.648  -2.059  0.00  0.00    -0.251 OA
ATOM     31  N   LIG d   1       8.986  -5.299  -3.924  0.00  0.00    -0.312 N 
ATOM     32  H   LIG d   1       8.465  -5.060  -4.706  0.00  0.00     0.146 HD
ATOM     33  H   LIG d   1       9.247  -6.222  -3.777  0.00  0.00     0.146 HD
ATOM     34  H   LIG d   1       9.248  -2.383  -2.606  0.00  0.00     0.179 HD
ENDBRANCH   9  28
TORSDOF 5
ENDMDL
MODEL 8
REMARK VINA RESULT:      -4.6      1.436      2.135
REMARK  5 active torsions:
REMARK  status: ('A' for Active; 'I' for Inactive)
REMARK    1  A    between atoms: C_1  and  C_2 
REMARK    2  A    between atoms: C_7  and  C_15 
REMARK    3  A    between atoms: N_10  and  N_11 
REMARK       I    between atoms: N_11  and  C_12 
REMARK       I    between atoms: C_12  and  N_14 
REMARK    4  A    between atoms: C_15  and  C_16 
REMARK    5  A    between atoms: C_15  and  C_17 
ROOT
ATOM      1  C   LIG d   1       5.343  -0.259  -4.003  0.00  0.00    -0.001 C 
ATOM      2  H   LIG d   1       4.895   0.411  -3.269  0.00  0.00     0.036 H 
ATOM      3  C   LIG d   1       5.524  -1.670  -3.405  0.00  0.00    -0.026 A 
ATOM      4  H   LIG d   1       6.350  -1.819  -2.710  0.00  0.00     0.031 H 
ATOM      5  C   LIG d   1       4.299  -2.582  -3.321  0.00  0.00    -0.043 A 
ATOM      6  C   LIG d   1       5.214  -2.658  -4.544  0.00  0.00    -0.018 A 
ATOM      7  C   LIG d   1       4.861  -1.794  -5.774  0.00  0.00    -0.006 C 
ATOM      8  C   LIG d   1       4.397  -0.467  -5.181  0.00  0.00     0.041 C 
ATOM      9  N   LIG d   1       3.444   0.289  -5.578  0.00  0.00    -0.188 NA
ATOM     10  H   LIG d   1       4.336  -3.410  -2.613  0.00  0.00     0.027 H 
ATOM     11  H   LIG d   1       3.320  -2.122  -3.454  0.00  0.00     0.027 H 
ATOM     12  H   LIG d   1       4.058  -2.257  -6.347  0.00  0.00     0.033 H 
ATOM     13  H   LIG d   1       5.740  -1.646  -6.399  0.00  0.00     0.033 H 
ENDROOT
BRANCH   6  14
ATOM     14  C   LIG d   1       6.065  -3.910  -4.769  0.00  0.00    -0.040 C 
ATOM     15  H   LIG d   1       6.424  -4.282  -3.809  0.00  0.00     0.030 H 
BRANCH  14  16
ATOM     16  C   LIG d   1       5.217  -4.986  -5.449  0.00  0.00    -0.062 C 
ATOM     17  H   LIG d   1       4.161  -4.777  -5.281  0.00  0.00     0.023 H 
ATOM     18  H   LIG d   1       5.422  -4.988  -6.519  0.00  0.00     0.023 H 
ATOM     19  H   LIG d   1       5.465  -5.962  -5.030  0.00  0.00     0.023 H 
ENDBRANCH  14  16
BRANCH  14  20
ATOM     20  C   LIG d   1       7.259  -3.562  -5.660  0.00  0.00    -0.062 C 
ATOM     21  H   LIG d   1       7.059  -3.890  -6.680  0.00  0.00     0.023 H 
ATOM     22  H   LIG d   1       7.418  -2.483  -5.650  0.00  0.00     0.023 H 
ATOM     23  H   LIG d   1       8.151  -4.063  -5.284  0.00  0.00     0.023 H 
ENDBRANCH  14  20
ENDBRANCH   6  14
BRANCH   1  24
ATOM     24  C   LIG d   1       6.685   0.293  -4.485  0.00  0.00    -0.057 C 
ATOM     25  H   LIG d   1       7.257   0.654  -3.631  0.00  0.00     0.024 H 
ATOM     26  H   LIG d   1       7.243  -0.496  -4.989  0.00  0.00     0.024 H 
ATOM     27  H   LIG d   1       6.512   1.116  -5.179  0.00  0.00     0.024 H 
ENDBRANCH   1  24
BRANCH   9  28
ATOM     28  N   LIG d   1       2.678  -0.076  -6.694  0.00  0.00    -0.191 N 
ATOM     29  C   LIG d   1       2.900   0.515  -7.886  0.00  0.00     0.317 C 
ATOM     30  O   LIG d   1       2.235   0.199  -8.853  0.00  0.00    -0.251 OA
ATOM     31  N   LIG d   1       3.857   1.456  -8.004  0.00  0.00    -0.312 N 
ATOM     32  H   LIG d   1       4.387   1.709  -7.232  0.00  0.00     0.146 HD
ATOM     33  H   LIG d   1       4.016   1.881  -8.861  0.00  0.00     0.146 HD
ATOM     34  H   LIG d   1       1.990  -0.752  -6.608  0.00  0.00     0.179 HD
ENDBRANCH   9  28
TORSDOF 5
ENDMDL
MODEL 9
REMARK VINA RESULT:      -4.4      3.145      4.389
REMARK  5 active torsions:
REMARK  status: ('A' for Active; 'I' for Inactive)
REMARK    1  A    between atoms: C_1  and  C_2 
REMARK    2  A    between atoms: C_7  and  C_15 
REMARK    3  A    between atoms: N_10  and  N_11 
REMARK       I    between atoms: N_11  and  C_12 
REMARK       I    between atoms: C_12  and  N_14 
REMARK    4  A    between atoms: C_15  and  C_16 
REMARK    5  A    between atoms: C_15  and  C_17 
ROOT
ATOM      1  C   LIG d   1       5.487  -0.769  -5.695  0.00  0.00    -0.001 C 
ATOM      2  H   LIG d   1       5.554  -0.415  -6.724  0.00  0.00     0.036 H 
ATOM      3  C   LIG d   1       4.599   0.174  -4.857  0.00  0.00    -0.026 A 
ATOM      4  H   LIG d   1       5.031   1.123  -4.541  0.00  0.00     0.031 H 
ATOM      5  C   LIG d   1       3.080   0.050  -4.997  0.00  0.00    -0.043 A 
ATOM      6  C   LIG d   1       3.804  -0.731  -3.899  0.00  0.00    -0.018 A 
ATOM      7  C   LIG d   1       4.252  -2.176  -4.206  0.00  0.00    -0.006 C 
ATOM      8  C   LIG d   1       4.769  -2.113  -5.640  0.00  0.00     0.041 C 
ATOM      9  N   LIG d   1       4.633  -2.980  -6.571  0.00  0.00    -0.188 NA
ATOM     10  H   LIG d   1       2.476   0.904  -4.691  0.00  0.00     0.027 H 
ATOM     11  H   LIG d   1       2.699  -0.515  -5.847  0.00  0.00     0.027 H 
ATOM     12  H   LIG d   1       3.407  -2.860  -4.135  0.00  0.00     0.033 H 
ATOM     13  H   LIG d   1       5.048  -2.480  -3.527  0.00  0.00     0.033 H 
ENDROOT
BRANCH   6  14
ATOM     14  C   LIG d   1       3.585  -0.346  -2.434  0.00  0.00    -0.040 C 
ATOM     15  H   LIG d   1       2.557  -0.570  -2.149  0.00  0.00     0.030 H 
BRANCH  14  16
ATOM     16  C   LIG d   1       4.545  -1.143  -1.549  0.00  0.00    -0.062 C 
ATOM     17  H   LIG d   1       5.303  -0.476  -1.140  0.00  0.00     0.023 H 
ATOM     18  H   LIG d   1       3.989  -1.605  -0.733  0.00  0.00     0.023 H 
ATOM     19  H   LIG d   1       5.027  -1.919  -2.143  0.00  0.00     0.023 H 
ENDBRANCH  14  16
BRANCH  14  20
ATOM     20  C   LIG d   1       3.850   1.151  -2.255  0.00  0.00    -0.062 C 
ATOM     21  H   LIG d   1       4.858   1.298  -1.868  0.00  0.00     0.023 H 
ATOM     22  H   LIG d   1       3.752   1.654  -3.216  0.00  0.00     0.023 H 
ATOM     23  H   LIG d   1       3.126   1.565  -1.552  0.00  0.00     0.023 H 
ENDBRANCH  14  20
ENDBRANCH   6  14
BRANCH   1  24
ATOM     24  C   LIG d   1       6.881  -0.881  -5.076  0.00  0.00    -0.057 C 
ATOM     25  H   LIG d   1       7.394   0.077  -5.159  0.00  0.00     0.024 H 
ATOM     26  H   LIG d   1       6.791  -1.155  -4.025  0.00  0.00     0.024 H 
ATOM     27  H   LIG d   1       7.453  -1.644  -5.602  0.00  0.00     0.024 H 
ENDBRANCH   1  24
BRANCH   9  28
ATOM     28  N   LIG d   1       3.932  -4.168  -6.326  0.00  0.00    -0.191 N 
ATOM     29  C   LIG d   1       4.337  -5.320  -6.896  0.00  0.00     0.317 C 
ATOM     30  O   LIG d   1       3.729  -6.351  -6.684  0.00  0.00    -0.251 OA
ATOM     31  N   LIG d   1       5.417  -5.329  -7.704  0.00  0.00    -0.312 N 
ATOM     32  H   LIG d   1       5.902  -4.507  -7.874  0.00  0.00     0.146 HD
ATOM     33  H   LIG d   1       5.708  -6.158  -8.114  0.00  0.00     0.146 HD
ATOM     34  H   LIG d   1       3.155  -4.162  -5.746  0.00  0.00     0.179 HD
ENDBRANCH   9  28
TORSDOF 5
ENDMDL
MODEL 10
REMARK VINA RESULT:      -4.3      3.012      5.425
REMARK  5 active torsions:
REMARK  status: ('A' for Active; 'I' for Inactive)
REMARK    1  A    between atoms: C_1  and  C_2 
REMARK    2  A    between atoms: C_7  and  C_15 
REMARK    3  A    between atoms: N_10  and  N_11 
REMARK       I    between atoms: N_11  and  C_12 
REMARK       I    between atoms: C_12  and  N_14 
REMARK    4  A    between atoms: C_15  and  C_16 
REMARK    5  A    between atoms: C_15  and  C_17 
ROOT
ATOM      1  C   LIG d   1       5.887  -0.803  -7.188  0.00  0.00    -0.001 C 
ATOM      2  H   LIG d   1       6.527  -1.630  -6.882  0.00  0.00     0.036 H 
ATOM      3  C   LIG d   1       5.029  -1.208  -8.405  0.00  0.00    -0.026 A 
ATOM      4  H   LIG d   1       5.519  -1.237  -9.378  0.00  0.00     0.031 H 
ATOM      5  C   LIG d   1       3.792  -2.074  -8.160  0.00  0.00    -0.043 A 
ATOM      6  C   LIG d   1       3.653  -0.551  -8.192  0.00  0.00    -0.018 A 
ATOM      7  C   LIG d   1       3.749   0.218  -6.857  0.00  0.00    -0.006 C 
ATOM      8  C   LIG d   1       4.870  -0.485  -6.098  0.00  0.00     0.041 C 
ATOM      9  N   LIG d   1       4.939  -0.744  -4.846  0.00  0.00    -0.188 NA
ATOM     10  H   LIG d   1       3.394  -2.633  -9.008  0.00  0.00     0.027 H 
ATOM     11  H   LIG d   1       3.706  -2.566  -7.192  0.00  0.00     0.027 H 
ATOM     12  H   LIG d   1       2.811   0.145  -6.307  0.00  0.00     0.033 H 
ATOM     13  H   LIG d   1       4.006   1.261  -7.036  0.00  0.00     0.033 H 
ENDROOT
BRANCH   6  14
ATOM     14  C   LIG d   1       2.897   0.111  -9.346  0.00  0.00    -0.040 C 
ATOM     15  H   LIG d   1       3.502   0.062 -10.252  0.00  0.00     0.030 H 
BRANCH  14  16
ATOM     16  C   LIG d   1       1.575  -0.623  -9.576  0.00  0.00    -0.062 C 
ATOM     17  H   LIG d   1       0.754  -0.028  -9.174  0.00  0.00     0.023 H 
ATOM     18  H   LIG d   1       1.424  -0.776 -10.644  0.00  0.00     0.023 H 
ATOM     19  H   LIG d   1       1.603  -1.588  -9.071  0.00  0.00     0.023 H 
ENDBRANCH  14  16
BRANCH  14  20
ATOM     20  C   LIG d   1       2.616   1.575  -9.000  0.00  0.00    -0.062 C 
ATOM     21  H   LIG d   1       1.941   2.000  -9.741  0.00  0.00     0.023 H 
ATOM     22  H   LIG d   1       2.156   1.632  -8.013  0.00  0.00     0.023 H 
ATOM     23  H   LIG d   1       3.552   2.133  -8.997  0.00  0.00     0.023 H 
ENDBRANCH  14  20
ENDBRANCH   6  14
BRANCH   1  24
ATOM     24  C   LIG d   1       6.727   0.433  -7.514  0.00  0.00    -0.057 C 
ATOM     25  H   LIG d   1       7.078   0.888  -6.587  0.00  0.00     0.024 H 
ATOM     26  H   LIG d   1       7.582   0.141  -8.122  0.00  0.00     0.024 H 
ATOM     27  H   LIG d   1       6.119   1.151  -8.062  0.00  0.00     0.024 H 
ENDBRANCH   1  24
BRANCH   9  28
ATOM     28  N   LIG d   1       3.893  -0.368  -3.993  0.00  0.00    -0.191 N 
ATOM     29  C   LIG d   1       4.064   0.647  -3.123  0.00  0.00     0.317 C 
ATOM     30  O   LIG d   1       3.157   0.973  -2.383  0.00  0.00    -0.251 OA
ATOM     31  N   LIG d   1       5.243   1.299  -3.072  0.00  0.00    -0.312 N 
ATOM     32  H   LIG d   1       5.967   1.039  -3.662  0.00  0.00     0.146 HD
ATOM     33  H   LIG d   1       5.366   2.029  -2.445  0.00  0.00     0.146 HD
ATOM     34  H   LIG d   1       3.046  -0.838  -4.029  0.00  0.00     0.179 HD
ENDBRANCH   9  28
TORSDOF 5
ENDMDL
