MODEL 1
REMARK VINA RESULT:      -5.8      0.000      0.000
REMARK  10 active torsions:
REMARK  status: ('A' for Active; 'I' for Inactive)
REMARK    1  A    between atoms: C_1  and  C_2 
REMARK    2  A    between atoms: C_2  and  O_3 
REMARK    3  A    between atoms: O_3  and  C_4 
REMARK    4  A    between atoms: C_4  and  C_5 
REMARK    5  A    between atoms: C_4  and  O_24 
REMARK    6  A    between atoms: C_5  and  O_6 
REMARK    7  A    between atoms: O_6  and  C_7 
REMARK    8  A    between atoms: C_15  and  C_18 
REMARK    9  A    between atoms: O_24  and  C_25 
REMARK   10  A    between atoms: C_25  and  C_26 
ROOT
ATOM      1  C   LIG d   1       4.526  -6.011  -5.860  0.00  0.00     0.124 A 
ATOM      2  C   LIG d   1       4.163  -6.065  -7.204  0.00  0.00    -0.019 A 
ATOM      3  C   LIG d   1       4.011  -4.914  -7.924  0.00  0.00    -0.044 A 
ATOM      4  C   LIG d   1       4.221  -3.679  -7.308  0.00  0.00     0.065 A 
ATOM      5  C   LIG d   1       4.589  -3.614  -5.953  0.00  0.00     0.142 A 
ATOM      6  C   LIG d   1       4.739  -4.794  -5.236  0.00  0.00     0.023 A 
ATOM      7  O   LIG d   1       4.791  -2.421  -5.359  0.00  0.00    -0.462 OA
ATOM      8  C   LIG d   1       4.661  -1.255  -5.996  0.00  0.00     0.104 A 
ATOM      9  C   LIG d   1       4.312  -1.171  -7.306  0.00  0.00     0.064 A 
ATOM     10  C   LIG d   1       4.061  -2.416  -8.051  0.00  0.00     0.200 A 
ATOM     11  O   LIG d   1       3.739  -2.403  -9.228  0.00  0.00    -0.286 OA
ATOM     12  H   LIG d   1       4.001  -7.021  -7.679  0.00  0.00     0.065 H 
ATOM     13  H   LIG d   1       3.729  -4.959  -8.966  0.00  0.00     0.063 H 
ATOM     14  H   LIG d   1       5.021  -4.762  -4.193  0.00  0.00     0.069 H 
ATOM     15  H   LIG d   1       4.842  -0.341  -5.448  0.00  0.00     0.104 H 
ENDROOT
BRANCH   1  16
ATOM     16  O   LIG d   1       4.674  -7.162  -5.157  0.00  0.00    -0.487 OA
BRANCH  16  17
ATOM     17  C   LIG d   1       5.218  -8.284  -5.856  0.00  0.00     0.140 C 
ATOM     18  H   LIG d   1       4.911  -8.245  -6.900  0.00  0.00     0.075 H 
ATOM     19  H   LIG d   1       6.306  -8.257  -5.796  0.00  0.00     0.075 H 
BRANCH  17  20
ATOM     20  C   LIG d   1       4.705  -9.578  -5.222  0.00  0.00     0.193 C 
ATOM     21  H   LIG d   1       5.541 -10.128  -4.790  0.00  0.00     0.095 H 
BRANCH  20  22
ATOM     22  O   LIG d   1       3.761  -9.265  -4.196  0.00  0.00    -0.348 OA
BRANCH  22  23
ATOM     23  C   LIG d   1       3.734 -10.206  -3.122  0.00  0.00     0.048 C 
ATOM     24  H   LIG d   1       3.101  -9.824  -2.320  0.00  0.00     0.056 H 
ATOM     25  H   LIG d   1       3.333 -11.154  -3.479  0.00  0.00     0.056 H 
BRANCH  23  26
ATOM     26  C   LIG d   1       5.153 -10.418  -2.592  0.00  0.00    -0.042 C 
ATOM     27  H   LIG d   1       5.510  -9.497  -2.131  0.00  0.00     0.025 H 
ATOM     28  H   LIG d   1       5.147 -11.217  -1.851  0.00  0.00     0.025 H 
ATOM     29  H   LIG d   1       5.812 -10.691  -3.416  0.00  0.00     0.025 H 
ENDBRANCH  23  26
ENDBRANCH  22  23
ENDBRANCH  20  22
BRANCH  20  30
ATOM     30  O   LIG d   1       4.073 -10.380  -6.221  0.00  0.00    -0.348 OA
BRANCH  30  31
ATOM     31  C   LIG d   1       4.355 -11.777  -6.111  0.00  0.00     0.048 C 
ATOM     32  H   LIG d   1       3.778 -12.200  -5.288  0.00  0.00     0.056 H 
ATOM     33  H   LIG d   1       4.082 -12.277  -7.040  0.00  0.00     0.056 H 
BRANCH  31  34
ATOM     34  C   LIG d   1       5.848 -11.977  -5.843  0.00  0.00    -0.042 C 
ATOM     35  H   LIG d   1       6.356 -11.013  -5.882  0.00  0.00     0.025 H 
ATOM     36  H   LIG d   1       5.982 -12.419  -4.855  0.00  0.00     0.025 H 
ATOM     37  H   LIG d   1       6.267 -12.641  -6.598  0.00  0.00     0.025 H 
ENDBRANCH  31  34
ENDBRANCH  30  31
ENDBRANCH  20  30
ENDBRANCH  17  20
ENDBRANCH  16  17
ENDBRANCH   1  16
BRANCH   9  38
ATOM     38  C   LIG d   1       4.179   0.148  -7.970  0.00  0.00    -0.011 A 
ATOM     39  C   LIG d   1       2.953   0.810  -7.972  0.00  0.00    -0.054 A 
ATOM     40  C   LIG d   1       2.834   2.038  -8.591  0.00  0.00    -0.061 A 
ATOM     41  H   LIG d   1       2.095   0.362  -7.491  0.00  0.00     0.062 H 
ATOM     42  C   LIG d   1       3.932   2.611  -9.208  0.00  0.00    -0.062 A 
ATOM     43  H   LIG d   1       1.885   2.551  -8.593  0.00  0.00     0.062 H 
ATOM     44  C   LIG d   1       5.152   1.960  -9.209  0.00  0.00    -0.061 A 
ATOM     45  H   LIG d   1       3.835   3.573  -9.692  0.00  0.00     0.062 H 
ATOM     46  C   LIG d   1       5.281   0.732  -8.593  0.00  0.00    -0.054 A 
ATOM     47  H   LIG d   1       6.005   2.415  -9.688  0.00  0.00     0.062 H 
ATOM     48  H   LIG d   1       6.233   0.223  -8.595  0.00  0.00     0.062 H 
ENDBRANCH   9  38
TORSDOF 10
ENDMDL
MODEL 2
REMARK VINA RESULT:      -5.7      5.242      8.605
REMARK  10 active torsions:
REMARK  status: ('A' for Active; 'I' for Inactive)
REMARK    1  A    between atoms: C_1  and  C_2 
REMARK    2  A    between atoms: C_2  and  O_3 
REMARK    3  A    between atoms: O_3  and  C_4 
REMARK    4  A    between atoms: C_4  and  C_5 
REMARK    5  A    between atoms: C_4  and  O_24 
REMARK    6  A    between atoms: C_5  and  O_6 
REMARK    7  A    between atoms: O_6  and  C_7 
REMARK    8  A    between atoms: C_15  and  C_18 
REMARK    9  A    between atoms: O_24  and  C_25 
REMARK   10  A    between atoms: C_25  and  C_26 
ROOT
ATOM      1  C   LIG d   1       2.680  -1.805 -10.520  0.00  0.00     0.124 A 
ATOM      2  C   LIG d   1       2.157  -0.532 -10.303  0.00  0.00    -0.019 A 
ATOM      3  C   LIG d   1       2.329   0.088  -9.098  0.00  0.00    -0.044 A 
ATOM      4  C   LIG d   1       3.034  -0.559  -8.081  0.00  0.00     0.065 A 
ATOM      5  C   LIG d   1       3.567  -1.842  -8.291  0.00  0.00     0.142 A 
ATOM      6  C   LIG d   1       3.383  -2.458  -9.521  0.00  0.00     0.023 A 
ATOM      7  O   LIG d   1       4.248  -2.466  -7.308  0.00  0.00    -0.462 OA
ATOM      8  C   LIG d   1       4.456  -1.925  -6.105  0.00  0.00     0.104 A 
ATOM      9  C   LIG d   1       3.998  -0.692  -5.768  0.00  0.00     0.064 A 
ATOM     10  C   LIG d   1       3.236   0.077  -6.766  0.00  0.00     0.200 A 
ATOM     11  O   LIG d   1       2.796   1.187  -6.519  0.00  0.00    -0.286 OA
ATOM     12  H   LIG d   1       1.612  -0.033 -11.090  0.00  0.00     0.065 H 
ATOM     13  H   LIG d   1       1.922   1.074  -8.932  0.00  0.00     0.063 H 
ATOM     14  H   LIG d   1       3.786  -3.445  -9.700  0.00  0.00     0.069 H 
ATOM     15  H   LIG d   1       5.013  -2.490  -5.372  0.00  0.00     0.104 H 
ENDROOT
BRANCH   1  16
ATOM     16  O   LIG d   1       2.501  -2.409 -11.722  0.00  0.00    -0.487 OA
BRANCH  16  17
ATOM     17  C   LIG d   1       2.430  -1.561 -12.870  0.00  0.00     0.140 C 
ATOM     18  H   LIG d   1       1.673  -1.941 -13.556  0.00  0.00     0.075 H 
ATOM     19  H   LIG d   1       2.165  -0.551 -12.560  0.00  0.00     0.075 H 
BRANCH  17  20
ATOM     20  C   LIG d   1       3.789  -1.538 -13.573  0.00  0.00     0.193 C 
ATOM     21  H   LIG d   1       4.291  -2.494 -13.425  0.00  0.00     0.095 H 
BRANCH  20  22
ATOM     22  O   LIG d   1       3.598  -1.313 -14.971  0.00  0.00    -0.348 OA
BRANCH  22  23
ATOM     23  C   LIG d   1       4.263  -0.151 -15.470  0.00  0.00     0.048 C 
ATOM     24  H   LIG d   1       4.148   0.666 -14.758  0.00  0.00     0.056 H 
ATOM     25  H   LIG d   1       5.323  -0.369 -15.604  0.00  0.00     0.056 H 
BRANCH  23  26
ATOM     26  C   LIG d   1       3.650   0.252 -16.812  0.00  0.00    -0.042 C 
ATOM     27  H   LIG d   1       2.636   0.617 -16.653  0.00  0.00     0.025 H 
ATOM     28  H   LIG d   1       4.254   1.040 -17.264  0.00  0.00     0.025 H 
ATOM     29  H   LIG d   1       3.626  -0.612 -17.475  0.00  0.00     0.025 H 
ENDBRANCH  23  26
ENDBRANCH  22  23
ENDBRANCH  20  22
BRANCH  20  30
ATOM     30  O   LIG d   1       4.590  -0.489 -13.028  0.00  0.00    -0.348 OA
BRANCH  30  31
ATOM     31  C   LIG d   1       5.740  -0.946 -12.313  0.00  0.00     0.048 C 
ATOM     32  H   LIG d   1       5.623  -2.004 -12.075  0.00  0.00     0.056 H 
ATOM     33  H   LIG d   1       6.629  -0.808 -12.928  0.00  0.00     0.056 H 
BRANCH  31  34
ATOM     34  C   LIG d   1       5.887  -0.146 -11.017  0.00  0.00    -0.042 C 
ATOM     35  H   LIG d   1       6.601  -0.644 -10.361  0.00  0.00     0.025 H 
ATOM     36  H   LIG d   1       6.246   0.857 -11.250  0.00  0.00     0.025 H 
ATOM     37  H   LIG d   1       4.920  -0.079 -10.518  0.00  0.00     0.025 H 
ENDBRANCH  31  34
ENDBRANCH  30  31
ENDBRANCH  20  30
ENDBRANCH  17  20
ENDBRANCH  16  17
ENDBRANCH   1  16
BRANCH   9  38
ATOM     38  C   LIG d   1       4.256  -0.133  -4.418  0.00  0.00    -0.011 A 
ATOM     39  C   LIG d   1       3.196   0.086  -3.539  0.00  0.00    -0.054 A 
ATOM     40  C   LIG d   1       3.440   0.606  -2.284  0.00  0.00    -0.061 A 
ATOM     41  H   LIG d   1       2.186  -0.149  -3.839  0.00  0.00     0.062 H 
ATOM     42  C   LIG d   1       4.735   0.908  -1.899  0.00  0.00    -0.062 A 
ATOM     43  H   LIG d   1       2.621   0.776  -1.602  0.00  0.00     0.062 H 
ATOM     44  C   LIG d   1       5.789   0.692  -2.767  0.00  0.00    -0.061 A 
ATOM     45  H   LIG d   1       4.921   1.315  -0.915  0.00  0.00     0.062 H 
ATOM     46  C   LIG d   1       5.557   0.173  -4.024  0.00  0.00    -0.054 A 
ATOM     47  H   LIG d   1       6.797   0.926  -2.459  0.00  0.00     0.062 H 
ATOM     48  H   LIG d   1       6.380   0.006  -4.702  0.00  0.00     0.062 H 
ENDBRANCH   9  38
TORSDOF 10
ENDMDL
MODEL 3
REMARK VINA RESULT:      -5.7      5.249      7.565
REMARK  10 active torsions:
REMARK  status: ('A' for Active; 'I' for Inactive)
REMARK    1  A    between atoms: C_1  and  C_2 
REMARK    2  A    between atoms: C_2  and  O_3 
REMARK    3  A    between atoms: O_3  and  C_4 
REMARK    4  A    between atoms: C_4  and  C_5 
REMARK    5  A    between atoms: C_4  and  O_24 
REMARK    6  A    between atoms: C_5  and  O_6 
REMARK    7  A    between atoms: O_6  and  C_7 
REMARK    8  A    between atoms: C_15  and  C_18 
REMARK    9  A    between atoms: O_24  and  C_25 
REMARK   10  A    between atoms: C_25  and  C_26 
ROOT
ATOM      1  C   LIG d   1       2.781  -1.721 -10.583  0.00  0.00     0.124 A 
ATOM      2  C   LIG d   1       2.275  -0.440 -10.370  0.00  0.00    -0.019 A 
ATOM      3  C   LIG d   1       2.429   0.169  -9.158  0.00  0.00    -0.044 A 
ATOM      4  C   LIG d   1       3.098  -0.496  -8.128  0.00  0.00     0.065 A 
ATOM      5  C   LIG d   1       3.613  -1.788  -8.333  0.00  0.00     0.142 A 
ATOM      6  C   LIG d   1       3.447  -2.393  -9.572  0.00  0.00     0.023 A 
ATOM      7  O   LIG d   1       4.258  -2.429  -7.338  0.00  0.00    -0.462 OA
ATOM      8  C   LIG d   1       4.447  -1.899  -6.127  0.00  0.00     0.104 A 
ATOM      9  C   LIG d   1       4.003  -0.660  -5.793  0.00  0.00     0.064 A 
ATOM     10  C   LIG d   1       3.279   0.128  -6.805  0.00  0.00     0.200 A 
ATOM     11  O   LIG d   1       2.852   1.244  -6.561  0.00  0.00    -0.286 OA
ATOM     12  H   LIG d   1       1.758   0.073 -11.167  0.00  0.00     0.065 H 
ATOM     13  H   LIG d   1       2.036   1.162  -8.995  0.00  0.00     0.063 H 
ATOM     14  H   LIG d   1       3.836  -3.386  -9.747  0.00  0.00     0.069 H 
ATOM     15  H   LIG d   1       4.976  -2.479  -5.385  0.00  0.00     0.104 H 
ENDROOT
BRANCH   1  16
ATOM     16  O   LIG d   1       2.620  -2.315 -11.792  0.00  0.00    -0.487 OA
BRANCH  16  17
ATOM     17  C   LIG d   1       1.975  -3.591 -11.807  0.00  0.00     0.140 C 
ATOM     18  H   LIG d   1       2.167  -4.084 -12.759  0.00  0.00     0.075 H 
ATOM     19  H   LIG d   1       2.364  -4.205 -10.995  0.00  0.00     0.075 H 
BRANCH  17  20
ATOM     20  C   LIG d   1       0.467  -3.403 -11.626  0.00  0.00     0.193 C 
ATOM     21  H   LIG d   1       0.253  -2.354 -11.425  0.00  0.00     0.095 H 
BRANCH  20  22
ATOM     22  O   LIG d   1      -0.210  -3.808 -12.817  0.00  0.00    -0.348 OA
BRANCH  22  23
ATOM     23  C   LIG d   1      -0.267  -2.798 -13.826  0.00  0.00     0.048 C 
ATOM     24  H   LIG d   1       0.724  -2.362 -13.960  0.00  0.00     0.056 H 
ATOM     25  H   LIG d   1      -0.596  -3.243 -14.766  0.00  0.00     0.056 H 
BRANCH  23  26
ATOM     26  C   LIG d   1      -1.251  -1.707 -13.403  0.00  0.00    -0.042 C 
ATOM     27  H   LIG d   1      -2.250  -1.963 -13.756  0.00  0.00     0.025 H 
ATOM     28  H   LIG d   1      -1.259  -1.627 -12.316  0.00  0.00     0.025 H 
ATOM     29  H   LIG d   1      -0.947  -0.755 -13.835  0.00  0.00     0.025 H 
ENDBRANCH  23  26
ENDBRANCH  22  23
ENDBRANCH  20  22
BRANCH  20  30
ATOM     30  O   LIG d   1       0.016  -4.200 -10.528  0.00  0.00    -0.348 OA
BRANCH  30  31
ATOM     31  C   LIG d   1      -0.884  -5.245 -10.900  0.00  0.00     0.048 C 
ATOM     32  H   LIG d   1      -1.296  -5.036 -11.888  0.00  0.00     0.056 H 
ATOM     33  H   LIG d   1      -0.349  -6.194 -10.923  0.00  0.00     0.056 H 
BRANCH  31  34
ATOM     34  C   LIG d   1      -2.022  -5.326  -9.880  0.00  0.00    -0.042 C 
ATOM     35  H   LIG d   1      -2.930  -5.671 -10.375  0.00  0.00     0.025 H 
ATOM     36  H   LIG d   1      -1.750  -6.025  -9.089  0.00  0.00     0.025 H 
ATOM     37  H   LIG d   1      -2.196  -4.340  -9.450  0.00  0.00     0.025 H 
ENDBRANCH  31  34
ENDBRANCH  30  31
ENDBRANCH  20  30
ENDBRANCH  17  20
ENDBRANCH  16  17
ENDBRANCH   1  16
BRANCH   9  38
ATOM     38  C   LIG d   1       4.238  -0.114  -4.434  0.00  0.00    -0.011 A 
ATOM     39  C   LIG d   1       5.532   0.193  -4.018  0.00  0.00    -0.054 A 
ATOM     40  C   LIG d   1       5.746   0.701  -2.753  0.00  0.00    -0.061 A 
ATOM     41  H   LIG d   1       6.367   0.032  -4.684  0.00  0.00     0.062 H 
ATOM     42  C   LIG d   1       4.676   0.907  -1.899  0.00  0.00    -0.062 A 
ATOM     43  H   LIG d   1       6.748   0.939  -2.430  0.00  0.00     0.062 H 
ATOM     44  C   LIG d   1       3.390   0.605  -2.307  0.00  0.00    -0.061 A 
ATOM     45  H   LIG d   1       4.848   1.305  -0.909  0.00  0.00     0.062 H 
ATOM     46  C   LIG d   1       3.165   0.096  -3.570  0.00  0.00    -0.054 A 
ATOM     47  H   LIG d   1       2.560   0.772  -1.638  0.00  0.00     0.062 H 
ATOM     48  H   LIG d   1       2.161  -0.140  -3.887  0.00  0.00     0.062 H 
ENDBRANCH   9  38
TORSDOF 10
ENDMDL
MODEL 4
REMARK VINA RESULT:      -5.7      5.227      7.458
REMARK  10 active torsions:
REMARK  status: ('A' for Active; 'I' for Inactive)
REMARK    1  A    between atoms: C_1  and  C_2 
REMARK    2  A    between atoms: C_2  and  O_3 
REMARK    3  A    between atoms: O_3  and  C_4 
REMARK    4  A    between atoms: C_4  and  C_5 
REMARK    5  A    between atoms: C_4  and  O_24 
REMARK    6  A    between atoms: C_5  and  O_6 
REMARK    7  A    between atoms: O_6  and  C_7 
REMARK    8  A    between atoms: C_15  and  C_18 
REMARK    9  A    between atoms: O_24  and  C_25 
REMARK   10  A    between atoms: C_25  and  C_26 
ROOT
ATOM      1  C   LIG d   1       2.685  -1.755 -10.539  0.00  0.00     0.124 A 
ATOM      2  C   LIG d   1       2.180  -0.475 -10.320  0.00  0.00    -0.019 A 
ATOM      3  C   LIG d   1       2.355   0.139  -9.113  0.00  0.00    -0.044 A 
ATOM      4  C   LIG d   1       3.045  -0.521  -8.095  0.00  0.00     0.065 A 
ATOM      5  C   LIG d   1       3.560  -1.812  -8.305  0.00  0.00     0.142 A 
ATOM      6  C   LIG d   1       3.372  -2.422  -9.538  0.00  0.00     0.023 A 
ATOM      7  O   LIG d   1       4.226  -2.448  -7.321  0.00  0.00    -0.462 OA
ATOM      8  C   LIG d   1       4.437  -1.914  -6.115  0.00  0.00     0.104 A 
ATOM      9  C   LIG d   1       3.996  -0.674  -5.777  0.00  0.00     0.064 A 
ATOM     10  C   LIG d   1       3.250   0.108  -6.777  0.00  0.00     0.200 A 
ATOM     11  O   LIG d   1       2.825   1.224  -6.529  0.00  0.00    -0.286 OA
ATOM     12  H   LIG d   1       1.646   0.034 -11.109  0.00  0.00     0.065 H 
ATOM     13  H   LIG d   1       1.963   1.131  -8.946  0.00  0.00     0.063 H 
ATOM     14  H   LIG d   1       3.761  -3.414  -9.718  0.00  0.00     0.069 H 
ATOM     15  H   LIG d   1       4.981  -2.489  -5.381  0.00  0.00     0.104 H 
ENDROOT
BRANCH   1  16
ATOM     16  O   LIG d   1       2.503  -2.353 -11.743  0.00  0.00    -0.487 OA
BRANCH  16  17
ATOM     17  C   LIG d   1       2.151  -3.739 -11.731  0.00  0.00     0.140 C 
ATOM     18  H   LIG d   1       2.602  -4.235 -12.589  0.00  0.00     0.075 H 
ATOM     19  H   LIG d   1       2.516  -4.199 -10.813  0.00  0.00     0.075 H 
BRANCH  17  20
ATOM     20  C   LIG d   1       0.629  -3.880 -11.803  0.00  0.00     0.193 C 
ATOM     21  H   LIG d   1       0.373  -4.755 -12.399  0.00  0.00     0.095 H 
BRANCH  20  22
ATOM     22  O   LIG d   1       0.102  -4.033 -10.483  0.00  0.00    -0.348 OA
BRANCH  22  23
ATOM     23  C   LIG d   1      -1.003  -4.933 -10.398  0.00  0.00     0.048 C 
ATOM     24  H   LIG d   1      -1.038  -5.373  -9.401  0.00  0.00     0.056 H 
ATOM     25  H   LIG d   1      -1.929  -4.390 -10.587  0.00  0.00     0.056 H 
BRANCH  23  26
ATOM     26  C   LIG d   1      -0.840  -6.043 -11.438  0.00  0.00    -0.042 C 
ATOM     27  H   LIG d   1      -0.987  -7.012 -10.961  0.00  0.00     0.025 H 
ATOM     28  H   LIG d   1      -1.580  -5.911 -12.228  0.00  0.00     0.025 H 
ATOM     29  H   LIG d   1       0.160  -5.996 -11.866  0.00  0.00     0.025 H 
ENDBRANCH  23  26
ENDBRANCH  22  23
ENDBRANCH  20  22
BRANCH  20  30
ATOM     30  O   LIG d   1       0.070  -2.712 -12.406  0.00  0.00    -0.348 OA
BRANCH  30  31
ATOM     31  C   LIG d   1      -0.658  -2.969 -13.608  0.00  0.00     0.048 C 
ATOM     32  H   LIG d   1      -0.293  -2.315 -14.401  0.00  0.00     0.056 H 
ATOM     33  H   LIG d   1      -0.517  -4.009 -13.902  0.00  0.00     0.056 H 
BRANCH  31  34
ATOM     34  C   LIG d   1      -2.146  -2.702 -13.371  0.00  0.00    -0.042 C 
ATOM     35  H   LIG d   1      -2.631  -3.621 -13.040  0.00  0.00     0.025 H 
ATOM     36  H   LIG d   1      -2.259  -1.934 -12.606  0.00  0.00     0.025 H 
ATOM     37  H   LIG d   1      -2.606  -2.362 -14.299  0.00  0.00     0.025 H 
ENDBRANCH  31  34
ENDBRANCH  30  31
ENDBRANCH  20  30
ENDBRANCH  17  20
ENDBRANCH  16  17
ENDBRANCH   1  16
BRANCH   9  38
ATOM     38  C   LIG d   1       4.255  -0.123  -4.424  0.00  0.00    -0.011 A 
ATOM     39  C   LIG d   1       5.557   0.176  -4.030  0.00  0.00    -0.054 A 
ATOM     40  C   LIG d   1       5.794   0.689  -2.770  0.00  0.00    -0.061 A 
ATOM     41  H   LIG d   1       6.381   0.006  -4.707  0.00  0.00     0.062 H 
ATOM     42  C   LIG d   1       4.739   0.907  -1.901  0.00  0.00    -0.062 A 
ATOM     43  H   LIG d   1       6.802   0.921  -2.463  0.00  0.00     0.062 H 
ATOM     44  C   LIG d   1       3.444   0.612  -2.288  0.00  0.00    -0.061 A 
ATOM     45  H   LIG d   1       4.929   1.309  -0.916  0.00  0.00     0.062 H 
ATOM     46  C   LIG d   1       3.197   0.099  -3.545  0.00  0.00    -0.054 A 
ATOM     47  H   LIG d   1       2.625   0.789  -1.608  0.00  0.00     0.062 H 
ATOM     48  H   LIG d   1       2.186  -0.132  -3.846  0.00  0.00     0.062 H 
ENDBRANCH   9  38
TORSDOF 10
ENDMDL
MODEL 5
REMARK VINA RESULT:      -5.5      9.769     12.706
REMARK  10 active torsions:
REMARK  status: ('A' for Active; 'I' for Inactive)
REMARK    1  A    between atoms: C_1  and  C_2 
REMARK    2  A    between atoms: C_2  and  O_3 
REMARK    3  A    between atoms: O_3  and  C_4 
REMARK    4  A    between atoms: C_4  and  C_5 
REMARK    5  A    between atoms: C_4  and  O_24 
REMARK    6  A    between atoms: C_5  and  O_6 
REMARK    7  A    between atoms: O_6  and  C_7 
REMARK    8  A    between atoms: C_15  and  C_18 
REMARK    9  A    between atoms: O_24  and  C_25 
REMARK   10  A    between atoms: C_25  and  C_26 
ROOT
ATOM      1  C   LIG d   1       9.414   4.286  -4.090  0.00  0.00     0.124 A 
ATOM      2  C   LIG d   1       9.284   5.414  -4.896  0.00  0.00    -0.019 A 
ATOM      3  C   LIG d   1       9.536   6.657  -4.390  0.00  0.00    -0.044 A 
ATOM      4  C   LIG d   1       9.928   6.795  -3.057  0.00  0.00     0.065 A 
ATOM      5  C   LIG d   1      10.064   5.663  -2.235  0.00  0.00     0.142 A 
ATOM      6  C   LIG d   1       9.802   4.407  -2.766  0.00  0.00     0.023 A 
ATOM      7  O   LIG d   1      10.441   5.798  -0.948  0.00  0.00    -0.462 OA
ATOM      8  C   LIG d   1      10.705   6.978  -0.382  0.00  0.00     0.104 A 
ATOM      9  C   LIG d   1      10.615   8.151  -1.060  0.00  0.00     0.064 A 
ATOM     10  C   LIG d   1      10.204   8.121  -2.474  0.00  0.00     0.200 A 
ATOM     11  O   LIG d   1      10.101   9.142  -3.132  0.00  0.00    -0.286 OA
ATOM     12  H   LIG d   1       8.980   5.306  -5.927  0.00  0.00     0.065 H 
ATOM     13  H   LIG d   1       9.434   7.530  -5.018  0.00  0.00     0.063 H 
ATOM     14  H   LIG d   1       9.902   3.526  -2.148  0.00  0.00     0.069 H 
ATOM     15  H   LIG d   1      11.004   7.000   0.656  0.00  0.00     0.104 H 
ENDROOT
BRANCH   1  16
ATOM     16  O   LIG d   1       9.159   3.057  -4.606  0.00  0.00    -0.487 OA
BRANCH  16  17
ATOM     17  C   LIG d   1       8.876   2.010  -3.675  0.00  0.00     0.140 C 
ATOM     18  H   LIG d   1       9.716   1.317  -3.640  0.00  0.00     0.075 H 
ATOM     19  H   LIG d   1       8.714   2.436  -2.685  0.00  0.00     0.075 H 
BRANCH  17  20
ATOM     20  C   LIG d   1       7.617   1.260  -4.118  0.00  0.00     0.193 C 
ATOM     21  H   LIG d   1       7.782   0.187  -4.029  0.00  0.00     0.095 H 
BRANCH  20  22
ATOM     22  O   LIG d   1       6.518   1.644  -3.290  0.00  0.00    -0.348 OA
BRANCH  22  23
ATOM     23  C   LIG d   1       5.622   0.575  -2.979  0.00  0.00     0.048 C 
ATOM     24  H   LIG d   1       5.039   0.321  -3.865  0.00  0.00     0.056 H 
ATOM     25  H   LIG d   1       6.194  -0.297  -2.660  0.00  0.00     0.056 H 
BRANCH  23  26
ATOM     26  C   LIG d   1       4.679   1.008  -1.855  0.00  0.00    -0.042 C 
ATOM     27  H   LIG d   1       3.724   0.496  -1.966  0.00  0.00     0.025 H 
ATOM     28  H   LIG d   1       5.121   0.749  -0.893  0.00  0.00     0.025 H 
ATOM     29  H   LIG d   1       4.524   2.085  -1.906  0.00  0.00     0.025 H 
ENDBRANCH  23  26
ENDBRANCH  22  23
ENDBRANCH  20  22
BRANCH  20  30
ATOM     30  O   LIG d   1       7.323   1.585  -5.479  0.00  0.00    -0.348 OA
BRANCH  30  31
ATOM     31  C   LIG d   1       7.561   0.516  -6.396  0.00  0.00     0.048 C 
ATOM     32  H   LIG d   1       8.062   0.903  -7.284  0.00  0.00     0.056 H 
ATOM     33  H   LIG d   1       8.191  -0.236  -5.923  0.00  0.00     0.056 H 
BRANCH  31  34
ATOM     34  C   LIG d   1       6.227  -0.117  -6.800  0.00  0.00    -0.042 C 
ATOM     35  H   LIG d   1       6.185  -0.216  -7.885  0.00  0.00     0.025 H 
ATOM     36  H   LIG d   1       6.140  -1.102  -6.340  0.00  0.00     0.025 H 
ATOM     37  H   LIG d   1       5.407   0.516  -6.461  0.00  0.00     0.025 H 
ENDBRANCH  31  34
ENDBRANCH  30  31
ENDBRANCH  20  30
ENDBRANCH  17  20
ENDBRANCH  16  17
ENDBRANCH   1  16
BRANCH   9  38
ATOM     38  C   LIG d   1      10.918   9.438  -0.388  0.00  0.00    -0.011 A 
ATOM     39  C   LIG d   1       9.881  10.252   0.064  0.00  0.00    -0.054 A 
ATOM     40  C   LIG d   1      10.168  11.448   0.689  0.00  0.00    -0.061 A 
ATOM     41  H   LIG d   1       8.854   9.948  -0.076  0.00  0.00     0.062 H 
ATOM     42  C   LIG d   1      11.483  11.839   0.868  0.00  0.00    -0.062 A 
ATOM     43  H   LIG d   1       9.365  12.079   1.040  0.00  0.00     0.062 H 
ATOM     44  C   LIG d   1      12.516  11.035   0.422  0.00  0.00    -0.061 A 
ATOM     45  H   LIG d   1      11.703  12.777   1.358  0.00  0.00     0.062 H 
ATOM     46  C   LIG d   1      12.241   9.837  -0.205  0.00  0.00    -0.054 A 
ATOM     47  H   LIG d   1      13.540  11.344   0.568  0.00  0.00     0.062 H 
ATOM     48  H   LIG d   1      13.048   9.211  -0.554  0.00  0.00     0.062 H 
ENDBRANCH   9  38
TORSDOF 10
ENDMDL
MODEL 6
REMARK VINA RESULT:      -5.5      5.562      8.465
REMARK  10 active torsions:
REMARK  status: ('A' for Active; 'I' for Inactive)
REMARK    1  A    between atoms: C_1  and  C_2 
REMARK    2  A    between atoms: C_2  and  O_3 
REMARK    3  A    between atoms: O_3  and  C_4 
REMARK    4  A    between atoms: C_4  and  C_5 
REMARK    5  A    between atoms: C_4  and  O_24 
REMARK    6  A    between atoms: C_5  and  O_6 
REMARK    7  A    between atoms: O_6  and  C_7 
REMARK    8  A    between atoms: C_15  and  C_18 
REMARK    9  A    between atoms: O_24  and  C_25 
REMARK   10  A    between atoms: C_25  and  C_26 
ROOT
ATOM      1  C   LIG d   1       3.969   0.208 -10.784  0.00  0.00     0.124 A 
ATOM      2  C   LIG d   1       2.802   0.691 -10.195  0.00  0.00    -0.019 A 
ATOM      3  C   LIG d   1       2.631   0.618  -8.842  0.00  0.00    -0.044 A 
ATOM      4  C   LIG d   1       3.632   0.057  -8.047  0.00  0.00     0.065 A 
ATOM      5  C   LIG d   1       4.813  -0.432  -8.631  0.00  0.00     0.142 A 
ATOM      6  C   LIG d   1       4.971  -0.350 -10.008  0.00  0.00     0.023 A 
ATOM      7  O   LIG d   1       5.779  -0.974  -7.862  0.00  0.00    -0.462 OA
ATOM      8  C   LIG d   1       5.684  -1.081  -6.534  0.00  0.00     0.104 A 
ATOM      9  C   LIG d   1       4.599  -0.649  -5.841  0.00  0.00     0.064 A 
ATOM     10  C   LIG d   1       3.480  -0.044  -6.584  0.00  0.00     0.200 A 
ATOM     11  O   LIG d   1       2.478   0.358  -6.016  0.00  0.00    -0.286 OA
ATOM     12  H   LIG d   1       2.029   1.125 -10.811  0.00  0.00     0.065 H 
ATOM     13  H   LIG d   1       1.725   0.993  -8.389  0.00  0.00     0.063 H 
ATOM     14  H   LIG d   1       5.873  -0.721 -10.474  0.00  0.00     0.069 H 
ATOM     15  H   LIG d   1       6.503  -1.528  -5.990  0.00  0.00     0.104 H 
ENDROOT
BRANCH   1  16
ATOM     16  O   LIG d   1       4.126   0.287 -12.129  0.00  0.00    -0.487 OA
BRANCH  16  17
ATOM     17  C   LIG d   1       4.550  -0.900 -12.802  0.00  0.00     0.140 C 
ATOM     18  H   LIG d   1       5.185  -0.632 -13.646  0.00  0.00     0.075 H 
ATOM     19  H   LIG d   1       5.111  -1.530 -12.112  0.00  0.00     0.075 H 
BRANCH  17  20
ATOM     20  C   LIG d   1       3.326  -1.665 -13.309  0.00  0.00     0.193 C 
ATOM     21  H   LIG d   1       2.460  -1.004 -13.314  0.00  0.00     0.095 H 
BRANCH  20  22
ATOM     22  O   LIG d   1       3.573  -2.135 -14.636  0.00  0.00    -0.348 OA
BRANCH  22  23
ATOM     23  C   LIG d   1       2.498  -1.899 -15.547  0.00  0.00     0.048 C 
ATOM     24  H   LIG d   1       2.189  -2.844 -15.996  0.00  0.00     0.056 H 
ATOM     25  H   LIG d   1       1.656  -1.462 -15.010  0.00  0.00     0.056 H 
BRANCH  23  26
ATOM     26  C   LIG d   1       2.959  -0.939 -16.645  0.00  0.00    -0.042 C 
ATOM     27  H   LIG d   1       2.406  -1.144 -17.562  0.00  0.00     0.025 H 
ATOM     28  H   LIG d   1       2.773   0.088 -16.330  0.00  0.00     0.025 H 
ATOM     29  H   LIG d   1       4.024  -1.077 -16.825  0.00  0.00     0.025 H 
ENDBRANCH  23  26
ENDBRANCH  22  23
ENDBRANCH  20  22
BRANCH  20  30
ATOM     30  O   LIG d   1       3.071  -2.779 -12.451  0.00  0.00    -0.348 OA
BRANCH  30  31
ATOM     31  C   LIG d   1       1.832  -2.697 -11.744  0.00  0.00     0.048 C 
ATOM     32  H   LIG d   1       1.413  -1.697 -11.860  0.00  0.00     0.056 H 
ATOM     33  H   LIG d   1       1.135  -3.432 -12.145  0.00  0.00     0.056 H 
BRANCH  31  34
ATOM     34  C   LIG d   1       2.073  -2.979 -10.259  0.00  0.00    -0.042 C 
ATOM     35  H   LIG d   1       1.291  -3.639  -9.883  0.00  0.00     0.025 H 
ATOM     36  H   LIG d   1       3.044  -3.457 -10.134  0.00  0.00     0.025 H 
ATOM     37  H   LIG d   1       2.055  -2.041  -9.703  0.00  0.00     0.025 H 
ENDBRANCH  31  34
ENDBRANCH  30  31
ENDBRANCH  20  30
ENDBRANCH  17  20
ENDBRANCH  16  17
ENDBRANCH   1  16
BRANCH   9  38
ATOM     38  C   LIG d   1       4.539  -0.789  -4.366  0.00  0.00    -0.011 A 
ATOM     39  C   LIG d   1       4.051  -1.963  -3.795  0.00  0.00    -0.054 A 
ATOM     40  C   LIG d   1       3.998  -2.089  -2.422  0.00  0.00    -0.061 A 
ATOM     41  H   LIG d   1       3.714  -2.772  -4.425  0.00  0.00     0.062 H 
ATOM     42  C   LIG d   1       4.429  -1.053  -1.613  0.00  0.00    -0.062 A 
ATOM     43  H   LIG d   1       3.621  -2.998  -1.978  0.00  0.00     0.062 H 
ATOM     44  C   LIG d   1       4.915   0.114  -2.174  0.00  0.00    -0.061 A 
ATOM     45  H   LIG d   1       4.386  -1.156  -0.538  0.00  0.00     0.062 H 
ATOM     46  C   LIG d   1       4.972   0.251  -3.546  0.00  0.00    -0.054 A 
ATOM     47  H   LIG d   1       5.254   0.918  -1.538  0.00  0.00     0.062 H 
ATOM     48  H   LIG d   1       5.350   1.163  -3.984  0.00  0.00     0.062 H 
ENDBRANCH   9  38
TORSDOF 10
ENDMDL
MODEL 7
REMARK VINA RESULT:      -5.4      9.750     12.739
REMARK  10 active torsions:
REMARK  status: ('A' for Active; 'I' for Inactive)
REMARK    1  A    between atoms: C_1  and  C_2 
REMARK    2  A    between atoms: C_2  and  O_3 
REMARK    3  A    between atoms: O_3  and  C_4 
REMARK    4  A    between atoms: C_4  and  C_5 
REMARK    5  A    between atoms: C_4  and  O_24 
REMARK    6  A    between atoms: C_5  and  O_6 
REMARK    7  A    between atoms: O_6  and  C_7 
REMARK    8  A    between atoms: C_15  and  C_18 
REMARK    9  A    between atoms: O_24  and  C_25 
REMARK   10  A    between atoms: C_25  and  C_26 
ROOT
ATOM      1  C   LIG d   1       9.453   4.198  -4.059  0.00  0.00     0.124 A 
ATOM      2  C   LIG d   1       9.261   5.341  -4.832  0.00  0.00    -0.019 A 
ATOM      3  C   LIG d   1       9.482   6.579  -4.299  0.00  0.00    -0.044 A 
ATOM      4  C   LIG d   1       9.902   6.697  -2.973  0.00  0.00     0.065 A 
ATOM      5  C   LIG d   1      10.100   5.550  -2.185  0.00  0.00     0.142 A 
ATOM      6  C   LIG d   1       9.870   4.299  -2.743  0.00  0.00     0.023 A 
ATOM      7  O   LIG d   1      10.506   5.665  -0.905  0.00  0.00    -0.462 OA
ATOM      8  C   LIG d   1      10.741   6.840  -0.314  0.00  0.00     0.104 A 
ATOM      9  C   LIG d   1      10.591   8.026  -0.959  0.00  0.00     0.064 A 
ATOM     10  C   LIG d   1      10.145   8.017  -2.363  0.00  0.00     0.200 A 
ATOM     11  O   LIG d   1       9.989   9.050  -2.990  0.00  0.00    -0.286 OA
ATOM     12  H   LIG d   1       8.935   5.249  -5.858  0.00  0.00     0.065 H 
ATOM     13  H   LIG d   1       9.332   7.464  -4.901  0.00  0.00     0.063 H 
ATOM     14  H   LIG d   1      10.017   3.407  -2.152  0.00  0.00     0.069 H 
ATOM     15  H   LIG d   1      11.065   6.846   0.716  0.00  0.00     0.104 H 
ENDROOT
BRANCH   1  16
ATOM     16  O   LIG d   1       9.229   2.974  -4.601  0.00  0.00    -0.487 OA
BRANCH  16  17
ATOM     17  C   LIG d   1       8.830   1.933  -3.708  0.00  0.00     0.140 C 
ATOM     18  H   LIG d   1       9.589   1.152  -3.696  0.00  0.00     0.075 H 
ATOM     19  H   LIG d   1       8.713   2.340  -2.703  0.00  0.00     0.075 H 
BRANCH  17  20
ATOM     20  C   LIG d   1       7.498   1.342  -4.176  0.00  0.00     0.193 C 
ATOM     21  H   LIG d   1       7.238   1.757  -5.149  0.00  0.00     0.095 H 
BRANCH  20  22
ATOM     22  O   LIG d   1       7.619  -0.078  -4.281  0.00  0.00    -0.348 OA
BRANCH  22  23
ATOM     23  C   LIG d   1       8.077  -0.531  -5.556  0.00  0.00     0.048 C 
ATOM     24  H   LIG d   1       9.122  -0.247  -5.688  0.00  0.00     0.056 H 
ATOM     25  H   LIG d   1       7.988  -1.616  -5.609  0.00  0.00     0.056 H 
BRANCH  23  26
ATOM     26  C   LIG d   1       7.232   0.107  -6.660  0.00  0.00    -0.042 C 
ATOM     27  H   LIG d   1       6.952  -0.654  -7.388  0.00  0.00     0.025 H 
ATOM     28  H   LIG d   1       6.333   0.541  -6.222  0.00  0.00     0.025 H 
ATOM     29  H   LIG d   1       7.809   0.888  -7.153  0.00  0.00     0.025 H 
ENDBRANCH  23  26
ENDBRANCH  22  23
ENDBRANCH  20  22
BRANCH  20  30
ATOM     30  O   LIG d   1       6.475   1.663  -3.231  0.00  0.00    -0.348 OA
BRANCH  30  31
ATOM     31  C   LIG d   1       5.633   0.561  -2.888  0.00  0.00     0.048 C 
ATOM     32  H   LIG d   1       5.097   0.223  -3.775  0.00  0.00     0.056 H 
ATOM     33  H   LIG d   1       6.243  -0.254  -2.499  0.00  0.00     0.056 H 
BRANCH  31  34
ATOM     34  C   LIG d   1       4.627   1.000  -1.822  0.00  0.00    -0.042 C 
ATOM     35  H   LIG d   1       4.566   0.238  -1.044  0.00  0.00     0.025 H 
ATOM     36  H   LIG d   1       4.953   1.943  -1.382  0.00  0.00     0.025 H 
ATOM     37  H   LIG d   1       3.647   1.132  -2.279  0.00  0.00     0.025 H 
ENDBRANCH  31  34
ENDBRANCH  30  31
ENDBRANCH  20  30
ENDBRANCH  17  20
ENDBRANCH  16  17
ENDBRANCH   1  16
BRANCH   9  38
ATOM     38  C   LIG d   1      10.865   9.305  -0.260  0.00  0.00    -0.011 A 
ATOM     39  C   LIG d   1      12.167   9.632   0.114  0.00  0.00    -0.054 A 
ATOM     40  C   LIG d   1      12.417  10.824   0.764  0.00  0.00    -0.061 A 
ATOM     41  H   LIG d   1      12.979   8.954  -0.102  0.00  0.00     0.062 H 
ATOM     42  C   LIG d   1      11.377  11.693   1.042  0.00  0.00    -0.062 A 
ATOM     43  H   LIG d   1      13.425  11.078   1.054  0.00  0.00     0.062 H 
ATOM     44  C   LIG d   1      10.084  11.374   0.672  0.00  0.00    -0.061 A 
ATOM     45  H   LIG d   1      11.578  12.626   1.551  0.00  0.00     0.062 H 
ATOM     46  C   LIG d   1       9.822  10.186   0.022  0.00  0.00    -0.054 A 
ATOM     47  H   LIG d   1       9.278  12.059   0.888  0.00  0.00     0.062 H 
ATOM     48  H   LIG d   1       8.812   9.936  -0.266  0.00  0.00     0.062 H 
ENDBRANCH   9  38
TORSDOF 10
ENDMDL
MODEL 8
REMARK VINA RESULT:      -5.3      5.984      9.475
REMARK  10 active torsions:
REMARK  status: ('A' for Active; 'I' for Inactive)
REMARK    1  A    between atoms: C_1  and  C_2 
REMARK    2  A    between atoms: C_2  and  O_3 
REMARK    3  A    between atoms: O_3  and  C_4 
REMARK    4  A    between atoms: C_4  and  C_5 
REMARK    5  A    between atoms: C_4  and  O_24 
REMARK    6  A    between atoms: C_5  and  O_6 
REMARK    7  A    between atoms: O_6  and  C_7 
REMARK    8  A    between atoms: C_15  and  C_18 
REMARK    9  A    between atoms: O_24  and  C_25 
REMARK   10  A    between atoms: C_25  and  C_26 
ROOT
ATOM      1  C   LIG d   1       6.906   0.268  -5.526  0.00  0.00     0.124 A 
ATOM      2  C   LIG d   1       6.988   0.497  -4.155  0.00  0.00    -0.019 A 
ATOM      3  C   LIG d   1       7.764   1.511  -3.670  0.00  0.00    -0.044 A 
ATOM      4  C   LIG d   1       8.478   2.321  -4.555  0.00  0.00     0.065 A 
ATOM      5  C   LIG d   1       8.401   2.099  -5.941  0.00  0.00     0.142 A 
ATOM      6  C   LIG d   1       7.607   1.064  -6.417  0.00  0.00     0.023 A 
ATOM      7  O   LIG d   1       9.090   2.881  -6.795  0.00  0.00    -0.462 OA
ATOM      8  C   LIG d   1       9.870   3.890  -6.397  0.00  0.00     0.104 A 
ATOM      9  C   LIG d   1      10.034   4.216  -5.089  0.00  0.00     0.064 A 
ATOM     10  C   LIG d   1       9.330   3.421  -4.068  0.00  0.00     0.200 A 
ATOM     11  O   LIG d   1       9.443   3.663  -2.879  0.00  0.00    -0.286 OA
ATOM     12  H   LIG d   1       6.436  -0.130  -3.471  0.00  0.00     0.065 H 
ATOM     13  H   LIG d   1       7.826   1.686  -2.606  0.00  0.00     0.063 H 
ATOM     14  H   LIG d   1       7.536   0.879  -7.479  0.00  0.00     0.069 H 
ATOM     15  H   LIG d   1      10.389   4.471  -7.146  0.00  0.00     0.104 H 
ENDROOT
BRANCH   1  16
ATOM     16  O   LIG d   1       6.131  -0.743  -5.994  0.00  0.00    -0.487 OA
BRANCH  16  17
ATOM     17  C   LIG d   1       4.989  -1.099  -5.213  0.00  0.00     0.140 C 
ATOM     18  H   LIG d   1       4.793  -2.165  -5.320  0.00  0.00     0.075 H 
ATOM     19  H   LIG d   1       5.178  -0.868  -4.165  0.00  0.00     0.075 H 
BRANCH  17  20
ATOM     20  C   LIG d   1       3.772  -0.307  -5.697  0.00  0.00     0.193 C 
ATOM     21  H   LIG d   1       2.923  -0.980  -5.814  0.00  0.00     0.095 H 
BRANCH  20  22
ATOM     22  O   LIG d   1       3.450   0.703  -4.739  0.00  0.00    -0.348 OA
BRANCH  22  23
ATOM     23  C   LIG d   1       3.255   0.208  -3.413  0.00  0.00     0.048 C 
ATOM     24  H   LIG d   1       2.197   0.001  -3.254  0.00  0.00     0.056 H 
ATOM     25  H   LIG d   1       3.827  -0.710  -3.281  0.00  0.00     0.056 H 
BRANCH  23  26
ATOM     26  C   LIG d   1       3.727   1.255  -2.402  0.00  0.00    -0.042 C 
ATOM     27  H   LIG d   1       4.814   1.234  -2.338  0.00  0.00     0.025 H 
ATOM     28  H   LIG d   1       3.400   2.243  -2.725  0.00  0.00     0.025 H 
ATOM     29  H   LIG d   1       3.301   1.033  -1.424  0.00  0.00     0.025 H 
ENDBRANCH  23  26
ENDBRANCH  22  23
ENDBRANCH  20  22
BRANCH  20  30
ATOM     30  O   LIG d   1       4.071   0.307  -6.952  0.00  0.00    -0.348 OA
BRANCH  30  31
ATOM     31  C   LIG d   1       2.937   0.468  -7.806  0.00  0.00     0.048 C 
ATOM     32  H   LIG d   1       2.975  -0.274  -8.604  0.00  0.00     0.056 H 
ATOM     33  H   LIG d   1       2.024   0.331  -7.226  0.00  0.00     0.056 H 
BRANCH  31  34
ATOM     34  C   LIG d   1       2.951   1.872  -8.414  0.00  0.00    -0.042 C 
ATOM     35  H   LIG d   1       3.958   2.283  -8.357  0.00  0.00     0.025 H 
ATOM     36  H   LIG d   1       2.638   1.818  -9.457  0.00  0.00     0.025 H 
ATOM     37  H   LIG d   1       2.264   2.514  -7.862  0.00  0.00     0.025 H 
ENDBRANCH  31  34
ENDBRANCH  30  31
ENDBRANCH  20  30
ENDBRANCH  17  20
ENDBRANCH  16  17
ENDBRANCH   1  16
BRANCH   9  38
ATOM     38  C   LIG d   1      10.911   5.345  -4.695  0.00  0.00    -0.011 A 
ATOM     39  C   LIG d   1      12.265   5.126  -4.450  0.00  0.00    -0.054 A 
ATOM     40  C   LIG d   1      13.078   6.180  -4.085  0.00  0.00    -0.061 A 
ATOM     41  H   LIG d   1      12.679   4.133  -4.544  0.00  0.00     0.062 H 
ATOM     42  C   LIG d   1      12.549   7.453  -3.963  0.00  0.00    -0.062 A 
ATOM     43  H   LIG d   1      14.127   6.012  -3.895  0.00  0.00     0.062 H 
ATOM     44  C   LIG d   1      11.206   7.677  -4.206  0.00  0.00    -0.061 A 
ATOM     45  H   LIG d   1      13.189   8.276  -3.677  0.00  0.00     0.062 H 
ATOM     46  C   LIG d   1      10.385   6.630  -4.571  0.00  0.00    -0.054 A 
ATOM     47  H   LIG d   1      10.800   8.672  -4.113  0.00  0.00     0.062 H 
ATOM     48  H   LIG d   1       9.336   6.804  -4.760  0.00  0.00     0.062 H 
ENDBRANCH   9  38
TORSDOF 10
ENDMDL
MODEL 9
REMARK VINA RESULT:      -5.3      5.594      8.910
REMARK  10 active torsions:
REMARK  status: ('A' for Active; 'I' for Inactive)
REMARK    1  A    between atoms: C_1  and  C_2 
REMARK    2  A    between atoms: C_2  and  O_3 
REMARK    3  A    between atoms: O_3  and  C_4 
REMARK    4  A    between atoms: C_4  and  C_5 
REMARK    5  A    between atoms: C_4  and  O_24 
REMARK    6  A    between atoms: C_5  and  O_6 
REMARK    7  A    between atoms: O_6  and  C_7 
REMARK    8  A    between atoms: C_15  and  C_18 
REMARK    9  A    between atoms: O_24  and  C_25 
REMARK   10  A    between atoms: C_25  and  C_26 
ROOT
ATOM      1  C   LIG d   1       6.535  -0.310  -5.075  0.00  0.00     0.124 A 
ATOM      2  C   LIG d   1       6.729   0.110  -3.761  0.00  0.00    -0.019 A 
ATOM      3  C   LIG d   1       7.523   1.188  -3.492  0.00  0.00    -0.044 A 
ATOM      4  C   LIG d   1       8.141   1.872  -4.540  0.00  0.00     0.065 A 
ATOM      5  C   LIG d   1       7.951   1.457  -5.870  0.00  0.00     0.142 A 
ATOM      6  C   LIG d   1       7.141   0.358  -6.125  0.00  0.00     0.023 A 
ATOM      7  O   LIG d   1       8.549   2.117  -6.881  0.00  0.00    -0.462 OA
ATOM      8  C   LIG d   1       9.338   3.178  -6.697  0.00  0.00     0.104 A 
ATOM      9  C   LIG d   1       9.607   3.686  -5.466  0.00  0.00     0.064 A 
ATOM     10  C   LIG d   1       9.009   3.036  -4.288  0.00  0.00     0.200 A 
ATOM     11  O   LIG d   1       9.219   3.444  -3.158  0.00  0.00    -0.286 OA
ATOM     12  H   LIG d   1       6.251  -0.420  -2.951  0.00  0.00     0.065 H 
ATOM     13  H   LIG d   1       7.672   1.511  -2.472  0.00  0.00     0.063 H 
ATOM     14  H   LIG d   1       6.983   0.026  -7.141  0.00  0.00     0.069 H 
ATOM     15  H   LIG d   1       9.779   3.653  -7.562  0.00  0.00     0.104 H 
ENDROOT
BRANCH   1  16
ATOM     16  O   LIG d   1       5.744  -1.383  -5.328  0.00  0.00    -0.487 OA
BRANCH  16  17
ATOM     17  C   LIG d   1       4.491  -1.129  -5.967  0.00  0.00     0.140 C 
ATOM     18  H   LIG d   1       4.667  -0.714  -6.959  0.00  0.00     0.075 H 
ATOM     19  H   LIG d   1       3.932  -2.060  -6.056  0.00  0.00     0.075 H 
BRANCH  17  20
ATOM     20  C   LIG d   1       3.687  -0.129  -5.133  0.00  0.00     0.193 C 
ATOM     21  H   LIG d   1       4.369   0.501  -4.562  0.00  0.00     0.095 H 
BRANCH  20  22
ATOM     22  O   LIG d   1       2.897   0.688  -6.000  0.00  0.00    -0.348 OA
BRANCH  22  23
ATOM     23  C   LIG d   1       2.975   0.319  -7.378  0.00  0.00     0.048 C 
ATOM     24  H   LIG d   1       3.905  -0.219  -7.558  0.00  0.00     0.056 H 
ATOM     25  H   LIG d   1       2.130  -0.322  -7.630  0.00  0.00     0.056 H 
BRANCH  23  26
ATOM     26  C   LIG d   1       2.938   1.578  -8.246  0.00  0.00    -0.042 C 
ATOM     27  H   LIG d   1       3.269   2.434  -7.659  0.00  0.00     0.025 H 
ATOM     28  H   LIG d   1       3.601   1.446  -9.102  0.00  0.00     0.025 H 
ATOM     29  H   LIG d   1       1.921   1.748  -8.597  0.00  0.00     0.025 H 
ENDBRANCH  23  26
ENDBRANCH  22  23
ENDBRANCH  20  22
BRANCH  20  30
ATOM     30  O   LIG d   1       2.830  -0.838  -4.236  0.00  0.00    -0.348 OA
BRANCH  30  31
ATOM     31  C   LIG d   1       3.196  -0.714  -2.861  0.00  0.00     0.048 C 
ATOM     32  H   LIG d   1       3.918   0.096  -2.748  0.00  0.00     0.056 H 
ATOM     33  H   LIG d   1       2.309  -0.494  -2.267  0.00  0.00     0.056 H 
BRANCH  31  34
ATOM     34  C   LIG d   1       3.822  -2.024  -2.378  0.00  0.00    -0.042 C 
ATOM     35  H   LIG d   1       4.515  -1.817  -1.563  0.00  0.00     0.025 H 
ATOM     36  H   LIG d   1       3.036  -2.693  -2.028  0.00  0.00     0.025 H 
ATOM     37  H   LIG d   1       4.360  -2.495  -3.202  0.00  0.00     0.025 H 
ENDBRANCH  31  34
ENDBRANCH  30  31
ENDBRANCH  20  30
ENDBRANCH  17  20
ENDBRANCH  16  17
ENDBRANCH   1  16
BRANCH   9  38
ATOM     38  C   LIG d   1      10.491   4.867  -5.312  0.00  0.00    -0.011 A 
ATOM     39  C   LIG d   1      11.864   4.696  -5.145  0.00  0.00    -0.054 A 
ATOM     40  C   LIG d   1      12.682   5.798  -5.003  0.00  0.00    -0.061 A 
ATOM     41  H   LIG d   1      12.287   3.702  -5.125  0.00  0.00     0.062 H 
ATOM     42  C   LIG d   1      12.141   7.071  -5.027  0.00  0.00    -0.062 A 
ATOM     43  H   LIG d   1      13.746   5.666  -4.873  0.00  0.00     0.062 H 
ATOM     44  C   LIG d   1      10.779   7.247  -5.193  0.00  0.00    -0.061 A 
ATOM     45  H   LIG d   1      12.786   7.931  -4.915  0.00  0.00     0.062 H 
ATOM     46  C   LIG d   1       9.952   6.152  -5.336  0.00  0.00    -0.054 A 
ATOM     47  H   LIG d   1      10.364   8.243  -5.215  0.00  0.00     0.062 H 
ATOM     48  H   LIG d   1       8.889   6.290  -5.465  0.00  0.00     0.062 H 
ENDBRANCH   9  38
TORSDOF 10
ENDMDL
MODEL 10
REMARK VINA RESULT:      -5.3      6.689     12.047
REMARK  10 active torsions:
REMARK  status: ('A' for Active; 'I' for Inactive)
REMARK    1  A    between atoms: C_1  and  C_2 
REMARK    2  A    between atoms: C_2  and  O_3 
REMARK    3  A    between atoms: O_3  and  C_4 
REMARK    4  A    between atoms: C_4  and  C_5 
REMARK    5  A    between atoms: C_4  and  O_24 
REMARK    6  A    between atoms: C_5  and  O_6 
REMARK    7  A    between atoms: O_6  and  C_7 
REMARK    8  A    between atoms: C_15  and  C_18 
REMARK    9  A    between atoms: O_24  and  C_25 
REMARK   10  A    between atoms: C_25  and  C_26 
ROOT
ATOM      1  C   LIG d   1      10.199   3.235  -7.712  0.00  0.00     0.124 A 
ATOM      2  C   LIG d   1       9.245   2.530  -8.442  0.00  0.00    -0.019 A 
ATOM      3  C   LIG d   1       8.271   1.821  -7.799  0.00  0.00    -0.044 A 
ATOM      4  C   LIG d   1       8.233   1.805  -6.403  0.00  0.00     0.065 A 
ATOM      5  C   LIG d   1       9.191   2.514  -5.658  0.00  0.00     0.142 A 
ATOM      6  C   LIG d   1      10.174   3.230  -6.328  0.00  0.00     0.023 A 
ATOM      7  O   LIG d   1       9.153   2.498  -4.311  0.00  0.00    -0.462 OA
ATOM      8  C   LIG d   1       8.234   1.829  -3.611  0.00  0.00     0.104 A 
ATOM      9  C   LIG d   1       7.250   1.102  -4.203  0.00  0.00     0.064 A 
ATOM     10  C   LIG d   1       7.200   1.046  -5.674  0.00  0.00     0.200 A 
ATOM     11  O   LIG d   1       6.344   0.407  -6.261  0.00  0.00    -0.286 OA
ATOM     12  H   LIG d   1       9.275   2.542  -9.521  0.00  0.00     0.065 H 
ATOM     13  H   LIG d   1       7.532   1.274  -8.366  0.00  0.00     0.063 H 
ATOM     14  H   LIG d   1      10.918   3.781  -5.771  0.00  0.00     0.069 H 
ATOM     15  H   LIG d   1       8.272   1.867  -2.533  0.00  0.00     0.104 H 
ENDROOT
BRANCH   1  16
ATOM     16  O   LIG d   1      11.162   3.935  -8.364  0.00  0.00    -0.487 OA
BRANCH  16  17
ATOM     17  C   LIG d   1      11.814   4.976  -7.633  0.00  0.00     0.140 C 
ATOM     18  H   LIG d   1      11.634   4.838  -6.567  0.00  0.00     0.075 H 
ATOM     19  H   LIG d   1      12.886   4.941  -7.828  0.00  0.00     0.075 H 
BRANCH  17  20
ATOM     20  C   LIG d   1      11.260   6.333  -8.072  0.00  0.00     0.193 C 
ATOM     21  H   LIG d   1      12.056   7.076  -8.048  0.00  0.00     0.095 H 
BRANCH  20  22
ATOM     22  O   LIG d   1      10.745   6.230  -9.401  0.00  0.00    -0.348 OA
BRANCH  22  23
ATOM     23  C   LIG d   1       9.488   6.882  -9.590  0.00  0.00     0.048 C 
ATOM     24  H   LIG d   1       9.205   7.399  -8.673  0.00  0.00     0.056 H 
ATOM     25  H   LIG d   1       9.573   7.606 -10.401  0.00  0.00     0.056 H 
BRANCH  23  26
ATOM     26  C   LIG d   1       8.421   5.845  -9.941  0.00  0.00    -0.042 C 
ATOM     27  H   LIG d   1       8.328   5.129  -9.125  0.00  0.00     0.025 H 
ATOM     28  H   LIG d   1       7.465   6.346 -10.096  0.00  0.00     0.025 H 
ATOM     29  H   LIG d   1       8.708   5.321 -10.852  0.00  0.00     0.025 H 
ENDBRANCH  23  26
ENDBRANCH  22  23
ENDBRANCH  20  22
BRANCH  20  30
ATOM     30  O   LIG d   1      10.212   6.729  -7.185  0.00  0.00    -0.348 OA
BRANCH  30  31
ATOM     31  C   LIG d   1      10.667   7.407  -6.013  0.00  0.00     0.048 C 
ATOM     32  H   LIG d   1      11.017   6.677  -5.283  0.00  0.00     0.056 H 
ATOM     33  H   LIG d   1      11.484   8.078  -6.276  0.00  0.00     0.056 H 
BRANCH  31  34
ATOM     34  C   LIG d   1       9.515   8.217  -5.411  0.00  0.00    -0.042 C 
ATOM     35  H   LIG d   1       8.734   7.538  -5.069  0.00  0.00     0.025 H 
ATOM     36  H   LIG d   1       9.885   8.800  -4.568  0.00  0.00     0.025 H 
ATOM     37  H   LIG d   1       9.109   8.888  -6.168  0.00  0.00     0.025 H 
ENDBRANCH  31  34
ENDBRANCH  30  31
ENDBRANCH  20  30
ENDBRANCH  17  20
ENDBRANCH  16  17
ENDBRANCH   1  16
BRANCH   9  38
ATOM     38  C   LIG d   1       6.250   0.375  -3.384  0.00  0.00    -0.011 A 
ATOM     39  C   LIG d   1       5.318   1.084  -2.628  0.00  0.00    -0.054 A 
ATOM     40  C   LIG d   1       4.389   0.403  -1.868  0.00  0.00    -0.061 A 
ATOM     41  H   LIG d   1       5.323   2.163  -2.636  0.00  0.00     0.062 H 
ATOM     42  C   LIG d   1       4.383  -0.981  -1.856  0.00  0.00    -0.062 A 
ATOM     43  H   LIG d   1       3.667   0.950  -1.281  0.00  0.00     0.062 H 
ATOM     44  C   LIG d   1       5.305  -1.689  -2.605  0.00  0.00    -0.061 A 
ATOM     45  H   LIG d   1       3.654  -1.510  -1.259  0.00  0.00     0.062 H 
ATOM     46  C   LIG d   1       6.238  -1.018  -3.369  0.00  0.00    -0.054 A 
ATOM     47  H   LIG d   1       5.292  -2.768  -2.595  0.00  0.00     0.062 H 
ATOM     48  H   LIG d   1       6.959  -1.571  -3.952  0.00  0.00     0.062 H 
ENDBRANCH   9  38
TORSDOF 10
ENDMDL
