MODEL 1
REMARK VINA RESULT:      -7.1      0.000      0.000
REMARK  3 active torsions:
REMARK  status: ('A' for Active; 'I' for Inactive)
REMARK    1  A    between atoms: C_4  and  C_7 
REMARK    2  A    between atoms: C_7  and  C_8 
REMARK    3  A    between atoms: C_8  and  C_10 
ROOT
ATOM      1  C   LIG d   1       4.980  -1.473  -6.364  0.00  0.00     0.018 A 
ATOM      2  C   LIG d   1       6.253  -1.131  -6.859  0.00  0.00    -0.051 A 
ATOM      3  C   LIG d   1       6.407  -0.099  -7.726  0.00  0.00    -0.053 A 
ATOM      4  C   LIG d   1       5.287   0.646  -8.142  0.00  0.00    -0.018 A 
ATOM      5  C   LIG d   1       5.424   1.719  -9.038  0.00  0.00    -0.054 A 
ATOM      6  C   LIG d   1       4.323   2.422  -9.422  0.00  0.00    -0.061 A 
ATOM      7  C   LIG d   1       3.058   2.099  -8.936  0.00  0.00    -0.061 A 
ATOM      8  C   LIG d   1       2.885   1.063  -8.070  0.00  0.00    -0.054 A 
ATOM      9  C   LIG d   1       4.000   0.312  -7.650  0.00  0.00    -0.017 A 
ATOM     10  C   LIG d   1       3.856  -0.758  -6.756  0.00  0.00    -0.043 A 
ATOM     11  H   LIG d   1       7.117  -1.698  -6.546  0.00  0.00     0.062 H 
ATOM     12  H   LIG d   1       7.390   0.151  -8.098  0.00  0.00     0.062 H 
ATOM     13  H   LIG d   1       6.398   1.984  -9.420  0.00  0.00     0.062 H 
ATOM     14  H   LIG d   1       4.433   3.246 -10.112  0.00  0.00     0.062 H 
ATOM     15  H   LIG d   1       2.203   2.676  -9.252  0.00  0.00     0.062 H 
ATOM     16  H   LIG d   1       1.899   0.820  -7.704  0.00  0.00     0.062 H 
ATOM     17  H   LIG d   1       2.881  -1.021  -6.374  0.00  0.00     0.063 H 
ENDROOT
BRANCH   1  18
ATOM     18  C   LIG d   1       4.838  -2.596  -5.424  0.00  0.00     0.167 C 
ATOM     19  O   LIG d   1       4.263  -3.606  -5.768  0.00  0.00    -0.292 OA
BRANCH  18  20
ATOM     20  C   LIG d   1       5.411  -2.492  -4.033  0.00  0.00     0.036 C 
ATOM     21  H   LIG d   1       5.128  -3.286  -3.496  0.00  0.00     0.039 H 
ATOM     22  H   LIG d   1       6.499  -2.461  -4.091  0.00  0.00     0.039 H 
BRANCH  20  23
ATOM     23  C   LIG d   1       4.906  -1.233  -3.376  0.00  0.00    -0.040 A 
ATOM     24  C   LIG d   1       3.562  -1.099  -3.081  0.00  0.00    -0.058 A 
ATOM     25  C   LIG d   1       3.099   0.055  -2.477  0.00  0.00    -0.061 A 
ATOM     26  H   LIG d   1       2.875  -1.896  -3.322  0.00  0.00     0.062 H 
ATOM     27  C   LIG d   1       3.980   1.075  -2.170  0.00  0.00    -0.062 A 
ATOM     28  H   LIG d   1       2.050   0.160  -2.246  0.00  0.00     0.062 H 
ATOM     29  C   LIG d   1       5.323   0.942  -2.465  0.00  0.00    -0.061 A 
ATOM     30  H   LIG d   1       3.617   1.977  -1.699  0.00  0.00     0.062 H 
ATOM     31  C   LIG d   1       5.787  -0.215  -3.064  0.00  0.00    -0.058 A 
ATOM     32  H   LIG d   1       6.011   1.738  -2.225  0.00  0.00     0.062 H 
ATOM     33  H   LIG d   1       6.838  -0.322  -3.291  0.00  0.00     0.062 H 
ENDBRANCH  20  23
ENDBRANCH  18  20
ENDBRANCH   1  18
TORSDOF 3
ENDMDL
MODEL 2
REMARK VINA RESULT:      -6.9      2.767      3.747
REMARK  3 active torsions:
REMARK  status: ('A' for Active; 'I' for Inactive)
REMARK    1  A    between atoms: C_4  and  C_7 
REMARK    2  A    between atoms: C_7  and  C_8 
REMARK    3  A    between atoms: C_8  and  C_10 
ROOT
ATOM      1  C   LIG d   1       3.140  -0.155  -7.700  0.00  0.00     0.018 A 
ATOM      2  C   LIG d   1       2.744   0.910  -8.533  0.00  0.00    -0.051 A 
ATOM      3  C   LIG d   1       2.278   0.676  -9.785  0.00  0.00    -0.053 A 
ATOM      4  C   LIG d   1       2.185  -0.643 -10.268  0.00  0.00    -0.018 A 
ATOM      5  C   LIG d   1       1.705  -0.908 -11.561  0.00  0.00    -0.054 A 
ATOM      6  C   LIG d   1       1.626  -2.193 -12.002  0.00  0.00    -0.061 A 
ATOM      7  C   LIG d   1       2.009  -3.257 -11.188  0.00  0.00    -0.061 A 
ATOM      8  C   LIG d   1       2.484  -3.040  -9.931  0.00  0.00    -0.054 A 
ATOM      9  C   LIG d   1       2.581  -1.724  -9.440  0.00  0.00    -0.017 A 
ATOM     10  C   LIG d   1       3.061  -1.466  -8.148  0.00  0.00    -0.043 A 
ATOM     11  H   LIG d   1       2.812   1.925  -8.170  0.00  0.00     0.062 H 
ATOM     12  H   LIG d   1       1.978   1.503 -10.412  0.00  0.00     0.062 H 
ATOM     13  H   LIG d   1       1.400  -0.094 -12.203  0.00  0.00     0.062 H 
ATOM     14  H   LIG d   1       1.256  -2.392 -12.997  0.00  0.00     0.062 H 
ATOM     15  H   LIG d   1       1.931  -4.267 -11.559  0.00  0.00     0.062 H 
ATOM     16  H   LIG d   1       2.781  -3.873  -9.311  0.00  0.00     0.062 H 
ATOM     17  H   LIG d   1       3.365  -2.281  -7.508  0.00  0.00     0.063 H 
ENDROOT
BRANCH   1  18
ATOM     18  C   LIG d   1       3.642   0.124  -6.346  0.00  0.00     0.167 C 
ATOM     19  O   LIG d   1       4.835   0.172  -6.138  0.00  0.00    -0.292 OA
BRANCH  18  20
ATOM     20  C   LIG d   1       2.671   0.352  -5.215  0.00  0.00     0.036 C 
ATOM     21  H   LIG d   1       2.422   1.320  -5.179  0.00  0.00     0.039 H 
ATOM     22  H   LIG d   1       1.776  -0.248  -5.380  0.00  0.00     0.039 H 
BRANCH  20  23
ATOM     23  C   LIG d   1       3.313  -0.051  -3.913  0.00  0.00    -0.040 A 
ATOM     24  C   LIG d   1       3.834   0.915  -3.072  0.00  0.00    -0.058 A 
ATOM     25  C   LIG d   1       4.423   0.546  -1.876  0.00  0.00    -0.061 A 
ATOM     26  H   LIG d   1       3.781   1.958  -3.349  0.00  0.00     0.062 H 
ATOM     27  C   LIG d   1       4.492  -0.788  -1.523  0.00  0.00    -0.062 A 
ATOM     28  H   LIG d   1       4.830   1.300  -1.220  0.00  0.00     0.062 H 
ATOM     29  C   LIG d   1       3.970  -1.754  -2.364  0.00  0.00    -0.061 A 
ATOM     30  H   LIG d   1       4.952  -1.076  -0.590  0.00  0.00     0.062 H 
ATOM     31  C   LIG d   1       3.377  -1.384  -3.556  0.00  0.00    -0.058 A 
ATOM     32  H   LIG d   1       4.024  -2.796  -2.088  0.00  0.00     0.062 H 
ATOM     33  H   LIG d   1       2.966  -2.138  -4.211  0.00  0.00     0.062 H 
ENDBRANCH  20  23
ENDBRANCH  18  20
ENDBRANCH   1  18
TORSDOF 3
ENDMDL
MODEL 3
REMARK VINA RESULT:      -6.9      2.888      3.555
REMARK  3 active torsions:
REMARK  status: ('A' for Active; 'I' for Inactive)
REMARK    1  A    between atoms: C_4  and  C_7 
REMARK    2  A    between atoms: C_7  and  C_8 
REMARK    3  A    between atoms: C_8  and  C_10 
ROOT
ATOM      1  C   LIG d   1       3.351  -0.869  -7.642  0.00  0.00     0.018 A 
ATOM      2  C   LIG d   1       3.861  -2.173  -7.802  0.00  0.00    -0.051 A 
ATOM      3  C   LIG d   1       3.509  -2.930  -8.871  0.00  0.00    -0.053 A 
ATOM      4  C   LIG d   1       2.625  -2.416  -9.838  0.00  0.00    -0.018 A 
ATOM      5  C   LIG d   1       2.248  -3.183 -10.953  0.00  0.00    -0.054 A 
ATOM      6  C   LIG d   1       1.391  -2.660 -11.873  0.00  0.00    -0.061 A 
ATOM      7  C   LIG d   1       0.883  -1.370 -11.731  0.00  0.00    -0.061 A 
ATOM      8  C   LIG d   1       1.221  -0.599 -10.662  0.00  0.00    -0.054 A 
ATOM      9  C   LIG d   1       2.104  -1.106  -9.689  0.00  0.00    -0.017 A 
ATOM     10  C   LIG d   1       2.477  -0.335  -8.578  0.00  0.00    -0.043 A 
ATOM     11  H   LIG d   1       4.540  -2.574  -7.064  0.00  0.00     0.062 H 
ATOM     12  H   LIG d   1       3.908  -3.927  -8.980  0.00  0.00     0.062 H 
ATOM     13  H   LIG d   1       2.636  -4.182 -11.080  0.00  0.00     0.062 H 
ATOM     14  H   LIG d   1       1.103  -3.253 -12.729  0.00  0.00     0.062 H 
ATOM     15  H   LIG d   1       0.210  -0.978 -12.478  0.00  0.00     0.062 H 
ATOM     16  H   LIG d   1       0.817   0.397 -10.561  0.00  0.00     0.062 H 
ATOM     17  H   LIG d   1       2.088   0.664  -8.454  0.00  0.00     0.063 H 
ENDROOT
BRANCH   1  18
ATOM     18  C   LIG d   1       3.748  -0.067  -6.474  0.00  0.00     0.167 C 
ATOM     19  O   LIG d   1       4.888   0.331  -6.371  0.00  0.00    -0.292 OA
BRANCH  18  20
ATOM     20  C   LIG d   1       2.735   0.261  -5.406  0.00  0.00     0.036 C 
ATOM     21  H   LIG d   1       2.487   1.227  -5.468  0.00  0.00     0.039 H 
ATOM     22  H   LIG d   1       1.846  -0.353  -5.550  0.00  0.00     0.039 H 
BRANCH  20  23
ATOM     23  C   LIG d   1       3.327  -0.022  -4.050  0.00  0.00    -0.040 A 
ATOM     24  C   LIG d   1       3.513  -1.327  -3.636  0.00  0.00    -0.058 A 
ATOM     25  C   LIG d   1       4.058  -1.586  -2.391  0.00  0.00    -0.061 A 
ATOM     26  H   LIG d   1       3.236  -2.144  -4.285  0.00  0.00     0.062 H 
ATOM     27  C   LIG d   1       4.413  -0.540  -1.561  0.00  0.00    -0.062 A 
ATOM     28  H   LIG d   1       4.204  -2.606  -2.068  0.00  0.00     0.062 H 
ATOM     29  C   LIG d   1       4.226   0.765  -1.974  0.00  0.00    -0.061 A 
ATOM     30  H   LIG d   1       4.836  -0.744  -0.589  0.00  0.00     0.062 H 
ATOM     31  C   LIG d   1       3.688   1.024  -3.221  0.00  0.00    -0.058 A 
ATOM     32  H   LIG d   1       4.503   1.582  -1.326  0.00  0.00     0.062 H 
ATOM     33  H   LIG d   1       3.545   2.044  -3.547  0.00  0.00     0.062 H 
ENDBRANCH  20  23
ENDBRANCH  18  20
ENDBRANCH   1  18
TORSDOF 3
ENDMDL
MODEL 4
REMARK VINA RESULT:      -6.8      1.568      5.710
REMARK  3 active torsions:
REMARK  status: ('A' for Active; 'I' for Inactive)
REMARK    1  A    between atoms: C_4  and  C_7 
REMARK    2  A    between atoms: C_7  and  C_8 
REMARK    3  A    between atoms: C_8  and  C_10 
ROOT
ATOM      1  C   LIG d   1       4.476  -1.884  -6.335  0.00  0.00     0.018 A 
ATOM      2  C   LIG d   1       4.760  -3.031  -5.568  0.00  0.00    -0.051 A 
ATOM      3  C   LIG d   1       4.800  -2.969  -4.214  0.00  0.00    -0.053 A 
ATOM      4  C   LIG d   1       4.553  -1.749  -3.556  0.00  0.00    -0.018 A 
ATOM      5  C   LIG d   1       4.588  -1.662  -2.154  0.00  0.00    -0.054 A 
ATOM      6  C   LIG d   1       4.346  -0.469  -1.546  0.00  0.00    -0.061 A 
ATOM      7  C   LIG d   1       4.057   0.672  -2.291  0.00  0.00    -0.061 A 
ATOM      8  C   LIG d   1       4.020   0.629  -3.651  0.00  0.00    -0.054 A 
ATOM      9  C   LIG d   1       4.265  -0.587  -4.316  0.00  0.00    -0.017 A 
ATOM     10  C   LIG d   1       4.229  -0.666  -5.716  0.00  0.00    -0.043 A 
ATOM     11  H   LIG d   1       4.951  -3.971  -6.064  0.00  0.00     0.062 H 
ATOM     12  H   LIG d   1       5.019  -3.857  -3.639  0.00  0.00     0.062 H 
ATOM     13  H   LIG d   1       4.806  -2.539  -1.563  0.00  0.00     0.062 H 
ATOM     14  H   LIG d   1       4.374  -0.407  -0.468  0.00  0.00     0.062 H 
ATOM     15  H   LIG d   1       3.863   1.605  -1.783  0.00  0.00     0.062 H 
ATOM     16  H   LIG d   1       3.799   1.522  -4.216  0.00  0.00     0.062 H 
ATOM     17  H   LIG d   1       4.010   0.211  -6.305  0.00  0.00     0.063 H 
ENDROOT
BRANCH   1  18
ATOM     18  C   LIG d   1       4.438  -1.976  -7.803  0.00  0.00     0.167 C 
ATOM     19  O   LIG d   1       5.415  -2.355  -8.411  0.00  0.00    -0.292 OA
BRANCH  18  20
ATOM     20  C   LIG d   1       3.183  -1.601  -8.549  0.00  0.00     0.036 C 
ATOM     21  H   LIG d   1       3.056  -2.224  -9.321  0.00  0.00     0.039 H 
ATOM     22  H   LIG d   1       2.328  -1.674  -7.878  0.00  0.00     0.039 H 
BRANCH  20  23
ATOM     23  C   LIG d   1       3.305  -0.188  -9.058  0.00  0.00    -0.040 A 
ATOM     24  C   LIG d   1       3.882   0.055 -10.290  0.00  0.00    -0.058 A 
ATOM     25  C   LIG d   1       3.992   1.352 -10.757  0.00  0.00    -0.061 A 
ATOM     26  H   LIG d   1       4.245  -0.767 -10.888  0.00  0.00     0.062 H 
ATOM     27  C   LIG d   1       3.528   2.404  -9.991  0.00  0.00    -0.062 A 
ATOM     28  H   LIG d   1       4.443   1.542 -11.720  0.00  0.00     0.062 H 
ATOM     29  C   LIG d   1       2.951   2.161  -8.759  0.00  0.00    -0.061 A 
ATOM     30  H   LIG d   1       3.616   3.417 -10.356  0.00  0.00     0.062 H 
ATOM     31  C   LIG d   1       2.835   0.864  -8.295  0.00  0.00    -0.058 A 
ATOM     32  H   LIG d   1       2.588   2.983  -8.161  0.00  0.00     0.062 H 
ATOM     33  H   LIG d   1       2.381   0.673  -7.334  0.00  0.00     0.062 H 
ENDBRANCH  20  23
ENDBRANCH  18  20
ENDBRANCH   1  18
TORSDOF 3
ENDMDL
MODEL 5
REMARK VINA RESULT:      -6.5      2.575      6.619
REMARK  3 active torsions:
REMARK  status: ('A' for Active; 'I' for Inactive)
REMARK    1  A    between atoms: C_4  and  C_7 
REMARK    2  A    between atoms: C_7  and  C_8 
REMARK    3  A    between atoms: C_8  and  C_10 
ROOT
ATOM      1  C   LIG d   1       4.025   0.160  -6.914  0.00  0.00     0.018 A 
ATOM      2  C   LIG d   1       2.792   0.608  -6.401  0.00  0.00    -0.051 A 
ATOM      3  C   LIG d   1       2.404   0.285  -5.142  0.00  0.00    -0.053 A 
ATOM      4  C   LIG d   1       3.238  -0.506  -4.329  0.00  0.00    -0.018 A 
ATOM      5  C   LIG d   1       2.857  -0.852  -3.022  0.00  0.00    -0.054 A 
ATOM      6  C   LIG d   1       3.683  -1.618  -2.258  0.00  0.00    -0.061 A 
ATOM      7  C   LIG d   1       4.909  -2.063  -2.750  0.00  0.00    -0.061 A 
ATOM      8  C   LIG d   1       5.310  -1.753  -4.013  0.00  0.00    -0.054 A 
ATOM      9  C   LIG d   1       4.482  -0.963  -4.833  0.00  0.00    -0.017 A 
ATOM     10  C   LIG d   1       4.869  -0.622  -6.137  0.00  0.00    -0.043 A 
ATOM     11  H   LIG d   1       2.146   1.215  -7.018  0.00  0.00     0.062 H 
ATOM     12  H   LIG d   1       1.456   0.635  -4.763  0.00  0.00     0.062 H 
ATOM     13  H   LIG d   1       1.912  -0.511  -2.625  0.00  0.00     0.062 H 
ATOM     14  H   LIG d   1       3.386  -1.882  -1.254  0.00  0.00     0.062 H 
ATOM     15  H   LIG d   1       5.548  -2.665  -2.121  0.00  0.00     0.062 H 
ATOM     16  H   LIG d   1       6.260  -2.108  -4.383  0.00  0.00     0.062 H 
ATOM     17  H   LIG d   1       5.814  -0.963  -6.531  0.00  0.00     0.063 H 
ENDROOT
BRANCH   1  18
ATOM     18  C   LIG d   1       4.423   0.524  -8.282  0.00  0.00     0.167 C 
ATOM     19  O   LIG d   1       5.536   0.256  -8.682  0.00  0.00    -0.292 OA
BRANCH  18  20
ATOM     20  C   LIG d   1       3.446   1.229  -9.189  0.00  0.00     0.036 C 
ATOM     21  H   LIG d   1       2.705   1.618  -8.642  0.00  0.00     0.039 H 
ATOM     22  H   LIG d   1       3.960   2.027  -9.725  0.00  0.00     0.039 H 
BRANCH  20  23
ATOM     23  C   LIG d   1       2.879   0.244 -10.178  0.00  0.00    -0.040 A 
ATOM     24  C   LIG d   1       1.720  -0.447  -9.877  0.00  0.00    -0.058 A 
ATOM     25  C   LIG d   1       1.199  -1.350 -10.786  0.00  0.00    -0.061 A 
ATOM     26  H   LIG d   1       1.222  -0.281  -8.934  0.00  0.00     0.062 H 
ATOM     27  C   LIG d   1       1.838  -1.563 -11.993  0.00  0.00    -0.062 A 
ATOM     28  H   LIG d   1       0.294  -1.890 -10.551  0.00  0.00     0.062 H 
ATOM     29  C   LIG d   1       2.996  -0.872 -12.293  0.00  0.00    -0.061 A 
ATOM     30  H   LIG d   1       1.431  -2.270 -12.701  0.00  0.00     0.062 H 
ATOM     31  C   LIG d   1       3.514   0.035 -11.388  0.00  0.00    -0.058 A 
ATOM     32  H   LIG d   1       3.495  -1.038 -13.236  0.00  0.00     0.062 H 
ATOM     33  H   LIG d   1       4.417   0.578 -11.624  0.00  0.00     0.062 H 
ENDBRANCH  20  23
ENDBRANCH  18  20
ENDBRANCH   1  18
TORSDOF 3
ENDMDL
MODEL 6
REMARK VINA RESULT:      -6.5      1.577      2.339
REMARK  3 active torsions:
REMARK  status: ('A' for Active; 'I' for Inactive)
REMARK    1  A    between atoms: C_4  and  C_7 
REMARK    2  A    between atoms: C_7  and  C_8 
REMARK    3  A    between atoms: C_8  and  C_10 
ROOT
ATOM      1  C   LIG d   1       5.438  -1.673  -6.367  0.00  0.00     0.018 A 
ATOM      2  C   LIG d   1       4.936  -2.846  -6.963  0.00  0.00    -0.051 A 
ATOM      3  C   LIG d   1       3.974  -2.784  -7.918  0.00  0.00    -0.053 A 
ATOM      4  C   LIG d   1       3.467  -1.536  -8.326  0.00  0.00    -0.018 A 
ATOM      5  C   LIG d   1       2.471  -1.448  -9.314  0.00  0.00    -0.054 A 
ATOM      6  C   LIG d   1       1.999  -0.227  -9.690  0.00  0.00    -0.061 A 
ATOM      7  C   LIG d   1       2.491   0.942  -9.113  0.00  0.00    -0.061 A 
ATOM      8  C   LIG d   1       3.451   0.897  -8.150  0.00  0.00    -0.054 A 
ATOM      9  C   LIG d   1       3.964  -0.347  -7.735  0.00  0.00    -0.017 A 
ATOM     10  C   LIG d   1       4.957  -0.428  -6.748  0.00  0.00    -0.043 A 
ATOM     11  H   LIG d   1       5.320  -3.808  -6.656  0.00  0.00     0.062 H 
ATOM     12  H   LIG d   1       3.599  -3.692  -8.366  0.00  0.00     0.062 H 
ATOM     13  H   LIG d   1       2.083  -2.345  -9.774  0.00  0.00     0.062 H 
ATOM     14  H   LIG d   1       1.234  -0.165 -10.449  0.00  0.00     0.062 H 
ATOM     15  H   LIG d   1       2.103   1.897  -9.433  0.00  0.00     0.062 H 
ATOM     16  H   LIG d   1       3.820   1.810  -7.708  0.00  0.00     0.062 H 
ATOM     17  H   LIG d   1       5.344   0.470  -6.291  0.00  0.00     0.063 H 
ENDROOT
BRANCH   1  18
ATOM     18  C   LIG d   1       6.481  -1.767  -5.334  0.00  0.00     0.167 C 
ATOM     19  O   LIG d   1       7.639  -1.552  -5.620  0.00  0.00    -0.292 OA
BRANCH  18  20
ATOM     20  C   LIG d   1       6.108  -2.127  -3.918  0.00  0.00     0.036 C 
ATOM     21  H   LIG d   1       5.620  -3.000  -3.914  0.00  0.00     0.039 H 
ATOM     22  H   LIG d   1       7.013  -2.214  -3.317  0.00  0.00     0.039 H 
BRANCH  20  23
ATOM     23  C   LIG d   1       5.223  -1.053  -3.343  0.00  0.00    -0.040 A 
ATOM     24  C   LIG d   1       5.761   0.172  -2.994  0.00  0.00    -0.058 A 
ATOM     25  C   LIG d   1       4.948   1.159  -2.467  0.00  0.00    -0.061 A 
ATOM     26  H   LIG d   1       6.815   0.357  -3.133  0.00  0.00     0.062 H 
ATOM     27  C   LIG d   1       3.599   0.920  -2.288  0.00  0.00    -0.062 A 
ATOM     28  H   LIG d   1       5.368   2.115  -2.194  0.00  0.00     0.062 H 
ATOM     29  C   LIG d   1       3.061  -0.304  -2.637  0.00  0.00    -0.061 A 
ATOM     30  H   LIG d   1       2.965   1.691  -1.875  0.00  0.00     0.062 H 
ATOM     31  C   LIG d   1       3.872  -1.289  -3.170  0.00  0.00    -0.058 A 
ATOM     32  H   LIG d   1       2.007  -0.491  -2.498  0.00  0.00     0.062 H 
ATOM     33  H   LIG d   1       3.451  -2.244  -3.447  0.00  0.00     0.062 H 
ENDBRANCH  20  23
ENDBRANCH  18  20
ENDBRANCH   1  18
TORSDOF 3
ENDMDL
MODEL 7
REMARK VINA RESULT:      -6.4      2.673      6.473
REMARK  3 active torsions:
REMARK  status: ('A' for Active; 'I' for Inactive)
REMARK    1  A    between atoms: C_4  and  C_7 
REMARK    2  A    between atoms: C_7  and  C_8 
REMARK    3  A    between atoms: C_8  and  C_10 
ROOT
ATOM      1  C   LIG d   1       4.056   0.092  -7.121  0.00  0.00     0.018 A 
ATOM      2  C   LIG d   1       4.916  -1.017  -7.241  0.00  0.00    -0.051 A 
ATOM      3  C   LIG d   1       5.096  -1.872  -6.204  0.00  0.00    -0.053 A 
ATOM      4  C   LIG d   1       4.419  -1.659  -4.988  0.00  0.00    -0.018 A 
ATOM      5  C   LIG d   1       4.590  -2.533  -3.901  0.00  0.00    -0.054 A 
ATOM      6  C   LIG d   1       3.922  -2.301  -2.738  0.00  0.00    -0.061 A 
ATOM      7  C   LIG d   1       3.064  -1.212  -2.606  0.00  0.00    -0.061 A 
ATOM      8  C   LIG d   1       2.876  -0.341  -3.635  0.00  0.00    -0.054 A 
ATOM      9  C   LIG d   1       3.550  -0.546  -4.854  0.00  0.00    -0.017 A 
ATOM     10  C   LIG d   1       3.375   0.330  -5.934  0.00  0.00    -0.043 A 
ATOM     11  H   LIG d   1       5.439  -1.188  -8.170  0.00  0.00     0.062 H 
ATOM     12  H   LIG d   1       5.759  -2.718  -6.311  0.00  0.00     0.062 H 
ATOM     13  H   LIG d   1       5.249  -3.384  -3.989  0.00  0.00     0.062 H 
ATOM     14  H   LIG d   1       4.057  -2.976  -1.905  0.00  0.00     0.062 H 
ATOM     15  H   LIG d   1       2.542  -1.055  -1.674  0.00  0.00     0.062 H 
ATOM     16  H   LIG d   1       2.211   0.502  -3.518  0.00  0.00     0.062 H 
ATOM     17  H   LIG d   1       2.715   1.179  -5.845  0.00  0.00     0.063 H 
ENDROOT
BRANCH   1  18
ATOM     18  C   LIG d   1       3.877   1.005  -8.260  0.00  0.00     0.167 C 
ATOM     19  O   LIG d   1       4.805   1.680  -8.648  0.00  0.00    -0.292 OA
BRANCH  18  20
ATOM     20  C   LIG d   1       2.537   1.099  -8.947  0.00  0.00     0.036 C 
ATOM     21  H   LIG d   1       1.808   1.031  -8.266  0.00  0.00     0.039 H 
ATOM     22  H   LIG d   1       2.463   2.055  -9.465  0.00  0.00     0.039 H 
BRANCH  20  23
ATOM     23  C   LIG d   1       2.404  -0.024  -9.942  0.00  0.00    -0.040 A 
ATOM     24  C   LIG d   1       3.105   0.022 -11.132  0.00  0.00    -0.058 A 
ATOM     25  C   LIG d   1       2.984  -1.010 -12.045  0.00  0.00    -0.061 A 
ATOM     26  H   LIG d   1       3.749   0.861 -11.348  0.00  0.00     0.062 H 
ATOM     27  C   LIG d   1       2.160  -2.084 -11.769  0.00  0.00    -0.062 A 
ATOM     28  H   LIG d   1       3.532  -0.975 -12.975  0.00  0.00     0.062 H 
ATOM     29  C   LIG d   1       1.458  -2.129 -10.579  0.00  0.00    -0.061 A 
ATOM     30  H   LIG d   1       2.064  -2.889 -12.483  0.00  0.00     0.062 H 
ATOM     31  C   LIG d   1       1.585  -1.101  -9.663  0.00  0.00    -0.058 A 
ATOM     32  H   LIG d   1       0.815  -2.968 -10.362  0.00  0.00     0.062 H 
ATOM     33  H   LIG d   1       1.040  -1.138  -8.731  0.00  0.00     0.062 H 
ENDBRANCH  20  23
ENDBRANCH  18  20
ENDBRANCH   1  18
TORSDOF 3
ENDMDL
MODEL 8
REMARK VINA RESULT:      -6.4      2.284      3.648
REMARK  3 active torsions:
REMARK  status: ('A' for Active; 'I' for Inactive)
REMARK    1  A    between atoms: C_4  and  C_7 
REMARK    2  A    between atoms: C_7  and  C_8 
REMARK    3  A    between atoms: C_8  and  C_10 
ROOT
ATOM      1  C   LIG d   1       3.106  -0.103  -6.797  0.00  0.00     0.018 A 
ATOM      2  C   LIG d   1       2.429  -0.234  -8.025  0.00  0.00    -0.051 A 
ATOM      3  C   LIG d   1       2.977  -0.936  -9.049  0.00  0.00    -0.053 A 
ATOM      4  C   LIG d   1       4.236  -1.545  -8.891  0.00  0.00    -0.018 A 
ATOM      5  C   LIG d   1       4.822  -2.278  -9.937  0.00  0.00    -0.054 A 
ATOM      6  C   LIG d   1       6.041  -2.856  -9.757  0.00  0.00    -0.061 A 
ATOM      7  C   LIG d   1       6.719  -2.740  -8.545  0.00  0.00    -0.061 A 
ATOM      8  C   LIG d   1       6.186  -2.035  -7.510  0.00  0.00    -0.054 A 
ATOM      9  C   LIG d   1       4.928  -1.421  -7.659  0.00  0.00    -0.017 A 
ATOM     10  C   LIG d   1       4.349  -0.692  -6.611  0.00  0.00    -0.043 A 
ATOM     11  H   LIG d   1       1.463   0.230  -8.155  0.00  0.00     0.062 H 
ATOM     12  H   LIG d   1       2.447  -1.028  -9.985  0.00  0.00     0.062 H 
ATOM     13  H   LIG d   1       4.307  -2.381 -10.881  0.00  0.00     0.062 H 
ATOM     14  H   LIG d   1       6.487  -3.418 -10.564  0.00  0.00     0.062 H 
ATOM     15  H   LIG d   1       7.682  -3.214  -8.426  0.00  0.00     0.062 H 
ATOM     16  H   LIG d   1       6.724  -1.949  -6.578  0.00  0.00     0.062 H 
ATOM     17  H   LIG d   1       4.865  -0.591  -5.668  0.00  0.00     0.063 H 
ENDROOT
BRANCH   1  18
ATOM     18  C   LIG d   1       2.491   0.663  -5.702  0.00  0.00     0.167 C 
ATOM     19  O   LIG d   1       2.489   1.874  -5.735  0.00  0.00    -0.292 OA
BRANCH  18  20
ATOM     20  C   LIG d   1       1.860  -0.060  -4.538  0.00  0.00     0.036 C 
ATOM     21  H   LIG d   1       1.100   0.482  -4.181  0.00  0.00     0.039 H 
ATOM     22  H   LIG d   1       1.491  -1.030  -4.872  0.00  0.00     0.039 H 
BRANCH  20  23
ATOM     23  C   LIG d   1       2.888  -0.260  -3.455  0.00  0.00    -0.040 A 
ATOM     24  C   LIG d   1       3.434   0.835  -2.811  0.00  0.00    -0.058 A 
ATOM     25  C   LIG d   1       4.376   0.652  -1.815  0.00  0.00    -0.061 A 
ATOM     26  H   LIG d   1       3.124   1.832  -3.084  0.00  0.00     0.062 H 
ATOM     27  C   LIG d   1       4.774  -0.625  -1.466  0.00  0.00    -0.062 A 
ATOM     28  H   LIG d   1       4.803   1.507  -1.312  0.00  0.00     0.062 H 
ATOM     29  C   LIG d   1       4.228  -1.719  -2.110  0.00  0.00    -0.061 A 
ATOM     30  H   LIG d   1       5.511  -0.767  -0.690  0.00  0.00     0.062 H 
ATOM     31  C   LIG d   1       3.282  -1.536  -3.101  0.00  0.00    -0.058 A 
ATOM     32  H   LIG d   1       4.538  -2.716  -1.838  0.00  0.00     0.062 H 
ATOM     33  H   LIG d   1       2.852  -2.392  -3.602  0.00  0.00     0.062 H 
ENDBRANCH  20  23
ENDBRANCH  18  20
ENDBRANCH   1  18
TORSDOF 3
ENDMDL
MODEL 9
REMARK VINA RESULT:      -6.3      3.901      6.172
REMARK  3 active torsions:
REMARK  status: ('A' for Active; 'I' for Inactive)
REMARK    1  A    between atoms: C_4  and  C_7 
REMARK    2  A    between atoms: C_7  and  C_8 
REMARK    3  A    between atoms: C_8  and  C_10 
ROOT
ATOM      1  C   LIG d   1       7.108  -2.223  -4.306  0.00  0.00     0.018 A 
ATOM      2  C   LIG d   1       6.004  -3.089  -4.438  0.00  0.00    -0.051 A 
ATOM      3  C   LIG d   1       4.778  -2.725  -3.985  0.00  0.00    -0.053 A 
ATOM      4  C   LIG d   1       4.596  -1.469  -3.377  0.00  0.00    -0.018 A 
ATOM      5  C   LIG d   1       3.334  -1.072  -2.902  0.00  0.00    -0.054 A 
ATOM      6  C   LIG d   1       3.187   0.149  -2.317  0.00  0.00    -0.061 A 
ATOM      7  C   LIG d   1       4.268   1.018  -2.186  0.00  0.00    -0.061 A 
ATOM      8  C   LIG d   1       5.506   0.666  -2.629  0.00  0.00    -0.054 A 
ATOM      9  C   LIG d   1       5.698  -0.588  -3.238  0.00  0.00    -0.017 A 
ATOM     10  C   LIG d   1       6.959  -0.979  -3.709  0.00  0.00    -0.043 A 
ATOM     11  H   LIG d   1       6.136  -4.054  -4.903  0.00  0.00     0.062 H 
ATOM     12  H   LIG d   1       3.942  -3.400  -4.093  0.00  0.00     0.062 H 
ATOM     13  H   LIG d   1       2.486  -1.732  -3.000  0.00  0.00     0.062 H 
ATOM     14  H   LIG d   1       2.215   0.450  -1.954  0.00  0.00     0.062 H 
ATOM     15  H   LIG d   1       4.123   1.982  -1.724  0.00  0.00     0.062 H 
ATOM     16  H   LIG d   1       6.336   1.347  -2.516  0.00  0.00     0.062 H 
ATOM     17  H   LIG d   1       7.806  -0.316  -3.611  0.00  0.00     0.063 H 
ENDROOT
BRANCH   1  18
ATOM     18  C   LIG d   1       8.427  -2.640  -4.805  0.00  0.00     0.167 C 
ATOM     19  O   LIG d   1       9.332  -1.837  -4.872  0.00  0.00    -0.292 OA
BRANCH  18  20
ATOM     20  C   LIG d   1       8.655  -4.069  -5.229  0.00  0.00     0.036 C 
ATOM     21  H   LIG d   1       7.820  -4.431  -5.643  0.00  0.00     0.039 H 
ATOM     22  H   LIG d   1       9.466  -4.106  -5.957  0.00  0.00     0.039 H 
BRANCH  20  23
ATOM     23  C   LIG d   1       9.022  -4.898  -4.026  0.00  0.00    -0.040 A 
ATOM     24  C   LIG d   1       9.416  -4.279  -2.855  0.00  0.00    -0.058 A 
ATOM     25  C   LIG d   1       9.751  -5.040  -1.750  0.00  0.00    -0.061 A 
ATOM     26  H   LIG d   1       9.462  -3.201  -2.803  0.00  0.00     0.062 H 
ATOM     27  C   LIG d   1       9.693  -6.419  -1.817  0.00  0.00    -0.062 A 
ATOM     28  H   LIG d   1      10.060  -4.556  -0.835  0.00  0.00     0.062 H 
ATOM     29  C   LIG d   1       9.299  -7.038  -2.988  0.00  0.00    -0.061 A 
ATOM     30  H   LIG d   1       9.956  -7.012  -0.954  0.00  0.00     0.062 H 
ATOM     31  C   LIG d   1       8.958  -6.277  -4.091  0.00  0.00    -0.058 A 
ATOM     32  H   LIG d   1       9.253  -8.115  -3.041  0.00  0.00     0.062 H 
ATOM     33  H   LIG d   1       8.646  -6.761  -5.005  0.00  0.00     0.062 H 
ENDBRANCH  20  23
ENDBRANCH  18  20
ENDBRANCH   1  18
TORSDOF 3
ENDMDL
MODEL 10
REMARK VINA RESULT:      -6.2      4.373      6.500
REMARK  3 active torsions:
REMARK  status: ('A' for Active; 'I' for Inactive)
REMARK    1  A    between atoms: C_4  and  C_7 
REMARK    2  A    between atoms: C_7  and  C_8 
REMARK    3  A    between atoms: C_8  and  C_10 
ROOT
ATOM      1  C   LIG d   1       8.114   0.836  -4.604  0.00  0.00     0.018 A 
ATOM      2  C   LIG d   1       8.153  -0.566  -4.734  0.00  0.00    -0.051 A 
ATOM      3  C   LIG d   1       7.235  -1.348  -4.112  0.00  0.00    -0.053 A 
ATOM      4  C   LIG d   1       6.225  -0.760  -3.326  0.00  0.00    -0.018 A 
ATOM      5  C   LIG d   1       5.264  -1.550  -2.675  0.00  0.00    -0.054 A 
ATOM      6  C   LIG d   1       4.299  -0.954  -1.921  0.00  0.00    -0.061 A 
ATOM      7  C   LIG d   1       4.244   0.432  -1.789  0.00  0.00    -0.061 A 
ATOM      8  C   LIG d   1       5.161   1.230  -2.401  0.00  0.00    -0.054 A 
ATOM      9  C   LIG d   1       6.174   0.651  -3.188  0.00  0.00    -0.017 A 
ATOM     10  C   LIG d   1       7.131   1.445  -3.836  0.00  0.00    -0.043 A 
ATOM     11  H   LIG d   1       8.924  -1.025  -5.334  0.00  0.00     0.062 H 
ATOM     12  H   LIG d   1       7.278  -2.421  -4.220  0.00  0.00     0.062 H 
ATOM     13  H   LIG d   1       5.290  -2.625  -2.771  0.00  0.00     0.062 H 
ATOM     14  H   LIG d   1       3.562  -1.566  -1.422  0.00  0.00     0.062 H 
ATOM     15  H   LIG d   1       3.464   0.879  -1.191  0.00  0.00     0.062 H 
ATOM     16  H   LIG d   1       5.109   2.303  -2.287  0.00  0.00     0.062 H 
ATOM     17  H   LIG d   1       7.102   2.520  -3.739  0.00  0.00     0.063 H 
ENDROOT
BRANCH   1  18
ATOM     18  C   LIG d   1       9.120   1.662  -5.288  0.00  0.00     0.167 C 
ATOM     19  O   LIG d   1       8.990   1.928  -6.464  0.00  0.00    -0.292 OA
BRANCH  18  20
ATOM     20  C   LIG d   1      10.314   2.179  -4.527  0.00  0.00     0.036 C 
ATOM     21  H   LIG d   1      10.481   1.596  -3.732  0.00  0.00     0.039 H 
ATOM     22  H   LIG d   1      11.190   2.168  -5.175  0.00  0.00     0.039 H 
BRANCH  20  23
ATOM     23  C   LIG d   1      10.045   3.589  -4.069  0.00  0.00    -0.040 A 
ATOM     24  C   LIG d   1      10.272   3.943  -2.752  0.00  0.00    -0.058 A 
ATOM     25  C   LIG d   1      10.026   5.237  -2.332  0.00  0.00    -0.061 A 
ATOM     26  H   LIG d   1      10.642   3.209  -2.052  0.00  0.00     0.062 H 
ATOM     27  C   LIG d   1       9.552   6.176  -3.228  0.00  0.00    -0.062 A 
ATOM     28  H   LIG d   1      10.203   5.514  -1.303  0.00  0.00     0.062 H 
ATOM     29  C   LIG d   1       9.325   5.823  -4.545  0.00  0.00    -0.061 A 
ATOM     30  H   LIG d   1       9.359   7.186  -2.899  0.00  0.00     0.062 H 
ATOM     31  C   LIG d   1       9.577   4.530  -4.966  0.00  0.00    -0.058 A 
ATOM     32  H   LIG d   1       8.955   6.556  -5.245  0.00  0.00     0.062 H 
ATOM     33  H   LIG d   1       9.404   4.254  -5.996  0.00  0.00     0.062 H 
ENDBRANCH  20  23
ENDBRANCH  18  20
ENDBRANCH   1  18
TORSDOF 3
ENDMDL
