MODEL 1
REMARK VINA RESULT:      -6.1      0.000      0.000
REMARK  8 active torsions:
REMARK  status: ('A' for Active; 'I' for Inactive)
REMARK    1  A    between atoms: C_1  and  C_2 
REMARK    2  A    between atoms: C_5  and  N_8 
REMARK    3  A    between atoms: C_16  and  C_22 
REMARK    4  A    between atoms: C_22  and  O_24 
REMARK    5  A    between atoms: O_24  and  C_25 
REMARK    6  A    between atoms: C_25  and  C_26 
REMARK    7  A    between atoms: C_26  and  C_27 
REMARK    8  A    between atoms: C_26  and  C_28 
ROOT
ATOM      1  N   LIG d   1       4.169  -1.347  -7.589  0.00  0.00    -0.268 N 
ATOM      2  C   LIG d   1       4.435  -2.506  -6.705  0.00  0.00     0.053 C 
ATOM      3  C   LIG d   1       5.608  -2.076  -5.882  0.00  0.00     0.116 C 
ATOM      4  C   LIG d   1       5.915  -2.582  -4.517  0.00  0.00    -0.052 C 
ATOM      5  C   LIG d   1       7.168  -2.122  -4.273  0.00  0.00    -0.056 C 
ATOM      6  C   LIG d   1       7.611  -1.380  -5.539  0.00  0.00     0.092 C 
ATOM      7  H   LIG d   1       8.689  -1.294  -5.679  0.00  0.00     0.065 H 
ATOM      8  O   LIG d   1       6.883  -2.133  -6.576  0.00  0.00    -0.359 OA
ATOM      9  C   LIG d   1       6.818  -0.034  -5.578  0.00  0.00     0.100 C 
ATOM     10  H   LIG d   1       7.131   0.580  -6.422  0.00  0.00     0.045 H 
ATOM     11  C   LIG d   1       5.372  -0.526  -5.763  0.00  0.00     0.086 C 
ATOM     12  H   LIG d   1       4.724  -0.252  -4.930  0.00  0.00     0.044 H 
ATOM     13  C   LIG d   1       4.767  -0.226  -7.105  0.00  0.00     0.227 C 
ATOM     14  O   LIG d   1       4.805   0.848  -7.667  0.00  0.00    -0.275 OA
ATOM     15  H   LIG d   1       4.684  -3.388  -7.295  0.00  0.00     0.050 H 
ATOM     16  H   LIG d   1       3.574  -2.706  -6.067  0.00  0.00     0.050 H 
ATOM     17  H   LIG d   1       5.287  -3.173  -3.868  0.00  0.00     0.060 H 
ATOM     18  H   LIG d   1       7.750  -2.256  -3.372  0.00  0.00     0.060 H 
ENDROOT
BRANCH   9  19
ATOM     19  C   LIG d   1       6.970   0.718  -4.281  0.00  0.00     0.314 C 
ATOM     20  O   LIG d   1       8.072   0.928  -3.830  0.00  0.00    -0.250 OA
BRANCH  19  21
ATOM     21  O   LIG d   1       5.883   1.157  -3.627  0.00  0.00    -0.464 OA
BRANCH  21  22
ATOM     22  C   LIG d   1       5.561   0.503  -2.371  0.00  0.00     0.095 C 
ATOM     23  H   LIG d   1       5.879  -0.538  -2.412  0.00  0.00     0.070 H 
ATOM     24  H   LIG d   1       6.077   1.009  -1.555  0.00  0.00     0.070 H 
BRANCH  22  25
ATOM     25  C   LIG d   1       4.051   0.565  -2.136  0.00  0.00    -0.012 C 
ATOM     26  H   LIG d   1       3.855   0.755  -1.081  0.00  0.00     0.033 H 
BRANCH  25  27
ATOM     27  C   LIG d   1       3.449   1.692  -2.977  0.00  0.00    -0.060 C 
ATOM     28  H   LIG d   1       4.211   2.094  -3.645  0.00  0.00     0.023 H 
ATOM     29  H   LIG d   1       2.619   1.303  -3.565  0.00  0.00     0.023 H 
ATOM     30  H   LIG d   1       3.089   2.483  -2.319  0.00  0.00     0.023 H 
ENDBRANCH  25  27
BRANCH  25  31
ATOM     31  C   LIG d   1       3.416  -0.767  -2.540  0.00  0.00    -0.060 C 
ATOM     32  H   LIG d   1       4.067  -1.587  -2.237  0.00  0.00     0.023 H 
ATOM     33  H   LIG d   1       2.448  -0.872  -2.051  0.00  0.00     0.023 H 
ATOM     34  H   LIG d   1       3.281  -0.792  -3.621  0.00  0.00     0.023 H 
ENDBRANCH  25  31
ENDBRANCH  22  25
ENDBRANCH  21  22
ENDBRANCH  19  21
ENDBRANCH   9  19
BRANCH   1  35
ATOM     35  C   LIG d   1       3.409  -1.400  -8.763  0.00  0.00     0.036 A 
ATOM     36  C   LIG d   1       3.852  -2.145  -9.847  0.00  0.00    -0.040 A 
ATOM     37  C   LIG d   1       3.098  -2.195 -11.004  0.00  0.00    -0.057 A 
ATOM     38  H   LIG d   1       4.785  -2.686  -9.787  0.00  0.00     0.064 H 
ATOM     39  C   LIG d   1       1.903  -1.504 -11.083  0.00  0.00    -0.050 A 
ATOM     40  H   LIG d   1       3.442  -2.775 -11.847  0.00  0.00     0.062 H 
ATOM     41  C   LIG d   1       1.459  -0.761 -10.004  0.00  0.00    -0.057 A 
ATOM     42  C   LIG d   1       2.206  -0.711  -8.843  0.00  0.00    -0.040 A 
ATOM     43  H   LIG d   1       0.526  -0.222 -10.069  0.00  0.00     0.062 H 
ATOM     44  H   LIG d   1       1.856  -0.133  -8.001  0.00  0.00     0.064 H 
BRANCH  39  45
ATOM     45  C   LIG d   1       1.084  -1.560 -12.346  0.00  0.00    -0.040 C 
ATOM     46  H   LIG d   1       1.239  -0.647 -12.921  0.00  0.00     0.028 H 
ATOM     47  H   LIG d   1       1.392  -2.420 -12.941  0.00  0.00     0.028 H 
ATOM     48  H   LIG d   1       0.029  -1.654 -12.091  0.00  0.00     0.028 H 
ENDBRANCH  39  45
ENDBRANCH   1  35
TORSDOF 8
ENDMDL
MODEL 2
REMARK VINA RESULT:      -5.8      2.988      6.506
REMARK  8 active torsions:
REMARK  status: ('A' for Active; 'I' for Inactive)
REMARK    1  A    between atoms: C_1  and  C_2 
REMARK    2  A    between atoms: C_5  and  N_8 
REMARK    3  A    between atoms: C_16  and  C_22 
REMARK    4  A    between atoms: C_22  and  O_24 
REMARK    5  A    between atoms: O_24  and  C_25 
REMARK    6  A    between atoms: C_25  and  C_26 
REMARK    7  A    between atoms: C_26  and  C_27 
REMARK    8  A    between atoms: C_26  and  C_28 
ROOT
ATOM      1  N   LIG d   1       7.871  -2.858  -4.560  0.00  0.00    -0.268 N 
ATOM      2  C   LIG d   1       8.563  -1.698  -5.169  0.00  0.00     0.053 C 
ATOM      3  C   LIG d   1       7.519  -1.061  -6.031  0.00  0.00     0.116 C 
ATOM      4  C   LIG d   1       7.488   0.380  -6.398  0.00  0.00    -0.052 C 
ATOM      5  C   LIG d   1       6.541   0.450  -7.367  0.00  0.00    -0.056 C 
ATOM      6  C   LIG d   1       6.051  -0.984  -7.597  0.00  0.00     0.092 C 
ATOM      7  H   LIG d   1       5.604  -1.176  -8.573  0.00  0.00     0.065 H 
ATOM      8  O   LIG d   1       7.270  -1.752  -7.285  0.00  0.00    -0.359 OA
ATOM      9  C   LIG d   1       5.169  -1.367  -6.365  0.00  0.00     0.100 C 
ATOM     10  H   LIG d   1       4.730  -2.356  -6.492  0.00  0.00     0.045 H 
ATOM     11  C   LIG d   1       6.203  -1.365  -5.226  0.00  0.00     0.086 C 
ATOM     12  H   LIG d   1       5.985  -0.620  -4.461  0.00  0.00     0.044 H 
ATOM     13  C   LIG d   1       6.522  -2.719  -4.658  0.00  0.00     0.227 C 
ATOM     14  O   LIG d   1       5.705  -3.555  -4.336  0.00  0.00    -0.275 OA
ATOM     15  H   LIG d   1       9.407  -2.030  -5.774  0.00  0.00     0.050 H 
ATOM     16  H   LIG d   1       8.897  -1.003  -4.398  0.00  0.00     0.050 H 
ATOM     17  H   LIG d   1       8.078   1.185  -5.987  0.00  0.00     0.060 H 
ATOM     18  H   LIG d   1       6.200   1.335  -7.886  0.00  0.00     0.060 H 
ENDROOT
BRANCH   9  19
ATOM     19  C   LIG d   1       4.100  -0.332  -6.126  0.00  0.00     0.314 C 
ATOM     20  O   LIG d   1       3.293  -0.085  -6.992  0.00  0.00    -0.250 OA
BRANCH  19  21
ATOM     21  O   LIG d   1       4.043   0.316  -4.951  0.00  0.00    -0.464 OA
BRANCH  21  22
ATOM     22  C   LIG d   1       2.776   0.287  -4.244  0.00  0.00     0.095 C 
ATOM     23  H   LIG d   1       2.293   1.260  -4.323  0.00  0.00     0.070 H 
ATOM     24  H   LIG d   1       2.131  -0.474  -4.683  0.00  0.00     0.070 H 
BRANCH  22  25
ATOM     25  C   LIG d   1       3.021  -0.041  -2.770  0.00  0.00    -0.012 C 
ATOM     26  H   LIG d   1       2.104   0.120  -2.204  0.00  0.00     0.033 H 
BRANCH  25  27
ATOM     27  C   LIG d   1       3.451  -1.503  -2.638  0.00  0.00    -0.060 C 
ATOM     28  H   LIG d   1       2.595  -2.108  -2.339  0.00  0.00     0.023 H 
ATOM     29  H   LIG d   1       3.832  -1.859  -3.595  0.00  0.00     0.023 H 
ATOM     30  H   LIG d   1       4.234  -1.584  -1.883  0.00  0.00     0.023 H 
ENDBRANCH  25  27
BRANCH  25  31
ATOM     31  C   LIG d   1       4.124   0.866  -2.222  0.00  0.00    -0.060 C 
ATOM     32  H   LIG d   1       3.675   1.691  -1.669  0.00  0.00     0.023 H 
ATOM     33  H   LIG d   1       4.771   0.293  -1.559  0.00  0.00     0.023 H 
ATOM     34  H   LIG d   1       4.713   1.263  -3.049  0.00  0.00     0.023 H 
ENDBRANCH  25  31
ENDBRANCH  22  25
ENDBRANCH  21  22
ENDBRANCH  19  21
ENDBRANCH   9  19
BRANCH   1  35
ATOM     35  C   LIG d   1       8.518  -3.948  -3.967  0.00  0.00     0.036 A 
ATOM     36  C   LIG d   1       8.532  -5.181  -4.605  0.00  0.00    -0.040 A 
ATOM     37  C   LIG d   1       9.172  -6.255  -4.016  0.00  0.00    -0.057 A 
ATOM     38  H   LIG d   1       8.043  -5.301  -5.560  0.00  0.00     0.064 H 
ATOM     39  C   LIG d   1       9.799  -6.102  -2.793  0.00  0.00    -0.050 A 
ATOM     40  H   LIG d   1       9.184  -7.213  -4.512  0.00  0.00     0.062 H 
ATOM     41  C   LIG d   1       9.787  -4.875  -2.155  0.00  0.00    -0.057 A 
ATOM     42  C   LIG d   1       9.153  -3.796  -2.741  0.00  0.00    -0.040 A 
ATOM     43  H   LIG d   1      10.277  -4.759  -1.200  0.00  0.00     0.062 H 
ATOM     44  H   LIG d   1       9.147  -2.838  -2.243  0.00  0.00     0.064 H 
BRANCH  39  45
ATOM     45  C   LIG d   1      10.495  -7.275  -2.154  0.00  0.00    -0.040 C 
ATOM     46  H   LIG d   1      11.569  -7.201  -2.332  0.00  0.00     0.028 H 
ATOM     47  H   LIG d   1      10.304  -7.272  -1.081  0.00  0.00     0.028 H 
ATOM     48  H   LIG d   1      10.119  -8.202  -2.587  0.00  0.00     0.028 H 
ENDBRANCH  39  45
ENDBRANCH   1  35
TORSDOF 8
ENDMDL
MODEL 3
REMARK VINA RESULT:      -5.7      4.529      5.982
REMARK  8 active torsions:
REMARK  status: ('A' for Active; 'I' for Inactive)
REMARK    1  A    between atoms: C_1  and  C_2 
REMARK    2  A    between atoms: C_5  and  N_8 
REMARK    3  A    between atoms: C_16  and  C_22 
REMARK    4  A    between atoms: C_22  and  O_24 
REMARK    5  A    between atoms: O_24  and  C_25 
REMARK    6  A    between atoms: C_25  and  C_26 
REMARK    7  A    between atoms: C_26  and  C_27 
REMARK    8  A    between atoms: C_26  and  C_28 
ROOT
ATOM      1  N   LIG d   1       5.517  -6.680  -5.633  0.00  0.00    -0.268 N 
ATOM      2  C   LIG d   1       6.906  -6.244  -5.359  0.00  0.00     0.053 C 
ATOM      3  C   LIG d   1       6.890  -4.774  -5.641  0.00  0.00     0.116 C 
ATOM      4  C   LIG d   1       7.804  -3.782  -5.014  0.00  0.00    -0.052 C 
ATOM      5  C   LIG d   1       7.602  -2.651  -5.737  0.00  0.00    -0.056 C 
ATOM      6  C   LIG d   1       6.591  -3.011  -6.831  0.00  0.00     0.092 C 
ATOM      7  H   LIG d   1       6.611  -2.374  -7.715  0.00  0.00     0.065 H 
ATOM      8  O   LIG d   1       6.911  -4.433  -7.053  0.00  0.00    -0.359 OA
ATOM      9  C   LIG d   1       5.199  -3.154  -6.134  0.00  0.00     0.100 C 
ATOM     10  H   LIG d   1       4.415  -3.346  -6.866  0.00  0.00     0.045 H 
ATOM     11  C   LIG d   1       5.423  -4.381  -5.233  0.00  0.00     0.086 C 
ATOM     12  H   LIG d   1       5.319  -4.149  -4.173  0.00  0.00     0.044 H 
ATOM     13  C   LIG d   1       4.671  -5.615  -5.645  0.00  0.00     0.227 C 
ATOM     14  O   LIG d   1       3.496  -5.655  -5.939  0.00  0.00    -0.275 OA
ATOM     15  H   LIG d   1       7.605  -6.753  -6.022  0.00  0.00     0.050 H 
ATOM     16  H   LIG d   1       7.167  -6.429  -4.317  0.00  0.00     0.050 H 
ATOM     17  H   LIG d   1       8.469  -3.925  -4.176  0.00  0.00     0.060 H 
ATOM     18  H   LIG d   1       8.066  -1.687  -5.584  0.00  0.00     0.060 H 
ENDROOT
BRANCH   9  19
ATOM     19  C   LIG d   1       4.880  -1.932  -5.313  0.00  0.00     0.314 C 
ATOM     20  O   LIG d   1       4.822  -0.847  -5.843  0.00  0.00    -0.250 OA
BRANCH  19  21
ATOM     21  O   LIG d   1       4.659  -2.047  -3.994  0.00  0.00    -0.464 OA
BRANCH  21  22
ATOM     22  C   LIG d   1       5.245  -1.034  -3.136  0.00  0.00     0.095 C 
ATOM     23  H   LIG d   1       6.091  -1.459  -2.597  0.00  0.00     0.070 H 
ATOM     24  H   LIG d   1       5.586  -0.196  -3.744  0.00  0.00     0.070 H 
BRANCH  22  25
ATOM     25  C   LIG d   1       4.197  -0.544  -2.135  0.00  0.00    -0.012 C 
ATOM     26  H   LIG d   1       4.194  -1.199  -1.263  0.00  0.00     0.033 H 
BRANCH  25  27
ATOM     27  C   LIG d   1       4.534   0.882  -1.700  0.00  0.00    -0.060 C 
ATOM     28  H   LIG d   1       4.099   1.591  -2.405  0.00  0.00     0.023 H 
ATOM     29  H   LIG d   1       4.129   1.065  -0.705  0.00  0.00     0.023 H 
ATOM     30  H   LIG d   1       5.617   1.009  -1.679  0.00  0.00     0.023 H 
ENDBRANCH  25  27
BRANCH  25  31
ATOM     31  C   LIG d   1       2.815  -0.564  -2.792  0.00  0.00    -0.060 C 
ATOM     32  H   LIG d   1       2.393  -1.567  -2.720  0.00  0.00     0.023 H 
ATOM     33  H   LIG d   1       2.161   0.142  -2.283  0.00  0.00     0.023 H 
ATOM     34  H   LIG d   1       2.907  -0.284  -3.841  0.00  0.00     0.023 H 
ENDBRANCH  25  31
ENDBRANCH  22  25
ENDBRANCH  21  22
ENDBRANCH  19  21
ENDBRANCH   9  19
BRANCH   1  35
ATOM     35  C   LIG d   1       5.128  -8.007  -5.852  0.00  0.00     0.036 A 
ATOM     36  C   LIG d   1       4.983  -8.485  -7.148  0.00  0.00    -0.040 A 
ATOM     37  C   LIG d   1       4.600  -9.795  -7.360  0.00  0.00    -0.057 A 
ATOM     38  H   LIG d   1       5.170  -7.834  -7.989  0.00  0.00     0.064 H 
ATOM     39  C   LIG d   1       4.362 -10.630  -6.284  0.00  0.00    -0.050 A 
ATOM     40  H   LIG d   1       4.488 -10.168  -8.367  0.00  0.00     0.062 H 
ATOM     41  C   LIG d   1       4.506 -10.157  -4.992  0.00  0.00    -0.057 A 
ATOM     42  C   LIG d   1       4.893  -8.849  -4.773  0.00  0.00    -0.040 A 
ATOM     43  H   LIG d   1       4.318 -10.811  -4.154  0.00  0.00     0.062 H 
ATOM     44  H   LIG d   1       5.008  -8.482  -3.765  0.00  0.00     0.064 H 
BRANCH  39  45
ATOM     45  C   LIG d   1       3.944 -12.059  -6.519  0.00  0.00    -0.040 C 
ATOM     46  H   LIG d   1       4.698 -12.730  -6.108  0.00  0.00     0.028 H 
ATOM     47  H   LIG d   1       2.988 -12.243  -6.030  0.00  0.00     0.028 H 
ATOM     48  H   LIG d   1       3.845 -12.237  -7.589  0.00  0.00     0.028 H 
ENDBRANCH  39  45
ENDBRANCH   1  35
TORSDOF 8
ENDMDL
MODEL 4
REMARK VINA RESULT:      -5.6      3.492      5.210
REMARK  8 active torsions:
REMARK  status: ('A' for Active; 'I' for Inactive)
REMARK    1  A    between atoms: C_1  and  C_2 
REMARK    2  A    between atoms: C_5  and  N_8 
REMARK    3  A    between atoms: C_16  and  C_22 
REMARK    4  A    between atoms: C_22  and  O_24 
REMARK    5  A    between atoms: O_24  and  C_25 
REMARK    6  A    between atoms: C_25  and  C_26 
REMARK    7  A    between atoms: C_26  and  C_27 
REMARK    8  A    between atoms: C_26  and  C_28 
ROOT
ATOM      1  N   LIG d   1       5.790  -4.844  -5.750  0.00  0.00    -0.268 N 
ATOM      2  C   LIG d   1       6.791  -4.101  -4.948  0.00  0.00     0.053 C 
ATOM      3  C   LIG d   1       6.533  -2.665  -5.282  0.00  0.00     0.116 C 
ATOM      4  C   LIG d   1       6.836  -1.520  -4.382  0.00  0.00    -0.052 C 
ATOM      5  C   LIG d   1       6.679  -0.431  -5.177  0.00  0.00    -0.056 C 
ATOM      6  C   LIG d   1       6.329  -0.960  -6.572  0.00  0.00     0.092 C 
ATOM      7  H   LIG d   1       6.554  -0.286  -7.398  0.00  0.00     0.065 H 
ATOM      8  O   LIG d   1       7.049  -2.246  -6.574  0.00  0.00    -0.359 OA
ATOM      9  C   LIG d   1       4.855  -1.476  -6.505  0.00  0.00     0.100 C 
ATOM     10  H   LIG d   1       4.514  -1.809  -7.485  0.00  0.00     0.045 H 
ATOM     11  C   LIG d   1       4.981  -2.663  -5.534  0.00  0.00     0.086 C 
ATOM     12  H   LIG d   1       4.397  -2.526  -4.624  0.00  0.00     0.044 H 
ATOM     13  C   LIG d   1       4.792  -4.016  -6.160  0.00  0.00     0.227 C 
ATOM     14  O   LIG d   1       3.890  -4.322  -6.911  0.00  0.00    -0.275 OA
ATOM     15  H   LIG d   1       7.802  -4.386  -5.240  0.00  0.00     0.050 H 
ATOM     16  H   LIG d   1       6.636  -4.279  -3.884  0.00  0.00     0.050 H 
ATOM     17  H   LIG d   1       7.110  -1.547  -3.339  0.00  0.00     0.060 H 
ATOM     18  H   LIG d   1       6.788   0.606  -4.893  0.00  0.00     0.060 H 
ENDROOT
BRANCH   9  19
ATOM     19  C   LIG d   1       3.939  -0.418  -5.948  0.00  0.00     0.314 C 
ATOM     20  O   LIG d   1       3.721   0.588  -6.583  0.00  0.00    -0.250 OA
BRANCH  19  21
ATOM     21  O   LIG d   1       3.363  -0.592  -4.748  0.00  0.00    -0.464 OA
BRANCH  21  22
ATOM     22  C   LIG d   1       3.316   0.561  -3.866  0.00  0.00     0.095 C 
ATOM     23  H   LIG d   1       4.137   1.236  -4.107  0.00  0.00     0.070 H 
ATOM     24  H   LIG d   1       2.368   1.081  -3.998  0.00  0.00     0.070 H 
BRANCH  22  25
ATOM     25  C   LIG d   1       3.446   0.098  -2.415  0.00  0.00    -0.012 C 
ATOM     26  H   LIG d   1       2.513   0.292  -1.886  0.00  0.00     0.033 H 
BRANCH  25  27
ATOM     27  C   LIG d   1       3.748  -1.402  -2.382  0.00  0.00    -0.060 C 
ATOM     28  H   LIG d   1       4.665  -1.577  -1.821  0.00  0.00     0.023 H 
ATOM     29  H   LIG d   1       2.922  -1.928  -1.903  0.00  0.00     0.023 H 
ATOM     30  H   LIG d   1       3.870  -1.769  -3.401  0.00  0.00     0.023 H 
ENDBRANCH  25  27
BRANCH  25  31
ATOM     31  C   LIG d   1       4.585   0.861  -1.735  0.00  0.00    -0.060 C 
ATOM     32  H   LIG d   1       5.166   0.175  -1.118  0.00  0.00     0.023 H 
ATOM     33  H   LIG d   1       5.230   1.304  -2.493  0.00  0.00     0.023 H 
ATOM     34  H   LIG d   1       4.169   1.649  -1.107  0.00  0.00     0.023 H 
ENDBRANCH  25  31
ENDBRANCH  22  25
ENDBRANCH  21  22
ENDBRANCH  19  21
ENDBRANCH   9  19
BRANCH   1  35
ATOM     35  C   LIG d   1       5.863  -6.209  -6.046  0.00  0.00     0.036 A 
ATOM     36  C   LIG d   1       6.792  -6.673  -6.968  0.00  0.00    -0.040 A 
ATOM     37  C   LIG d   1       6.861  -8.022  -7.258  0.00  0.00    -0.057 A 
ATOM     38  H   LIG d   1       7.460  -5.981  -7.458  0.00  0.00     0.064 H 
ATOM     39  C   LIG d   1       6.007  -8.911  -6.630  0.00  0.00    -0.050 A 
ATOM     40  H   LIG d   1       7.584  -8.384  -7.974  0.00  0.00     0.062 H 
ATOM     41  C   LIG d   1       5.081  -8.451  -5.711  0.00  0.00    -0.057 A 
ATOM     42  C   LIG d   1       5.009  -7.104  -5.414  0.00  0.00    -0.040 A 
ATOM     43  H   LIG d   1       4.415  -9.147  -5.223  0.00  0.00     0.062 H 
ATOM     44  H   LIG d   1       4.288  -6.748  -4.694  0.00  0.00     0.064 H 
BRANCH  39  45
ATOM     45  C   LIG d   1       6.085 -10.381  -6.949  0.00  0.00    -0.040 C 
ATOM     46  H   LIG d   1       5.849 -10.538  -8.001  0.00  0.00     0.028 H 
ATOM     47  H   LIG d   1       7.092 -10.744  -6.744  0.00  0.00     0.028 H 
ATOM     48  H   LIG d   1       5.371 -10.925  -6.332  0.00  0.00     0.028 H 
ENDBRANCH  39  45
ENDBRANCH   1  35
TORSDOF 8
ENDMDL
MODEL 5
REMARK VINA RESULT:      -5.5      4.865      7.404
REMARK  8 active torsions:
REMARK  status: ('A' for Active; 'I' for Inactive)
REMARK    1  A    between atoms: C_1  and  C_2 
REMARK    2  A    between atoms: C_5  and  N_8 
REMARK    3  A    between atoms: C_16  and  C_22 
REMARK    4  A    between atoms: C_22  and  O_24 
REMARK    5  A    between atoms: O_24  and  C_25 
REMARK    6  A    between atoms: C_25  and  C_26 
REMARK    7  A    between atoms: C_26  and  C_27 
REMARK    8  A    between atoms: C_26  and  C_28 
ROOT
ATOM      1  N   LIG d   1       7.951   1.512  -4.260  0.00  0.00    -0.268 N 
ATOM      2  C   LIG d   1       9.034   2.155  -3.478  0.00  0.00     0.053 C 
ATOM      3  C   LIG d   1      10.035   2.569  -4.510  0.00  0.00     0.116 C 
ATOM      4  C   LIG d   1      10.985   3.703  -4.361  0.00  0.00    -0.052 C 
ATOM      5  C   LIG d   1      11.842   3.549  -5.401  0.00  0.00    -0.056 C 
ATOM      6  C   LIG d   1      11.409   2.276  -6.135  0.00  0.00     0.092 C 
ATOM      7  H   LIG d   1      12.184   1.789  -6.727  0.00  0.00     0.065 H 
ATOM      8  O   LIG d   1      10.855   1.484  -5.022  0.00  0.00    -0.359 OA
ATOM      9  C   LIG d   1      10.091   2.619  -6.902  0.00  0.00     0.100 C 
ATOM     10  H   LIG d   1       9.757   1.774  -7.503  0.00  0.00     0.045 H 
ATOM     11  C   LIG d   1       9.115   2.891  -5.744  0.00  0.00     0.086 C 
ATOM     12  H   LIG d   1       8.736   3.913  -5.744  0.00  0.00     0.044 H 
ATOM     13  C   LIG d   1       8.035   1.859  -5.572  0.00  0.00     0.227 C 
ATOM     14  O   LIG d   1       7.345   1.410  -6.462  0.00  0.00    -0.275 OA
ATOM     15  H   LIG d   1       9.476   1.443  -2.780  0.00  0.00     0.050 H 
ATOM     16  H   LIG d   1       8.654   3.026  -2.943  0.00  0.00     0.050 H 
ATOM     17  H   LIG d   1      10.990   4.473  -3.604  0.00  0.00     0.060 H 
ATOM     18  H   LIG d   1      12.674   4.188  -5.662  0.00  0.00     0.060 H 
ENDROOT
BRANCH   9  19
ATOM     19  C   LIG d   1      10.270   3.848  -7.756  0.00  0.00     0.314 C 
ATOM     20  O   LIG d   1      11.037   3.828  -8.690  0.00  0.00    -0.250 OA
BRANCH  19  21
ATOM     21  O   LIG d   1       9.577   4.964  -7.481  0.00  0.00    -0.464 OA
BRANCH  21  22
ATOM     22  C   LIG d   1       9.983   6.178  -8.166  0.00  0.00     0.095 C 
ATOM     23  H   LIG d   1      10.971   6.035  -8.603  0.00  0.00     0.070 H 
ATOM     24  H   LIG d   1       9.267   6.406  -8.956  0.00  0.00     0.070 H 
BRANCH  22  25
ATOM     25  C   LIG d   1      10.029   7.336  -7.169  0.00  0.00    -0.012 C 
ATOM     26  H   LIG d   1      11.053   7.702  -7.084  0.00  0.00     0.033 H 
BRANCH  25  27
ATOM     27  C   LIG d   1       9.124   8.468  -7.658  0.00  0.00    -0.060 C 
ATOM     28  H   LIG d   1       8.082   8.150  -7.605  0.00  0.00     0.023 H 
ATOM     29  H   LIG d   1       9.268   9.347  -7.031  0.00  0.00     0.023 H 
ATOM     30  H   LIG d   1       9.376   8.713  -8.690  0.00  0.00     0.023 H 
ENDBRANCH  25  27
BRANCH  25  31
ATOM     31  C   LIG d   1       9.546   6.852  -5.801  0.00  0.00    -0.060 C 
ATOM     32  H   LIG d   1      10.237   7.192  -5.029  0.00  0.00     0.023 H 
ATOM     33  H   LIG d   1       8.553   7.254  -5.602  0.00  0.00     0.023 H 
ATOM     34  H   LIG d   1       9.504   5.763  -5.795  0.00  0.00     0.023 H 
ENDBRANCH  25  31
ENDBRANCH  22  25
ENDBRANCH  21  22
ENDBRANCH  19  21
ENDBRANCH   9  19
BRANCH   1  35
ATOM     35  C   LIG d   1       6.979   0.662  -3.722  0.00  0.00     0.036 A 
ATOM     36  C   LIG d   1       7.121  -0.715  -3.829  0.00  0.00    -0.040 A 
ATOM     37  C   LIG d   1       6.158  -1.551  -3.296  0.00  0.00    -0.057 A 
ATOM     38  H   LIG d   1       7.983  -1.133  -4.327  0.00  0.00     0.064 H 
ATOM     39  C   LIG d   1       5.054  -1.017  -2.657  0.00  0.00    -0.050 A 
ATOM     40  H   LIG d   1       6.268  -2.621  -3.378  0.00  0.00     0.062 H 
ATOM     41  C   LIG d   1       4.910   0.354  -2.549  0.00  0.00    -0.057 A 
ATOM     42  C   LIG d   1       5.871   1.195  -3.075  0.00  0.00    -0.040 A 
ATOM     43  H   LIG d   1       4.046   0.768  -2.050  0.00  0.00     0.062 H 
ATOM     44  H   LIG d   1       5.759   2.265  -2.987  0.00  0.00     0.064 H 
BRANCH  39  45
ATOM     45  C   LIG d   1       4.006  -1.931  -2.077  0.00  0.00    -0.040 C 
ATOM     46  H   LIG d   1       3.945  -2.840  -2.677  0.00  0.00     0.028 H 
ATOM     47  H   LIG d   1       4.275  -2.189  -1.053  0.00  0.00     0.028 H 
ATOM     48  H   LIG d   1       3.040  -1.427  -2.083  0.00  0.00     0.028 H 
ENDBRANCH  39  45
ENDBRANCH   1  35
TORSDOF 8
ENDMDL
MODEL 6
REMARK VINA RESULT:      -5.2      4.316      7.650
REMARK  8 active torsions:
REMARK  status: ('A' for Active; 'I' for Inactive)
REMARK    1  A    between atoms: C_1  and  C_2 
REMARK    2  A    between atoms: C_5  and  N_8 
REMARK    3  A    between atoms: C_16  and  C_22 
REMARK    4  A    between atoms: C_22  and  O_24 
REMARK    5  A    between atoms: O_24  and  C_25 
REMARK    6  A    between atoms: C_25  and  C_26 
REMARK    7  A    between atoms: C_26  and  C_27 
REMARK    8  A    between atoms: C_26  and  C_28 
ROOT
ATOM      1  N   LIG d   1       9.686   3.147  -5.308  0.00  0.00    -0.268 N 
ATOM      2  C   LIG d   1       9.142   2.416  -6.478  0.00  0.00     0.053 C 
ATOM      3  C   LIG d   1       8.315   1.325  -5.874  0.00  0.00     0.116 C 
ATOM      4  C   LIG d   1       7.145   0.687  -6.535  0.00  0.00    -0.052 C 
ATOM      5  C   LIG d   1       6.874  -0.387  -5.752  0.00  0.00    -0.056 C 
ATOM      6  C   LIG d   1       7.937  -0.396  -4.647  0.00  0.00     0.092 C 
ATOM      7  H   LIG d   1       8.120  -1.365  -4.181  0.00  0.00     0.065 H 
ATOM      8  O   LIG d   1       9.082   0.207  -5.353  0.00  0.00    -0.359 OA
ATOM      9  C   LIG d   1       7.582   0.767  -3.666  0.00  0.00     0.100 C 
ATOM     10  H   LIG d   1       8.262   0.780  -2.814  0.00  0.00     0.045 H 
ATOM     11  C   LIG d   1       7.792   2.004  -4.556  0.00  0.00     0.086 C 
ATOM     12  H   LIG d   1       6.877   2.579  -4.701  0.00  0.00     0.044 H 
ATOM     13  C   LIG d   1       8.973   2.857  -4.187  0.00  0.00     0.227 C 
ATOM     14  O   LIG d   1       9.246   3.230  -3.066  0.00  0.00    -0.275 OA
ATOM     15  H   LIG d   1       9.952   1.997  -7.075  0.00  0.00     0.050 H 
ATOM     16  H   LIG d   1       8.522   3.075  -7.085  0.00  0.00     0.050 H 
ATOM     17  H   LIG d   1       6.628   1.005  -7.428  0.00  0.00     0.060 H 
ATOM     18  H   LIG d   1       6.076  -1.105  -5.879  0.00  0.00     0.060 H 
ENDROOT
BRANCH   9  19
ATOM     19  C   LIG d   1       6.150   0.668  -3.208  0.00  0.00     0.314 C 
ATOM     20  O   LIG d   1       5.399   1.602  -3.367  0.00  0.00    -0.250 OA
BRANCH  19  21
ATOM     21  O   LIG d   1       5.707  -0.457  -2.625  0.00  0.00    -0.464 OA
BRANCH  21  22
ATOM     22  C   LIG d   1       4.460  -0.371  -1.888  0.00  0.00     0.095 C 
ATOM     23  H   LIG d   1       4.636  -0.625  -0.843  0.00  0.00     0.070 H 
ATOM     24  H   LIG d   1       4.068   0.644  -1.953  0.00  0.00     0.070 H 
BRANCH  22  25
ATOM     25  C   LIG d   1       3.446  -1.348  -2.485  0.00  0.00    -0.012 C 
ATOM     26  H   LIG d   1       2.819  -1.752  -1.690  0.00  0.00     0.033 H 
BRANCH  25  27
ATOM     27  C   LIG d   1       2.569  -0.616  -3.502  0.00  0.00    -0.060 C 
ATOM     28  H   LIG d   1       1.884  -1.323  -3.969  0.00  0.00     0.023 H 
ATOM     29  H   LIG d   1       1.999   0.163  -2.997  0.00  0.00     0.023 H 
ATOM     30  H   LIG d   1       3.201  -0.164  -4.267  0.00  0.00     0.023 H 
ENDBRANCH  25  27
BRANCH  25  31
ATOM     31  C   LIG d   1       4.187  -2.492  -3.180  0.00  0.00    -0.060 C 
ATOM     32  H   LIG d   1       5.257  -2.401  -2.989  0.00  0.00     0.023 H 
ATOM     33  H   LIG d   1       3.829  -3.445  -2.794  0.00  0.00     0.023 H 
ATOM     34  H   LIG d   1       4.005  -2.443  -4.253  0.00  0.00     0.023 H 
ENDBRANCH  25  31
ENDBRANCH  22  25
ENDBRANCH  21  22
ENDBRANCH  19  21
ENDBRANCH   9  19
BRANCH   1  35
ATOM     35  C   LIG d   1      10.783   4.014  -5.352  0.00  0.00     0.036 A 
ATOM     36  C   LIG d   1      12.071   3.516  -5.205  0.00  0.00    -0.040 A 
ATOM     37  C   LIG d   1      13.152   4.376  -5.249  0.00  0.00    -0.057 A 
ATOM     38  H   LIG d   1      12.228   2.458  -5.057  0.00  0.00     0.064 H 
ATOM     39  C   LIG d   1      12.952   5.731  -5.439  0.00  0.00    -0.050 A 
ATOM     40  H   LIG d   1      14.153   3.989  -5.136  0.00  0.00     0.062 H 
ATOM     41  C   LIG d   1      11.670   6.230  -5.586  0.00  0.00    -0.057 A 
ATOM     42  C   LIG d   1      10.586   5.375  -5.548  0.00  0.00    -0.040 A 
ATOM     43  H   LIG d   1      11.517   7.289  -5.734  0.00  0.00     0.062 H 
ATOM     44  H   LIG d   1       9.586   5.766  -5.666  0.00  0.00     0.064 H 
BRANCH  39  45
ATOM     45  C   LIG d   1      14.133   6.665  -5.487  0.00  0.00    -0.040 C 
ATOM     46  H   LIG d   1      14.874   6.279  -6.187  0.00  0.00     0.028 H 
ATOM     47  H   LIG d   1      13.803   7.651  -5.814  0.00  0.00     0.028 H 
ATOM     48  H   LIG d   1      14.576   6.741  -4.495  0.00  0.00     0.028 H 
ENDBRANCH  39  45
ENDBRANCH   1  35
TORSDOF 8
ENDMDL
MODEL 7
REMARK VINA RESULT:      -5.2      2.366      7.355
REMARK  8 active torsions:
REMARK  status: ('A' for Active; 'I' for Inactive)
REMARK    1  A    between atoms: C_1  and  C_2 
REMARK    2  A    between atoms: C_5  and  N_8 
REMARK    3  A    between atoms: C_16  and  C_22 
REMARK    4  A    between atoms: C_22  and  O_24 
REMARK    5  A    between atoms: O_24  and  C_25 
REMARK    6  A    between atoms: C_25  and  C_26 
REMARK    7  A    between atoms: C_26  and  C_27 
REMARK    8  A    between atoms: C_26  and  C_28 
ROOT
ATOM      1  N   LIG d   1       3.577  -0.653  -6.946  0.00  0.00    -0.268 N 
ATOM      2  C   LIG d   1       2.753   0.134  -7.894  0.00  0.00     0.053 C 
ATOM      3  C   LIG d   1       3.132  -0.400  -9.239  0.00  0.00     0.116 C 
ATOM      4  C   LIG d   1       2.248  -0.384 -10.435  0.00  0.00    -0.052 C 
ATOM      5  C   LIG d   1       3.075  -0.726 -11.456  0.00  0.00    -0.056 C 
ATOM      6  C   LIG d   1       4.470  -0.895 -10.845  0.00  0.00     0.092 C 
ATOM      7  H   LIG d   1       5.303  -0.777 -11.538  0.00  0.00     0.065 H 
ATOM      8  O   LIG d   1       4.411   0.075  -9.737  0.00  0.00    -0.359 OA
ATOM      9  C   LIG d   1       4.452  -2.231 -10.033  0.00  0.00     0.100 C 
ATOM     10  H   LIG d   1       5.437  -2.451  -9.622  0.00  0.00     0.045 H 
ATOM     11  C   LIG d   1       3.448  -1.906  -8.914  0.00  0.00     0.086 C 
ATOM     12  H   LIG d   1       2.567  -2.546  -8.940  0.00  0.00     0.044 H 
ATOM     13  C   LIG d   1       4.049  -1.781  -7.542  0.00  0.00     0.227 C 
ATOM     14  O   LIG d   1       4.828  -2.565  -7.043  0.00  0.00    -0.275 OA
ATOM     15  H   LIG d   1       2.995   1.195  -7.821  0.00  0.00     0.050 H 
ATOM     16  H   LIG d   1       1.692  -0.028  -7.704  0.00  0.00     0.050 H 
ATOM     17  H   LIG d   1       1.194  -0.157 -10.482  0.00  0.00     0.060 H 
ATOM     18  H   LIG d   1       2.812  -0.848 -12.497  0.00  0.00     0.060 H 
ENDROOT
BRANCH   9  19
ATOM     19  C   LIG d   1       3.960  -3.372 -10.886  0.00  0.00     0.314 C 
ATOM     20  O   LIG d   1       4.509  -3.625 -11.932  0.00  0.00    -0.250 OA
BRANCH  19  21
ATOM     21  O   LIG d   1       2.912  -4.108 -10.482  0.00  0.00    -0.464 OA
BRANCH  21  22
ATOM     22  C   LIG d   1       1.905  -4.424 -11.479  0.00  0.00     0.095 C 
ATOM     23  H   LIG d   1       2.269  -4.139 -12.466  0.00  0.00     0.070 H 
ATOM     24  H   LIG d   1       1.701  -5.494 -11.463  0.00  0.00     0.070 H 
BRANCH  22  25
ATOM     25  C   LIG d   1       0.621  -3.654 -11.169  0.00  0.00    -0.012 C 
ATOM     26  H   LIG d   1       0.796  -2.977 -10.332  0.00  0.00     0.033 H 
BRANCH  25  27
ATOM     27  C   LIG d   1       0.200  -2.846 -12.397  0.00  0.00    -0.060 C 
ATOM     28  H   LIG d   1       0.190  -3.495 -13.274  0.00  0.00     0.023 H 
ATOM     29  H   LIG d   1      -0.796  -2.434 -12.238  0.00  0.00     0.023 H 
ATOM     30  H   LIG d   1       0.908  -2.032 -12.557  0.00  0.00     0.023 H 
ENDBRANCH  25  27
BRANCH  25  31
ATOM     31  C   LIG d   1      -0.490  -4.640 -10.802  0.00  0.00    -0.060 C 
ATOM     32  H   LIG d   1      -0.280  -5.078  -9.826  0.00  0.00     0.023 H 
ATOM     33  H   LIG d   1      -1.445  -4.118 -10.768  0.00  0.00     0.023 H 
ATOM     34  H   LIG d   1      -0.536  -5.431 -11.551  0.00  0.00     0.023 H 
ENDBRANCH  25  31
ENDBRANCH  22  25
ENDBRANCH  21  22
ENDBRANCH  19  21
ENDBRANCH   9  19
BRANCH   1  35
ATOM     35  C   LIG d   1       3.837  -0.284  -5.622  0.00  0.00     0.036 A 
ATOM     36  C   LIG d   1       5.137  -0.313  -5.133  0.00  0.00    -0.040 A 
ATOM     37  C   LIG d   1       5.389   0.053  -3.824  0.00  0.00    -0.057 A 
ATOM     38  H   LIG d   1       5.949  -0.620  -5.774  0.00  0.00     0.064 H 
ATOM     39  C   LIG d   1       4.349   0.447  -3.002  0.00  0.00    -0.050 A 
ATOM     40  H   LIG d   1       6.399   0.031  -3.444  0.00  0.00     0.062 H 
ATOM     41  C   LIG d   1       3.054   0.476  -3.487  0.00  0.00    -0.057 A 
ATOM     42  C   LIG d   1       2.796   0.117  -4.795  0.00  0.00    -0.040 A 
ATOM     43  H   LIG d   1       2.244   0.784  -2.842  0.00  0.00     0.062 H 
ATOM     44  H   LIG d   1       1.785   0.144  -5.173  0.00  0.00     0.064 H 
BRANCH  39  45
ATOM     45  C   LIG d   1       4.628   0.844  -1.576  0.00  0.00    -0.040 C 
ATOM     46  H   LIG d   1       4.057   1.740  -1.331  0.00  0.00     0.028 H 
ATOM     47  H   LIG d   1       4.336   0.034  -0.909  0.00  0.00     0.028 H 
ATOM     48  H   LIG d   1       5.692   1.048  -1.457  0.00  0.00     0.028 H 
ENDBRANCH  39  45
ENDBRANCH   1  35
TORSDOF 8
ENDMDL
MODEL 8
REMARK VINA RESULT:      -5.2      2.932      4.579
REMARK  8 active torsions:
REMARK  status: ('A' for Active; 'I' for Inactive)
REMARK    1  A    between atoms: C_1  and  C_2 
REMARK    2  A    between atoms: C_5  and  N_8 
REMARK    3  A    between atoms: C_16  and  C_22 
REMARK    4  A    between atoms: C_22  and  O_24 
REMARK    5  A    between atoms: O_24  and  C_25 
REMARK    6  A    between atoms: C_25  and  C_26 
REMARK    7  A    between atoms: C_26  and  C_27 
REMARK    8  A    between atoms: C_26  and  C_28 
ROOT
ATOM      1  N   LIG d   1       4.438  -0.375 -11.316  0.00  0.00    -0.268 N 
ATOM      2  C   LIG d   1       3.841   0.943 -10.996  0.00  0.00     0.053 C 
ATOM      3  C   LIG d   1       3.450   0.827  -9.556  0.00  0.00     0.116 C 
ATOM      4  C   LIG d   1       3.346   1.973  -8.614  0.00  0.00    -0.052 C 
ATOM      5  C   LIG d   1       2.734   1.444  -7.525  0.00  0.00    -0.056 C 
ATOM      6  C   LIG d   1       2.436  -0.021  -7.864  0.00  0.00     0.092 C 
ATOM      7  H   LIG d   1       1.625  -0.478  -7.297  0.00  0.00     0.065 H 
ATOM      8  O   LIG d   1       2.238   0.063  -9.322  0.00  0.00    -0.359 OA
ATOM      9  C   LIG d   1       3.800  -0.783  -7.822  0.00  0.00     0.100 C 
ATOM     10  H   LIG d   1       3.656  -1.850  -7.990  0.00  0.00     0.045 H 
ATOM     11  C   LIG d   1       4.557  -0.138  -8.996  0.00  0.00     0.086 C 
ATOM     12  H   LIG d   1       5.461   0.382  -8.678  0.00  0.00     0.044 H 
ATOM     13  C   LIG d   1       4.777  -1.039 -10.179  0.00  0.00     0.227 C 
ATOM     14  O   LIG d   1       5.193  -2.176 -10.127  0.00  0.00    -0.275 OA
ATOM     15  H   LIG d   1       2.964   1.127 -11.617  0.00  0.00     0.050 H 
ATOM     16  H   LIG d   1       4.575   1.738 -11.130  0.00  0.00     0.050 H 
ATOM     17  H   LIG d   1       3.682   2.989  -8.759  0.00  0.00     0.060 H 
ATOM     18  H   LIG d   1       2.492   1.950  -6.601  0.00  0.00     0.060 H 
ENDROOT
BRANCH   9  19
ATOM     19  C   LIG d   1       4.515  -0.537  -6.518  0.00  0.00     0.314 C 
ATOM     20  O   LIG d   1       5.526   0.125  -6.499  0.00  0.00    -0.250 OA
BRANCH  19  21
ATOM     21  O   LIG d   1       4.028  -1.052  -5.378  0.00  0.00    -0.464 OA
BRANCH  21  22
ATOM     22  C   LIG d   1       3.680  -0.114  -4.326  0.00  0.00     0.095 C 
ATOM     23  H   LIG d   1       4.458   0.644  -4.243  0.00  0.00     0.070 H 
ATOM     24  H   LIG d   1       2.731   0.366  -4.567  0.00  0.00     0.070 H 
BRANCH  22  25
ATOM     25  C   LIG d   1       3.551  -0.860  -2.998  0.00  0.00    -0.012 C 
ATOM     26  H   LIG d   1       2.500  -0.926  -2.718  0.00  0.00     0.033 H 
BRANCH  25  27
ATOM     27  C   LIG d   1       4.128  -2.269  -3.147  0.00  0.00    -0.060 C 
ATOM     28  H   LIG d   1       3.343  -2.951  -3.476  0.00  0.00     0.023 H 
ATOM     29  H   LIG d   1       4.931  -2.258  -3.883  0.00  0.00     0.023 H 
ATOM     30  H   LIG d   1       4.520  -2.604  -2.186  0.00  0.00     0.023 H 
ENDBRANCH  25  27
BRANCH  25  31
ATOM     31  C   LIG d   1       4.321  -0.106  -1.912  0.00  0.00    -0.060 C 
ATOM     32  H   LIG d   1       3.652   0.595  -1.412  0.00  0.00     0.023 H 
ATOM     33  H   LIG d   1       4.713  -0.816  -1.184  0.00  0.00     0.023 H 
ATOM     34  H   LIG d   1       5.147   0.441  -2.365  0.00  0.00     0.023 H 
ENDBRANCH  25  31
ENDBRANCH  22  25
ENDBRANCH  21  22
ENDBRANCH  19  21
ENDBRANCH   9  19
BRANCH   1  35
ATOM     35  C   LIG d   1       4.624  -0.871 -12.612  0.00  0.00     0.036 A 
ATOM     36  C   LIG d   1       3.541  -1.346 -13.338  0.00  0.00    -0.040 A 
ATOM     37  C   LIG d   1       3.729  -1.834 -14.617  0.00  0.00    -0.057 A 
ATOM     38  H   LIG d   1       2.552  -1.334 -12.905  0.00  0.00     0.064 H 
ATOM     39  C   LIG d   1       4.995  -1.849 -15.174  0.00  0.00    -0.050 A 
ATOM     40  H   LIG d   1       2.887  -2.203 -15.183  0.00  0.00     0.062 H 
ATOM     41  C   LIG d   1       6.076  -1.376 -14.453  0.00  0.00    -0.057 A 
ATOM     42  C   LIG d   1       5.894  -0.882 -13.175  0.00  0.00    -0.040 A 
ATOM     43  H   LIG d   1       7.063  -1.389 -14.890  0.00  0.00     0.062 H 
ATOM     44  H   LIG d   1       6.738  -0.510 -12.615  0.00  0.00     0.064 H 
BRANCH  39  45
ATOM     45  C   LIG d   1       5.197  -2.382 -16.569  0.00  0.00    -0.040 C 
ATOM     46  H   LIG d   1       5.957  -3.163 -16.553  0.00  0.00     0.028 H 
ATOM     47  H   LIG d   1       4.259  -2.795 -16.939  0.00  0.00     0.028 H 
ATOM     48  H   LIG d   1       5.521  -1.574 -17.223  0.00  0.00     0.028 H 
ENDBRANCH  39  45
ENDBRANCH   1  35
TORSDOF 8
ENDMDL
MODEL 9
REMARK VINA RESULT:      -5.0      2.456      7.662
REMARK  8 active torsions:
REMARK  status: ('A' for Active; 'I' for Inactive)
REMARK    1  A    between atoms: C_1  and  C_2 
REMARK    2  A    between atoms: C_5  and  N_8 
REMARK    3  A    between atoms: C_16  and  C_22 
REMARK    4  A    between atoms: C_22  and  O_24 
REMARK    5  A    between atoms: O_24  and  C_25 
REMARK    6  A    between atoms: C_25  and  C_26 
REMARK    7  A    between atoms: C_26  and  C_27 
REMARK    8  A    between atoms: C_26  and  C_28 
ROOT
ATOM      1  N   LIG d   1       4.487  -0.871  -6.976  0.00  0.00    -0.268 N 
ATOM      2  C   LIG d   1       4.343  -2.290  -7.379  0.00  0.00     0.053 C 
ATOM      3  C   LIG d   1       3.963  -2.222  -8.825  0.00  0.00     0.116 C 
ATOM      4  C   LIG d   1       4.242  -3.288  -9.823  0.00  0.00    -0.052 C 
ATOM      5  C   LIG d   1       3.516  -2.917 -10.908  0.00  0.00    -0.056 C 
ATOM      6  C   LIG d   1       2.765  -1.641 -10.511  0.00  0.00     0.092 C 
ATOM      7  H   LIG d   1       1.862  -1.431 -11.083  0.00  0.00     0.065 H 
ATOM      8  O   LIG d   1       2.575  -1.864  -9.066  0.00  0.00    -0.359 OA
ATOM      9  C   LIG d   1       3.820  -0.488 -10.468  0.00  0.00     0.100 C 
ATOM     10  H   LIG d   1       3.344   0.469 -10.254  0.00  0.00     0.045 H 
ATOM     11  C   LIG d   1       4.719  -0.928  -9.300  0.00  0.00     0.086 C 
ATOM     12  H   LIG d   1       5.747  -1.119  -9.609  0.00  0.00     0.044 H 
ATOM     13  C   LIG d   1       4.621  -0.072  -8.068  0.00  0.00     0.227 C 
ATOM     14  O   LIG d   1       4.659   1.140  -8.051  0.00  0.00    -0.275 OA
ATOM     15  H   LIG d   1       3.557  -2.773  -6.799  0.00  0.00     0.050 H 
ATOM     16  H   LIG d   1       5.287  -2.820  -7.257  0.00  0.00     0.050 H 
ATOM     17  H   LIG d   1       4.878  -4.153  -9.715  0.00  0.00     0.060 H 
ATOM     18  H   LIG d   1       3.463  -3.421 -11.863  0.00  0.00     0.060 H 
ENDROOT
BRANCH   9  19
ATOM     19  C   LIG d   1       4.600  -0.424 -11.755  0.00  0.00     0.314 C 
ATOM     20  O   LIG d   1       5.808  -0.444 -11.731  0.00  0.00    -0.250 OA
BRANCH  19  21
ATOM     21  O   LIG d   1       3.953  -0.346 -12.929  0.00  0.00    -0.464 OA
BRANCH  21  22
ATOM     22  C   LIG d   1       4.705  -0.695 -14.121  0.00  0.00     0.095 C 
ATOM     23  H   LIG d   1       5.025   0.215 -14.628  0.00  0.00     0.070 H 
ATOM     24  H   LIG d   1       5.581  -1.280 -13.840  0.00  0.00     0.070 H 
BRANCH  22  25
ATOM     25  C   LIG d   1       3.822  -1.518 -15.059  0.00  0.00    -0.012 C 
ATOM     26  H   LIG d   1       4.359  -2.414 -15.372  0.00  0.00     0.033 H 
BRANCH  25  27
ATOM     27  C   LIG d   1       2.540  -1.922 -14.329  0.00  0.00    -0.060 C 
ATOM     28  H   LIG d   1       2.092  -2.782 -14.828  0.00  0.00     0.023 H 
ATOM     29  H   LIG d   1       2.775  -2.182 -13.298  0.00  0.00     0.023 H 
ATOM     30  H   LIG d   1       1.837  -1.088 -14.342  0.00  0.00     0.023 H 
ENDBRANCH  25  27
BRANCH  25  31
ATOM     31  C   LIG d   1       3.466  -0.682 -16.290  0.00  0.00    -0.060 C 
ATOM     32  H   LIG d   1       2.779  -1.243 -16.924  0.00  0.00     0.023 H 
ATOM     33  H   LIG d   1       2.994   0.247 -15.975  0.00  0.00     0.023 H 
ATOM     34  H   LIG d   1       4.373  -0.457 -16.851  0.00  0.00     0.023 H 
ENDBRANCH  25  31
ENDBRANCH  22  25
ENDBRANCH  21  22
ENDBRANCH  19  21
ENDBRANCH   9  19
BRANCH   1  35
ATOM     35  C   LIG d   1       4.484  -0.415  -5.653  0.00  0.00     0.036 A 
ATOM     36  C   LIG d   1       5.669  -0.357  -4.932  0.00  0.00    -0.040 A 
ATOM     37  C   LIG d   1       5.661   0.093  -3.626  0.00  0.00    -0.057 A 
ATOM     38  H   LIG d   1       6.597  -0.664  -5.392  0.00  0.00     0.064 H 
ATOM     39  C   LIG d   1       4.474   0.487  -3.036  0.00  0.00    -0.050 A 
ATOM     40  H   LIG d   1       6.582   0.139  -3.066  0.00  0.00     0.062 H 
ATOM     41  C   LIG d   1       3.291   0.431  -3.752  0.00  0.00    -0.057 A 
ATOM     42  C   LIG d   1       3.293  -0.014  -5.060  0.00  0.00    -0.040 A 
ATOM     43  H   LIG d   1       2.366   0.738  -3.288  0.00  0.00     0.062 H 
ATOM     44  H   LIG d   1       2.370  -0.054  -5.618  0.00  0.00     0.064 H 
BRANCH  39  45
ATOM     45  C   LIG d   1       4.469   0.978  -1.612  0.00  0.00    -0.040 C 
ATOM     46  H   LIG d   1       4.538   2.066  -1.603  0.00  0.00     0.028 H 
ATOM     47  H   LIG d   1       3.545   0.669  -1.124  0.00  0.00     0.028 H 
ATOM     48  H   LIG d   1       5.320   0.555  -1.079  0.00  0.00     0.028 H 
ENDBRANCH  39  45
ENDBRANCH   1  35
TORSDOF 8
ENDMDL
MODEL 10
REMARK VINA RESULT:      -5.0      7.210     11.063
REMARK  8 active torsions:
REMARK  status: ('A' for Active; 'I' for Inactive)
REMARK    1  A    between atoms: C_1  and  C_2 
REMARK    2  A    between atoms: C_5  and  N_8 
REMARK    3  A    between atoms: C_16  and  C_22 
REMARK    4  A    between atoms: C_22  and  O_24 
REMARK    5  A    between atoms: O_24  and  C_25 
REMARK    6  A    between atoms: C_25  and  C_26 
REMARK    7  A    between atoms: C_26  and  C_27 
REMARK    8  A    between atoms: C_26  and  C_28 
ROOT
ATOM      1  N   LIG d   1      10.116   7.285  -2.449  0.00  0.00    -0.268 N 
ATOM      2  C   LIG d   1       9.876   7.343  -3.911  0.00  0.00     0.053 C 
ATOM      3  C   LIG d   1      10.234   5.972  -4.394  0.00  0.00     0.116 C 
ATOM      4  C   LIG d   1       9.666   5.329  -5.609  0.00  0.00    -0.052 C 
ATOM      5  C   LIG d   1      10.444   4.232  -5.791  0.00  0.00    -0.056 C 
ATOM      6  C   LIG d   1      11.510   4.270  -4.690  0.00  0.00     0.092 C 
ATOM      7  H   LIG d   1      12.425   3.719  -4.905  0.00  0.00     0.065 H 
ATOM      8  O   LIG d   1      11.661   5.723  -4.495  0.00  0.00    -0.359 OA
ATOM      9  C   LIG d   1      10.794   3.892  -3.353  0.00  0.00     0.100 C 
ATOM     10  H   LIG d   1      11.508   3.834  -2.531  0.00  0.00     0.045 H 
ATOM     11  C   LIG d   1       9.833   5.079  -3.164  0.00  0.00     0.086 C 
ATOM     12  H   LIG d   1       8.786   4.777  -3.173  0.00  0.00     0.044 H 
ATOM     13  C   LIG d   1      10.175   5.995  -2.022  0.00  0.00     0.227 C 
ATOM     14  O   LIG d   1      10.456   5.640  -0.898  0.00  0.00    -0.275 OA
ATOM     15  H   LIG d   1      10.519   8.091  -4.374  0.00  0.00     0.050 H 
ATOM     16  H   LIG d   1       8.828   7.559  -4.118  0.00  0.00     0.050 H 
ATOM     17  H   LIG d   1       8.828   5.655  -6.206  0.00  0.00     0.060 H 
ATOM     18  H   LIG d   1      10.345   3.482  -6.562  0.00  0.00     0.060 H 
ENDROOT
BRANCH   9  19
ATOM     19  C   LIG d   1      10.034   2.599  -3.495  0.00  0.00     0.314 C 
ATOM     20  O   LIG d   1      10.614   1.591  -3.824  0.00  0.00    -0.250 OA
BRANCH  19  21
ATOM     21  O   LIG d   1       8.714   2.566  -3.255  0.00  0.00    -0.464 OA
BRANCH  21  22
ATOM     22  C   LIG d   1       7.887   1.859  -4.216  0.00  0.00     0.095 C 
ATOM     23  H   LIG d   1       7.127   2.535  -4.609  0.00  0.00     0.070 H 
ATOM     24  H   LIG d   1       8.509   1.498  -5.035  0.00  0.00     0.070 H 
BRANCH  22  25
ATOM     25  C   LIG d   1       7.207   0.673  -3.530  0.00  0.00    -0.012 C 
ATOM     26  H   LIG d   1       7.802   0.361  -2.670  0.00  0.00     0.033 H 
BRANCH  25  27
ATOM     27  C   LIG d   1       5.812   1.086  -3.060  0.00  0.00    -0.060 C 
ATOM     28  H   LIG d   1       5.784   1.105  -1.971  0.00  0.00     0.023 H 
ATOM     29  H   LIG d   1       5.576   2.078  -3.447  0.00  0.00     0.023 H 
ATOM     30  H   LIG d   1       5.078   0.370  -3.430  0.00  0.00     0.023 H 
ENDBRANCH  25  27
BRANCH  25  31
ATOM     31  C   LIG d   1       7.090  -0.490  -4.516  0.00  0.00    -0.060 C 
ATOM     32  H   LIG d   1       6.059  -0.842  -4.543  0.00  0.00     0.023 H 
ATOM     33  H   LIG d   1       7.386  -0.156  -5.510  0.00  0.00     0.023 H 
ATOM     34  H   LIG d   1       7.742  -1.303  -4.199  0.00  0.00     0.023 H 
ENDBRANCH  25  31
ENDBRANCH  22  25
ENDBRANCH  21  22
ENDBRANCH  19  21
ENDBRANCH   9  19
BRANCH   1  35
ATOM     35  C   LIG d   1      10.263   8.404  -1.622  0.00  0.00     0.036 A 
ATOM     36  C   LIG d   1       9.150   8.980  -1.025  0.00  0.00    -0.040 A 
ATOM     37  C   LIG d   1       9.301  10.085  -0.208  0.00  0.00    -0.057 A 
ATOM     38  H   LIG d   1       8.169   8.566  -1.197  0.00  0.00     0.064 H 
ATOM     39  C   LIG d   1      10.558  10.617   0.013  0.00  0.00    -0.050 A 
ATOM     40  H   LIG d   1       8.436  10.533   0.257  0.00  0.00     0.062 H 
ATOM     41  C   LIG d   1      11.669  10.044  -0.581  0.00  0.00    -0.057 A 
ATOM     42  C   LIG d   1      11.526   8.937  -1.394  0.00  0.00    -0.040 A 
ATOM     43  H   LIG d   1      12.649  10.462  -0.406  0.00  0.00     0.062 H 
ATOM     44  H   LIG d   1      12.394   8.489  -1.854  0.00  0.00     0.064 H 
BRANCH  39  45
ATOM     45  C   LIG d   1      10.718  11.821   0.904  0.00  0.00    -0.040 C 
ATOM     46  H   LIG d   1      10.794  11.498   1.942  0.00  0.00     0.028 H 
ATOM     47  H   LIG d   1      11.622  12.362   0.625  0.00  0.00     0.028 H 
ATOM     48  H   LIG d   1       9.854  12.475   0.789  0.00  0.00     0.028 H 
ENDBRANCH  39  45
ENDBRANCH   1  35
TORSDOF 8
ENDMDL
