MODEL 1
REMARK VINA RESULT:      -5.6      0.000      0.000
REMARK  3 active torsions:
REMARK  status: ('A' for Active; 'I' for Inactive)
REMARK    1  A    between atoms: C_1  and  C_2 
REMARK    2  A    between atoms: C_3  and  C_13 
REMARK    3  A    between atoms: C_13  and  C_15 
ROOT
ATOM      1  C   LIG d   1       4.224  -1.813  -7.051  0.00  0.00     0.028 A 
ATOM      2  C   LIG d   1       3.645  -0.560  -7.149  0.00  0.00     0.083 A 
ATOM      3  C   LIG d   1       3.301   0.162  -5.910  0.00  0.00     0.200 A 
ATOM      4  C   LIG d   1       3.601  -0.511  -4.633  0.00  0.00     0.046 A 
ATOM      5  C   LIG d   1       3.310   0.097  -3.412  0.00  0.00    -0.049 A 
ATOM      6  C   LIG d   1       3.604  -0.560  -2.238  0.00  0.00    -0.061 A 
ATOM      7  C   LIG d   1       4.187  -1.819  -2.266  0.00  0.00    -0.060 A 
ATOM      8  C   LIG d   1       4.481  -2.431  -3.465  0.00  0.00    -0.038 A 
ATOM      9  C   LIG d   1       4.192  -1.785  -4.666  0.00  0.00     0.050 A 
ATOM     10  N   LIG d   1       4.476  -2.391  -5.870  0.00  0.00    -0.357 N 
ATOM     11  O   LIG d   1       2.790   1.267  -5.941  0.00  0.00    -0.286 OA
ATOM     12  H   LIG d   1       2.857   1.077  -3.388  0.00  0.00     0.062 H 
ATOM     13  H   LIG d   1       3.380  -0.092  -1.290  0.00  0.00     0.062 H 
ATOM     14  H   LIG d   1       4.414  -2.323  -1.340  0.00  0.00     0.062 H 
ATOM     15  H   LIG d   1       4.935  -3.410  -3.475  0.00  0.00     0.064 H 
ATOM     16  H   LIG d   1       4.880  -3.273  -5.862  0.00  0.00     0.166 HD
ENDROOT
BRANCH   2  17
ATOM     17  C   LIG d   1       3.379   0.037  -8.457  0.00  0.00     0.165 C 
ATOM     18  O   LIG d   1       4.192   0.787  -8.958  0.00  0.00    -0.292 OA
BRANCH  17  19
ATOM     19  C   LIG d   1       2.096  -0.277  -9.182  0.00  0.00    -0.001 C 
ATOM     20  H   LIG d   1       1.783  -1.293  -8.944  0.00  0.00     0.031 H 
ATOM     21  H   LIG d   1       1.322   0.424  -8.873  0.00  0.00     0.031 H 
ATOM     22  H   LIG d   1       2.257  -0.190 -10.258  0.00  0.00     0.031 H 
ENDBRANCH  17  19
ENDBRANCH   2  17
BRANCH   1  23
ATOM     23  C   LIG d   1       4.577  -2.554  -8.315  0.00  0.00    -0.024 C 
ATOM     24  H   LIG d   1       5.393  -3.247  -8.114  0.00  0.00     0.029 H 
ATOM     25  H   LIG d   1       3.706  -3.110  -8.664  0.00  0.00     0.029 H 
ATOM     26  H   LIG d   1       4.884  -1.842  -9.079  0.00  0.00     0.029 H 
ENDBRANCH   1  23
TORSDOF 3
ENDMDL
MODEL 2
REMARK VINA RESULT:      -5.6      3.208      4.889
REMARK  3 active torsions:
REMARK  status: ('A' for Active; 'I' for Inactive)
REMARK    1  A    between atoms: C_1  and  C_2 
REMARK    2  A    between atoms: C_3  and  C_13 
REMARK    3  A    between atoms: C_13  and  C_15 
ROOT
ATOM      1  C   LIG d   1       3.746  -1.320  -3.758  0.00  0.00     0.028 A 
ATOM      2  C   LIG d   1       4.904  -0.656  -3.394  0.00  0.00     0.083 A 
ATOM      3  C   LIG d   1       6.204  -1.300  -3.653  0.00  0.00     0.200 A 
ATOM      4  C   LIG d   1       6.182  -2.629  -4.292  0.00  0.00     0.046 A 
ATOM      5  C   LIG d   1       7.364  -3.313  -4.575  0.00  0.00    -0.049 A 
ATOM      6  C   LIG d   1       7.306  -4.552  -5.173  0.00  0.00    -0.061 A 
ATOM      7  C   LIG d   1       6.081  -5.119  -5.494  0.00  0.00    -0.060 A 
ATOM      8  C   LIG d   1       4.905  -4.454  -5.221  0.00  0.00    -0.038 A 
ATOM      9  C   LIG d   1       4.940  -3.199  -4.616  0.00  0.00     0.050 A 
ATOM     10  N   LIG d   1       3.770  -2.529  -4.333  0.00  0.00    -0.357 N 
ATOM     11  O   LIG d   1       7.253  -0.758  -3.352  0.00  0.00    -0.286 OA
ATOM     12  H   LIG d   1       8.319  -2.873  -4.327  0.00  0.00     0.062 H 
ATOM     13  H   LIG d   1       8.220  -5.086  -5.394  0.00  0.00     0.062 H 
ATOM     14  H   LIG d   1       6.048  -6.090  -5.963  0.00  0.00     0.062 H 
ATOM     15  H   LIG d   1       3.958  -4.905  -5.476  0.00  0.00     0.064 H 
ATOM     16  H   LIG d   1       2.927  -2.949  -4.564  0.00  0.00     0.166 HD
ENDROOT
BRANCH   2  17
ATOM     17  C   LIG d   1       4.840   0.662  -2.762  0.00  0.00     0.165 C 
ATOM     18  O   LIG d   1       4.913   1.665  -3.443  0.00  0.00    -0.292 OA
BRANCH  17  19
ATOM     19  C   LIG d   1       4.683   0.775  -1.268  0.00  0.00    -0.001 C 
ATOM     20  H   LIG d   1       5.064  -0.128  -0.793  0.00  0.00     0.031 H 
ATOM     21  H   LIG d   1       5.241   1.639  -0.908  0.00  0.00     0.031 H 
ATOM     22  H   LIG d   1       3.627   0.897  -1.022  0.00  0.00     0.031 H 
ENDBRANCH  17  19
ENDBRANCH   2  17
BRANCH   1  23
ATOM     23  C   LIG d   1       2.416  -0.664  -3.494  0.00  0.00    -0.024 C 
ATOM     24  H   LIG d   1       1.629  -1.418  -3.508  0.00  0.00     0.029 H 
ATOM     25  H   LIG d   1       2.437  -0.180  -2.518  0.00  0.00     0.029 H 
ATOM     26  H   LIG d   1       2.219   0.080  -4.265  0.00  0.00     0.029 H 
ENDBRANCH   1  23
TORSDOF 3
ENDMDL
MODEL 3
REMARK VINA RESULT:      -5.4      1.956      2.803
REMARK  3 active torsions:
REMARK  status: ('A' for Active; 'I' for Inactive)
REMARK    1  A    between atoms: C_1  and  C_2 
REMARK    2  A    between atoms: C_3  and  C_13 
REMARK    3  A    between atoms: C_13  and  C_15 
ROOT
ATOM      1  C   LIG d   1       3.425  -0.055  -6.709  0.00  0.00     0.028 A 
ATOM      2  C   LIG d   1       4.079  -1.274  -6.755  0.00  0.00     0.083 A 
ATOM      3  C   LIG d   1       4.586  -1.856  -5.499  0.00  0.00     0.200 A 
ATOM      4  C   LIG d   1       4.359  -1.088  -4.261  0.00  0.00     0.046 A 
ATOM      5  C   LIG d   1       4.805  -1.561  -3.027  0.00  0.00    -0.049 A 
ATOM      6  C   LIG d   1       4.576  -0.818  -1.890  0.00  0.00    -0.061 A 
ATOM      7  C   LIG d   1       3.906   0.394  -1.969  0.00  0.00    -0.060 A 
ATOM      8  C   LIG d   1       3.459   0.874  -3.181  0.00  0.00    -0.038 A 
ATOM      9  C   LIG d   1       3.680   0.139  -4.345  0.00  0.00     0.050 A 
ATOM     10  N   LIG d   1       3.244   0.613  -5.563  0.00  0.00    -0.357 N 
ATOM     11  O   LIG d   1       5.168  -2.926  -5.486  0.00  0.00    -0.286 OA
ATOM     12  H   LIG d   1       5.326  -2.505  -2.964  0.00  0.00     0.062 H 
ATOM     13  H   LIG d   1       4.920  -1.181  -0.932  0.00  0.00     0.062 H 
ATOM     14  H   LIG d   1       3.731   0.968  -1.072  0.00  0.00     0.062 H 
ATOM     15  H   LIG d   1       2.938   1.818  -3.230  0.00  0.00     0.064 H 
ATOM     16  H   LIG d   1       2.781   1.465  -5.590  0.00  0.00     0.166 HD
ENDROOT
BRANCH   2  17
ATOM     17  C   LIG d   1       4.263  -1.972  -8.027  0.00  0.00     0.165 C 
ATOM     18  O   LIG d   1       3.420  -2.753  -8.418  0.00  0.00    -0.292 OA
BRANCH  17  19
ATOM     19  C   LIG d   1       5.499  -1.723  -8.851  0.00  0.00    -0.001 C 
ATOM     20  H   LIG d   1       5.644  -2.548  -9.548  0.00  0.00     0.031 H 
ATOM     21  H   LIG d   1       5.384  -0.793  -9.408  0.00  0.00     0.031 H 
ATOM     22  H   LIG d   1       6.365  -1.647  -8.193  0.00  0.00     0.031 H 
ENDBRANCH  17  19
ENDBRANCH   2  17
BRANCH   1  23
ATOM     23  C   LIG d   1       2.905   0.543  -7.990  0.00  0.00    -0.024 C 
ATOM     24  H   LIG d   1       3.599   1.305  -8.344  0.00  0.00     0.029 H 
ATOM     25  H   LIG d   1       2.810  -0.240  -8.743  0.00  0.00     0.029 H 
ATOM     26  H   LIG d   1       1.930   0.995  -7.811  0.00  0.00     0.029 H 
ENDBRANCH   1  23
TORSDOF 3
ENDMDL
MODEL 4
REMARK VINA RESULT:      -5.3      4.407      5.106
REMARK  3 active torsions:
REMARK  status: ('A' for Active; 'I' for Inactive)
REMARK    1  A    between atoms: C_1  and  C_2 
REMARK    2  A    between atoms: C_3  and  C_13 
REMARK    3  A    between atoms: C_13  and  C_15 
ROOT
ATOM      1  C   LIG d   1       7.954   1.133  -4.626  0.00  0.00     0.028 A 
ATOM      2  C   LIG d   1       8.211  -0.212  -4.826  0.00  0.00     0.083 A 
ATOM      3  C   LIG d   1       7.332  -1.207  -4.186  0.00  0.00     0.200 A 
ATOM      4  C   LIG d   1       6.221  -0.694  -3.364  0.00  0.00     0.046 A 
ATOM      5  C   LIG d   1       5.338  -1.561  -2.721  0.00  0.00    -0.049 A 
ATOM      6  C   LIG d   1       4.311  -1.047  -1.960  0.00  0.00    -0.061 A 
ATOM      7  C   LIG d   1       4.153   0.326  -1.834  0.00  0.00    -0.060 A 
ATOM      8  C   LIG d   1       5.016   1.195  -2.464  0.00  0.00    -0.038 A 
ATOM      9  C   LIG d   1       6.063   0.697  -3.238  0.00  0.00     0.050 A 
ATOM     10  N   LIG d   1       6.936   1.558  -3.867  0.00  0.00    -0.357 N 
ATOM     11  O   LIG d   1       7.515  -2.402  -4.330  0.00  0.00    -0.286 OA
ATOM     12  H   LIG d   1       5.460  -2.630  -2.818  0.00  0.00     0.062 H 
ATOM     13  H   LIG d   1       3.626  -1.716  -1.460  0.00  0.00     0.062 H 
ATOM     14  H   LIG d   1       3.344   0.717  -1.236  0.00  0.00     0.062 H 
ATOM     15  H   LIG d   1       4.882   2.261  -2.359  0.00  0.00     0.064 H 
ATOM     16  H   LIG d   1       6.804   2.512  -3.760  0.00  0.00     0.166 HD
ENDROOT
BRANCH   2  17
ATOM     17  C   LIG d   1       9.337  -0.639  -5.657  0.00  0.00     0.165 C 
ATOM     18  O   LIG d   1      10.431  -0.802  -5.159  0.00  0.00    -0.292 OA
BRANCH  17  19
ATOM     19  C   LIG d   1       9.137  -0.876  -7.132  0.00  0.00    -0.001 C 
ATOM     20  H   LIG d   1       9.867  -1.604  -7.485  0.00  0.00     0.031 H 
ATOM     21  H   LIG d   1       8.131  -1.254  -7.306  0.00  0.00     0.031 H 
ATOM     22  H   LIG d   1       9.272   0.062  -7.671  0.00  0.00     0.031 H 
ENDBRANCH  17  19
ENDBRANCH   2  17
BRANCH   1  23
ATOM     23  C   LIG d   1       8.851   2.152  -5.279  0.00  0.00    -0.024 C 
ATOM     24  H   LIG d   1       8.399   2.491  -6.211  0.00  0.00     0.029 H 
ATOM     25  H   LIG d   1       8.981   3.002  -4.609  0.00  0.00     0.029 H 
ATOM     26  H   LIG d   1       9.820   1.701  -5.488  0.00  0.00     0.029 H 
ENDBRANCH   1  23
TORSDOF 3
ENDMDL
MODEL 5
REMARK VINA RESULT:      -5.3      3.769      4.509
REMARK  3 active torsions:
REMARK  status: ('A' for Active; 'I' for Inactive)
REMARK    1  A    between atoms: C_1  and  C_2 
REMARK    2  A    between atoms: C_3  and  C_13 
REMARK    3  A    between atoms: C_13  and  C_15 
ROOT
ATOM      1  C   LIG d   1       7.493  -1.688  -4.445  0.00  0.00     0.028 A 
ATOM      2  C   LIG d   1       6.627  -2.756  -4.607  0.00  0.00     0.083 A 
ATOM      3  C   LIG d   1       5.252  -2.640  -4.089  0.00  0.00     0.200 A 
ATOM      4  C   LIG d   1       4.887  -1.377  -3.423  0.00  0.00     0.046 A 
ATOM      5  C   LIG d   1       3.609  -1.179  -2.902  0.00  0.00    -0.049 A 
ATOM      6  C   LIG d   1       3.302   0.015  -2.286  0.00  0.00    -0.061 A 
ATOM      7  C   LIG d   1       4.257   1.016  -2.184  0.00  0.00    -0.060 A 
ATOM      8  C   LIG d   1       5.524   0.834  -2.694  0.00  0.00    -0.038 A 
ATOM      9  C   LIG d   1       5.857  -0.365  -3.321  0.00  0.00     0.050 A 
ATOM     10  N   LIG d   1       7.123  -0.559  -3.829  0.00  0.00    -0.357 N 
ATOM     11  O   LIG d   1       4.451  -3.551  -4.206  0.00  0.00    -0.286 OA
ATOM     12  H   LIG d   1       2.864  -1.956  -2.981  0.00  0.00     0.062 H 
ATOM     13  H   LIG d   1       2.312   0.172  -1.882  0.00  0.00     0.062 H 
ATOM     14  H   LIG d   1       4.005   1.947  -1.700  0.00  0.00     0.062 H 
ATOM     15  H   LIG d   1       6.259   1.621  -2.609  0.00  0.00     0.064 H 
ATOM     16  H   LIG d   1       7.773   0.156  -3.741  0.00  0.00     0.166 HD
ENDROOT
BRANCH   2  17
ATOM     17  C   LIG d   1       7.069  -3.977  -5.280  0.00  0.00     0.165 C 
ATOM     18  O   LIG d   1       7.663  -4.832  -4.657  0.00  0.00    -0.292 OA
BRANCH  17  19
ATOM     19  C   LIG d   1       6.788  -4.173  -6.747  0.00  0.00    -0.001 C 
ATOM     20  H   LIG d   1       6.463  -3.229  -7.184  0.00  0.00     0.031 H 
ATOM     21  H   LIG d   1       7.693  -4.513  -7.249  0.00  0.00     0.031 H 
ATOM     22  H   LIG d   1       6.002  -4.919  -6.870  0.00  0.00     0.031 H 
ENDBRANCH  17  19
ENDBRANCH   2  17
BRANCH   1  23
ATOM     23  C   LIG d   1       8.899  -1.803  -4.973  0.00  0.00    -0.024 C 
ATOM     24  H   LIG d   1       8.929  -1.460  -6.006  0.00  0.00     0.029 H 
ATOM     25  H   LIG d   1       9.566  -1.189  -4.367  0.00  0.00     0.029 H 
ATOM     26  H   LIG d   1       9.221  -2.843  -4.927  0.00  0.00     0.029 H 
ENDBRANCH   1  23
TORSDOF 3
ENDMDL
MODEL 6
REMARK VINA RESULT:      -5.3      3.932      5.339
REMARK  3 active torsions:
REMARK  status: ('A' for Active; 'I' for Inactive)
REMARK    1  A    between atoms: C_1  and  C_2 
REMARK    2  A    between atoms: C_3  and  C_13 
REMARK    3  A    between atoms: C_13  and  C_15 
ROOT
ATOM      1  C   LIG d   1       5.327  -1.322  -2.923  0.00  0.00     0.028 A 
ATOM      2  C   LIG d   1       5.559   0.042  -2.961  0.00  0.00     0.083 A 
ATOM      3  C   LIG d   1       6.733   0.544  -3.698  0.00  0.00     0.200 A 
ATOM      4  C   LIG d   1       7.594  -0.457  -4.354  0.00  0.00     0.046 A 
ATOM      5  C   LIG d   1       8.726  -0.075  -5.073  0.00  0.00    -0.049 A 
ATOM      6  C   LIG d   1       9.508  -1.036  -5.673  0.00  0.00    -0.061 A 
ATOM      7  C   LIG d   1       9.173  -2.379  -5.566  0.00  0.00    -0.060 A 
ATOM      8  C   LIG d   1       8.057  -2.771  -4.860  0.00  0.00    -0.038 A 
ATOM      9  C   LIG d   1       7.252  -1.816  -4.243  0.00  0.00     0.050 A 
ATOM     10  N   LIG d   1       6.137  -2.198  -3.529  0.00  0.00    -0.357 N 
ATOM     11  O   LIG d   1       6.981   1.734  -3.761  0.00  0.00    -0.286 OA
ATOM     12  H   LIG d   1       8.988   0.970  -5.158  0.00  0.00     0.062 H 
ATOM     13  H   LIG d   1      10.386  -0.744  -6.231  0.00  0.00     0.062 H 
ATOM     14  H   LIG d   1       9.793  -3.123  -6.041  0.00  0.00     0.062 H 
ATOM     15  H   LIG d   1       7.807  -3.819  -4.784  0.00  0.00     0.064 H 
ATOM     16  H   LIG d   1       5.928  -3.143  -3.467  0.00  0.00     0.166 HD
ENDROOT
BRANCH   2  17
ATOM     17  C   LIG d   1       4.654   0.970  -2.281  0.00  0.00     0.165 C 
ATOM     18  O   LIG d   1       4.844   1.259  -1.118  0.00  0.00    -0.292 OA
BRANCH  17  19
ATOM     19  C   LIG d   1       3.488   1.566  -3.025  0.00  0.00    -0.001 C 
ATOM     20  H   LIG d   1       3.048   2.367  -2.431  0.00  0.00     0.031 H 
ATOM     21  H   LIG d   1       3.831   1.967  -3.978  0.00  0.00     0.031 H 
ATOM     22  H   LIG d   1       2.739   0.794  -3.204  0.00  0.00     0.031 H 
ENDBRANCH  17  19
ENDBRANCH   2  17
BRANCH   1  23
ATOM     23  C   LIG d   1       4.128  -1.837  -2.170  0.00  0.00    -0.024 C 
ATOM     24  H   LIG d   1       4.226  -2.912  -2.022  0.00  0.00     0.029 H 
ATOM     25  H   LIG d   1       4.067  -1.341  -1.202  0.00  0.00     0.029 H 
ATOM     26  H   LIG d   1       3.224  -1.631  -2.742  0.00  0.00     0.029 H 
ENDBRANCH   1  23
TORSDOF 3
ENDMDL
MODEL 7
REMARK VINA RESULT:      -5.2      2.259      3.120
REMARK  3 active torsions:
REMARK  status: ('A' for Active; 'I' for Inactive)
REMARK    1  A    between atoms: C_1  and  C_2 
REMARK    2  A    between atoms: C_3  and  C_13 
REMARK    3  A    between atoms: C_13  and  C_15 
ROOT
ATOM      1  C   LIG d   1       4.660  -0.862  -6.645  0.00  0.00     0.028 A 
ATOM      2  C   LIG d   1       4.639  -2.226  -6.410  0.00  0.00     0.083 A 
ATOM      3  C   LIG d   1       4.558  -2.706  -5.018  0.00  0.00     0.200 A 
ATOM      4  C   LIG d   1       4.506  -1.685  -3.955  0.00  0.00     0.046 A 
ATOM      5  C   LIG d   1       4.429  -2.046  -2.611  0.00  0.00    -0.049 A 
ATOM      6  C   LIG d   1       4.381  -1.066  -1.644  0.00  0.00    -0.061 A 
ATOM      7  C   LIG d   1       4.409   0.273  -2.003  0.00  0.00    -0.060 A 
ATOM      8  C   LIG d   1       4.484   0.645  -3.328  0.00  0.00    -0.038 A 
ATOM      9  C   LIG d   1       4.534  -0.329  -4.323  0.00  0.00     0.050 A 
ATOM     10  N   LIG d   1       4.616   0.032  -5.650  0.00  0.00    -0.357 N 
ATOM     11  O   LIG d   1       4.536  -3.895  -4.757  0.00  0.00    -0.286 OA
ATOM     12  H   LIG d   1       4.406  -3.089  -2.329  0.00  0.00     0.062 H 
ATOM     13  H   LIG d   1       4.322  -1.343  -0.601  0.00  0.00     0.062 H 
ATOM     14  H   LIG d   1       4.371   1.033  -1.237  0.00  0.00     0.062 H 
ATOM     15  H   LIG d   1       4.505   1.691  -3.595  0.00  0.00     0.064 H 
ATOM     16  H   LIG d   1       4.637   0.976  -5.873  0.00  0.00     0.166 HD
ENDROOT
BRANCH   2  17
ATOM     17  C   LIG d   1       4.695  -3.174  -7.522  0.00  0.00     0.165 C 
ATOM     18  O   LIG d   1       3.671  -3.531  -8.066  0.00  0.00    -0.292 OA
BRANCH  17  19
ATOM     19  C   LIG d   1       6.023  -3.708  -7.991  0.00  0.00    -0.001 C 
ATOM     20  H   LIG d   1       6.147  -3.494  -9.052  0.00  0.00     0.031 H 
ATOM     21  H   LIG d   1       6.826  -3.232  -7.428  0.00  0.00     0.031 H 
ATOM     22  H   LIG d   1       6.058  -4.786  -7.832  0.00  0.00     0.031 H 
ENDBRANCH  17  19
ENDBRANCH   2  17
BRANCH   1  23
ATOM     23  C   LIG d   1       4.743  -0.368  -8.066  0.00  0.00    -0.024 C 
ATOM     24  H   LIG d   1       4.051  -0.934  -8.688  0.00  0.00     0.029 H 
ATOM     25  H   LIG d   1       4.479   0.689  -8.098  0.00  0.00     0.029 H 
ATOM     26  H   LIG d   1       5.758  -0.502  -8.438  0.00  0.00     0.029 H 
ENDBRANCH   1  23
TORSDOF 3
ENDMDL
MODEL 8
REMARK VINA RESULT:      -5.2      1.423      4.686
REMARK  3 active torsions:
REMARK  status: ('A' for Active; 'I' for Inactive)
REMARK    1  A    between atoms: C_1  and  C_2 
REMARK    2  A    between atoms: C_3  and  C_13 
REMARK    3  A    between atoms: C_13  and  C_15 
ROOT
ATOM      1  C   LIG d   1       4.219  -1.710  -4.985  0.00  0.00     0.028 A 
ATOM      2  C   LIG d   1       3.583  -0.577  -4.506  0.00  0.00     0.083 A 
ATOM      3  C   LIG d   1       3.069   0.411  -5.472  0.00  0.00     0.200 A 
ATOM      4  C   LIG d   1       3.271   0.122  -6.904  0.00  0.00     0.046 A 
ATOM      5  C   LIG d   1       2.818   1.000  -7.888  0.00  0.00    -0.049 A 
ATOM      6  C   LIG d   1       3.024   0.698  -9.216  0.00  0.00    -0.061 A 
ATOM      7  C   LIG d   1       3.677  -0.473  -9.575  0.00  0.00    -0.060 A 
ATOM      8  C   LIG d   1       4.129  -1.350  -8.613  0.00  0.00    -0.038 A 
ATOM      9  C   LIG d   1       3.932  -1.065  -7.264  0.00  0.00     0.050 A 
ATOM     10  N   LIG d   1       4.386  -1.932  -6.294  0.00  0.00    -0.357 N 
ATOM     11  O   LIG d   1       2.502   1.423  -5.102  0.00  0.00    -0.286 OA
ATOM     12  H   LIG d   1       2.310   1.911  -7.610  0.00  0.00     0.062 H 
ATOM     13  H   LIG d   1       2.675   1.376  -9.981  0.00  0.00     0.062 H 
ATOM     14  H   LIG d   1       3.831  -0.699 -10.619  0.00  0.00     0.062 H 
ATOM     15  H   LIG d   1       4.635  -2.258  -8.906  0.00  0.00     0.064 H 
ATOM     16  H   LIG d   1       4.842  -2.742  -6.572  0.00  0.00     0.166 HD
ENDROOT
BRANCH   2  17
ATOM     17  C   LIG d   1       3.424  -0.365  -3.068  0.00  0.00     0.165 C 
ATOM     18  O   LIG d   1       2.475  -0.848  -2.485  0.00  0.00    -0.292 OA
BRANCH  17  19
ATOM     19  C   LIG d   1       4.437   0.453  -2.310  0.00  0.00    -0.001 C 
ATOM     20  H   LIG d   1       4.420   1.480  -2.674  0.00  0.00     0.031 H 
ATOM     21  H   LIG d   1       4.194   0.440  -1.248  0.00  0.00     0.031 H 
ATOM     22  H   LIG d   1       5.431   0.031  -2.461  0.00  0.00     0.031 H 
ENDBRANCH  17  19
ENDBRANCH   2  17
BRANCH   1  23
ATOM     23  C   LIG d   1       4.746  -2.721  -4.000  0.00  0.00    -0.024 C 
ATOM     24  H   LIG d   1       3.986  -3.481  -3.817  0.00  0.00     0.029 H 
ATOM     25  H   LIG d   1       5.639  -3.193  -4.409  0.00  0.00     0.029 H 
ATOM     26  H   LIG d   1       4.993  -2.222  -3.064  0.00  0.00     0.029 H 
ENDBRANCH   1  23
TORSDOF 3
ENDMDL
MODEL 9
REMARK VINA RESULT:      -5.1      1.952      2.554
REMARK  3 active torsions:
REMARK  status: ('A' for Active; 'I' for Inactive)
REMARK    1  A    between atoms: C_1  and  C_2 
REMARK    2  A    between atoms: C_3  and  C_13 
REMARK    3  A    between atoms: C_13  and  C_15 
ROOT
ATOM      1  C   LIG d   1       3.507  -0.076  -6.985  0.00  0.00     0.028 A 
ATOM      2  C   LIG d   1       4.876  -0.196  -7.151  0.00  0.00     0.083 A 
ATOM      3  C   LIG d   1       5.698  -0.601  -5.996  0.00  0.00     0.200 A 
ATOM      4  C   LIG d   1       4.996  -0.855  -4.725  0.00  0.00     0.046 A 
ATOM      5  C   LIG d   1       5.692  -1.243  -3.581  0.00  0.00    -0.049 A 
ATOM      6  C   LIG d   1       5.004  -1.472  -2.410  0.00  0.00    -0.061 A 
ATOM      7  C   LIG d   1       3.626  -1.319  -2.366  0.00  0.00    -0.060 A 
ATOM      8  C   LIG d   1       2.924  -0.938  -3.489  0.00  0.00    -0.038 A 
ATOM      9  C   LIG d   1       3.599  -0.700  -4.685  0.00  0.00     0.050 A 
ATOM     10  N   LIG d   1       2.909  -0.311  -5.812  0.00  0.00    -0.357 N 
ATOM     11  O   LIG d   1       6.907  -0.721  -6.089  0.00  0.00    -0.286 OA
ATOM     12  H   LIG d   1       6.765  -1.362  -3.613  0.00  0.00     0.062 H 
ATOM     13  H   LIG d   1       5.540  -1.772  -1.521  0.00  0.00     0.062 H 
ATOM     14  H   LIG d   1       3.097  -1.502  -1.444  0.00  0.00     0.062 H 
ATOM     15  H   LIG d   1       1.852  -0.823  -3.443  0.00  0.00     0.064 H 
ATOM     16  H   LIG d   1       1.946  -0.209  -5.753  0.00  0.00     0.166 HD
ENDROOT
BRANCH   2  17
ATOM     17  C   LIG d   1       5.496   0.076  -8.448  0.00  0.00     0.165 C 
ATOM     18  O   LIG d   1       5.626  -0.820  -9.257  0.00  0.00    -0.292 OA
BRANCH  17  19
ATOM     19  C   LIG d   1       5.974   1.466  -8.779  0.00  0.00    -0.001 C 
ATOM     20  H   LIG d   1       6.415   1.919  -7.892  0.00  0.00     0.031 H 
ATOM     21  H   LIG d   1       6.720   1.415  -9.571  0.00  0.00     0.031 H 
ATOM     22  H   LIG d   1       5.129   2.070  -9.112  0.00  0.00     0.031 H 
ENDBRANCH  17  19
ENDBRANCH   2  17
BRANCH   1  23
ATOM     23  C   LIG d   1       2.664   0.338  -8.163  0.00  0.00    -0.024 C 
ATOM     24  H   LIG d   1       2.577   1.424  -8.184  0.00  0.00     0.029 H 
ATOM     25  H   LIG d   1       3.133  -0.006  -9.085  0.00  0.00     0.029 H 
ATOM     26  H   LIG d   1       1.672  -0.103  -8.073  0.00  0.00     0.029 H 
ENDBRANCH   1  23
TORSDOF 3
ENDMDL
MODEL 10
REMARK VINA RESULT:      -5.1      2.159      5.265
REMARK  3 active torsions:
REMARK  status: ('A' for Active; 'I' for Inactive)
REMARK    1  A    between atoms: C_1  and  C_2 
REMARK    2  A    between atoms: C_3  and  C_13 
REMARK    3  A    between atoms: C_13  and  C_15 
ROOT
ATOM      1  C   LIG d   1       3.512  -0.051  -4.620  0.00  0.00     0.028 A 
ATOM      2  C   LIG d   1       4.218  -1.223  -4.826  0.00  0.00     0.083 A 
ATOM      3  C   LIG d   1       4.465  -1.670  -6.209  0.00  0.00     0.200 A 
ATOM      4  C   LIG d   1       3.934  -0.826  -7.295  0.00  0.00     0.046 A 
ATOM      5  C   LIG d   1       4.120  -1.171  -8.633  0.00  0.00    -0.049 A 
ATOM      6  C   LIG d   1       3.610  -0.358  -9.622  0.00  0.00    -0.061 A 
ATOM      7  C   LIG d   1       2.917   0.797  -9.292  0.00  0.00    -0.060 A 
ATOM      8  C   LIG d   1       2.727   1.151  -7.974  0.00  0.00    -0.038 A 
ATOM      9  C   LIG d   1       3.232   0.344  -6.957  0.00  0.00     0.050 A 
ATOM     10  N   LIG d   1       3.042   0.685  -5.635  0.00  0.00    -0.357 N 
ATOM     11  O   LIG d   1       5.081  -2.694  -6.444  0.00  0.00    -0.286 OA
ATOM     12  H   LIG d   1       4.659  -2.069  -8.893  0.00  0.00     0.062 H 
ATOM     13  H   LIG d   1       3.751  -0.622 -10.661  0.00  0.00     0.062 H 
ATOM     14  H   LIG d   1       2.523   1.426 -10.075  0.00  0.00     0.062 H 
ATOM     15  H   LIG d   1       2.186   2.053  -7.729  0.00  0.00     0.064 H 
ATOM     16  H   LIG d   1       2.551   1.496  -5.432  0.00  0.00     0.166 HD
ENDROOT
BRANCH   2  17
ATOM     17  C   LIG d   1       4.711  -2.005  -3.692  0.00  0.00     0.165 C 
ATOM     18  O   LIG d   1       3.999  -2.844  -3.179  0.00  0.00    -0.292 OA
BRANCH  17  19
ATOM     19  C   LIG d   1       6.100  -1.767  -3.160  0.00  0.00    -0.001 C 
ATOM     20  H   LIG d   1       6.725  -2.634  -3.376  0.00  0.00     0.031 H 
ATOM     21  H   LIG d   1       6.526  -0.885  -3.636  0.00  0.00     0.031 H 
ATOM     22  H   LIG d   1       6.055  -1.613  -2.082  0.00  0.00     0.031 H 
ENDBRANCH  17  19
ENDBRANCH   2  17
BRANCH   1  23
ATOM     23  C   LIG d   1       3.257   0.409  -3.208  0.00  0.00    -0.024 C 
ATOM     24  H   LIG d   1       3.089   1.485  -3.201  0.00  0.00     0.029 H 
ATOM     25  H   LIG d   1       2.377  -0.099  -2.815  0.00  0.00     0.029 H 
ATOM     26  H   LIG d   1       4.122   0.172  -2.588  0.00  0.00     0.029 H 
ENDBRANCH   1  23
TORSDOF 3
ENDMDL
