MODEL 1
REMARK VINA RESULT:      -6.8      0.000      0.000
REMARK  6 active torsions:
REMARK  status: ('A' for Active; 'I' for Inactive)
REMARK    1  A    between atoms: C_1  and  C_2 
REMARK    2  A    between atoms: C_3  and  N_21 
REMARK    3  A    between atoms: C_5  and  C_11 
REMARK    4  A    between atoms: C_7  and  N_8 
REMARK       I    between atoms: C_11  and  N_13 
REMARK    5  A    between atoms: N_13  and  N_14 
REMARK    6  A    between atoms: N_14  and  C_15 
ROOT
ATOM      1  C   LIG d   1       2.961  -3.004 -10.308  0.00  0.00     0.103 A 
ATOM      2  C   LIG d   1       3.497  -3.410  -9.099  0.00  0.00     0.283 A 
ATOM      3  C   LIG d   1       3.667  -2.499  -8.076  0.00  0.00     0.028 A 
ATOM      4  C   LIG d   1       3.298  -1.167  -8.265  0.00  0.00     0.051 A 
ATOM      5  C   LIG d   1       2.758  -0.764  -9.486  0.00  0.00     0.028 A 
ATOM      6  C   LIG d   1       2.593  -1.685 -10.501  0.00  0.00     0.283 A 
ATOM      7  H   LIG d   1       4.085  -2.818  -7.133  0.00  0.00     0.069 H 
ATOM      8  H   LIG d   1       2.469   0.266  -9.638  0.00  0.00     0.069 H 
ENDROOT
BRANCH   4   9
ATOM      9  C   LIG d   1       3.472  -0.187  -7.170  0.00  0.00     0.261 C 
ATOM     10  O   LIG d   1       4.411   0.583  -7.187  0.00  0.00    -0.269 OA
ATOM     11  N   LIG d   1       2.586  -0.148  -6.155  0.00  0.00    -0.233 N 
ATOM     12  H   LIG d   1       1.835  -0.763  -6.141  0.00  0.00     0.173 HD
BRANCH  11  13
ATOM     13  N   LIG d   1       2.750   0.780  -5.118  0.00  0.00    -0.264 N 
ATOM     14  H   LIG d   1       2.466   1.699  -5.240  0.00  0.00     0.170 HD
BRANCH  13  15
ATOM     15  C   LIG d   1       3.324   0.381  -3.908  0.00  0.00     0.044 A 
ATOM     16  C   LIG d   1       3.859   1.329  -3.046  0.00  0.00    -0.039 A 
ATOM     17  C   LIG d   1       4.425   0.932  -1.850  0.00  0.00    -0.060 A 
ATOM     18  H   LIG d   1       3.833   2.376  -3.309  0.00  0.00     0.064 H 
ATOM     19  C   LIG d   1       4.459  -0.409  -1.512  0.00  0.00    -0.062 A 
ATOM     20  H   LIG d   1       4.842   1.668  -1.180  0.00  0.00     0.062 H 
ATOM     21  C   LIG d   1       3.926  -1.356  -2.369  0.00  0.00    -0.060 A 
ATOM     22  H   LIG d   1       4.902  -0.717  -0.577  0.00  0.00     0.062 H 
ATOM     23  C   LIG d   1       3.354  -0.964  -3.563  0.00  0.00    -0.039 A 
ATOM     24  H   LIG d   1       3.955  -2.401  -2.100  0.00  0.00     0.062 H 
ATOM     25  H   LIG d   1       2.935  -1.703  -4.229  0.00  0.00     0.064 H 
ENDBRANCH  13  15
ENDBRANCH  11  13
ENDBRANCH   4   9
BRANCH   2  26
ATOM     26  N   LIG d   1       3.888  -4.824  -8.902  0.00  0.00     0.080 N 
ATOM     27  O   LIG d   1       3.076  -5.627  -8.479  0.00  0.00     0.042 OA
ATOM     28  O   LIG d   1       5.023  -5.184  -9.163  0.00  0.00    -0.576 OA
ENDBRANCH   2  26
BRANCH   6  29
ATOM     29  N   LIG d   1       2.020  -1.260 -11.798  0.00  0.00     0.080 N 
ATOM     30  O   LIG d   1       0.811  -1.209 -11.942  0.00  0.00     0.042 OA
ATOM     31  O   LIG d   1       2.756  -0.961 -12.720  0.00  0.00    -0.576 OA
ENDBRANCH   6  29
BRANCH   1  32
ATOM     32  C   LIG d   1       2.778  -4.004 -11.422  0.00  0.00    -0.027 C 
ATOM     33  H   LIG d   1       2.988  -3.524 -12.378  0.00  0.00     0.028 H 
ATOM     34  H   LIG d   1       3.462  -4.839 -11.276  0.00  0.00     0.028 H 
ATOM     35  H   LIG d   1       1.751  -4.368 -11.416  0.00  0.00     0.028 H 
ENDBRANCH   1  32
TORSDOF 6
ENDMDL
MODEL 2
REMARK VINA RESULT:      -6.8      0.029      3.194
REMARK  6 active torsions:
REMARK  status: ('A' for Active; 'I' for Inactive)
REMARK    1  A    between atoms: C_1  and  C_2 
REMARK    2  A    between atoms: C_3  and  N_21 
REMARK    3  A    between atoms: C_5  and  C_11 
REMARK    4  A    between atoms: C_7  and  N_8 
REMARK       I    between atoms: C_11  and  N_13 
REMARK    5  A    between atoms: N_13  and  N_14 
REMARK    6  A    between atoms: N_14  and  C_15 
ROOT
ATOM      1  C   LIG d   1       2.941  -3.001 -10.321  0.00  0.00     0.103 A 
ATOM      2  C   LIG d   1       2.574  -1.680 -10.511  0.00  0.00     0.283 A 
ATOM      3  C   LIG d   1       2.737  -0.763  -9.492  0.00  0.00     0.028 A 
ATOM      4  C   LIG d   1       3.273  -1.171  -8.270  0.00  0.00     0.051 A 
ATOM      5  C   LIG d   1       3.640  -2.504  -8.085  0.00  0.00     0.028 A 
ATOM      6  C   LIG d   1       3.472  -3.411  -9.112  0.00  0.00     0.283 A 
ATOM      7  H   LIG d   1       2.452   0.268  -9.642  0.00  0.00     0.069 H 
ATOM      8  H   LIG d   1       4.056  -2.826  -7.142  0.00  0.00     0.069 H 
ENDROOT
BRANCH   4   9
ATOM      9  C   LIG d   1       3.456  -0.191  -7.177  0.00  0.00     0.261 C 
ATOM     10  O   LIG d   1       4.393   0.582  -7.205  0.00  0.00    -0.269 OA
ATOM     11  N   LIG d   1       2.583  -0.156  -6.150  0.00  0.00    -0.233 N 
ATOM     12  H   LIG d   1       1.836  -0.774  -6.128  0.00  0.00     0.173 HD
BRANCH  11  13
ATOM     13  N   LIG d   1       2.758   0.771  -5.115  0.00  0.00    -0.264 N 
ATOM     14  H   LIG d   1       2.482   1.693  -5.238  0.00  0.00     0.170 HD
BRANCH  13  15
ATOM     15  C   LIG d   1       3.328   0.368  -3.905  0.00  0.00     0.044 A 
ATOM     16  C   LIG d   1       3.872   1.312  -3.044  0.00  0.00    -0.039 A 
ATOM     17  C   LIG d   1       4.435   0.911  -1.848  0.00  0.00    -0.060 A 
ATOM     18  H   LIG d   1       3.856   2.359  -3.308  0.00  0.00     0.064 H 
ATOM     19  C   LIG d   1       4.457  -0.430  -1.509  0.00  0.00    -0.062 A 
ATOM     20  H   LIG d   1       4.859   1.644  -1.178  0.00  0.00     0.062 H 
ATOM     21  C   LIG d   1       3.915  -1.372  -2.364  0.00  0.00    -0.060 A 
ATOM     22  H   LIG d   1       4.897  -0.741  -0.573  0.00  0.00     0.062 H 
ATOM     23  C   LIG d   1       3.346  -0.976  -3.558  0.00  0.00    -0.039 A 
ATOM     24  H   LIG d   1       3.933  -2.418  -2.094  0.00  0.00     0.062 H 
ATOM     25  H   LIG d   1       2.919  -1.712  -4.223  0.00  0.00     0.064 H 
ENDBRANCH  13  15
ENDBRANCH  11  13
ENDBRANCH   4   9
BRANCH   2  26
ATOM     26  N   LIG d   1       2.006  -1.250 -11.808  0.00  0.00     0.080 N 
ATOM     27  O   LIG d   1       2.747  -0.960 -12.731  0.00  0.00     0.042 OA
ATOM     28  O   LIG d   1       0.799  -1.188 -11.953  0.00  0.00    -0.576 OA
ENDBRANCH   2  26
BRANCH   6  29
ATOM     29  N   LIG d   1       3.862  -4.826  -8.918  0.00  0.00     0.080 N 
ATOM     30  O   LIG d   1       4.978  -5.199  -9.235  0.00  0.00     0.042 OA
ATOM     31  O   LIG d   1       3.068  -5.617  -8.442  0.00  0.00    -0.576 OA
ENDBRANCH   6  29
BRANCH   1  32
ATOM     32  C   LIG d   1       2.760  -3.998 -11.437  0.00  0.00    -0.027 C 
ATOM     33  H   LIG d   1       2.171  -4.842 -11.077  0.00  0.00     0.028 H 
ATOM     34  H   LIG d   1       2.242  -3.522 -12.269  0.00  0.00     0.028 H 
ATOM     35  H   LIG d   1       3.736  -4.351 -11.769  0.00  0.00     0.028 H 
ENDBRANCH   1  32
TORSDOF 6
ENDMDL
MODEL 3
REMARK VINA RESULT:      -6.7      4.486      6.235
REMARK  6 active torsions:
REMARK  status: ('A' for Active; 'I' for Inactive)
REMARK    1  A    between atoms: C_1  and  C_2 
REMARK    2  A    between atoms: C_3  and  N_21 
REMARK    3  A    between atoms: C_5  and  C_11 
REMARK    4  A    between atoms: C_7  and  N_8 
REMARK       I    between atoms: C_11  and  N_13 
REMARK    5  A    between atoms: N_13  and  N_14 
REMARK    6  A    between atoms: N_14  and  C_15 
ROOT
ATOM      1  C   LIG d   1       6.703  -7.491  -5.373  0.00  0.00     0.103 A 
ATOM      2  C   LIG d   1       5.327  -7.458  -5.516  0.00  0.00     0.283 A 
ATOM      3  C   LIG d   1       4.669  -6.249  -5.610  0.00  0.00     0.028 A 
ATOM      4  C   LIG d   1       5.394  -5.058  -5.562  0.00  0.00     0.051 A 
ATOM      5  C   LIG d   1       6.782  -5.098  -5.419  0.00  0.00     0.028 A 
ATOM      6  C   LIG d   1       7.428  -6.313  -5.325  0.00  0.00     0.283 A 
ATOM      7  H   LIG d   1       3.595  -6.226  -5.722  0.00  0.00     0.069 H 
ATOM      8  H   LIG d   1       7.349  -4.179  -5.382  0.00  0.00     0.069 H 
ENDROOT
BRANCH   4   9
ATOM      9  C   LIG d   1       4.696  -3.759  -5.670  0.00  0.00     0.261 C 
ATOM     10  O   LIG d   1       4.542  -3.240  -6.758  0.00  0.00    -0.269 OA
ATOM     11  N   LIG d   1       4.228  -3.151  -4.561  0.00  0.00    -0.233 N 
ATOM     12  H   LIG d   1       4.351  -3.566  -3.693  0.00  0.00     0.173 HD
BRANCH  11  13
ATOM     13  N   LIG d   1       3.566  -1.921  -4.664  0.00  0.00    -0.264 N 
ATOM     14  H   LIG d   1       2.954  -1.758  -5.399  0.00  0.00     0.170 HD
BRANCH  13  15
ATOM     15  C   LIG d   1       3.788  -0.927  -3.707  0.00  0.00     0.044 A 
ATOM     16  C   LIG d   1       3.412   0.385  -3.966  0.00  0.00    -0.039 A 
ATOM     17  C   LIG d   1       3.631   1.365  -3.018  0.00  0.00    -0.060 A 
ATOM     18  H   LIG d   1       2.948   0.638  -4.908  0.00  0.00     0.064 H 
ATOM     19  C   LIG d   1       4.225   1.041  -1.812  0.00  0.00    -0.062 A 
ATOM     20  H   LIG d   1       3.340   2.385  -3.220  0.00  0.00     0.062 H 
ATOM     21  C   LIG d   1       4.600  -0.265  -1.551  0.00  0.00    -0.060 A 
ATOM     22  H   LIG d   1       4.396   1.809  -1.073  0.00  0.00     0.062 H 
ATOM     23  C   LIG d   1       4.378  -1.250  -2.492  0.00  0.00    -0.039 A 
ATOM     24  H   LIG d   1       5.063  -0.513  -0.608  0.00  0.00     0.062 H 
ATOM     25  H   LIG d   1       4.668  -2.270  -2.286  0.00  0.00     0.064 H 
ENDBRANCH  13  15
ENDBRANCH  11  13
ENDBRANCH   4   9
BRANCH   2  26
ATOM     26  N   LIG d   1       4.560  -8.723  -5.566  0.00  0.00     0.080 N 
ATOM     27  O   LIG d   1       4.364  -9.275  -6.635  0.00  0.00     0.042 OA
ATOM     28  O   LIG d   1       4.124  -9.212  -4.539  0.00  0.00    -0.576 OA
ENDBRANCH   2  26
BRANCH   6  29
ATOM     29  N   LIG d   1       8.899  -6.358  -5.173  0.00  0.00     0.080 N 
ATOM     30  O   LIG d   1       9.398  -6.342  -4.061  0.00  0.00     0.042 OA
ATOM     31  O   LIG d   1       9.612  -6.410  -6.159  0.00  0.00    -0.576 OA
ENDBRANCH   6  29
BRANCH   1  32
ATOM     32  C   LIG d   1       7.416  -8.815  -5.270  0.00  0.00    -0.027 C 
ATOM     33  H   LIG d   1       8.183  -8.754  -4.498  0.00  0.00     0.028 H 
ATOM     34  H   LIG d   1       6.700  -9.594  -5.011  0.00  0.00     0.028 H 
ATOM     35  H   LIG d   1       7.881  -9.051  -6.226  0.00  0.00     0.028 H 
ENDBRANCH   1  32
TORSDOF 6
ENDMDL
MODEL 4
REMARK VINA RESULT:      -6.7      4.448      6.174
REMARK  6 active torsions:
REMARK  status: ('A' for Active; 'I' for Inactive)
REMARK    1  A    between atoms: C_1  and  C_2 
REMARK    2  A    between atoms: C_3  and  N_21 
REMARK    3  A    between atoms: C_5  and  C_11 
REMARK    4  A    between atoms: C_7  and  N_8 
REMARK       I    between atoms: C_11  and  N_13 
REMARK    5  A    between atoms: N_13  and  N_14 
REMARK    6  A    between atoms: N_14  and  C_15 
ROOT
ATOM      1  C   LIG d   1       6.684  -7.448  -5.403  0.00  0.00     0.103 A 
ATOM      2  C   LIG d   1       7.399  -6.264  -5.357  0.00  0.00     0.283 A 
ATOM      3  C   LIG d   1       6.743  -5.054  -5.452  0.00  0.00     0.028 A 
ATOM      4  C   LIG d   1       5.355  -5.026  -5.594  0.00  0.00     0.051 A 
ATOM      5  C   LIG d   1       4.640  -6.224  -5.640  0.00  0.00     0.028 A 
ATOM      6  C   LIG d   1       5.308  -7.427  -5.545  0.00  0.00     0.283 A 
ATOM      7  H   LIG d   1       7.303  -4.131  -5.414  0.00  0.00     0.069 H 
ATOM      8  H   LIG d   1       3.565  -6.209  -5.750  0.00  0.00     0.069 H 
ENDROOT
BRANCH   4   9
ATOM      9  C   LIG d   1       4.645  -3.732  -5.689  0.00  0.00     0.261 C 
ATOM     10  O   LIG d   1       4.422  -3.240  -6.777  0.00  0.00    -0.269 OA
ATOM     11  N   LIG d   1       4.243  -3.101  -4.568  0.00  0.00    -0.233 N 
ATOM     12  H   LIG d   1       4.420  -3.495  -3.699  0.00  0.00     0.173 HD
BRANCH  11  13
ATOM     13  N   LIG d   1       3.570  -1.876  -4.658  0.00  0.00    -0.264 N 
ATOM     14  H   LIG d   1       2.949  -1.715  -5.386  0.00  0.00     0.170 HD
BRANCH  13  15
ATOM     15  C   LIG d   1       3.792  -0.885  -3.699  0.00  0.00     0.044 A 
ATOM     16  C   LIG d   1       3.396   0.424  -3.945  0.00  0.00    -0.039 A 
ATOM     17  C   LIG d   1       3.617   1.401  -2.994  0.00  0.00    -0.060 A 
ATOM     18  H   LIG d   1       2.916   0.677  -4.878  0.00  0.00     0.064 H 
ATOM     19  C   LIG d   1       4.232   1.077  -1.799  0.00  0.00    -0.062 A 
ATOM     20  H   LIG d   1       3.310   2.419  -3.186  0.00  0.00     0.062 H 
ATOM     21  C   LIG d   1       4.627  -0.225  -1.550  0.00  0.00    -0.060 A 
ATOM     22  H   LIG d   1       4.403   1.843  -1.057  0.00  0.00     0.062 H 
ATOM     23  C   LIG d   1       4.404  -1.207  -2.494  0.00  0.00    -0.039 A 
ATOM     24  H   LIG d   1       5.107  -0.473  -0.615  0.00  0.00     0.062 H 
ATOM     25  H   LIG d   1       4.709  -2.224  -2.298  0.00  0.00     0.064 H 
ENDBRANCH  13  15
ENDBRANCH  11  13
ENDBRANCH   4   9
BRANCH   2  26
ATOM     26  N   LIG d   1       8.871  -6.296  -5.206  0.00  0.00     0.080 N 
ATOM     27  O   LIG d   1       9.584  -6.343  -6.193  0.00  0.00     0.042 OA
ATOM     28  O   LIG d   1       9.370  -6.276  -4.095  0.00  0.00    -0.576 OA
ENDBRANCH   2  26
BRANCH   6  29
ATOM     29  N   LIG d   1       4.551  -8.698  -5.593  0.00  0.00     0.080 N 
ATOM     30  O   LIG d   1       4.145  -9.205  -4.562  0.00  0.00     0.042 OA
ATOM     31  O   LIG d   1       4.334  -9.237  -6.663  0.00  0.00    -0.576 OA
ENDBRANCH   6  29
BRANCH   1  32
ATOM     32  C   LIG d   1       7.407  -8.766  -5.300  0.00  0.00    -0.027 C 
ATOM     33  H   LIG d   1       7.276  -9.174  -4.298  0.00  0.00     0.028 H 
ATOM     34  H   LIG d   1       6.999  -9.462  -6.033  0.00  0.00     0.028 H 
ATOM     35  H   LIG d   1       8.469  -8.614  -5.495  0.00  0.00     0.028 H 
ENDBRANCH   1  32
TORSDOF 6
ENDMDL
MODEL 5
REMARK VINA RESULT:      -6.7      6.940     10.717
REMARK  6 active torsions:
REMARK  status: ('A' for Active; 'I' for Inactive)
REMARK    1  A    between atoms: C_1  and  C_2 
REMARK    2  A    between atoms: C_3  and  N_21 
REMARK    3  A    between atoms: C_5  and  C_11 
REMARK    4  A    between atoms: C_7  and  N_8 
REMARK       I    between atoms: C_11  and  N_13 
REMARK    5  A    between atoms: N_13  and  N_14 
REMARK    6  A    between atoms: N_14  and  C_15 
ROOT
ATOM      1  C   LIG d   1      10.400   6.272  -3.412  0.00  0.00     0.103 A 
ATOM      2  C   LIG d   1       9.887   5.974  -4.661  0.00  0.00     0.283 A 
ATOM      3  C   LIG d   1       9.378   4.717  -4.920  0.00  0.00     0.028 A 
ATOM      4  C   LIG d   1       9.382   3.747  -3.917  0.00  0.00     0.051 A 
ATOM      5  C   LIG d   1       9.900   4.054  -2.658  0.00  0.00     0.028 A 
ATOM      6  C   LIG d   1      10.406   5.314  -2.413  0.00  0.00     0.283 A 
ATOM      7  H   LIG d   1       8.977   4.487  -5.896  0.00  0.00     0.069 H 
ATOM      8  H   LIG d   1       9.906   3.308  -1.878  0.00  0.00     0.069 H 
ENDROOT
BRANCH   4   9
ATOM      9  C   LIG d   1       8.832   2.400  -4.185  0.00  0.00     0.261 C 
ATOM     10  O   LIG d   1       9.582   1.456  -4.334  0.00  0.00    -0.269 OA
ATOM     11  N   LIG d   1       7.498   2.221  -4.263  0.00  0.00    -0.233 N 
ATOM     12  H   LIG d   1       6.899   2.975  -4.144  0.00  0.00     0.173 HD
BRANCH  11  13
ATOM     13  N   LIG d   1       6.977   0.946  -4.517  0.00  0.00    -0.264 N 
ATOM     14  H   LIG d   1       7.228   0.471  -5.325  0.00  0.00     0.170 HD
BRANCH  13  15
ATOM     15  C   LIG d   1       6.096   0.357  -3.606  0.00  0.00     0.044 A 
ATOM     16  C   LIG d   1       5.920  -1.020  -3.599  0.00  0.00    -0.039 A 
ATOM     17  C   LIG d   1       5.049  -1.599  -2.697  0.00  0.00    -0.060 A 
ATOM     18  H   LIG d   1       6.463  -1.638  -4.298  0.00  0.00     0.064 H 
ATOM     19  C   LIG d   1       4.353  -0.808  -1.801  0.00  0.00    -0.062 A 
ATOM     20  H   LIG d   1       4.911  -2.670  -2.692  0.00  0.00     0.062 H 
ATOM     21  C   LIG d   1       4.527   0.564  -1.805  0.00  0.00    -0.060 A 
ATOM     22  H   LIG d   1       3.673  -1.263  -1.097  0.00  0.00     0.062 H 
ATOM     23  C   LIG d   1       5.400   1.148  -2.701  0.00  0.00    -0.039 A 
ATOM     24  H   LIG d   1       3.981   1.178  -1.104  0.00  0.00     0.062 H 
ATOM     25  H   LIG d   1       5.538   2.219  -2.701  0.00  0.00     0.064 H 
ENDBRANCH  13  15
ENDBRANCH  11  13
ENDBRANCH   4   9
BRANCH   2  26
ATOM     26  N   LIG d   1       9.884   7.005  -5.723  0.00  0.00     0.080 N 
ATOM     27  O   LIG d   1       8.988   7.829  -5.770  0.00  0.00     0.042 OA
ATOM     28  O   LIG d   1      10.778   7.029  -6.551  0.00  0.00    -0.576 OA
ENDBRANCH   2  26
BRANCH   6  29
ATOM     29  N   LIG d   1      10.956   5.642  -1.079  0.00  0.00     0.080 N 
ATOM     30  O   LIG d   1      10.247   6.171  -0.240  0.00  0.00     0.042 OA
ATOM     31  O   LIG d   1      12.117   5.383  -0.818  0.00  0.00    -0.576 OA
ENDBRANCH   6  29
BRANCH   1  32
ATOM     32  C   LIG d   1      10.955   7.646  -3.135  0.00  0.00    -0.027 C 
ATOM     33  H   LIG d   1      11.996   7.561  -2.827  0.00  0.00     0.028 H 
ATOM     34  H   LIG d   1      10.891   8.252  -4.039  0.00  0.00     0.028 H 
ATOM     35  H   LIG d   1      10.377   8.116  -2.340  0.00  0.00     0.028 H 
ENDBRANCH   1  32
TORSDOF 6
ENDMDL
MODEL 6
REMARK VINA RESULT:      -6.7      6.944     10.354
REMARK  6 active torsions:
REMARK  status: ('A' for Active; 'I' for Inactive)
REMARK    1  A    between atoms: C_1  and  C_2 
REMARK    2  A    between atoms: C_3  and  N_21 
REMARK    3  A    between atoms: C_5  and  C_11 
REMARK    4  A    between atoms: C_7  and  N_8 
REMARK       I    between atoms: C_11  and  N_13 
REMARK    5  A    between atoms: N_13  and  N_14 
REMARK    6  A    between atoms: N_14  and  C_15 
ROOT
ATOM      1  C   LIG d   1      10.390   6.292  -3.416  0.00  0.00     0.103 A 
ATOM      2  C   LIG d   1      10.393   5.341  -2.412  0.00  0.00     0.283 A 
ATOM      3  C   LIG d   1       9.888   4.079  -2.653  0.00  0.00     0.028 A 
ATOM      4  C   LIG d   1       9.374   3.765  -3.911  0.00  0.00     0.051 A 
ATOM      5  C   LIG d   1       9.373   4.730  -4.919  0.00  0.00     0.028 A 
ATOM      6  C   LIG d   1       9.881   5.988  -4.666  0.00  0.00     0.283 A 
ATOM      7  H   LIG d   1       9.893   3.336  -1.868  0.00  0.00     0.069 H 
ATOM      8  H   LIG d   1       8.977   4.493  -5.895  0.00  0.00     0.069 H 
ENDROOT
BRANCH   4   9
ATOM      9  C   LIG d   1       8.838   2.412  -4.177  0.00  0.00     0.261 C 
ATOM     10  O   LIG d   1       9.598   1.479  -4.344  0.00  0.00    -0.269 OA
ATOM     11  N   LIG d   1       7.505   2.215  -4.232  0.00  0.00    -0.233 N 
ATOM     12  H   LIG d   1       6.898   2.960  -4.098  0.00  0.00     0.173 HD
BRANCH  11  13
ATOM     13  N   LIG d   1       6.998   0.934  -4.484  0.00  0.00    -0.264 N 
ATOM     14  H   LIG d   1       7.268   0.452  -5.281  0.00  0.00     0.170 HD
BRANCH  13  15
ATOM     15  C   LIG d   1       6.101   0.349  -3.586  0.00  0.00     0.044 A 
ATOM     16  C   LIG d   1       5.926  -1.029  -3.576  0.00  0.00    -0.039 A 
ATOM     17  C   LIG d   1       5.039  -1.605  -2.686  0.00  0.00    -0.060 A 
ATOM     18  H   LIG d   1       6.481  -1.650  -4.263  0.00  0.00     0.064 H 
ATOM     19  C   LIG d   1       4.328  -0.809  -1.806  0.00  0.00    -0.062 A 
ATOM     20  H   LIG d   1       4.902  -2.675  -2.679  0.00  0.00     0.062 H 
ATOM     21  C   LIG d   1       4.501   0.563  -1.813  0.00  0.00    -0.060 A 
ATOM     22  H   LIG d   1       3.636  -1.262  -1.111  0.00  0.00     0.062 H 
ATOM     23  C   LIG d   1       5.390   1.143  -2.696  0.00  0.00    -0.039 A 
ATOM     24  H   LIG d   1       3.944   1.179  -1.124  0.00  0.00     0.062 H 
ATOM     25  H   LIG d   1       5.527   2.214  -2.698  0.00  0.00     0.064 H 
ENDBRANCH  13  15
ENDBRANCH  11  13
ENDBRANCH   4   9
BRANCH   2  26
ATOM     26  N   LIG d   1      10.940   5.676  -1.078  0.00  0.00     0.080 N 
ATOM     27  O   LIG d   1      10.228   6.209  -0.245  0.00  0.00     0.042 OA
ATOM     28  O   LIG d   1      12.100   5.419  -0.813  0.00  0.00    -0.576 OA
ENDBRANCH   2  26
BRANCH   6  29
ATOM     29  N   LIG d   1       9.881   7.012  -5.734  0.00  0.00     0.080 N 
ATOM     30  O   LIG d   1       8.991   7.843  -5.781  0.00  0.00     0.042 OA
ATOM     31  O   LIG d   1      10.770   7.025  -6.565  0.00  0.00    -0.576 OA
ENDBRANCH   6  29
BRANCH   1  32
ATOM     32  C   LIG d   1      10.942   7.669  -3.147  0.00  0.00    -0.027 C 
ATOM     33  H   LIG d   1      10.436   8.393  -3.786  0.00  0.00     0.028 H 
ATOM     34  H   LIG d   1      10.778   7.929  -2.102  0.00  0.00     0.028 H 
ATOM     35  H   LIG d   1      12.010   7.679  -3.362  0.00  0.00     0.028 H 
ENDBRANCH   1  32
TORSDOF 6
ENDMDL
MODEL 7
REMARK VINA RESULT:      -6.7      1.920      2.289
REMARK  6 active torsions:
REMARK  status: ('A' for Active; 'I' for Inactive)
REMARK    1  A    between atoms: C_1  and  C_2 
REMARK    2  A    between atoms: C_3  and  N_21 
REMARK    3  A    between atoms: C_5  and  C_11 
REMARK    4  A    between atoms: C_7  and  N_8 
REMARK       I    between atoms: C_11  and  N_13 
REMARK    5  A    between atoms: N_13  and  N_14 
REMARK    6  A    between atoms: N_14  and  C_15 
ROOT
ATOM      1  C   LIG d   1       3.587  -1.574 -10.915  0.00  0.00     0.103 A 
ATOM      2  C   LIG d   1       4.653  -1.093 -10.176  0.00  0.00     0.283 A 
ATOM      3  C   LIG d   1       4.428  -0.441  -8.980  0.00  0.00     0.028 A 
ATOM      4  C   LIG d   1       3.123  -0.268  -8.518  0.00  0.00     0.051 A 
ATOM      5  C   LIG d   1       2.053  -0.756  -9.269  0.00  0.00     0.028 A 
ATOM      6  C   LIG d   1       2.291  -1.406 -10.462  0.00  0.00     0.283 A 
ATOM      7  H   LIG d   1       5.262  -0.067  -8.404  0.00  0.00     0.069 H 
ATOM      8  H   LIG d   1       1.040  -0.626  -8.916  0.00  0.00     0.069 H 
ENDROOT
BRANCH   4   9
ATOM      9  C   LIG d   1       2.877   0.424  -7.234  0.00  0.00     0.261 C 
ATOM     10  O   LIG d   1       2.971   1.633  -7.168  0.00  0.00    -0.269 OA
ATOM     11  N   LIG d   1       2.545  -0.289  -6.139  0.00  0.00    -0.233 N 
ATOM     12  H   LIG d   1       2.470  -1.255  -6.192  0.00  0.00     0.173 HD
BRANCH  11  13
ATOM     13  N   LIG d   1       2.312   0.367  -4.923  0.00  0.00    -0.264 N 
ATOM     14  H   LIG d   1       1.631   1.056  -4.865  0.00  0.00     0.170 HD
BRANCH  13  15
ATOM     15  C   LIG d   1       3.058   0.027  -3.792  0.00  0.00     0.044 A 
ATOM     16  C   LIG d   1       3.642   1.022  -3.018  0.00  0.00    -0.039 A 
ATOM     17  C   LIG d   1       4.379   0.684  -1.900  0.00  0.00    -0.060 A 
ATOM     18  H   LIG d   1       3.519   2.060  -3.290  0.00  0.00     0.064 H 
ATOM     19  C   LIG d   1       4.536  -0.645  -1.551  0.00  0.00    -0.062 A 
ATOM     20  H   LIG d   1       4.833   1.457  -1.299  0.00  0.00     0.062 H 
ATOM     21  C   LIG d   1       3.956  -1.639  -2.319  0.00  0.00    -0.060 A 
ATOM     22  H   LIG d   1       5.112  -0.908  -0.677  0.00  0.00     0.062 H 
ATOM     23  C   LIG d   1       3.213  -1.306  -3.435  0.00  0.00    -0.039 A 
ATOM     24  H   LIG d   1       4.081  -2.675  -2.043  0.00  0.00     0.062 H 
ATOM     25  H   LIG d   1       2.757  -2.082  -4.031  0.00  0.00     0.064 H 
ENDBRANCH  13  15
ENDBRANCH  11  13
ENDBRANCH   4   9
BRANCH   2  26
ATOM     26  N   LIG d   1       6.036  -1.278 -10.669  0.00  0.00     0.080 N 
ATOM     27  O   LIG d   1       6.533  -0.452 -11.414  0.00  0.00     0.042 OA
ATOM     28  O   LIG d   1       6.679  -2.255 -10.329  0.00  0.00    -0.576 OA
ENDBRANCH   2  26
BRANCH   6  29
ATOM     29  N   LIG d   1       1.157  -1.924 -11.259  0.00  0.00     0.080 N 
ATOM     30  O   LIG d   1       0.590  -1.198 -12.058  0.00  0.00     0.042 OA
ATOM     31  O   LIG d   1       0.789  -3.076 -11.118  0.00  0.00    -0.576 OA
ENDBRANCH   6  29
BRANCH   1  32
ATOM     32  C   LIG d   1       3.838  -2.285 -12.221  0.00  0.00    -0.027 C 
ATOM     33  H   LIG d   1       4.460  -1.658 -12.861  0.00  0.00     0.028 H 
ATOM     34  H   LIG d   1       4.349  -3.228 -12.028  0.00  0.00     0.028 H 
ATOM     35  H   LIG d   1       2.887  -2.479 -12.716  0.00  0.00     0.028 H 
ENDBRANCH   1  32
TORSDOF 6
ENDMDL
MODEL 8
REMARK VINA RESULT:      -6.6      1.934      2.929
REMARK  6 active torsions:
REMARK  status: ('A' for Active; 'I' for Inactive)
REMARK    1  A    between atoms: C_1  and  C_2 
REMARK    2  A    between atoms: C_3  and  N_21 
REMARK    3  A    between atoms: C_5  and  C_11 
REMARK    4  A    between atoms: C_7  and  N_8 
REMARK       I    between atoms: C_11  and  N_13 
REMARK    5  A    between atoms: N_13  and  N_14 
REMARK    6  A    between atoms: N_14  and  C_15 
ROOT
ATOM      1  C   LIG d   1       3.549  -1.536 -10.911  0.00  0.00     0.103 A 
ATOM      2  C   LIG d   1       2.256  -1.347 -10.459  0.00  0.00     0.283 A 
ATOM      3  C   LIG d   1       2.028  -0.681  -9.271  0.00  0.00     0.028 A 
ATOM      4  C   LIG d   1       3.105  -0.199  -8.528  0.00  0.00     0.051 A 
ATOM      5  C   LIG d   1       4.408  -0.392  -8.990  0.00  0.00     0.028 A 
ATOM      6  C   LIG d   1       4.622  -1.060 -10.179  0.00  0.00     0.283 A 
ATOM      7  H   LIG d   1       1.017  -0.534  -8.920  0.00  0.00     0.069 H 
ATOM      8  H   LIG d   1       5.246  -0.021  -8.420  0.00  0.00     0.069 H 
ENDROOT
BRANCH   4   9
ATOM      9  C   LIG d   1       2.867   0.522  -7.258  0.00  0.00     0.261 C 
ATOM     10  O   LIG d   1       2.935   1.735  -7.226  0.00  0.00    -0.269 OA
ATOM     11  N   LIG d   1       2.574  -0.168  -6.138  0.00  0.00    -0.233 N 
ATOM     12  H   LIG d   1       2.519  -1.136  -6.164  0.00  0.00     0.173 HD
BRANCH  11  13
ATOM     13  N   LIG d   1       2.348   0.515  -4.935  0.00  0.00    -0.264 N 
ATOM     14  H   LIG d   1       1.687   1.224  -4.896  0.00  0.00     0.170 HD
BRANCH  13  15
ATOM     15  C   LIG d   1       3.076   0.175  -3.792  0.00  0.00     0.044 A 
ATOM     16  C   LIG d   1       3.659   1.170  -3.017  0.00  0.00    -0.039 A 
ATOM     17  C   LIG d   1       4.378   0.831  -1.887  0.00  0.00    -0.060 A 
ATOM     18  H   LIG d   1       3.551   2.207  -3.297  0.00  0.00     0.064 H 
ATOM     19  C   LIG d   1       4.517  -0.498  -1.528  0.00  0.00    -0.062 A 
ATOM     20  H   LIG d   1       4.832   1.603  -1.285  0.00  0.00     0.062 H 
ATOM     21  C   LIG d   1       3.938  -1.490  -2.298  0.00  0.00    -0.060 A 
ATOM     22  H   LIG d   1       5.079  -0.760  -0.644  0.00  0.00     0.062 H 
ATOM     23  C   LIG d   1       3.213  -1.157  -3.425  0.00  0.00    -0.039 A 
ATOM     24  H   LIG d   1       4.049  -2.526  -2.013  0.00  0.00     0.062 H 
ATOM     25  H   LIG d   1       2.758  -1.932  -4.023  0.00  0.00     0.064 H 
ENDBRANCH  13  15
ENDBRANCH  11  13
ENDBRANCH   4   9
BRANCH   2  26
ATOM     26  N   LIG d   1       1.115  -1.861 -11.249  0.00  0.00     0.080 N 
ATOM     27  O   LIG d   1       0.565  -1.140 -12.063  0.00  0.00     0.042 OA
ATOM     28  O   LIG d   1       0.725  -3.003 -11.085  0.00  0.00    -0.576 OA
ENDBRANCH   2  26
BRANCH   6  29
ATOM     29  N   LIG d   1       6.003  -1.266 -10.671  0.00  0.00     0.080 N 
ATOM     30  O   LIG d   1       6.482  -0.493 -11.482  0.00  0.00     0.042 OA
ATOM     31  O   LIG d   1       6.659  -2.208 -10.267  0.00  0.00    -0.576 OA
ENDBRANCH   6  29
BRANCH   1  32
ATOM     32  C   LIG d   1       3.792  -2.265 -12.208  0.00  0.00    -0.027 C 
ATOM     33  H   LIG d   1       4.164  -1.562 -12.955  0.00  0.00     0.028 H 
ATOM     34  H   LIG d   1       4.530  -3.051 -12.051  0.00  0.00     0.028 H 
ATOM     35  H   LIG d   1       2.858  -2.705 -12.557  0.00  0.00     0.028 H 
ENDBRANCH   1  32
TORSDOF 6
ENDMDL
MODEL 9
REMARK VINA RESULT:      -6.2      2.944      7.554
REMARK  6 active torsions:
REMARK  status: ('A' for Active; 'I' for Inactive)
REMARK    1  A    between atoms: C_1  and  C_2 
REMARK    2  A    between atoms: C_3  and  N_21 
REMARK    3  A    between atoms: C_5  and  C_11 
REMARK    4  A    between atoms: C_7  and  N_8 
REMARK       I    between atoms: C_11  and  N_13 
REMARK    5  A    between atoms: N_13  and  N_14 
REMARK    6  A    between atoms: N_14  and  C_15 
ROOT
ATOM      1  C   LIG d   1       4.706  -1.216  -3.763  0.00  0.00     0.103 A 
ATOM      2  C   LIG d   1       4.239   0.084  -3.820  0.00  0.00     0.283 A 
ATOM      3  C   LIG d   1       3.685   0.572  -4.986  0.00  0.00     0.028 A 
ATOM      4  C   LIG d   1       3.598  -0.251  -6.110  0.00  0.00     0.051 A 
ATOM      5  C   LIG d   1       4.071  -1.562  -6.046  0.00  0.00     0.028 A 
ATOM      6  C   LIG d   1       4.622  -2.037  -4.874  0.00  0.00     0.283 A 
ATOM      7  H   LIG d   1       3.320   1.587  -5.028  0.00  0.00     0.069 H 
ATOM      8  H   LIG d   1       4.006  -2.204  -6.912  0.00  0.00     0.069 H 
ENDROOT
BRANCH   4   9
ATOM      9  C   LIG d   1       3.000   0.263  -7.361  0.00  0.00     0.261 C 
ATOM     10  O   LIG d   1       3.054   1.449  -7.618  0.00  0.00    -0.269 OA
ATOM     11  N   LIG d   1       2.396  -0.586  -8.217  0.00  0.00    -0.233 N 
ATOM     12  H   LIG d   1       2.353  -1.533  -8.011  0.00  0.00     0.173 HD
BRANCH  11  13
ATOM     13  N   LIG d   1       1.829  -0.099  -9.402  0.00  0.00    -0.264 N 
ATOM     14  H   LIG d   1       1.030   0.449  -9.369  0.00  0.00     0.170 HD
BRANCH  13  15
ATOM     15  C   LIG d   1       2.417  -0.402 -10.633  0.00  0.00     0.044 A 
ATOM     16  C   LIG d   1       1.795  -1.289 -11.502  0.00  0.00    -0.039 A 
ATOM     17  C   LIG d   1       2.378  -1.586 -12.718  0.00  0.00    -0.060 A 
ATOM     18  H   LIG d   1       0.857  -1.746 -11.227  0.00  0.00     0.064 H 
ATOM     19  C   LIG d   1       3.581  -1.000 -13.070  0.00  0.00    -0.062 A 
ATOM     20  H   LIG d   1       1.895  -2.276 -13.393  0.00  0.00     0.062 H 
ATOM     21  C   LIG d   1       4.202  -0.116 -12.208  0.00  0.00    -0.060 A 
ATOM     22  H   LIG d   1       4.034  -1.234 -14.022  0.00  0.00     0.062 H 
ATOM     23  C   LIG d   1       3.621   0.189 -10.993  0.00  0.00    -0.039 A 
ATOM     24  H   LIG d   1       5.141   0.339 -12.487  0.00  0.00     0.062 H 
ATOM     25  H   LIG d   1       4.106   0.883 -10.322  0.00  0.00     0.064 H 
ENDBRANCH  13  15
ENDBRANCH  11  13
ENDBRANCH   4   9
BRANCH   2  26
ATOM     26  N   LIG d   1       4.332   0.955  -2.626  0.00  0.00     0.080 N 
ATOM     27  O   LIG d   1       3.337   1.190  -1.964  0.00  0.00     0.042 OA
ATOM     28  O   LIG d   1       5.404   1.437  -2.307  0.00  0.00    -0.576 OA
ENDBRANCH   2  26
BRANCH   6  29
ATOM     29  N   LIG d   1       5.124  -3.428  -4.804  0.00  0.00     0.080 N 
ATOM     30  O   LIG d   1       6.312  -3.655  -4.959  0.00  0.00     0.042 OA
ATOM     31  O   LIG d   1       4.352  -4.344  -4.593  0.00  0.00    -0.576 OA
ENDBRANCH   6  29
BRANCH   1  32
ATOM     32  C   LIG d   1       5.310  -1.743  -2.486  0.00  0.00    -0.027 C 
ATOM     33  H   LIG d   1       4.618  -1.574  -1.661  0.00  0.00     0.028 H 
ATOM     34  H   LIG d   1       5.502  -2.811  -2.588  0.00  0.00     0.028 H 
ATOM     35  H   LIG d   1       6.246  -1.222  -2.287  0.00  0.00     0.028 H 
ENDBRANCH   1  32
TORSDOF 6
ENDMDL
MODEL 10
REMARK VINA RESULT:      -6.1      7.181     10.705
REMARK  6 active torsions:
REMARK  status: ('A' for Active; 'I' for Inactive)
REMARK    1  A    between atoms: C_1  and  C_2 
REMARK    2  A    between atoms: C_3  and  N_21 
REMARK    3  A    between atoms: C_5  and  C_11 
REMARK    4  A    between atoms: C_7  and  N_8 
REMARK       I    between atoms: C_11  and  N_13 
REMARK    5  A    between atoms: N_13  and  N_14 
REMARK    6  A    between atoms: N_14  and  C_15 
ROOT
ATOM      1  C   LIG d   1      11.865   4.617  -2.903  0.00  0.00     0.103 A 
ATOM      2  C   LIG d   1      10.553   4.899  -2.567  0.00  0.00     0.283 A 
ATOM      3  C   LIG d   1       9.531   4.092  -3.026  0.00  0.00     0.028 A 
ATOM      4  C   LIG d   1       9.825   2.990  -3.830  0.00  0.00     0.051 A 
ATOM      5  C   LIG d   1      11.150   2.711  -4.165  0.00  0.00     0.028 A 
ATOM      6  C   LIG d   1      12.162   3.525  -3.700  0.00  0.00     0.283 A 
ATOM      7  H   LIG d   1       8.508   4.314  -2.762  0.00  0.00     0.069 H 
ATOM      8  H   LIG d   1      11.384   1.859  -4.786  0.00  0.00     0.069 H 
ENDROOT
BRANCH   4   9
ATOM      9  C   LIG d   1       8.735   2.117  -4.318  0.00  0.00     0.261 C 
ATOM     10  O   LIG d   1       8.044   2.473  -5.252  0.00  0.00    -0.269 OA
ATOM     11  N   LIG d   1       8.510   0.926  -3.728  0.00  0.00    -0.233 N 
ATOM     12  H   LIG d   1       9.062   0.642  -2.983  0.00  0.00     0.173 HD
BRANCH  11  13
ATOM     13  N   LIG d   1       7.478   0.100  -4.191  0.00  0.00    -0.264 N 
ATOM     14  H   LIG d   1       7.548  -0.323  -5.061  0.00  0.00     0.170 HD
BRANCH  13  15
ATOM     15  C   LIG d   1       6.348  -0.116  -3.399  0.00  0.00     0.044 A 
ATOM     16  C   LIG d   1       5.883  -1.407  -3.187  0.00  0.00    -0.039 A 
ATOM     17  C   LIG d   1       4.765  -1.617  -2.403  0.00  0.00    -0.060 A 
ATOM     18  H   LIG d   1       6.393  -2.246  -3.635  0.00  0.00     0.064 H 
ATOM     19  C   LIG d   1       4.110  -0.542  -1.830  0.00  0.00    -0.062 A 
ATOM     20  H   LIG d   1       4.402  -2.621  -2.239  0.00  0.00     0.062 H 
ATOM     21  C   LIG d   1       4.571   0.745  -2.038  0.00  0.00    -0.060 A 
ATOM     22  H   LIG d   1       3.237  -0.709  -1.217  0.00  0.00     0.062 H 
ATOM     23  C   LIG d   1       5.691   0.960  -2.817  0.00  0.00    -0.039 A 
ATOM     24  H   LIG d   1       4.057   1.580  -1.588  0.00  0.00     0.062 H 
ATOM     25  H   LIG d   1       6.053   1.965  -2.975  0.00  0.00     0.064 H 
ENDBRANCH  13  15
ENDBRANCH  11  13
ENDBRANCH   4   9
BRANCH   2  26
ATOM     26  N   LIG d   1      10.245   6.069  -1.715  0.00  0.00     0.080 N 
ATOM     27  O   LIG d   1      10.001   7.148  -2.226  0.00  0.00     0.042 OA
ATOM     28  O   LIG d   1      10.234   5.953  -0.502  0.00  0.00    -0.576 OA
ENDBRANCH   2  26
BRANCH   6  29
ATOM     29  N   LIG d   1      13.569   3.231  -4.054  0.00  0.00     0.080 N 
ATOM     30  O   LIG d   1      14.242   2.516  -3.332  0.00  0.00     0.042 OA
ATOM     31  O   LIG d   1      14.053   3.702  -5.067  0.00  0.00    -0.576 OA
ENDBRANCH   6  29
BRANCH   1  32
ATOM     32  C   LIG d   1      12.976   5.502  -2.401  0.00  0.00    -0.027 C 
ATOM     33  H   LIG d   1      12.870   6.497  -2.832  0.00  0.00     0.028 H 
ATOM     34  H   LIG d   1      12.924   5.569  -1.314  0.00  0.00     0.028 H 
ATOM     35  H   LIG d   1      13.937   5.079  -2.694  0.00  0.00     0.028 H 
ENDBRANCH   1  32
TORSDOF 6
ENDMDL
