MODEL 1
REMARK VINA RESULT:      -6.7      0.000      0.000
REMARK  4 active torsions:
REMARK  status: ('A' for Active; 'I' for Inactive)
REMARK    1  A    between atoms: C_3  and  C_15 
REMARK    2  A    between atoms: C_5  and  N_7 
REMARK       I    between atoms: N_7  and  C_8 
REMARK    3  A    between atoms: C_8  and  C_10 
REMARK    4  A    between atoms: C_11  and  C_12 
ROOT
ATOM      1  C   LIG d   1       3.184   1.754  -3.194  0.00  0.00    -0.059 A 
ATOM      2  C   LIG d   1       3.741   0.736  -2.442  0.00  0.00    -0.050 A 
ATOM      3  C   LIG d   1       3.852  -0.537  -2.969  0.00  0.00     0.057 A 
ATOM      4  C   LIG d   1       3.408  -0.797  -4.251  0.00  0.00    -0.029 A 
ATOM      5  C   LIG d   1       2.847   0.223  -5.010  0.00  0.00     0.034 A 
ATOM      6  C   LIG d   1       2.737   1.501  -4.476  0.00  0.00    -0.040 A 
ATOM      7  H   LIG d   1       3.095   2.746  -2.777  0.00  0.00     0.062 H 
ATOM      8  H   LIG d   1       4.090   0.936  -1.439  0.00  0.00     0.062 H 
ATOM      9  H   LIG d   1       3.496  -1.791  -4.663  0.00  0.00     0.064 H 
ATOM     10  H   LIG d   1       2.302   2.296  -5.063  0.00  0.00     0.064 H 
ENDROOT
BRANCH   5  11
ATOM     11  N   LIG d   1       2.396  -0.036  -6.307  0.00  0.00    -0.282 N 
ATOM     12  C   LIG d   1       3.201   0.205  -7.360  0.00  0.00     0.241 C 
ATOM     13  O   LIG d   1       4.350   0.555  -7.180  0.00  0.00    -0.271 OA
ATOM     14  H   LIG d   1       1.503  -0.388  -6.448  0.00  0.00     0.155 HD
BRANCH  12  15
ATOM     15  C   LIG d   1       2.685   0.043  -8.737  0.00  0.00     0.002 C 
ATOM     16  C   LIG d   1       2.306  -1.169  -9.173  0.00  0.00    -0.034 C 
ATOM     17  H   LIG d   1       2.379  -2.026  -8.519  0.00  0.00     0.064 H 
ATOM     18  H   LIG d   1       2.612   0.900  -9.390  0.00  0.00     0.067 H 
BRANCH  16  19
ATOM     19  C   LIG d   1       1.792  -1.330 -10.545  0.00  0.00     0.065 C 
ATOM     20  O   LIG d   1       1.075  -2.281 -10.822  0.00  0.00    -0.545 OA
ATOM     21  O   LIG d   1       2.084  -0.514 -11.406  0.00  0.00    -0.545 OA
ENDBRANCH  16  19
ENDBRANCH  12  15
ENDBRANCH   5  11
BRANCH   3  22
ATOM     22  C   LIG d   1       4.461  -1.643  -2.146  0.00  0.00     0.417 C 
ATOM     23  F   LIG d   1       4.694  -1.182  -0.846  0.00  0.00    -0.166 F 
ATOM     24  F   LIG d   1       3.582  -2.731  -2.104  0.00  0.00    -0.166 F 
ATOM     25  F   LIG d   1       5.671  -2.043  -2.722  0.00  0.00    -0.166 F 
ENDBRANCH   3  22
TORSDOF 4
ENDMDL
MODEL 2
REMARK VINA RESULT:      -6.3      1.741      2.376
REMARK  4 active torsions:
REMARK  status: ('A' for Active; 'I' for Inactive)
REMARK    1  A    between atoms: C_3  and  C_15 
REMARK    2  A    between atoms: C_5  and  N_7 
REMARK       I    between atoms: N_7  and  C_8 
REMARK    3  A    between atoms: C_8  and  C_10 
REMARK    4  A    between atoms: C_11  and  C_12 
ROOT
ATOM      1  C   LIG d   1       6.820  -0.379  -4.740  0.00  0.00    -0.059 A 
ATOM      2  C   LIG d   1       6.237  -0.146  -3.508  0.00  0.00    -0.050 A 
ATOM      3  C   LIG d   1       4.863  -0.203  -3.368  0.00  0.00     0.057 A 
ATOM      4  C   LIG d   1       4.067  -0.494  -4.459  0.00  0.00    -0.029 A 
ATOM      5  C   LIG d   1       4.649  -0.727  -5.699  0.00  0.00     0.034 A 
ATOM      6  C   LIG d   1       6.031  -0.669  -5.835  0.00  0.00    -0.040 A 
ATOM      7  H   LIG d   1       7.894  -0.329  -4.847  0.00  0.00     0.062 H 
ATOM      8  H   LIG d   1       6.857   0.080  -2.653  0.00  0.00     0.062 H 
ATOM      9  H   LIG d   1       2.994  -0.539  -4.349  0.00  0.00     0.064 H 
ATOM     10  H   LIG d   1       6.487  -0.851  -6.798  0.00  0.00     0.064 H 
ENDROOT
BRANCH   5  11
ATOM     11  N   LIG d   1       3.848  -1.021  -6.805  0.00  0.00    -0.282 N 
ATOM     12  C   LIG d   1       3.208  -0.029  -7.455  0.00  0.00     0.241 C 
ATOM     13  O   LIG d   1       3.401   1.128  -7.141  0.00  0.00    -0.271 OA
ATOM     14  H   LIG d   1       3.752  -1.939  -7.104  0.00  0.00     0.155 HD
BRANCH  12  15
ATOM     15  C   LIG d   1       2.268  -0.350  -8.551  0.00  0.00     0.002 C 
ATOM     16  C   LIG d   1       2.401  -1.500  -9.233  0.00  0.00    -0.034 C 
ATOM     17  H   LIG d   1       3.193  -2.189  -8.982  0.00  0.00     0.064 H 
ATOM     18  H   LIG d   1       1.476   0.339  -8.802  0.00  0.00     0.067 H 
BRANCH  16  19
ATOM     19  C   LIG d   1       1.465  -1.820 -10.326  0.00  0.00     0.065 C 
ATOM     20  O   LIG d   1       1.135  -0.953 -11.122  0.00  0.00    -0.545 OA
ATOM     21  O   LIG d   1       1.017  -2.952 -10.434  0.00  0.00    -0.545 OA
ENDBRANCH  16  19
ENDBRANCH  12  15
ENDBRANCH   5  11
BRANCH   3  22
ATOM     22  C   LIG d   1       4.232   0.050  -2.023  0.00  0.00     0.417 C 
ATOM     23  F   LIG d   1       4.359  -1.093  -1.226  0.00  0.00    -0.166 F 
ATOM     24  F   LIG d   1       4.875   1.126  -1.402  0.00  0.00    -0.166 F 
ATOM     25  F   LIG d   1       2.877   0.352  -2.192  0.00  0.00    -0.166 F 
ENDBRANCH   3  22
TORSDOF 4
ENDMDL
MODEL 3
REMARK VINA RESULT:      -6.0      5.749      7.396
REMARK  4 active torsions:
REMARK  status: ('A' for Active; 'I' for Inactive)
REMARK    1  A    between atoms: C_3  and  C_15 
REMARK    2  A    between atoms: C_5  and  N_7 
REMARK       I    between atoms: N_7  and  C_8 
REMARK    3  A    between atoms: C_8  and  C_10 
REMARK    4  A    between atoms: C_11  and  C_12 
ROOT
ATOM      1  C   LIG d   1       7.280  -1.431  -4.003  0.00  0.00    -0.059 A 
ATOM      2  C   LIG d   1       6.214  -1.343  -3.126  0.00  0.00    -0.050 A 
ATOM      3  C   LIG d   1       5.661  -0.112  -2.826  0.00  0.00     0.057 A 
ATOM      4  C   LIG d   1       6.171   1.035  -3.401  0.00  0.00    -0.029 A 
ATOM      5  C   LIG d   1       7.242   0.951  -4.282  0.00  0.00     0.034 A 
ATOM      6  C   LIG d   1       7.795  -0.288  -4.581  0.00  0.00    -0.040 A 
ATOM      7  H   LIG d   1       7.712  -2.394  -4.232  0.00  0.00     0.062 H 
ATOM      8  H   LIG d   1       5.812  -2.238  -2.675  0.00  0.00     0.062 H 
ATOM      9  H   LIG d   1       5.738   1.996  -3.167  0.00  0.00     0.064 H 
ATOM     10  H   LIG d   1       8.628  -0.357  -5.266  0.00  0.00     0.064 H 
ENDROOT
BRANCH   5  11
ATOM     11  N   LIG d   1       7.762   2.109  -4.867  0.00  0.00    -0.282 N 
ATOM     12  C   LIG d   1       8.780   2.764  -4.275  0.00  0.00     0.241 C 
ATOM     13  O   LIG d   1       9.310   2.297  -3.286  0.00  0.00    -0.271 OA
ATOM     14  H   LIG d   1       7.388   2.442  -5.698  0.00  0.00     0.155 HD
BRANCH  12  15
ATOM     15  C   LIG d   1       9.252   4.051  -4.828  0.00  0.00     0.002 C 
ATOM     16  C   LIG d   1       9.641   5.036  -4.001  0.00  0.00    -0.034 C 
ATOM     17  H   LIG d   1       9.608   4.887  -2.932  0.00  0.00     0.064 H 
ATOM     18  H   LIG d   1       9.284   4.200  -5.898  0.00  0.00     0.067 H 
BRANCH  16  19
ATOM     19  C   LIG d   1      10.110   6.319  -4.553  0.00  0.00     0.065 C 
ATOM     20  O   LIG d   1       9.304   7.138  -4.968  0.00  0.00    -0.545 OA
ATOM     21  O   LIG d   1      11.307   6.564  -4.596  0.00  0.00    -0.545 OA
ENDBRANCH  16  19
ENDBRANCH  12  15
ENDBRANCH   5  11
BRANCH   3  22
ATOM     22  C   LIG d   1       4.500  -0.021  -1.870  0.00  0.00     0.417 C 
ATOM     23  F   LIG d   1       3.313   0.139  -2.593  0.00  0.00    -0.166 F 
ATOM     24  F   LIG d   1       4.428  -1.194  -1.110  0.00  0.00    -0.166 F 
ATOM     25  F   LIG d   1       4.678   1.075  -1.020  0.00  0.00    -0.166 F 
ENDBRANCH   3  22
TORSDOF 4
ENDMDL
MODEL 4
REMARK VINA RESULT:      -6.0      5.006      7.346
REMARK  4 active torsions:
REMARK  status: ('A' for Active; 'I' for Inactive)
REMARK    1  A    between atoms: C_3  and  C_15 
REMARK    2  A    between atoms: C_5  and  N_7 
REMARK       I    between atoms: N_7  and  C_8 
REMARK    3  A    between atoms: C_8  and  C_10 
REMARK    4  A    between atoms: C_11  and  C_12 
ROOT
ATOM      1  C   LIG d   1       5.593  -1.559  -5.735  0.00  0.00    -0.059 A 
ATOM      2  C   LIG d   1       4.652  -1.742  -4.738  0.00  0.00    -0.050 A 
ATOM      3  C   LIG d   1       4.905  -1.296  -3.455  0.00  0.00     0.057 A 
ATOM      4  C   LIG d   1       6.098  -0.664  -3.163  0.00  0.00    -0.029 A 
ATOM      5  C   LIG d   1       7.046  -0.479  -4.162  0.00  0.00     0.034 A 
ATOM      6  C   LIG d   1       6.789  -0.930  -5.451  0.00  0.00    -0.040 A 
ATOM      7  H   LIG d   1       5.394  -1.913  -6.737  0.00  0.00     0.062 H 
ATOM      8  H   LIG d   1       3.718  -2.235  -4.963  0.00  0.00     0.062 H 
ATOM      9  H   LIG d   1       6.294  -0.315  -2.161  0.00  0.00     0.064 H 
ATOM     10  H   LIG d   1       7.523  -0.787  -6.230  0.00  0.00     0.064 H 
ENDROOT
BRANCH   5  11
ATOM     11  N   LIG d   1       8.255   0.159  -3.871  0.00  0.00    -0.282 N 
ATOM     12  C   LIG d   1       8.378   1.487  -4.063  0.00  0.00     0.241 C 
ATOM     13  O   LIG d   1       7.413   2.146  -4.396  0.00  0.00    -0.271 OA
ATOM     14  H   LIG d   1       9.005  -0.355  -3.533  0.00  0.00     0.155 HD
BRANCH  12  15
ATOM     15  C   LIG d   1       9.689   2.143  -3.868  0.00  0.00     0.002 C 
ATOM     16  C   LIG d   1       9.798   3.188  -3.031  0.00  0.00    -0.034 C 
ATOM     17  H   LIG d   1       8.929   3.550  -2.502  0.00  0.00     0.064 H 
ATOM     18  H   LIG d   1      10.558   1.781  -4.397  0.00  0.00     0.067 H 
BRANCH  16  19
ATOM     19  C   LIG d   1      11.105   3.842  -2.837  0.00  0.00     0.065 C 
ATOM     20  O   LIG d   1      12.039   3.576  -3.579  0.00  0.00    -0.545 OA
ATOM     21  O   LIG d   1      11.254   4.651  -1.933  0.00  0.00    -0.545 OA
ENDBRANCH  16  19
ENDBRANCH  12  15
ENDBRANCH   5  11
BRANCH   3  22
ATOM     22  C   LIG d   1       3.876  -1.497  -2.372  0.00  0.00     0.417 C 
ATOM     23  F   LIG d   1       2.676  -0.884  -2.749  0.00  0.00    -0.166 F 
ATOM     24  F   LIG d   1       3.661  -2.866  -2.181  0.00  0.00    -0.166 F 
ATOM     25  F   LIG d   1       4.335  -0.927  -1.179  0.00  0.00    -0.166 F 
ENDBRANCH   3  22
TORSDOF 4
ENDMDL
MODEL 5
REMARK VINA RESULT:      -5.9      4.526      7.376
REMARK  4 active torsions:
REMARK  status: ('A' for Active; 'I' for Inactive)
REMARK    1  A    between atoms: C_3  and  C_15 
REMARK    2  A    between atoms: C_5  and  N_7 
REMARK       I    between atoms: N_7  and  C_8 
REMARK    3  A    between atoms: C_8  and  C_10 
REMARK    4  A    between atoms: C_11  and  C_12 
ROOT
ATOM      1  C   LIG d   1       4.218   1.377 -10.389  0.00  0.00    -0.059 A 
ATOM      2  C   LIG d   1       3.416   0.479 -11.070  0.00  0.00    -0.050 A 
ATOM      3  C   LIG d   1       2.471  -0.265 -10.388  0.00  0.00     0.057 A 
ATOM      4  C   LIG d   1       2.323  -0.114  -9.023  0.00  0.00    -0.029 A 
ATOM      5  C   LIG d   1       3.127   0.787  -8.335  0.00  0.00     0.034 A 
ATOM      6  C   LIG d   1       4.075   1.533  -9.024  0.00  0.00    -0.040 A 
ATOM      7  H   LIG d   1       4.958   1.953 -10.923  0.00  0.00     0.062 H 
ATOM      8  H   LIG d   1       3.529   0.359 -12.137  0.00  0.00     0.062 H 
ATOM      9  H   LIG d   1       1.584  -0.694  -8.492  0.00  0.00     0.064 H 
ATOM     10  H   LIG d   1       4.701   2.234  -8.492  0.00  0.00     0.064 H 
ENDROOT
BRANCH   5  11
ATOM     11  N   LIG d   1       2.980   0.943  -6.955  0.00  0.00    -0.282 N 
ATOM     12  C   LIG d   1       3.462   0.005  -6.116  0.00  0.00     0.241 C 
ATOM     13  O   LIG d   1       4.108  -0.927  -6.552  0.00  0.00    -0.271 OA
ATOM     14  H   LIG d   1       2.530   1.727  -6.600  0.00  0.00     0.155 HD
BRANCH  12  15
ATOM     15  C   LIG d   1       3.206   0.110  -4.663  0.00  0.00     0.002 C 
ATOM     16  C   LIG d   1       4.235   0.186  -3.804  0.00  0.00    -0.034 C 
ATOM     17  H   LIG d   1       5.250   0.169  -4.173  0.00  0.00     0.064 H 
ATOM     18  H   LIG d   1       2.191   0.127  -4.294  0.00  0.00     0.067 H 
BRANCH  16  19
ATOM     19  C   LIG d   1       3.979   0.291  -2.356  0.00  0.00     0.065 C 
ATOM     20  O   LIG d   1       3.440   1.288  -1.900  0.00  0.00    -0.545 OA
ATOM     21  O   LIG d   1       4.307  -0.621  -1.610  0.00  0.00    -0.545 OA
ENDBRANCH  16  19
ENDBRANCH  12  15
ENDBRANCH   5  11
BRANCH   3  22
ATOM     22  C   LIG d   1       1.600  -1.242 -11.136  0.00  0.00     0.417 C 
ATOM     23  F   LIG d   1       2.264  -1.671 -12.290  0.00  0.00    -0.166 F 
ATOM     24  F   LIG d   1       1.327  -2.344 -10.318  0.00  0.00    -0.166 F 
ATOM     25  F   LIG d   1       0.400  -0.618 -11.493  0.00  0.00    -0.166 F 
ENDBRANCH   3  22
TORSDOF 4
ENDMDL
MODEL 6
REMARK VINA RESULT:      -5.9      5.365      6.074
REMARK  4 active torsions:
REMARK  status: ('A' for Active; 'I' for Inactive)
REMARK    1  A    between atoms: C_3  and  C_15 
REMARK    2  A    between atoms: C_5  and  N_7 
REMARK       I    between atoms: N_7  and  C_8 
REMARK    3  A    between atoms: C_8  and  C_10 
REMARK    4  A    between atoms: C_11  and  C_12 
ROOT
ATOM      1  C   LIG d   1       4.907  -1.146  -6.005  0.00  0.00    -0.059 A 
ATOM      2  C   LIG d   1       4.395  -0.905  -4.743  0.00  0.00    -0.050 A 
ATOM      3  C   LIG d   1       4.244  -1.945  -3.844  0.00  0.00     0.057 A 
ATOM      4  C   LIG d   1       4.606  -3.228  -4.204  0.00  0.00    -0.029 A 
ATOM      5  C   LIG d   1       5.120  -3.474  -5.471  0.00  0.00     0.034 A 
ATOM      6  C   LIG d   1       5.269  -2.427  -6.371  0.00  0.00    -0.040 A 
ATOM      7  H   LIG d   1       5.019  -0.332  -6.706  0.00  0.00     0.062 H 
ATOM      8  H   LIG d   1       4.111   0.098  -4.459  0.00  0.00     0.062 H 
ATOM      9  H   LIG d   1       4.490  -4.039  -3.501  0.00  0.00     0.064 H 
ATOM     10  H   LIG d   1       5.669  -2.614  -7.357  0.00  0.00     0.064 H 
ENDROOT
BRANCH   5  11
ATOM     11  N   LIG d   1       5.487  -4.771  -5.838  0.00  0.00    -0.282 N 
ATOM     12  C   LIG d   1       4.539  -5.673  -6.163  0.00  0.00     0.241 C 
ATOM     13  O   LIG d   1       3.375  -5.333  -6.230  0.00  0.00    -0.271 OA
ATOM     14  H   LIG d   1       6.424  -5.023  -5.858  0.00  0.00     0.155 HD
BRANCH  12  15
ATOM     15  C   LIG d   1       4.917  -7.076  -6.438  0.00  0.00     0.002 C 
ATOM     16  C   LIG d   1       4.721  -8.019  -5.503  0.00  0.00    -0.034 C 
ATOM     17  H   LIG d   1       4.288  -7.753  -4.550  0.00  0.00     0.064 H 
ATOM     18  H   LIG d   1       5.350  -7.341  -7.391  0.00  0.00     0.067 H 
BRANCH  16  19
ATOM     19  C   LIG d   1       5.098  -9.417  -5.776  0.00  0.00     0.065 C 
ATOM     20  O   LIG d   1       6.277  -9.739  -5.805  0.00  0.00    -0.545 OA
ATOM     21  O   LIG d   1       4.231 -10.256  -5.976  0.00  0.00    -0.545 OA
ENDBRANCH  16  19
ENDBRANCH  12  15
ENDBRANCH   5  11
BRANCH   3  22
ATOM     22  C   LIG d   1       3.687  -1.677  -2.470  0.00  0.00     0.417 C 
ATOM     23  F   LIG d   1       2.488  -0.964  -2.584  0.00  0.00    -0.166 F 
ATOM     24  F   LIG d   1       3.446  -2.892  -1.820  0.00  0.00    -0.166 F 
ATOM     25  F   LIG d   1       4.607  -0.927  -1.730  0.00  0.00    -0.166 F 
ENDBRANCH   3  22
TORSDOF 4
ENDMDL
MODEL 7
REMARK VINA RESULT:      -5.6      2.178      2.676
REMARK  4 active torsions:
REMARK  status: ('A' for Active; 'I' for Inactive)
REMARK    1  A    between atoms: C_3  and  C_15 
REMARK    2  A    between atoms: C_5  and  N_7 
REMARK       I    between atoms: N_7  and  C_8 
REMARK    3  A    between atoms: C_8  and  C_10 
REMARK    4  A    between atoms: C_11  and  C_12 
ROOT
ATOM      1  C   LIG d   1       7.267  -0.725  -4.208  0.00  0.00    -0.059 A 
ATOM      2  C   LIG d   1       6.491  -0.598  -3.070  0.00  0.00    -0.050 A 
ATOM      3  C   LIG d   1       5.137  -0.337  -3.179  0.00  0.00     0.057 A 
ATOM      4  C   LIG d   1       4.555  -0.204  -4.425  0.00  0.00    -0.029 A 
ATOM      5  C   LIG d   1       5.332  -0.331  -5.570  0.00  0.00     0.034 A 
ATOM      6  C   LIG d   1       6.692  -0.593  -5.456  0.00  0.00    -0.040 A 
ATOM      7  H   LIG d   1       8.325  -0.925  -4.120  0.00  0.00     0.062 H 
ATOM      8  H   LIG d   1       6.943  -0.702  -2.095  0.00  0.00     0.062 H 
ATOM      9  H   LIG d   1       3.498  -0.002  -4.508  0.00  0.00     0.064 H 
ATOM     10  H   LIG d   1       7.299  -0.693  -6.344  0.00  0.00     0.064 H 
ENDROOT
BRANCH   5  11
ATOM     11  N   LIG d   1       4.747  -0.197  -6.831  0.00  0.00    -0.282 N 
ATOM     12  C   LIG d   1       4.313  -1.289  -7.491  0.00  0.00     0.241 C 
ATOM     13  O   LIG d   1       4.340  -2.377  -6.952  0.00  0.00    -0.271 OA
ATOM     14  H   LIG d   1       4.655   0.682  -7.232  0.00  0.00     0.155 HD
BRANCH  12  15
ATOM     15  C   LIG d   1       3.802  -1.162  -8.873  0.00  0.00     0.002 C 
ATOM     16  C   LIG d   1       3.853   0.024  -9.501  0.00  0.00    -0.034 C 
ATOM     17  H   LIG d   1       4.266   0.886  -8.997  0.00  0.00     0.064 H 
ATOM     18  H   LIG d   1       3.388  -2.023  -9.377  0.00  0.00     0.067 H 
BRANCH  16  19
ATOM     19  C   LIG d   1       3.343   0.151 -10.878  0.00  0.00     0.065 C 
ATOM     20  O   LIG d   1       2.311  -0.418 -11.204  0.00  0.00    -0.545 OA
ATOM     21  O   LIG d   1       3.953   0.825 -11.696  0.00  0.00    -0.545 OA
ENDBRANCH  16  19
ENDBRANCH  12  15
ENDBRANCH   5  11
BRANCH   3  22
ATOM     22  C   LIG d   1       4.296  -0.199  -1.937  0.00  0.00     0.417 C 
ATOM     23  F   LIG d   1       2.950  -0.068  -2.297  0.00  0.00    -0.166 F 
ATOM     24  F   LIG d   1       4.455  -1.337  -1.137  0.00  0.00    -0.166 F 
ATOM     25  F   LIG d   1       4.700   0.933  -1.222  0.00  0.00    -0.166 F 
ENDBRANCH   3  22
TORSDOF 4
ENDMDL
MODEL 8
REMARK VINA RESULT:      -5.2      5.270      7.246
REMARK  4 active torsions:
REMARK  status: ('A' for Active; 'I' for Inactive)
REMARK    1  A    between atoms: C_3  and  C_15 
REMARK    2  A    between atoms: C_5  and  N_7 
REMARK       I    between atoms: N_7  and  C_8 
REMARK    3  A    between atoms: C_8  and  C_10 
REMARK    4  A    between atoms: C_11  and  C_12 
ROOT
ATOM      1  C   LIG d   1       5.034  -0.758  -5.842  0.00  0.00    -0.059 A 
ATOM      2  C   LIG d   1       4.190  -0.821  -4.748  0.00  0.00    -0.050 A 
ATOM      3  C   LIG d   1       4.611  -1.428  -3.580  0.00  0.00     0.057 A 
ATOM      4  C   LIG d   1       5.877  -1.973  -3.500  0.00  0.00    -0.029 A 
ATOM      5  C   LIG d   1       6.728  -1.912  -4.597  0.00  0.00     0.034 A 
ATOM      6  C   LIG d   1       6.301  -1.302  -5.770  0.00  0.00    -0.040 A 
ATOM      7  H   LIG d   1       4.700  -0.287  -6.756  0.00  0.00     0.062 H 
ATOM      8  H   LIG d   1       3.199  -0.395  -4.808  0.00  0.00     0.062 H 
ATOM      9  H   LIG d   1       6.206  -2.445  -2.587  0.00  0.00     0.064 H 
ATOM     10  H   LIG d   1       6.960  -1.252  -6.624  0.00  0.00     0.064 H 
ENDROOT
BRANCH   5  11
ATOM     11  N   LIG d   1       8.010  -2.463  -4.521  0.00  0.00    -0.282 N 
ATOM     12  C   LIG d   1       8.192  -3.779  -4.744  0.00  0.00     0.241 C 
ATOM     13  O   LIG d   1       7.259  -4.470  -5.105  0.00  0.00    -0.271 OA
ATOM     14  H   LIG d   1       8.769  -1.897  -4.307  0.00  0.00     0.155 HD
BRANCH  12  15
ATOM     15  C   LIG d   1       9.527  -4.384  -4.549  0.00  0.00     0.002 C 
ATOM     16  C   LIG d   1      10.296  -3.995  -3.519  0.00  0.00    -0.034 C 
ATOM     17  H   LIG d   1       9.940  -3.240  -2.834  0.00  0.00     0.064 H 
ATOM     18  H   LIG d   1       9.883  -5.139  -5.234  0.00  0.00     0.067 H 
BRANCH  16  19
ATOM     19  C   LIG d   1      11.627  -4.597  -3.324  0.00  0.00     0.065 C 
ATOM     20  O   LIG d   1      11.729  -5.792  -3.084  0.00  0.00    -0.545 OA
ATOM     21  O   LIG d   1      12.629  -3.902  -3.402  0.00  0.00    -0.545 OA
ENDBRANCH  16  19
ENDBRANCH  12  15
ENDBRANCH   5  11
BRANCH   3  22
ATOM     22  C   LIG d   1       3.688  -1.493  -2.391  0.00  0.00     0.417 C 
ATOM     23  F   LIG d   1       3.512  -2.827  -2.009  0.00  0.00    -0.166 F 
ATOM     24  F   LIG d   1       4.245  -0.773  -1.328  0.00  0.00    -0.166 F 
ATOM     25  F   LIG d   1       2.449  -0.938  -2.730  0.00  0.00    -0.166 F 
ENDBRANCH   3  22
TORSDOF 4
ENDMDL
MODEL 9
REMARK VINA RESULT:      -5.2     12.181     13.562
REMARK  4 active torsions:
REMARK  status: ('A' for Active; 'I' for Inactive)
REMARK    1  A    between atoms: C_3  and  C_15 
REMARK    2  A    between atoms: C_5  and  N_7 
REMARK       I    between atoms: N_7  and  C_8 
REMARK    3  A    between atoms: C_8  and  C_10 
REMARK    4  A    between atoms: C_11  and  C_12 
ROOT
ATOM      1  C   LIG d   1      -6.417   5.143 -14.941  0.00  0.00    -0.059 A 
ATOM      2  C   LIG d   1      -6.507   4.121 -14.013  0.00  0.00    -0.050 A 
ATOM      3  C   LIG d   1      -5.376   3.689 -13.345  0.00  0.00     0.057 A 
ATOM      4  C   LIG d   1      -4.153   4.277 -13.600  0.00  0.00    -0.029 A 
ATOM      5  C   LIG d   1      -4.059   5.303 -14.532  0.00  0.00     0.034 A 
ATOM      6  C   LIG d   1      -5.197   5.735 -15.202  0.00  0.00    -0.040 A 
ATOM      7  H   LIG d   1      -7.301   5.475 -15.465  0.00  0.00     0.062 H 
ATOM      8  H   LIG d   1      -7.462   3.660 -13.811  0.00  0.00     0.062 H 
ATOM      9  H   LIG d   1      -3.271   3.940 -13.077  0.00  0.00     0.064 H 
ATOM     10  H   LIG d   1      -5.127   6.533 -15.927  0.00  0.00     0.064 H 
ENDROOT
BRANCH   5  11
ATOM     11  N   LIG d   1      -2.823   5.900 -14.794  0.00  0.00    -0.282 N 
ATOM     12  C   LIG d   1      -2.624   7.198 -14.488  0.00  0.00     0.241 C 
ATOM     13  O   LIG d   1      -3.482   7.822 -13.897  0.00  0.00    -0.271 OA
ATOM     14  H   LIG d   1      -2.110   5.381 -15.197  0.00  0.00     0.155 HD
BRANCH  12  15
ATOM     15  C   LIG d   1      -1.359   7.861 -14.871  0.00  0.00     0.002 C 
ATOM     16  C   LIG d   1      -1.383   9.093 -15.406  0.00  0.00    -0.034 C 
ATOM     17  H   LIG d   1      -2.325   9.598 -15.558  0.00  0.00     0.064 H 
ATOM     18  H   LIG d   1      -0.417   7.356 -14.719  0.00  0.00     0.067 H 
BRANCH  16  19
ATOM     19  C   LIG d   1      -0.122   9.754 -15.788  0.00  0.00     0.065 C 
ATOM     20  O   LIG d   1      -0.146  10.775 -16.460  0.00  0.00    -0.545 OA
ATOM     21  O   LIG d   1       0.948   9.280 -15.434  0.00  0.00    -0.545 OA
ENDBRANCH  16  19
ENDBRANCH  12  15
ENDBRANCH   5  11
BRANCH   3  22
ATOM     22  C   LIG d   1      -5.479   2.576 -12.334  0.00  0.00     0.417 C 
ATOM     23  F   LIG d   1      -6.704   1.918 -12.488  0.00  0.00    -0.166 F 
ATOM     24  F   LIG d   1      -4.434   1.668 -12.532  0.00  0.00    -0.166 F 
ATOM     25  F   LIG d   1      -5.395   3.108 -11.043  0.00  0.00    -0.166 F 
ENDBRANCH   3  22
TORSDOF 4
ENDMDL
MODEL 10
REMARK VINA RESULT:      -5.0     12.315     14.223
REMARK  4 active torsions:
REMARK  status: ('A' for Active; 'I' for Inactive)
REMARK    1  A    between atoms: C_3  and  C_15 
REMARK    2  A    between atoms: C_5  and  N_7 
REMARK       I    between atoms: N_7  and  C_8 
REMARK    3  A    between atoms: C_8  and  C_10 
REMARK    4  A    between atoms: C_11  and  C_12 
ROOT
ATOM      1  C   LIG d   1      -3.557   9.931 -15.263  0.00  0.00    -0.059 A 
ATOM      2  C   LIG d   1      -2.265  10.257 -15.633  0.00  0.00    -0.050 A 
ATOM      3  C   LIG d   1      -1.245   9.336 -15.479  0.00  0.00     0.057 A 
ATOM      4  C   LIG d   1      -1.514   8.086 -14.957  0.00  0.00    -0.029 A 
ATOM      5  C   LIG d   1      -2.810   7.755 -14.583  0.00  0.00     0.034 A 
ATOM      6  C   LIG d   1      -3.832   8.683 -14.739  0.00  0.00    -0.040 A 
ATOM      7  H   LIG d   1      -4.351  10.654 -15.379  0.00  0.00     0.062 H 
ATOM      8  H   LIG d   1      -2.053  11.233 -16.042  0.00  0.00     0.062 H 
ATOM      9  H   LIG d   1      -0.717   7.367 -14.839  0.00  0.00     0.064 H 
ATOM     10  H   LIG d   1      -4.842   8.429 -14.450  0.00  0.00     0.064 H 
ENDROOT
BRANCH   5  11
ATOM     11  N   LIG d   1      -3.086   6.491 -14.054  0.00  0.00    -0.282 N 
ATOM     12  C   LIG d   1      -3.566   5.517 -14.852  0.00  0.00     0.241 C 
ATOM     13  O   LIG d   1      -3.670   5.706 -16.048  0.00  0.00    -0.271 OA
ATOM     14  H   LIG d   1      -2.932   6.316 -13.112  0.00  0.00     0.155 HD
BRANCH  12  15
ATOM     15  C   LIG d   1      -3.969   4.218 -14.271  0.00  0.00     0.002 C 
ATOM     16  C   LIG d   1      -4.398   4.155 -13.000  0.00  0.00    -0.034 C 
ATOM     17  H   LIG d   1      -4.450   5.053 -12.402  0.00  0.00     0.064 H 
ATOM     18  H   LIG d   1      -3.917   3.320 -14.870  0.00  0.00     0.067 H 
BRANCH  16  19
ATOM     19  C   LIG d   1      -4.799   2.860 -12.422  0.00  0.00     0.065 C 
ATOM     20  O   LIG d   1      -4.321   1.822 -12.855  0.00  0.00    -0.545 OA
ATOM     21  O   LIG d   1      -5.610   2.825 -11.508  0.00  0.00    -0.545 OA
ENDBRANCH  16  19
ENDBRANCH  12  15
ENDBRANCH   5  11
BRANCH   3  22
ATOM     22  C   LIG d   1       0.160   9.696 -15.885  0.00  0.00     0.417 C 
ATOM     23  F   LIG d   1       0.326  11.083 -15.815  0.00  0.00    -0.166 F 
ATOM     24  F   LIG d   1       1.069   9.074 -15.021  0.00  0.00    -0.166 F 
ATOM     25  F   LIG d   1       0.394   9.264 -17.195  0.00  0.00    -0.166 F 
ENDBRANCH   3  22
TORSDOF 4
ENDMDL
