MODEL 1
REMARK VINA RESULT:      -7.8      0.000      0.000
REMARK  6 active torsions:
REMARK  status: ('A' for Active; 'I' for Inactive)
REMARK    1  A    between atoms: C_4  and  C_7 
REMARK    2  A    between atoms: C_7  and  C_8 
REMARK       I    between atoms: C_8  and  N_10 
REMARK    3  A    between atoms: N_10  and  N_11 
REMARK    4  A    between atoms: N_19  and  C_22 
REMARK    5  A    between atoms: C_22  and  N_23 
REMARK    6  A    between atoms: C_28  and  C_30 
ROOT
ATOM      1  N   LIG d   1       3.178   0.733  -6.531  0.00  0.00    -0.174 NA
ATOM      2  C   LIG d   1       3.668  -0.105  -5.650  0.00  0.00     0.153 A 
ATOM      3  C   LIG d   1       3.862   0.123  -4.198  0.00  0.00     0.028 A 
ATOM      4  C   LIG d   1       3.611   1.205  -3.363  0.00  0.00    -0.051 A 
ATOM      5  C   LIG d   1       3.906   1.113  -2.017  0.00  0.00    -0.061 A 
ATOM      6  C   LIG d   1       4.449  -0.052  -1.503  0.00  0.00    -0.060 A 
ATOM      7  C   LIG d   1       4.702  -1.132  -2.325  0.00  0.00    -0.040 A 
ATOM      8  C   LIG d   1       4.412  -1.059  -3.683  0.00  0.00     0.047 A 
ATOM      9  N   LIG d   1       4.564  -1.982  -4.711  0.00  0.00    -0.252 N 
ATOM     10  C   LIG d   1       4.141  -1.484  -5.886  0.00  0.00     0.272 A 
ATOM     11  O   LIG d   1       4.149  -2.066  -6.955  0.00  0.00    -0.268 OA
ATOM     12  H   LIG d   1       3.188   2.113  -3.764  0.00  0.00     0.062 H 
ATOM     13  H   LIG d   1       3.713   1.951  -1.364  0.00  0.00     0.062 H 
ATOM     14  H   LIG d   1       4.677  -0.117  -0.449  0.00  0.00     0.062 H 
ATOM     15  H   LIG d   1       5.125  -2.036  -1.913  0.00  0.00     0.064 H 
ENDROOT
BRANCH   9  16
ATOM     16  C   LIG d   1       5.111  -3.329  -4.537  0.00  0.00     0.073 C 
ATOM     17  H   LIG d   1       5.093  -3.596  -3.481  0.00  0.00     0.064 H 
ATOM     18  H   LIG d   1       4.509  -4.042  -5.102  0.00  0.00     0.064 H 
BRANCH  16  19
ATOM     19  N   LIG d   1       6.496  -3.363  -5.028  0.00  0.00    -0.280 N 
ATOM     20  C   LIG d   1       6.915  -4.738  -5.327  0.00  0.00     0.038 C 
ATOM     21  C   LIG d   1       8.304  -4.722  -5.968  0.00  0.00    -0.033 C 
ATOM     22  H   LIG d   1       6.949  -5.317  -4.404  0.00  0.00     0.051 H 
ATOM     23  C   LIG d   1       9.297  -4.063  -5.007  0.00  0.00    -0.050 C 
ATOM     24  H   LIG d   1       8.268  -4.154  -6.899  0.00  0.00     0.028 H 
ATOM     25  H   LIG d   1       8.621  -5.744  -6.177  0.00  0.00     0.028 H 
ATOM     26  C   LIG d   1       8.812  -2.649  -4.674  0.00  0.00    -0.040 C 
ATOM     27  H   LIG d   1      10.279  -4.010  -5.478  0.00  0.00     0.027 H 
ATOM     28  H   LIG d   1       9.363  -4.651  -4.092  0.00  0.00     0.027 H 
ATOM     29  C   LIG d   1       7.408  -2.727  -4.069  0.00  0.00     0.001 C 
ATOM     30  H   LIG d   1       8.784  -2.050  -5.583  0.00  0.00     0.028 H 
ATOM     31  H   LIG d   1       9.493  -2.192  -3.956  0.00  0.00     0.028 H 
ATOM     32  H   LIG d   1       7.054  -1.721  -3.843  0.00  0.00     0.043 H 
ATOM     33  H   LIG d   1       7.440  -3.315  -3.152  0.00  0.00     0.043 H 
BRANCH  20  34
ATOM     34  C   LIG d   1       5.930  -5.368  -6.278  0.00  0.00    -0.012 A 
ATOM     35  C   LIG d   1       5.045  -6.331  -5.833  0.00  0.00     0.032 A 
ATOM     36  N   LIG d   1       4.176  -6.882  -6.658  0.00  0.00    -0.263 NA
ATOM     37  H   LIG d   1       5.061  -6.631  -4.795  0.00  0.00     0.083 H 
ATOM     38  C   LIG d   1       4.124  -6.550  -7.933  0.00  0.00     0.028 A 
ATOM     39  C   LIG d   1       4.983  -5.599  -8.451  0.00  0.00    -0.043 A 
ATOM     40  H   LIG d   1       3.402  -7.027  -8.579  0.00  0.00     0.083 H 
ATOM     41  C   LIG d   1       5.905  -4.994  -7.614  0.00  0.00    -0.054 A 
ATOM     42  H   LIG d   1       4.935  -5.332  -9.496  0.00  0.00     0.063 H 
ATOM     43  H   LIG d   1       6.588  -4.247  -7.991  0.00  0.00     0.062 H 
ENDBRANCH  20  34
ENDBRANCH  16  19
ENDBRANCH   9  16
BRANCH   1  44
ATOM     44  N   LIG d   1       3.060   0.349  -7.873  0.00  0.00    -0.206 N 
ATOM     45  C   LIG d   1       3.453   1.188  -8.851  0.00  0.00     0.236 C 
ATOM     46  O   LIG d   1       3.909   2.275  -8.570  0.00  0.00    -0.274 OA
ATOM     47  H   LIG d   1       2.695  -0.520  -8.097  0.00  0.00     0.177 HD
BRANCH  45  48
ATOM     48  C   LIG d   1       3.324   0.775 -10.295  0.00  0.00     0.051 C 
ATOM     49  H   LIG d   1       4.271   0.945 -10.808  0.00  0.00     0.041 H 
ATOM     50  H   LIG d   1       2.541   1.364 -10.772  0.00  0.00     0.041 H 
BRANCH  48  51
ATOM     51  C   LIG d   1       2.968  -0.688 -10.369  0.00  0.00    -0.039 A 
ATOM     52  C   LIG d   1       3.966  -1.637 -10.483  0.00  0.00    -0.058 A 
ATOM     53  C   LIG d   1       3.640  -2.978 -10.549  0.00  0.00    -0.061 A 
ATOM     54  H   LIG d   1       5.002  -1.330 -10.519  0.00  0.00     0.062 H 
ATOM     55  C   LIG d   1       2.316  -3.371 -10.502  0.00  0.00    -0.062 A 
ATOM     56  H   LIG d   1       4.420  -3.721 -10.639  0.00  0.00     0.062 H 
ATOM     57  C   LIG d   1       1.317  -2.422 -10.387  0.00  0.00    -0.061 A 
ATOM     58  H   LIG d   1       2.060  -4.419 -10.559  0.00  0.00     0.062 H 
ATOM     59  C   LIG d   1       1.644  -1.080 -10.322  0.00  0.00    -0.058 A 
ATOM     60  H   LIG d   1       0.282  -2.728 -10.350  0.00  0.00     0.062 H 
ATOM     61  H   LIG d   1       0.863  -0.338 -10.233  0.00  0.00     0.062 H 
ENDBRANCH  48  51
ENDBRANCH  45  48
ENDBRANCH   1  44
TORSDOF 6
ENDMDL
MODEL 2
REMARK VINA RESULT:      -7.6      2.379      5.805
REMARK  6 active torsions:
REMARK  status: ('A' for Active; 'I' for Inactive)
REMARK    1  A    between atoms: C_4  and  C_7 
REMARK    2  A    between atoms: C_7  and  C_8 
REMARK       I    between atoms: C_8  and  N_10 
REMARK    3  A    between atoms: N_10  and  N_11 
REMARK    4  A    between atoms: N_19  and  C_22 
REMARK    5  A    between atoms: C_22  and  N_23 
REMARK    6  A    between atoms: C_28  and  C_30 
ROOT
ATOM      1  N   LIG d   1       3.966  -3.789  -7.890  0.00  0.00    -0.174 NA
ATOM      2  C   LIG d   1       4.912  -3.655  -6.994  0.00  0.00     0.153 A 
ATOM      3  C   LIG d   1       5.877  -4.684  -6.539  0.00  0.00     0.028 A 
ATOM      4  C   LIG d   1       6.079  -6.016  -6.881  0.00  0.00    -0.051 A 
ATOM      5  C   LIG d   1       7.086  -6.735  -6.267  0.00  0.00    -0.061 A 
ATOM      6  C   LIG d   1       7.889  -6.131  -5.315  0.00  0.00    -0.060 A 
ATOM      7  C   LIG d   1       7.696  -4.809  -4.969  0.00  0.00    -0.040 A 
ATOM      8  C   LIG d   1       6.687  -4.069  -5.576  0.00  0.00     0.047 A 
ATOM      9  N   LIG d   1       6.287  -2.747  -5.415  0.00  0.00    -0.252 N 
ATOM     10  C   LIG d   1       5.256  -2.443  -6.222  0.00  0.00     0.272 A 
ATOM     11  O   LIG d   1       4.702  -1.362  -6.301  0.00  0.00    -0.268 OA
ATOM     12  H   LIG d   1       5.452  -6.486  -7.623  0.00  0.00     0.062 H 
ATOM     13  H   LIG d   1       7.246  -7.770  -6.530  0.00  0.00     0.062 H 
ATOM     14  H   LIG d   1       8.675  -6.699  -4.839  0.00  0.00     0.062 H 
ATOM     15  H   LIG d   1       8.328  -4.348  -4.225  0.00  0.00     0.064 H 
ENDROOT
BRANCH   9  16
ATOM     16  C   LIG d   1       6.913  -1.802  -4.487  0.00  0.00     0.073 C 
ATOM     17  H   LIG d   1       7.463  -2.351  -3.723  0.00  0.00     0.064 H 
ATOM     18  H   LIG d   1       7.599  -1.155  -5.035  0.00  0.00     0.064 H 
BRANCH  16  19
ATOM     19  N   LIG d   1       5.874  -0.982  -3.848  0.00  0.00    -0.280 N 
ATOM     20  C   LIG d   1       6.458   0.204  -3.209  0.00  0.00     0.038 C 
ATOM     21  C   LIG d   1       5.340   1.105  -2.682  0.00  0.00    -0.033 C 
ATOM     22  H   LIG d   1       7.095  -0.107  -2.380  0.00  0.00     0.051 H 
ATOM     23  C   LIG d   1       4.493   0.323  -1.674  0.00  0.00    -0.050 C 
ATOM     24  H   LIG d   1       4.710   1.428  -3.513  0.00  0.00     0.028 H 
ATOM     25  H   LIG d   1       5.774   1.978  -2.194  0.00  0.00     0.028 H 
ATOM     26  C   LIG d   1       3.935  -0.932  -2.352  0.00  0.00    -0.040 C 
ATOM     27  H   LIG d   1       3.669   0.948  -1.328  0.00  0.00     0.027 H 
ATOM     28  H   LIG d   1       5.112   0.034  -0.825  0.00  0.00     0.027 H 
ATOM     29  C   LIG d   1       5.096  -1.774  -2.888  0.00  0.00     0.001 C 
ATOM     30  H   LIG d   1       3.285  -0.641  -3.177  0.00  0.00     0.028 H 
ATOM     31  H   LIG d   1       3.368  -1.515  -1.627  0.00  0.00     0.028 H 
ATOM     32  H   LIG d   1       4.702  -2.661  -3.383  0.00  0.00     0.043 H 
ATOM     33  H   LIG d   1       5.738  -2.075  -2.060  0.00  0.00     0.043 H 
BRANCH  20  34
ATOM     34  C   LIG d   1       7.282   0.964  -4.216  0.00  0.00    -0.012 A 
ATOM     35  C   LIG d   1       6.981   0.893  -5.563  0.00  0.00     0.032 A 
ATOM     36  N   LIG d   1       7.694   1.559  -6.450  0.00  0.00    -0.263 NA
ATOM     37  H   LIG d   1       6.148   0.289  -5.892  0.00  0.00     0.083 H 
ATOM     38  C   LIG d   1       8.722   2.304  -6.095  0.00  0.00     0.028 A 
ATOM     39  C   LIG d   1       9.087   2.418  -4.766  0.00  0.00    -0.043 A 
ATOM     40  H   LIG d   1       9.285   2.832  -6.850  0.00  0.00     0.083 H 
ATOM     41  C   LIG d   1       8.358   1.737  -3.805  0.00  0.00    -0.054 A 
ATOM     42  H   LIG d   1       9.930   3.030  -4.482  0.00  0.00     0.063 H 
ATOM     43  H   LIG d   1       8.620   1.807  -2.759  0.00  0.00     0.062 H 
ENDBRANCH  20  34
ENDBRANCH  16  19
ENDBRANCH   9  16
BRANCH   1  44
ATOM     44  N   LIG d   1       3.141  -2.701  -8.205  0.00  0.00    -0.206 N 
ATOM     45  C   LIG d   1       2.619  -2.588  -9.443  0.00  0.00     0.236 C 
ATOM     46  O   LIG d   1       2.863  -3.428 -10.282  0.00  0.00    -0.274 OA
ATOM     47  H   LIG d   1       2.946  -2.030  -7.534  0.00  0.00     0.177 HD
BRANCH  45  48
ATOM     48  C   LIG d   1       1.733  -1.418  -9.782  0.00  0.00     0.051 C 
ATOM     49  H   LIG d   1       0.939  -1.335  -9.040  0.00  0.00     0.041 H 
ATOM     50  H   LIG d   1       1.294  -1.569 -10.768  0.00  0.00     0.041 H 
BRANCH  48  51
ATOM     51  C   LIG d   1       2.552  -0.152  -9.786  0.00  0.00    -0.039 A 
ATOM     52  C   LIG d   1       3.398   0.121 -10.844  0.00  0.00    -0.058 A 
ATOM     53  C   LIG d   1       4.148   1.282 -10.847  0.00  0.00    -0.061 A 
ATOM     54  H   LIG d   1       3.473  -0.573 -11.668  0.00  0.00     0.062 H 
ATOM     55  C   LIG d   1       4.051   2.170  -9.792  0.00  0.00    -0.062 A 
ATOM     56  H   LIG d   1       4.810   1.495 -11.674  0.00  0.00     0.062 H 
ATOM     57  C   LIG d   1       3.205   1.898  -8.735  0.00  0.00    -0.061 A 
ATOM     58  H   LIG d   1       4.641   3.075  -9.793  0.00  0.00     0.062 H 
ATOM     59  C   LIG d   1       2.456   0.735  -8.730  0.00  0.00    -0.058 A 
ATOM     60  H   LIG d   1       3.130   2.591  -7.910  0.00  0.00     0.062 H 
ATOM     61  H   LIG d   1       1.794   0.522  -7.903  0.00  0.00     0.062 H 
ENDBRANCH  48  51
ENDBRANCH  45  48
ENDBRANCH   1  44
TORSDOF 6
ENDMDL
MODEL 3
REMARK VINA RESULT:      -7.5      4.388      6.465
REMARK  6 active torsions:
REMARK  status: ('A' for Active; 'I' for Inactive)
REMARK    1  A    between atoms: C_4  and  C_7 
REMARK    2  A    between atoms: C_7  and  C_8 
REMARK       I    between atoms: C_8  and  N_10 
REMARK    3  A    between atoms: N_10  and  N_11 
REMARK    4  A    between atoms: N_19  and  C_22 
REMARK    5  A    between atoms: C_22  and  N_23 
REMARK    6  A    between atoms: C_28  and  C_30 
ROOT
ATOM      1  N   LIG d   1       7.137   1.740  -3.949  0.00  0.00    -0.174 NA
ATOM      2  C   LIG d   1       6.642   0.577  -4.296  0.00  0.00     0.153 A 
ATOM      3  C   LIG d   1       5.686  -0.261  -3.533  0.00  0.00     0.028 A 
ATOM      4  C   LIG d   1       5.053  -0.104  -2.306  0.00  0.00    -0.051 A 
ATOM      5  C   LIG d   1       4.192  -1.084  -1.850  0.00  0.00    -0.061 A 
ATOM      6  C   LIG d   1       3.963  -2.216  -2.613  0.00  0.00    -0.060 A 
ATOM      7  C   LIG d   1       4.587  -2.380  -3.833  0.00  0.00    -0.040 A 
ATOM      8  C   LIG d   1       5.457  -1.405  -4.309  0.00  0.00     0.047 A 
ATOM      9  N   LIG d   1       6.200  -1.322  -5.481  0.00  0.00    -0.252 N 
ATOM     10  C   LIG d   1       6.911  -0.182  -5.534  0.00  0.00     0.272 A 
ATOM     11  O   LIG d   1       7.646   0.162  -6.441  0.00  0.00    -0.268 OA
ATOM     12  H   LIG d   1       5.233   0.778  -1.712  0.00  0.00     0.062 H 
ATOM     13  H   LIG d   1       3.699  -0.967  -0.897  0.00  0.00     0.062 H 
ATOM     14  H   LIG d   1       3.289  -2.978  -2.250  0.00  0.00     0.062 H 
ATOM     15  H   LIG d   1       4.400  -3.267  -4.420  0.00  0.00     0.064 H 
ENDROOT
BRANCH   9  16
ATOM     16  C   LIG d   1       6.205  -2.346  -6.529  0.00  0.00     0.073 C 
ATOM     17  H   LIG d   1       7.035  -2.164  -7.212  0.00  0.00     0.064 H 
ATOM     18  H   LIG d   1       6.318  -3.331  -6.075  0.00  0.00     0.064 H 
BRANCH  16  19
ATOM     19  N   LIG d   1       4.938  -2.293  -7.271  0.00  0.00    -0.280 N 
ATOM     20  C   LIG d   1       4.759  -3.495  -8.095  0.00  0.00     0.038 C 
ATOM     21  C   LIG d   1       3.371  -3.473  -8.738  0.00  0.00    -0.033 C 
ATOM     22  H   LIG d   1       5.520  -3.518  -8.875  0.00  0.00     0.051 H 
ATOM     23  C   LIG d   1       3.234  -2.216  -9.601  0.00  0.00    -0.050 C 
ATOM     24  H   LIG d   1       2.608  -3.464  -7.958  0.00  0.00     0.028 H 
ATOM     25  H   LIG d   1       3.244  -4.359  -9.361  0.00  0.00     0.028 H 
ATOM     26  C   LIG d   1       3.472  -0.980  -8.730  0.00  0.00    -0.040 C 
ATOM     27  H   LIG d   1       2.231  -2.174 -10.027  0.00  0.00     0.027 H 
ATOM     28  H   LIG d   1       3.970  -2.243 -10.404  0.00  0.00     0.027 H 
ATOM     29  C   LIG d   1       4.858  -1.074  -8.087  0.00  0.00     0.001 C 
ATOM     30  H   LIG d   1       2.711  -0.932  -7.950  0.00  0.00     0.028 H 
ATOM     31  H   LIG d   1       3.418  -0.084  -9.348  0.00  0.00     0.028 H 
ATOM     32  H   LIG d   1       5.025  -0.202  -7.455  0.00  0.00     0.043 H 
ATOM     33  H   LIG d   1       5.618  -1.109  -8.867  0.00  0.00     0.043 H 
BRANCH  20  34
ATOM     34  C   LIG d   1       4.892  -4.721  -7.228  0.00  0.00    -0.012 A 
ATOM     35  C   LIG d   1       3.911  -5.036  -6.307  0.00  0.00     0.032 A 
ATOM     36  N   LIG d   1       4.017  -6.111  -5.550  0.00  0.00    -0.263 NA
ATOM     37  H   LIG d   1       3.045  -4.398  -6.210  0.00  0.00     0.083 H 
ATOM     38  C   LIG d   1       5.059  -6.916  -5.629  0.00  0.00     0.028 A 
ATOM     39  C   LIG d   1       6.082  -6.660  -6.524  0.00  0.00    -0.043 A 
ATOM     40  H   LIG d   1       5.113  -7.784  -4.989  0.00  0.00     0.083 H 
ATOM     41  C   LIG d   1       6.003  -5.544  -7.340  0.00  0.00    -0.054 A 
ATOM     42  H   LIG d   1       6.932  -7.324  -6.585  0.00  0.00     0.063 H 
ATOM     43  H   LIG d   1       6.787  -5.321  -8.049  0.00  0.00     0.062 H 
ENDBRANCH  20  34
ENDBRANCH  16  19
ENDBRANCH   9  16
BRANCH   1  44
ATOM     44  N   LIG d   1       8.033   2.401  -4.800  0.00  0.00    -0.206 N 
ATOM     45  C   LIG d   1       9.314   2.579  -4.422  0.00  0.00     0.236 C 
ATOM     46  O   LIG d   1       9.691   2.166  -3.347  0.00  0.00    -0.274 OA
ATOM     47  H   LIG d   1       7.730   2.731  -5.660  0.00  0.00     0.177 HD
BRANCH  45  48
ATOM     48  C   LIG d   1      10.277   3.292  -5.336  0.00  0.00     0.051 C 
ATOM     49  H   LIG d   1      10.196   2.881  -6.343  0.00  0.00     0.041 H 
ATOM     50  H   LIG d   1      11.293   3.156  -4.969  0.00  0.00     0.041 H 
BRANCH  48  51
ATOM     51  C   LIG d   1       9.946   4.762  -5.366  0.00  0.00    -0.039 A 
ATOM     52  C   LIG d   1       9.660   5.431  -4.191  0.00  0.00    -0.058 A 
ATOM     53  C   LIG d   1       9.358   6.779  -4.218  0.00  0.00    -0.061 A 
ATOM     54  H   LIG d   1       9.673   4.899  -3.250  0.00  0.00     0.062 H 
ATOM     55  C   LIG d   1       9.342   7.459  -5.421  0.00  0.00    -0.062 A 
ATOM     56  H   LIG d   1       9.134   7.302  -3.299  0.00  0.00     0.062 H 
ATOM     57  C   LIG d   1       9.628   6.791  -6.597  0.00  0.00    -0.061 A 
ATOM     58  H   LIG d   1       9.101   8.512  -5.444  0.00  0.00     0.062 H 
ATOM     59  C   LIG d   1       9.929   5.442  -6.570  0.00  0.00    -0.058 A 
ATOM     60  H   LIG d   1       9.615   7.323  -7.537  0.00  0.00     0.062 H 
ATOM     61  H   LIG d   1      10.153   4.920  -7.489  0.00  0.00     0.062 H 
ENDBRANCH  48  51
ENDBRANCH  45  48
ENDBRANCH   1  44
TORSDOF 6
ENDMDL
MODEL 4
REMARK VINA RESULT:      -7.5      3.843      6.837
REMARK  6 active torsions:
REMARK  status: ('A' for Active; 'I' for Inactive)
REMARK    1  A    between atoms: C_4  and  C_7 
REMARK    2  A    between atoms: C_7  and  C_8 
REMARK       I    between atoms: C_8  and  N_10 
REMARK    3  A    between atoms: N_10  and  N_11 
REMARK    4  A    between atoms: N_19  and  C_22 
REMARK    5  A    between atoms: C_22  and  N_23 
REMARK    6  A    between atoms: C_28  and  C_30 
ROOT
ATOM      1  N   LIG d   1       6.702   1.668  -8.981  0.00  0.00    -0.174 NA
ATOM      2  C   LIG d   1       5.721   0.967  -8.468  0.00  0.00     0.153 A 
ATOM      3  C   LIG d   1       4.406   0.671  -9.083  0.00  0.00     0.028 A 
ATOM      4  C   LIG d   1       3.827   1.009 -10.301  0.00  0.00    -0.051 A 
ATOM      5  C   LIG d   1       2.551   0.572 -10.597  0.00  0.00    -0.061 A 
ATOM      6  C   LIG d   1       1.852  -0.198  -9.684  0.00  0.00    -0.060 A 
ATOM      7  C   LIG d   1       2.418  -0.539  -8.472  0.00  0.00    -0.040 A 
ATOM      8  C   LIG d   1       3.702  -0.109  -8.156  0.00  0.00     0.047 A 
ATOM      9  N   LIG d   1       4.491  -0.307  -7.029  0.00  0.00    -0.252 N 
ATOM     10  C   LIG d   1       5.688   0.293  -7.154  0.00  0.00     0.272 A 
ATOM     11  O   LIG d   1       6.583   0.286  -6.329  0.00  0.00    -0.268 OA
ATOM     12  H   LIG d   1       4.373   1.610 -11.012  0.00  0.00     0.062 H 
ATOM     13  H   LIG d   1       2.097   0.833 -11.541  0.00  0.00     0.062 H 
ATOM     14  H   LIG d   1       0.854  -0.537  -9.922  0.00  0.00     0.062 H 
ATOM     15  H   LIG d   1       1.863  -1.141  -7.767  0.00  0.00     0.064 H 
ENDROOT
BRANCH   9  16
ATOM     16  C   LIG d   1       4.075  -1.078  -5.855  0.00  0.00     0.073 C 
ATOM     17  H   LIG d   1       3.011  -1.299  -5.923  0.00  0.00     0.064 H 
ATOM     18  H   LIG d   1       4.639  -2.011  -5.814  0.00  0.00     0.064 H 
BRANCH  16  19
ATOM     19  N   LIG d   1       4.337  -0.296  -4.638  0.00  0.00    -0.280 N 
ATOM     20  C   LIG d   1       4.634  -1.176  -3.501  0.00  0.00     0.038 C 
ATOM     21  C   LIG d   1       5.041  -0.331  -2.292  0.00  0.00    -0.033 C 
ATOM     22  H   LIG d   1       3.747  -1.761  -3.252  0.00  0.00     0.051 H 
ATOM     23  C   LIG d   1       3.900   0.626  -1.937  0.00  0.00    -0.050 C 
ATOM     24  H   LIG d   1       5.936   0.244  -2.535  0.00  0.00     0.028 H 
ATOM     25  H   LIG d   1       5.246  -0.984  -1.443  0.00  0.00     0.028 H 
ATOM     26  C   LIG d   1       3.579   1.499  -3.154  0.00  0.00    -0.040 C 
ATOM     27  H   LIG d   1       4.203   1.261  -1.104  0.00  0.00     0.027 H 
ATOM     28  H   LIG d   1       3.017   0.053  -1.656  0.00  0.00     0.027 H 
ATOM     29  C   LIG d   1       3.214   0.599  -4.338  0.00  0.00     0.001 C 
ATOM     30  H   LIG d   1       4.450   2.102  -3.410  0.00  0.00     0.028 H 
ATOM     31  H   LIG d   1       2.739   2.152  -2.921  0.00  0.00     0.028 H 
ATOM     32  H   LIG d   1       2.997   1.217  -5.209  0.00  0.00     0.043 H 
ATOM     33  H   LIG d   1       2.334   0.007  -4.085  0.00  0.00     0.043 H 
BRANCH  20  34
ATOM     34  C   LIG d   1       5.762  -2.107  -3.866  0.00  0.00    -0.012 A 
ATOM     35  C   LIG d   1       5.514  -3.253  -4.596  0.00  0.00     0.032 A 
ATOM     36  N   LIG d   1       6.497  -4.069  -4.925  0.00  0.00    -0.263 NA
ATOM     37  H   LIG d   1       4.505  -3.480  -4.907  0.00  0.00     0.083 H 
ATOM     38  C   LIG d   1       7.743  -3.835  -4.563  0.00  0.00     0.028 A 
ATOM     39  C   LIG d   1       8.065  -2.711  -3.825  0.00  0.00    -0.043 A 
ATOM     40  H   LIG d   1       8.521  -4.528  -4.846  0.00  0.00     0.083 H 
ATOM     41  C   LIG d   1       7.060  -1.827  -3.466  0.00  0.00    -0.054 A 
ATOM     42  H   LIG d   1       9.088  -2.525  -3.532  0.00  0.00     0.063 H 
ATOM     43  H   LIG d   1       7.282  -0.941  -2.891  0.00  0.00     0.062 H 
ENDBRANCH  20  34
ENDBRANCH  16  19
ENDBRANCH   9  16
BRANCH   1  44
ATOM     44  N   LIG d   1       7.889   1.845  -8.258  0.00  0.00    -0.206 N 
ATOM     45  C   LIG d   1       8.736   2.841  -8.586  0.00  0.00     0.236 C 
ATOM     46  O   LIG d   1       8.470   3.584  -9.506  0.00  0.00    -0.274 OA
ATOM     47  H   LIG d   1       8.102   1.251  -7.522  0.00  0.00     0.177 HD
BRANCH  45  48
ATOM     48  C   LIG d   1      10.013   3.031  -7.809  0.00  0.00     0.051 C 
ATOM     49  H   LIG d   1      10.780   3.444  -8.464  0.00  0.00     0.041 H 
ATOM     50  H   LIG d   1      10.347   2.070  -7.419  0.00  0.00     0.041 H 
BRANCH  48  51
ATOM     51  C   LIG d   1       9.767   3.980  -6.663  0.00  0.00    -0.039 A 
ATOM     52  C   LIG d   1       9.392   3.488  -5.427  0.00  0.00    -0.058 A 
ATOM     53  C   LIG d   1       9.169   4.358  -4.377  0.00  0.00    -0.061 A 
ATOM     54  H   LIG d   1       9.274   2.424  -5.282  0.00  0.00     0.062 H 
ATOM     55  C   LIG d   1       9.320   5.719  -4.562  0.00  0.00    -0.062 A 
ATOM     56  H   LIG d   1       8.875   3.974  -3.410  0.00  0.00     0.062 H 
ATOM     57  C   LIG d   1       9.696   6.211  -5.798  0.00  0.00    -0.061 A 
ATOM     58  H   LIG d   1       9.141   6.399  -3.742  0.00  0.00     0.062 H 
ATOM     59  C   LIG d   1       9.918   5.341  -6.849  0.00  0.00    -0.058 A 
ATOM     60  H   LIG d   1       9.814   7.274  -5.943  0.00  0.00     0.062 H 
ATOM     61  H   LIG d   1      10.212   5.726  -7.815  0.00  0.00     0.062 H 
ENDBRANCH  48  51
ENDBRANCH  45  48
ENDBRANCH   1  44
TORSDOF 6
ENDMDL
MODEL 5
REMARK VINA RESULT:      -7.4      4.412      7.459
REMARK  6 active torsions:
REMARK  status: ('A' for Active; 'I' for Inactive)
REMARK    1  A    between atoms: C_4  and  C_7 
REMARK    2  A    between atoms: C_7  and  C_8 
REMARK       I    between atoms: C_8  and  N_10 
REMARK    3  A    between atoms: N_10  and  N_11 
REMARK    4  A    between atoms: N_19  and  C_22 
REMARK    5  A    between atoms: C_22  and  N_23 
REMARK    6  A    between atoms: C_28  and  C_30 
ROOT
ATOM      1  N   LIG d   1       5.268   0.319  -7.289  0.00  0.00    -0.174 NA
ATOM      2  C   LIG d   1       6.556   0.411  -7.062  0.00  0.00     0.153 A 
ATOM      3  C   LIG d   1       7.621   0.757  -8.033  0.00  0.00     0.028 A 
ATOM      4  C   LIG d   1       7.609   1.071  -9.387  0.00  0.00    -0.051 A 
ATOM      5  C   LIG d   1       8.796   1.356 -10.034  0.00  0.00    -0.061 A 
ATOM      6  C   LIG d   1       9.990   1.328  -9.336  0.00  0.00    -0.060 A 
ATOM      7  C   LIG d   1      10.013   1.017  -7.991  0.00  0.00    -0.040 A 
ATOM      8  C   LIG d   1       8.828   0.727  -7.322  0.00  0.00     0.047 A 
ATOM      9  N   LIG d   1       8.574   0.391  -5.997  0.00  0.00    -0.252 N 
ATOM     10  C   LIG d   1       7.261   0.199  -5.782  0.00  0.00     0.272 A 
ATOM     11  O   LIG d   1       6.746  -0.099  -4.720  0.00  0.00    -0.268 OA
ATOM     12  H   LIG d   1       6.677   1.092  -9.930  0.00  0.00     0.062 H 
ATOM     13  H   LIG d   1       8.791   1.599 -11.085  0.00  0.00     0.062 H 
ATOM     14  H   LIG d   1      10.915   1.551  -9.848  0.00  0.00     0.062 H 
ATOM     15  H   LIG d   1      10.951   0.998  -7.457  0.00  0.00     0.064 H 
ENDROOT
BRANCH   9  16
ATOM     16  C   LIG d   1       9.605   0.266  -4.965  0.00  0.00     0.073 C 
ATOM     17  H   LIG d   1       9.196  -0.258  -4.102  0.00  0.00     0.064 H 
ATOM     18  H   LIG d   1      10.452  -0.295  -5.363  0.00  0.00     0.064 H 
BRANCH  16  19
ATOM     19  N   LIG d   1      10.055   1.605  -4.558  0.00  0.00    -0.280 N 
ATOM     20  C   LIG d   1      11.343   1.537  -3.856  0.00  0.00     0.038 C 
ATOM     21  C   LIG d   1      11.849   2.953  -3.576  0.00  0.00    -0.033 C 
ATOM     22  H   LIG d   1      11.216   1.004  -2.914  0.00  0.00     0.051 H 
ATOM     23  C   LIG d   1      10.819   3.698  -2.722  0.00  0.00    -0.050 C 
ATOM     24  H   LIG d   1      11.990   3.483  -4.520  0.00  0.00     0.028 H 
ATOM     25  H   LIG d   1      12.798   2.903  -3.042  0.00  0.00     0.028 H 
ATOM     26  C   LIG d   1       9.475   3.713  -3.454  0.00  0.00    -0.040 C 
ATOM     27  H   LIG d   1      11.156   4.722  -2.556  0.00  0.00     0.027 H 
ATOM     28  H   LIG d   1      10.707   3.192  -1.763  0.00  0.00     0.027 H 
ATOM     29  C   LIG d   1       9.038   2.273  -3.737  0.00  0.00     0.001 C 
ATOM     30  H   LIG d   1       9.578   4.254  -4.395  0.00  0.00     0.028 H 
ATOM     31  H   LIG d   1       8.727   4.204  -2.831  0.00  0.00     0.028 H 
ATOM     32  H   LIG d   1       8.087   2.281  -4.270  0.00  0.00     0.043 H 
ATOM     33  H   LIG d   1       8.922   1.738  -2.795  0.00  0.00     0.043 H 
BRANCH  20  34
ATOM     34  C   LIG d   1      12.345   0.807  -4.714  0.00  0.00    -0.012 A 
ATOM     35  C   LIG d   1      12.802  -0.444  -4.344  0.00  0.00     0.032 A 
ATOM     36  N   LIG d   1      13.674  -1.091  -5.092  0.00  0.00    -0.263 NA
ATOM     37  H   LIG d   1      12.437  -0.898  -3.435  0.00  0.00     0.083 H 
ATOM     38  C   LIG d   1      14.151  -0.573  -6.208  0.00  0.00     0.028 A 
ATOM     39  C   LIG d   1      13.743   0.676  -6.637  0.00  0.00    -0.043 A 
ATOM     40  H   LIG d   1      14.867  -1.132  -6.792  0.00  0.00     0.083 H 
ATOM     41  C   LIG d   1      12.824   1.384  -5.880  0.00  0.00    -0.054 A 
ATOM     42  H   LIG d   1      14.138   1.094  -7.551  0.00  0.00     0.063 H 
ATOM     43  H   LIG d   1      12.487   2.362  -6.192  0.00  0.00     0.062 H 
ENDBRANCH  20  34
ENDBRANCH  16  19
ENDBRANCH   9  16
BRANCH   1  44
ATOM     44  N   LIG d   1       4.395  -0.016  -6.245  0.00  0.00    -0.206 N 
ATOM     45  C   LIG d   1       3.209   0.613  -6.131  0.00  0.00     0.236 C 
ATOM     46  O   LIG d   1       2.897   1.469  -6.931  0.00  0.00    -0.274 OA
ATOM     47  H   LIG d   1       4.645  -0.700  -5.606  0.00  0.00     0.177 HD
BRANCH  45  48
ATOM     48  C   LIG d   1       2.271   0.253  -5.008  0.00  0.00     0.051 C 
ATOM     49  H   LIG d   1       1.681  -0.618  -5.292  0.00  0.00     0.041 H 
ATOM     50  H   LIG d   1       1.606   1.093  -4.808  0.00  0.00     0.041 H 
BRANCH  48  51
ATOM     51  C   LIG d   1       3.069  -0.063  -3.769  0.00  0.00    -0.039 A 
ATOM     52  C   LIG d   1       3.266  -1.377  -3.390  0.00  0.00    -0.058 A 
ATOM     53  C   LIG d   1       3.999  -1.667  -2.255  0.00  0.00    -0.061 A 
ATOM     54  H   LIG d   1       2.848  -2.178  -3.982  0.00  0.00     0.062 H 
ATOM     55  C   LIG d   1       4.534  -0.641  -1.498  0.00  0.00    -0.062 A 
ATOM     56  H   LIG d   1       4.153  -2.694  -1.957  0.00  0.00     0.062 H 
ATOM     57  C   LIG d   1       4.337   0.673  -1.876  0.00  0.00    -0.061 A 
ATOM     58  H   LIG d   1       5.102  -0.867  -0.607  0.00  0.00     0.062 H 
ATOM     59  C   LIG d   1       3.603   0.963  -3.011  0.00  0.00    -0.058 A 
ATOM     60  H   LIG d   1       4.755   1.474  -1.285  0.00  0.00     0.062 H 
ATOM     61  H   LIG d   1       3.449   1.990  -3.308  0.00  0.00     0.062 H 
ENDBRANCH  48  51
ENDBRANCH  45  48
ENDBRANCH   1  44
TORSDOF 6
ENDMDL
MODEL 6
REMARK VINA RESULT:      -7.3      6.141      9.707
REMARK  6 active torsions:
REMARK  status: ('A' for Active; 'I' for Inactive)
REMARK    1  A    between atoms: C_4  and  C_7 
REMARK    2  A    between atoms: C_7  and  C_8 
REMARK       I    between atoms: C_8  and  N_10 
REMARK    3  A    between atoms: N_10  and  N_11 
REMARK    4  A    between atoms: N_19  and  C_22 
REMARK    5  A    between atoms: C_22  and  N_23 
REMARK    6  A    between atoms: C_28  and  C_30 
ROOT
ATOM      1  N   LIG d   1       8.775  -0.852  -5.194  0.00  0.00    -0.174 NA
ATOM      2  C   LIG d   1       9.367   0.231  -4.752  0.00  0.00     0.153 A 
ATOM      3  C   LIG d   1      10.821   0.519  -4.728  0.00  0.00     0.028 A 
ATOM      4  C   LIG d   1      11.940  -0.201  -5.131  0.00  0.00    -0.051 A 
ATOM      5  C   LIG d   1      13.198   0.348  -4.977  0.00  0.00    -0.061 A 
ATOM      6  C   LIG d   1      13.342   1.609  -4.423  0.00  0.00    -0.060 A 
ATOM      7  C   LIG d   1      12.237   2.331  -4.020  0.00  0.00    -0.040 A 
ATOM      8  C   LIG d   1      10.962   1.795  -4.167  0.00  0.00     0.047 A 
ATOM      9  N   LIG d   1       9.706   2.300  -3.851  0.00  0.00    -0.252 N 
ATOM     10  C   LIG d   1       8.731   1.432  -4.176  0.00  0.00     0.272 A 
ATOM     11  O   LIG d   1       7.537   1.606  -4.019  0.00  0.00    -0.268 OA
ATOM     12  H   LIG d   1      11.826  -1.183  -5.562  0.00  0.00     0.062 H 
ATOM     13  H   LIG d   1      14.070  -0.207  -5.287  0.00  0.00     0.062 H 
ATOM     14  H   LIG d   1      14.329   2.032  -4.305  0.00  0.00     0.062 H 
ATOM     15  H   LIG d   1      12.361   3.313  -3.589  0.00  0.00     0.064 H 
ENDROOT
BRANCH   9  16
ATOM     16  C   LIG d   1       9.472   3.613  -3.246  0.00  0.00     0.073 C 
ATOM     17  H   LIG d   1       8.403   3.760  -3.095  0.00  0.00     0.064 H 
ATOM     18  H   LIG d   1       9.986   3.668  -2.286  0.00  0.00     0.064 H 
BRANCH  16  19
ATOM     19  N   LIG d   1       9.990   4.662  -4.137  0.00  0.00    -0.280 N 
ATOM     20  C   LIG d   1       9.899   5.983  -3.503  0.00  0.00     0.038 C 
ATOM     21  C   LIG d   1      10.576   7.025  -4.395  0.00  0.00    -0.033 C 
ATOM     22  H   LIG d   1       8.851   6.249  -3.365  0.00  0.00     0.051 H 
ATOM     23  C   LIG d   1       9.886   7.046  -5.762  0.00  0.00    -0.050 C 
ATOM     24  H   LIG d   1      11.628   6.768  -4.523  0.00  0.00     0.028 H 
ATOM     25  H   LIG d   1      10.496   8.009  -3.932  0.00  0.00     0.028 H 
ATOM     26  C   LIG d   1       9.952   5.646  -6.380  0.00  0.00    -0.040 C 
ATOM     27  H   LIG d   1      10.392   7.757  -6.415  0.00  0.00     0.027 H 
ATOM     28  H   LIG d   1       8.844   7.342  -5.639  0.00  0.00     0.027 H 
ATOM     29  C   LIG d   1       9.293   4.644  -5.429  0.00  0.00     0.001 C 
ATOM     30  H   LIG d   1      10.994   5.367  -6.538  0.00  0.00     0.028 H 
ATOM     31  H   LIG d   1       9.424   5.645  -7.333  0.00  0.00     0.028 H 
ATOM     32  H   LIG d   1       9.350   3.644  -5.860  0.00  0.00     0.043 H 
ATOM     33  H   LIG d   1       8.248   4.916  -5.282  0.00  0.00     0.043 H 
BRANCH  20  34
ATOM     34  C   LIG d   1      10.588   5.945  -2.163  0.00  0.00    -0.012 A 
ATOM     35  C   LIG d   1       9.938   6.393  -1.029  0.00  0.00     0.032 A 
ATOM     36  N   LIG d   1      10.532   6.358   0.147  0.00  0.00    -0.263 NA
ATOM     37  H   LIG d   1       8.928   6.770  -1.107  0.00  0.00     0.083 H 
ATOM     38  C   LIG d   1      11.764   5.911   0.289  0.00  0.00     0.028 A 
ATOM     39  C   LIG d   1      12.479   5.453  -0.802  0.00  0.00    -0.043 A 
ATOM     40  H   LIG d   1      12.220   5.902   1.268  0.00  0.00     0.083 H 
ATOM     41  C   LIG d   1      11.886   5.469  -2.053  0.00  0.00    -0.054 A 
ATOM     42  H   LIG d   1      13.488   5.088  -0.679  0.00  0.00     0.063 H 
ATOM     43  H   LIG d   1      12.421   5.117  -2.923  0.00  0.00     0.062 H 
ENDBRANCH  20  34
ENDBRANCH  16  19
ENDBRANCH   9  16
BRANCH   1  44
ATOM     44  N   LIG d   1       7.378  -0.956  -5.146  0.00  0.00    -0.206 N 
ATOM     45  C   LIG d   1       6.800  -1.892  -4.369  0.00  0.00     0.236 C 
ATOM     46  O   LIG d   1       7.487  -2.644  -3.712  0.00  0.00    -0.274 OA
ATOM     47  H   LIG d   1       6.830  -0.354  -5.671  0.00  0.00     0.177 HD
BRANCH  45  48
ATOM     48  C   LIG d   1       5.298  -2.005  -4.317  0.00  0.00     0.051 C 
ATOM     49  H   LIG d   1       5.019  -2.908  -3.775  0.00  0.00     0.041 H 
ATOM     50  H   LIG d   1       4.903  -2.054  -5.332  0.00  0.00     0.041 H 
BRANCH  48  51
ATOM     51  C   LIG d   1       4.727  -0.800  -3.614  0.00  0.00    -0.039 A 
ATOM     52  C   LIG d   1       5.153  -0.478  -2.339  0.00  0.00    -0.058 A 
ATOM     53  C   LIG d   1       4.631   0.627  -1.695  0.00  0.00    -0.061 A 
ATOM     54  H   LIG d   1       5.895  -1.090  -1.846  0.00  0.00     0.062 H 
ATOM     55  C   LIG d   1       3.683   1.411  -2.325  0.00  0.00    -0.062 A 
ATOM     56  H   LIG d   1       4.963   0.879  -0.698  0.00  0.00     0.062 H 
ATOM     57  C   LIG d   1       3.257   1.090  -3.600  0.00  0.00    -0.061 A 
ATOM     58  H   LIG d   1       3.271   2.272  -1.820  0.00  0.00     0.062 H 
ATOM     59  C   LIG d   1       3.778  -0.017  -4.244  0.00  0.00    -0.058 A 
ATOM     60  H   LIG d   1       2.516   1.702  -4.093  0.00  0.00     0.062 H 
ATOM     61  H   LIG d   1       3.445  -0.269  -5.241  0.00  0.00     0.062 H 
ENDBRANCH  48  51
ENDBRANCH  45  48
ENDBRANCH   1  44
TORSDOF 6
ENDMDL
MODEL 7
REMARK VINA RESULT:      -7.2      8.334     11.313
REMARK  6 active torsions:
REMARK  status: ('A' for Active; 'I' for Inactive)
REMARK    1  A    between atoms: C_4  and  C_7 
REMARK    2  A    between atoms: C_7  and  C_8 
REMARK       I    between atoms: C_8  and  N_10 
REMARK    3  A    between atoms: N_10  and  N_11 
REMARK    4  A    between atoms: N_19  and  C_22 
REMARK    5  A    between atoms: C_22  and  N_23 
REMARK    6  A    between atoms: C_28  and  C_30 
ROOT
ATOM      1  N   LIG d   1       8.722   3.247  -4.948  0.00  0.00    -0.174 NA
ATOM      2  C   LIG d   1       9.639   4.159  -4.733  0.00  0.00     0.153 A 
ATOM      3  C   LIG d   1      10.089   5.223  -5.661  0.00  0.00     0.028 A 
ATOM      4  C   LIG d   1       9.720   5.577  -6.954  0.00  0.00    -0.051 A 
ATOM      5  C   LIG d   1      10.337   6.646  -7.572  0.00  0.00    -0.061 A 
ATOM      6  C   LIG d   1      11.317   7.362  -6.908  0.00  0.00    -0.060 A 
ATOM      7  C   LIG d   1      11.691   7.018  -5.624  0.00  0.00    -0.040 A 
ATOM      8  C   LIG d   1      11.081   5.945  -4.984  0.00  0.00     0.047 A 
ATOM      9  N   LIG d   1      11.265   5.398  -3.719  0.00  0.00    -0.252 N 
ATOM     10  C   LIG d   1      10.445   4.353  -3.510  0.00  0.00     0.272 A 
ATOM     11  O   LIG d   1      10.381   3.685  -2.495  0.00  0.00    -0.268 OA
ATOM     12  H   LIG d   1       8.956   5.018  -7.471  0.00  0.00     0.062 H 
ATOM     13  H   LIG d   1      10.054   6.924  -8.577  0.00  0.00     0.062 H 
ATOM     14  H   LIG d   1      11.795   8.197  -7.398  0.00  0.00     0.062 H 
ATOM     15  H   LIG d   1      12.457   7.584  -5.115  0.00  0.00     0.064 H 
ENDROOT
BRANCH   9  16
ATOM     16  C   LIG d   1      12.226   5.901  -2.734  0.00  0.00     0.073 C 
ATOM     17  H   LIG d   1      12.962   5.128  -2.516  0.00  0.00     0.064 H 
ATOM     18  H   LIG d   1      12.731   6.780  -3.135  0.00  0.00     0.064 H 
BRANCH  16  19
ATOM     19  N   LIG d   1      11.517   6.266  -1.500  0.00  0.00    -0.280 N 
ATOM     20  C   LIG d   1      11.821   7.648  -1.108  0.00  0.00     0.038 C 
ATOM     21  C   LIG d   1      10.959   8.041   0.094  0.00  0.00    -0.033 C 
ATOM     22  H   LIG d   1      12.875   7.726  -0.839  0.00  0.00     0.051 H 
ATOM     23  C   LIG d   1      11.245   7.086   1.256  0.00  0.00    -0.050 C 
ATOM     24  H   LIG d   1       9.904   7.977  -0.178  0.00  0.00     0.028 H 
ATOM     25  H   LIG d   1      11.196   9.062   0.394  0.00  0.00     0.028 H 
ATOM     26  C   LIG d   1      10.966   5.649   0.806  0.00  0.00    -0.040 C 
ATOM     27  H   LIG d   1      10.601   7.335   2.099  0.00  0.00     0.027 H 
ATOM     28  H   LIG d   1      12.289   7.178   1.554  0.00  0.00     0.027 H 
ATOM     29  C   LIG d   1      11.829   5.326  -0.417  0.00  0.00     0.001 C 
ATOM     30  H   LIG d   1       9.913   5.547   0.544  0.00  0.00     0.028 H 
ATOM     31  H   LIG d   1      11.210   4.961   1.615  0.00  0.00     0.028 H 
ATOM     32  H   LIG d   1      11.623   4.308  -0.748  0.00  0.00     0.043 H 
ATOM     33  H   LIG d   1      12.883   5.415  -0.151  0.00  0.00     0.043 H 
BRANCH  20  34
ATOM     34  C   LIG d   1      11.528   8.574  -2.260  0.00  0.00    -0.012 A 
ATOM     35  C   LIG d   1      12.550   9.270  -2.876  0.00  0.00     0.032 A 
ATOM     36  N   LIG d   1      12.302  10.077  -3.889  0.00  0.00    -0.263 NA
ATOM     37  H   LIG d   1      13.565   9.146  -2.528  0.00  0.00     0.083 H 
ATOM     38  C   LIG d   1      11.079  10.263  -4.345  0.00  0.00     0.028 A 
ATOM     39  C   LIG d   1      10.005   9.606  -3.773  0.00  0.00    -0.043 A 
ATOM     40  H   LIG d   1      10.914  10.936  -5.173  0.00  0.00     0.083 H 
ATOM     41  C   LIG d   1      10.227   8.745  -2.711  0.00  0.00    -0.054 A 
ATOM     42  H   LIG d   1       9.005   9.762  -4.151  0.00  0.00     0.063 H 
ATOM     43  H   LIG d   1       9.408   8.218  -2.246  0.00  0.00     0.062 H 
ENDBRANCH  20  34
ENDBRANCH  16  19
ENDBRANCH   9  16
BRANCH   1  44
ATOM     44  N   LIG d   1       8.416   2.313  -3.949  0.00  0.00    -0.206 N 
ATOM     45  C   LIG d   1       7.602   1.275  -4.225  0.00  0.00     0.236 C 
ATOM     46  O   LIG d   1       7.134   1.151  -5.337  0.00  0.00    -0.274 OA
ATOM     47  H   LIG d   1       8.790   2.413  -3.061  0.00  0.00     0.177 HD
BRANCH  45  48
ATOM     48  C   LIG d   1       7.271   0.271  -3.152  0.00  0.00     0.051 C 
ATOM     49  H   LIG d   1       7.735   0.575  -2.213  0.00  0.00     0.041 H 
ATOM     50  H   LIG d   1       7.648  -0.709  -3.443  0.00  0.00     0.041 H 
BRANCH  48  51
ATOM     51  C   LIG d   1       5.776   0.201  -2.973  0.00  0.00    -0.039 A 
ATOM     52  C   LIG d   1       5.116  -1.003  -3.134  0.00  0.00    -0.058 A 
ATOM     53  C   LIG d   1       3.746  -1.067  -2.968  0.00  0.00    -0.061 A 
ATOM     54  H   LIG d   1       5.672  -1.894  -3.389  0.00  0.00     0.062 H 
ATOM     55  C   LIG d   1       3.035   0.072  -2.642  0.00  0.00    -0.062 A 
ATOM     56  H   LIG d   1       3.229  -2.008  -3.095  0.00  0.00     0.062 H 
ATOM     57  C   LIG d   1       3.694   1.276  -2.480  0.00  0.00    -0.061 A 
ATOM     58  H   LIG d   1       1.963   0.023  -2.517  0.00  0.00     0.062 H 
ATOM     59  C   LIG d   1       5.065   1.341  -2.647  0.00  0.00    -0.058 A 
ATOM     60  H   LIG d   1       3.139   2.166  -2.225  0.00  0.00     0.062 H 
ATOM     61  H   LIG d   1       5.581   2.282  -2.520  0.00  0.00     0.062 H 
ENDBRANCH  48  51
ENDBRANCH  45  48
ENDBRANCH   1  44
TORSDOF 6
ENDMDL
MODEL 8
REMARK VINA RESULT:      -7.0      7.464     10.621
REMARK  6 active torsions:
REMARK  status: ('A' for Active; 'I' for Inactive)
REMARK    1  A    between atoms: C_4  and  C_7 
REMARK    2  A    between atoms: C_7  and  C_8 
REMARK       I    between atoms: C_8  and  N_10 
REMARK    3  A    between atoms: N_10  and  N_11 
REMARK    4  A    between atoms: N_19  and  C_22 
REMARK    5  A    between atoms: C_22  and  N_23 
REMARK    6  A    between atoms: C_28  and  C_30 
ROOT
ATOM      1  N   LIG d   1       8.519   1.960  -6.145  0.00  0.00    -0.174 NA
ATOM      2  C   LIG d   1       9.277   3.028  -6.178  0.00  0.00     0.153 A 
ATOM      3  C   LIG d   1       9.571   3.891  -7.347  0.00  0.00     0.028 A 
ATOM      4  C   LIG d   1       9.176   3.855  -8.679  0.00  0.00    -0.051 A 
ATOM      5  C   LIG d   1       9.629   4.824  -9.553  0.00  0.00    -0.061 A 
ATOM      6  C   LIG d   1      10.472   5.825  -9.104  0.00  0.00    -0.060 A 
ATOM      7  C   LIG d   1      10.870   5.869  -7.782  0.00  0.00    -0.040 A 
ATOM      8  C   LIG d   1      10.425   4.902  -6.887  0.00  0.00     0.047 A 
ATOM      9  N   LIG d   1      10.668   4.718  -5.531  0.00  0.00    -0.252 N 
ATOM     10  C   LIG d   1      10.019   3.640  -5.057  0.00  0.00     0.272 A 
ATOM     11  O   LIG d   1      10.041   3.239  -3.908  0.00  0.00    -0.268 OA
ATOM     12  H   LIG d   1       8.519   3.073  -9.029  0.00  0.00     0.062 H 
ATOM     13  H   LIG d   1       9.325   4.799 -10.589  0.00  0.00     0.062 H 
ATOM     14  H   LIG d   1      10.822   6.579  -9.793  0.00  0.00     0.062 H 
ATOM     15  H   LIG d   1      11.528   6.655  -7.443  0.00  0.00     0.064 H 
ENDROOT
BRANCH   9  16
ATOM     16  C   LIG d   1      11.519   5.590  -4.719  0.00  0.00     0.073 C 
ATOM     17  H   LIG d   1      12.333   5.007  -4.288  0.00  0.00     0.064 H 
ATOM     18  H   LIG d   1      11.932   6.381  -5.346  0.00  0.00     0.064 H 
BRANCH  16  19
ATOM     19  N   LIG d   1      10.720   6.188  -3.640  0.00  0.00    -0.280 N 
ATOM     20  C   LIG d   1      10.927   7.641  -3.576  0.00  0.00     0.038 C 
ATOM     21  C   LIG d   1       9.976   8.248  -2.543  0.00  0.00    -0.033 C 
ATOM     22  H   LIG d   1      11.957   7.849  -3.286  0.00  0.00     0.051 H 
ATOM     23  C   LIG d   1      10.243   7.614  -1.175  0.00  0.00    -0.050 C 
ATOM     24  H   LIG d   1       8.944   8.052  -2.839  0.00  0.00     0.028 H 
ATOM     25  H   LIG d   1      10.140   9.324  -2.484  0.00  0.00     0.028 H 
ATOM     26  C   LIG d   1      10.067   6.096  -1.281  0.00  0.00    -0.040 C 
ATOM     27  H   LIG d   1       9.538   8.011  -0.445  0.00  0.00     0.027 H 
ATOM     28  H   LIG d   1      11.261   7.842  -0.860  0.00  0.00     0.027 H 
ATOM     29  C   LIG d   1      11.017   5.552  -2.351  0.00  0.00     0.001 C 
ATOM     30  H   LIG d   1       9.038   5.867  -1.558  0.00  0.00     0.028 H 
ATOM     31  H   LIG d   1      10.299   5.635  -0.321  0.00  0.00     0.028 H 
ATOM     32  H   LIG d   1      10.885   4.473  -2.439  0.00  0.00     0.043 H 
ATOM     33  H   LIG d   1      12.047   5.770  -2.067  0.00  0.00     0.043 H 
BRANCH  20  34
ATOM     34  C   LIG d   1      10.654   8.248  -4.928  0.00  0.00    -0.012 A 
ATOM     35  C   LIG d   1      11.677   8.828  -5.653  0.00  0.00     0.032 A 
ATOM     36  N   LIG d   1      11.446   9.356  -6.840  0.00  0.00    -0.263 NA
ATOM     37  H   LIG d   1      12.677   8.844  -5.247  0.00  0.00     0.083 H 
ATOM     38  C   LIG d   1      10.241   9.365  -7.373  0.00  0.00     0.028 A 
ATOM     39  C   LIG d   1       9.168   8.808  -6.702  0.00  0.00    -0.043 A 
ATOM     40  H   LIG d   1      10.090   9.811  -8.345  0.00  0.00     0.083 H 
ATOM     41  C   LIG d   1       9.371   8.239  -5.456  0.00  0.00    -0.054 A 
ATOM     42  H   LIG d   1       8.182   8.818  -7.144  0.00  0.00     0.063 H 
ATOM     43  H   LIG d   1       8.552   7.796  -4.909  0.00  0.00     0.062 H 
ENDBRANCH  20  34
ENDBRANCH  16  19
ENDBRANCH   9  16
BRANCH   1  44
ATOM     44  N   LIG d   1       8.345   1.262  -4.942  0.00  0.00    -0.206 N 
ATOM     45  C   LIG d   1       7.293   0.432  -4.792  0.00  0.00     0.236 C 
ATOM     46  O   LIG d   1       6.499   0.290  -5.696  0.00  0.00    -0.274 OA
ATOM     47  H   LIG d   1       8.980   1.376  -4.220  0.00  0.00     0.177 HD
BRANCH  45  48
ATOM     48  C   LIG d   1       7.105  -0.318  -3.498  0.00  0.00     0.051 C 
ATOM     49  H   LIG d   1       7.731   0.127  -2.725  0.00  0.00     0.041 H 
ATOM     50  H   LIG d   1       7.387  -1.361  -3.639  0.00  0.00     0.041 H 
BRANCH  48  51
ATOM     51  C   LIG d   1       5.659  -0.241  -3.079  0.00  0.00    -0.039 A 
ATOM     52  C   LIG d   1       5.113   0.970  -2.698  0.00  0.00    -0.058 A 
ATOM     53  C   LIG d   1       3.787   1.041  -2.315  0.00  0.00    -0.061 A 
ATOM     54  H   LIG d   1       5.723   1.862  -2.700  0.00  0.00     0.062 H 
ATOM     55  C   LIG d   1       3.007  -0.100  -2.313  0.00  0.00    -0.062 A 
ATOM     56  H   LIG d   1       3.360   1.988  -2.017  0.00  0.00     0.062 H 
ATOM     57  C   LIG d   1       3.552  -1.311  -2.695  0.00  0.00    -0.061 A 
ATOM     58  H   LIG d   1       1.972  -0.045  -2.010  0.00  0.00     0.062 H 
ATOM     59  C   LIG d   1       4.879  -1.382  -3.076  0.00  0.00    -0.058 A 
ATOM     60  H   LIG d   1       2.942  -2.202  -2.693  0.00  0.00     0.062 H 
ATOM     61  H   LIG d   1       5.305  -2.329  -3.375  0.00  0.00     0.062 H 
ENDBRANCH  48  51
ENDBRANCH  45  48
ENDBRANCH   1  44
TORSDOF 6
ENDMDL
MODEL 9
REMARK VINA RESULT:      -6.9      7.876     10.722
REMARK  6 active torsions:
REMARK  status: ('A' for Active; 'I' for Inactive)
REMARK    1  A    between atoms: C_4  and  C_7 
REMARK    2  A    between atoms: C_7  and  C_8 
REMARK       I    between atoms: C_8  and  N_10 
REMARK    3  A    between atoms: N_10  and  N_11 
REMARK    4  A    between atoms: N_19  and  C_22 
REMARK    5  A    between atoms: C_22  and  N_23 
REMARK    6  A    between atoms: C_28  and  C_30 
ROOT
ATOM      1  N   LIG d   1       8.668   2.471  -5.308  0.00  0.00    -0.174 NA
ATOM      2  C   LIG d   1       9.389   3.542  -5.085  0.00  0.00     0.153 A 
ATOM      3  C   LIG d   1       9.806   4.571  -6.066  0.00  0.00     0.028 A 
ATOM      4  C   LIG d   1       9.589   4.727  -7.431  0.00  0.00    -0.051 A 
ATOM      5  C   LIG d   1      10.121   5.820  -8.087  0.00  0.00    -0.061 A 
ATOM      6  C   LIG d   1      10.865   6.754  -7.388  0.00  0.00    -0.060 A 
ATOM      7  C   LIG d   1      11.086   6.608  -6.033  0.00  0.00    -0.040 A 
ATOM      8  C   LIG d   1      10.559   5.514  -5.355  0.00  0.00     0.047 A 
ATOM      9  N   LIG d   1      10.629   5.134  -4.019  0.00  0.00    -0.252 N 
ATOM     10  C   LIG d   1       9.958   3.990  -3.797  0.00  0.00     0.272 A 
ATOM     11  O   LIG d   1       9.843   3.424  -2.726  0.00  0.00    -0.268 OA
ATOM     12  H   LIG d   1       9.009   3.998  -7.974  0.00  0.00     0.062 H 
ATOM     13  H   LIG d   1       9.956   5.945  -9.146  0.00  0.00     0.062 H 
ATOM     14  H   LIG d   1      11.278   7.607  -7.908  0.00  0.00     0.062 H 
ATOM     15  H   LIG d   1      11.668   7.343  -5.499  0.00  0.00     0.064 H 
ENDROOT
BRANCH   9  16
ATOM     16  C   LIG d   1      11.338   5.888  -2.983  0.00  0.00     0.073 C 
ATOM     17  H   LIG d   1      11.624   6.864  -3.373  0.00  0.00     0.064 H 
ATOM     18  H   LIG d   1      10.686   6.019  -2.118  0.00  0.00     0.064 H 
BRANCH  16  19
ATOM     19  N   LIG d   1      12.543   5.149  -2.578  0.00  0.00    -0.280 N 
ATOM     20  C   LIG d   1      13.399   5.972  -1.715  0.00  0.00     0.038 C 
ATOM     21  C   LIG d   1      14.566   5.127  -1.198  0.00  0.00    -0.033 C 
ATOM     22  H   LIG d   1      13.787   6.816  -2.286  0.00  0.00     0.051 H 
ATOM     23  C   LIG d   1      15.370   4.593  -2.387  0.00  0.00    -0.050 C 
ATOM     24  H   LIG d   1      14.179   4.290  -0.615  0.00  0.00     0.028 H 
ATOM     25  H   LIG d   1      15.210   5.742  -0.569  0.00  0.00     0.028 H 
ATOM     26  C   LIG d   1      14.443   3.780  -3.295  0.00  0.00    -0.040 C 
ATOM     27  H   LIG d   1      16.176   3.955  -2.024  0.00  0.00     0.027 H 
ATOM     28  H   LIG d   1      15.789   5.428  -2.947  0.00  0.00     0.027 H 
ATOM     29  C   LIG d   1      13.280   4.665  -3.752  0.00  0.00     0.001 C 
ATOM     30  H   LIG d   1      14.054   2.923  -2.746  0.00  0.00     0.028 H 
ATOM     31  H   LIG d   1      15.000   3.434  -4.166  0.00  0.00     0.028 H 
ATOM     32  H   LIG d   1      12.611   4.085  -4.388  0.00  0.00     0.043 H 
ATOM     33  H   LIG d   1      13.669   5.514  -4.313  0.00  0.00     0.043 H 
BRANCH  20  34
ATOM     34  C   LIG d   1      12.594   6.483  -0.548  0.00  0.00    -0.012 A 
ATOM     35  C   LIG d   1      11.935   5.602   0.287  0.00  0.00     0.032 A 
ATOM     36  N   LIG d   1      11.233   6.041   1.313  0.00  0.00    -0.263 NA
ATOM     37  H   LIG d   1      12.001   4.540   0.101  0.00  0.00     0.083 H 
ATOM     38  C   LIG d   1      11.121   7.329   1.576  0.00  0.00     0.028 A 
ATOM     39  C   LIG d   1      11.747   8.269   0.780  0.00  0.00    -0.043 A 
ATOM     40  H   LIG d   1      10.533   7.651   2.423  0.00  0.00     0.083 H 
ATOM     41  C   LIG d   1      12.498   7.845  -0.304  0.00  0.00    -0.054 A 
ATOM     42  H   LIG d   1      11.652   9.322   1.001  0.00  0.00     0.063 H 
ATOM     43  H   LIG d   1      12.999   8.558  -0.942  0.00  0.00     0.062 H 
ENDBRANCH  20  34
ENDBRANCH  16  19
ENDBRANCH   9  16
BRANCH   1  44
ATOM     44  N   LIG d   1       8.360   1.600  -4.254  0.00  0.00    -0.206 N 
ATOM     45  C   LIG d   1       7.353   0.714  -4.384  0.00  0.00     0.236 C 
ATOM     46  O   LIG d   1       6.714   0.670  -5.413  0.00  0.00    -0.274 OA
ATOM     47  H   LIG d   1       8.871   1.636  -3.431  0.00  0.00     0.177 HD
BRANCH  45  48
ATOM     48  C   LIG d   1       7.022  -0.221  -3.250  0.00  0.00     0.051 C 
ATOM     49  H   LIG d   1       7.498   0.133  -2.335  0.00  0.00     0.041 H 
ATOM     50  H   LIG d   1       7.385  -1.221  -3.486  0.00  0.00     0.041 H 
BRANCH  48  51
ATOM     51  C   LIG d   1       5.528  -0.262  -3.054  0.00  0.00    -0.039 A 
ATOM     52  C   LIG d   1       4.829  -1.428  -3.305  0.00  0.00    -0.058 A 
ATOM     53  C   LIG d   1       3.460  -1.466  -3.123  0.00  0.00    -0.061 A 
ATOM     54  H   LIG d   1       5.355  -2.310  -3.642  0.00  0.00     0.062 H 
ATOM     55  C   LIG d   1       2.788  -0.338  -2.691  0.00  0.00    -0.062 A 
ATOM     56  H   LIG d   1       2.913  -2.378  -3.320  0.00  0.00     0.062 H 
ATOM     57  C   LIG d   1       3.486   0.828  -2.439  0.00  0.00    -0.061 A 
ATOM     58  H   LIG d   1       1.717  -0.366  -2.554  0.00  0.00     0.062 H 
ATOM     59  C   LIG d   1       4.856   0.866  -2.622  0.00  0.00    -0.058 A 
ATOM     60  H   LIG d   1       2.961   1.709  -2.102  0.00  0.00     0.062 H 
ATOM     61  H   LIG d   1       5.402   1.778  -2.425  0.00  0.00     0.062 H 
ENDBRANCH  48  51
ENDBRANCH  45  48
ENDBRANCH   1  44
TORSDOF 6
ENDMDL
