MODEL 1
REMARK VINA RESULT:      -7.0      0.000      0.000
REMARK  5 active torsions:
REMARK  status: ('A' for Active; 'I' for Inactive)
REMARK    1  A    between atoms: C_1  and  C_2 
REMARK       I    between atoms: C_2  and  N_4 
REMARK    2  A    between atoms: C_7  and  N_10 
REMARK    3  A    between atoms: C_14  and  C_16 
REMARK    4  A    between atoms: C_18  and  C_21 
REMARK    5  A    between atoms: C_24  and  N_27 
ROOT
ATOM      1  N   LIG d   1       5.434  -9.971  -3.612  0.00  0.00     0.246 N 
ATOM      2  C   LIG d   1       4.509 -10.637  -2.670  0.00  0.00    -0.031 C 
ATOM      3  C   LIG d   1       3.262 -10.983  -3.522  0.00  0.00    -0.007 C 
ATOM      4  C   LIG d   1       3.906 -11.372  -4.878  0.00  0.00     0.004 C 
ATOM      5  C   LIG d   1       5.107 -10.409  -4.982  0.00  0.00     0.060 C 
ATOM      6  H   LIG d   1       5.961 -10.926  -5.419  0.00  0.00     0.095 H 
ATOM      7  H   LIG d   1       4.960 -11.545  -2.273  0.00  0.00     0.082 H 
ATOM      8  H   LIG d   1       4.239  -9.960  -1.861  0.00  0.00     0.082 H 
ATOM      9  H   LIG d   1       2.718 -11.824  -3.093  0.00  0.00     0.032 H 
ATOM     10  H   LIG d   1       2.612 -10.116  -3.632  0.00  0.00     0.032 H 
ATOM     11  H   LIG d   1       4.243 -12.408  -4.863  0.00  0.00     0.033 H 
ATOM     12  H   LIG d   1       3.207 -11.205  -5.698  0.00  0.00     0.033 H 
ATOM     13  H   LIG d   1       5.328  -8.971  -3.540  0.00  0.00     0.204 HD
ENDROOT
BRANCH   5  14
ATOM     14  C   LIG d   1       4.738  -9.216  -5.825  0.00  0.00     0.276 A 
ATOM     15  O   LIG d   1       4.254  -9.259  -7.073  0.00  0.00    -0.332 OA
ATOM     16  N   LIG d   1       4.049  -7.912  -7.471  0.00  0.00    -0.056 NA
ATOM     17  C   LIG d   1       4.421  -7.166  -6.460  0.00  0.00     0.208 A 
ATOM     18  N   LIG d   1       4.839  -7.968  -5.464  0.00  0.00    -0.186 NA
BRANCH  17  19
ATOM     19  C   LIG d   1       4.390  -5.684  -6.420  0.00  0.00     0.086 A 
ATOM     20  C   LIG d   1       3.761  -4.965  -7.433  0.00  0.00     0.182 A 
ATOM     21  N   LIG d   1       3.724  -3.647  -7.399  0.00  0.00    -0.198 N 
ATOM     22  H   LIG d   1       3.294  -5.491  -8.252  0.00  0.00     0.138 H 
ATOM     23  C   LIG d   1       4.288  -2.959  -6.417  0.00  0.00     0.272 A 
ATOM     24  H   LIG d   1       3.277  -3.169  -8.114  0.00  0.00     0.454 HD
ATOM     25  C   LIG d   1       4.940  -3.609  -5.373  0.00  0.00     0.027 A 
ATOM     26  C   LIG d   1       4.996  -4.988  -5.367  0.00  0.00    -0.038 A 
ATOM     27  H   LIG d   1       5.396  -3.041  -4.575  0.00  0.00     0.070 H 
ATOM     28  H   LIG d   1       5.494  -5.518  -4.569  0.00  0.00     0.063 H 
BRANCH  23  29
ATOM     29  N   LIG d   1       4.227  -1.573  -6.430  0.00  0.00    -0.274 N 
ATOM     30  C   LIG d   1       4.279  -0.800  -5.178  0.00  0.00     0.041 C 
ATOM     31  C   LIG d   1       3.115   0.190  -5.168  0.00  0.00     0.064 C 
ATOM     32  H   LIG d   1       4.193  -1.476  -4.327  0.00  0.00     0.049 H 
ATOM     33  H   LIG d   1       5.222  -0.256  -5.123  0.00  0.00     0.049 H 
ATOM     34  O   LIG d   1       3.126   0.946  -6.381  0.00  0.00    -0.377 OA
ATOM     35  H   LIG d   1       3.217   0.864  -4.317  0.00  0.00     0.058 H 
ATOM     36  H   LIG d   1       2.176  -0.356  -5.087  0.00  0.00     0.058 H 
ATOM     37  C   LIG d   1       2.940   0.160  -7.561  0.00  0.00     0.064 C 
ATOM     38  C   LIG d   1       4.101  -0.831  -7.695  0.00  0.00     0.041 C 
ATOM     39  H   LIG d   1       2.916   0.813  -8.433  0.00  0.00     0.058 H 
ATOM     40  H   LIG d   1       2.000  -0.387  -7.489  0.00  0.00     0.058 H 
ATOM     41  H   LIG d   1       5.024  -0.290  -7.897  0.00  0.00     0.049 H 
ATOM     42  H   LIG d   1       3.898  -1.528  -8.509  0.00  0.00     0.049 H 
ENDBRANCH  23  29
ENDBRANCH  17  19
ENDBRANCH   5  14
BRANCH   1  43
ATOM     43  C   LIG d   1       6.819 -10.345  -3.290  0.00  0.00    -0.017 C 
ATOM     44  C   LIG d   1       7.633  -9.082  -2.998  0.00  0.00     0.006 C 
ATOM     45  C   LIG d   1       9.084  -9.472  -2.698  0.00  0.00     0.020 C 
ATOM     46  H   LIG d   1       7.209  -8.567  -2.136  0.00  0.00     0.034 H 
ATOM     47  H   LIG d   1       7.605  -8.422  -3.866  0.00  0.00     0.034 H 
ATOM     48  N   LIG d   1       9.092 -10.461  -1.610  0.00  0.00    -0.301 N 
ATOM     49  H   LIG d   1       9.644  -8.589  -2.393  0.00  0.00     0.047 H 
ATOM     50  H   LIG d   1       9.537  -9.906  -3.590  0.00  0.00     0.047 H 
ATOM     51  C   LIG d   1       9.839 -10.261  -0.507  0.00  0.00     0.212 C 
ATOM     52  C   LIG d   1       8.275 -11.674  -1.752  0.00  0.00     0.020 C 
ATOM     53  O   LIG d   1      10.429  -9.213  -0.356  0.00  0.00    -0.276 OA
ATOM     54  C   LIG d   1       6.830 -11.256  -2.061  0.00  0.00     0.006 C 
ATOM     55  H   LIG d   1       8.664 -12.283  -2.568  0.00  0.00     0.047 H 
ATOM     56  H   LIG d   1       8.302 -12.243  -0.824  0.00  0.00     0.047 H 
ATOM     57  H   LIG d   1       6.413 -10.720  -1.208  0.00  0.00     0.034 H 
ATOM     58  H   LIG d   1       6.230 -12.144  -2.262  0.00  0.00     0.034 H 
ATOM     59  H   LIG d   1       7.258 -10.871  -4.137  0.00  0.00     0.085 H 
BRANCH  51  60
ATOM     60  C   LIG d   1       9.941 -11.340   0.540  0.00  0.00     0.012 C 
ATOM     61  H   LIG d   1      10.989 -11.585   0.708  0.00  0.00     0.032 H 
ATOM     62  H   LIG d   1       9.496 -10.986   1.470  0.00  0.00     0.032 H 
ATOM     63  H   LIG d   1       9.409 -12.228   0.198  0.00  0.00     0.032 H 
ENDBRANCH  51  60
ENDBRANCH   1  43
TORSDOF 5
ENDMDL
MODEL 2
REMARK VINA RESULT:      -7.0      9.047     13.166
REMARK  5 active torsions:
REMARK  status: ('A' for Active; 'I' for Inactive)
REMARK    1  A    between atoms: C_1  and  C_2 
REMARK       I    between atoms: C_2  and  N_4 
REMARK    2  A    between atoms: C_7  and  N_10 
REMARK    3  A    between atoms: C_14  and  C_16 
REMARK    4  A    between atoms: C_18  and  C_21 
REMARK    5  A    between atoms: C_24  and  N_27 
ROOT
ATOM      1  N   LIG d   1       8.084   1.921  -4.079  0.00  0.00     0.246 N 
ATOM      2  C   LIG d   1       7.782   1.919  -5.526  0.00  0.00    -0.031 C 
ATOM      3  C   LIG d   1       9.077   2.438  -6.201  0.00  0.00    -0.007 C 
ATOM      4  C   LIG d   1      10.173   1.792  -5.313  0.00  0.00     0.004 C 
ATOM      5  C   LIG d   1       9.546   1.829  -3.903  0.00  0.00     0.060 C 
ATOM      6  H   LIG d   1       9.797   0.917  -3.362  0.00  0.00     0.095 H 
ATOM      7  H   LIG d   1       7.557   0.908  -5.866  0.00  0.00     0.082 H 
ATOM      8  H   LIG d   1       6.949   2.587  -5.741  0.00  0.00     0.082 H 
ATOM      9  H   LIG d   1       9.150   2.085  -7.229  0.00  0.00     0.032 H 
ATOM     10  H   LIG d   1       9.130   3.525  -6.158  0.00  0.00     0.032 H 
ATOM     11  H   LIG d   1      10.365   0.765  -5.623  0.00  0.00     0.033 H 
ATOM     12  H   LIG d   1      11.089   2.382  -5.342  0.00  0.00     0.033 H 
ATOM     13  H   LIG d   1       7.746   2.776  -3.665  0.00  0.00     0.204 HD
ENDROOT
BRANCH   5  14
ATOM     14  C   LIG d   1      10.048   3.033  -3.149  0.00  0.00     0.276 A 
ATOM     15  O   LIG d   1      11.016   3.029  -2.225  0.00  0.00    -0.332 OA
ATOM     16  N   LIG d   1      11.159   4.373  -1.787  0.00  0.00    -0.056 NA
ATOM     17  C   LIG d   1      10.280   5.077  -2.460  0.00  0.00     0.208 A 
ATOM     18  N   LIG d   1       9.610   4.252  -3.285  0.00  0.00    -0.186 NA
BRANCH  17  19
ATOM     19  C   LIG d   1      10.061   6.537  -2.331  0.00  0.00     0.086 A 
ATOM     20  C   LIG d   1      10.040   7.350  -3.461  0.00  0.00     0.182 A 
ATOM     21  N   LIG d   1       9.839   8.648  -3.353  0.00  0.00    -0.198 N 
ATOM     22  H   LIG d   1      10.185   6.912  -4.437  0.00  0.00     0.138 H 
ATOM     23  C   LIG d   1       9.662   9.230  -2.175  0.00  0.00     0.272 A 
ATOM     24  H   LIG d   1       9.826   9.192  -4.155  0.00  0.00     0.454 HD
ATOM     25  C   LIG d   1       9.676   8.483  -1.000  0.00  0.00     0.027 A 
ATOM     26  C   LIG d   1       9.877   7.119  -1.071  0.00  0.00    -0.038 A 
ATOM     27  H   LIG d   1       9.529   8.965  -0.045  0.00  0.00     0.070 H 
ATOM     28  H   LIG d   1       9.892   6.516  -0.176  0.00  0.00     0.063 H 
BRANCH  23  29
ATOM     29  N   LIG d   1       9.460  10.602  -2.114  0.00  0.00    -0.274 N 
ATOM     30  C   LIG d   1       8.698  11.303  -3.160  0.00  0.00     0.041 C 
ATOM     31  C   LIG d   1       9.519  12.498  -3.643  0.00  0.00     0.064 C 
ATOM     32  H   LIG d   1       8.511  10.625  -3.993  0.00  0.00     0.049 H 
ATOM     33  H   LIG d   1       7.750  11.653  -2.751  0.00  0.00     0.049 H 
ATOM     34  O   LIG d   1       9.920  13.282  -2.517  0.00  0.00    -0.377 OA
ATOM     35  H   LIG d   1       8.914  13.108  -4.315  0.00  0.00     0.058 H 
ATOM     36  H   LIG d   1      10.402  12.140  -4.172  0.00  0.00     0.058 H 
ATOM     37  C   LIG d   1      10.768  12.591  -1.596  0.00  0.00     0.064 C 
ATOM     38  C   LIG d   1      10.007  11.400  -1.005  0.00  0.00     0.041 C 
ATOM     39  H   LIG d   1      11.064  13.268  -0.795  0.00  0.00     0.058 H 
ATOM     40  H   LIG d   1      11.656  12.233  -2.118  0.00  0.00     0.058 H 
ATOM     41  H   LIG d   1       9.194  11.760  -0.376  0.00  0.00     0.049 H 
ATOM     42  H   LIG d   1      10.686  10.787  -0.413  0.00  0.00     0.049 H 
ENDBRANCH  23  29
ENDBRANCH  17  19
ENDBRANCH   5  14
BRANCH   1  43
ATOM     43  C   LIG d   1       7.435   0.770  -3.438  0.00  0.00    -0.017 C 
ATOM     44  C   LIG d   1       5.952   1.078  -3.218  0.00  0.00     0.006 C 
ATOM     45  C   LIG d   1       5.285  -0.109  -2.517  0.00  0.00     0.020 C 
ATOM     46  H   LIG d   1       5.470   1.251  -4.180  0.00  0.00     0.034 H 
ATOM     47  H   LIG d   1       5.854   1.970  -2.597  0.00  0.00     0.034 H 
ATOM     48  N   LIG d   1       5.539  -1.325  -3.303  0.00  0.00    -0.301 N 
ATOM     49  H   LIG d   1       4.212   0.063  -2.447  0.00  0.00     0.047 H 
ATOM     50  H   LIG d   1       5.705  -0.226  -1.517  0.00  0.00     0.047 H 
ATOM     51  C   LIG d   1       4.519  -2.112  -3.698  0.00  0.00     0.212 C 
ATOM     52  C   LIG d   1       6.926  -1.669  -3.643  0.00  0.00     0.020 C 
ATOM     53  O   LIG d   1       3.374  -1.766  -3.499  0.00  0.00    -0.276 OA
ATOM     54  C   LIG d   1       7.574  -0.461  -4.335  0.00  0.00     0.006 C 
ATOM     55  H   LIG d   1       7.476  -1.911  -2.734  0.00  0.00     0.047 H 
ATOM     56  H   LIG d   1       6.935  -2.526  -4.316  0.00  0.00     0.047 H 
ATOM     57  H   LIG d   1       7.076  -0.274  -5.288  0.00  0.00     0.034 H 
ATOM     58  H   LIG d   1       8.630  -0.666  -4.511  0.00  0.00     0.034 H 
ATOM     59  H   LIG d   1       7.910   0.575  -2.477  0.00  0.00     0.085 H 
BRANCH  51  60
ATOM     60  C   LIG d   1       4.801  -3.421  -4.389  0.00  0.00     0.012 C 
ATOM     61  H   LIG d   1       5.112  -4.161  -3.652  0.00  0.00     0.032 H 
ATOM     62  H   LIG d   1       3.899  -3.767  -4.894  0.00  0.00     0.032 H 
ATOM     63  H   LIG d   1       5.596  -3.281  -5.122  0.00  0.00     0.032 H 
ENDBRANCH  51  60
ENDBRANCH   1  43
TORSDOF 5
ENDMDL
MODEL 3
REMARK VINA RESULT:      -6.9      7.157     11.871
REMARK  5 active torsions:
REMARK  status: ('A' for Active; 'I' for Inactive)
REMARK    1  A    between atoms: C_1  and  C_2 
REMARK       I    between atoms: C_2  and  N_4 
REMARK    2  A    between atoms: C_7  and  N_10 
REMARK    3  A    between atoms: C_14  and  C_16 
REMARK    4  A    between atoms: C_18  and  C_21 
REMARK    5  A    between atoms: C_24  and  N_27 
ROOT
ATOM      1  N   LIG d   1       5.440  -1.228  -5.032  0.00  0.00     0.246 N 
ATOM      2  C   LIG d   1       4.880  -2.228  -4.098  0.00  0.00    -0.031 C 
ATOM      3  C   LIG d   1       5.197  -1.672  -2.687  0.00  0.00    -0.007 C 
ATOM      4  C   LIG d   1       5.001  -0.148  -2.901  0.00  0.00     0.004 C 
ATOM      5  C   LIG d   1       5.517   0.071  -4.339  0.00  0.00     0.060 C 
ATOM      6  H   LIG d   1       4.889   0.802  -4.850  0.00  0.00     0.095 H 
ATOM      7  H   LIG d   1       3.803  -2.318  -4.238  0.00  0.00     0.082 H 
ATOM      8  H   LIG d   1       5.364  -3.194  -4.242  0.00  0.00     0.082 H 
ATOM      9  H   LIG d   1       4.493  -2.056  -1.950  0.00  0.00     0.032 H 
ATOM     10  H   LIG d   1       6.223  -1.898  -2.400  0.00  0.00     0.032 H 
ATOM     11  H   LIG d   1       3.948   0.121  -2.824  0.00  0.00     0.033 H 
ATOM     12  H   LIG d   1       5.598   0.421  -2.187  0.00  0.00     0.033 H 
ATOM     13  H   LIG d   1       6.363  -1.515  -5.321  0.00  0.00     0.204 HD
ENDROOT
BRANCH   5  14
ATOM     14  C   LIG d   1       6.945   0.550  -4.305  0.00  0.00     0.276 A 
ATOM     15  O   LIG d   1       8.001  -0.100  -4.810  0.00  0.00    -0.332 OA
ATOM     16  N   LIG d   1       9.134   0.716  -4.556  0.00  0.00    -0.056 NA
ATOM     17  C   LIG d   1       8.693   1.776  -3.922  0.00  0.00     0.208 A 
ATOM     18  N   LIG d   1       7.360   1.665  -3.774  0.00  0.00    -0.186 NA
BRANCH  17  19
ATOM     19  C   LIG d   1       9.525   2.908  -3.446  0.00  0.00     0.086 A 
ATOM     20  C   LIG d   1      10.668   2.673  -2.688  0.00  0.00     0.182 A 
ATOM     21  N   LIG d   1      11.415   3.675  -2.267  0.00  0.00    -0.198 N 
ATOM     22  H   LIG d   1      10.950   1.659  -2.445  0.00  0.00     0.138 H 
ATOM     23  C   LIG d   1      11.105   4.935  -2.537  0.00  0.00     0.272 A 
ATOM     24  H   LIG d   1      12.208   3.485  -1.744  0.00  0.00     0.454 HD
ATOM     25  C   LIG d   1       9.973   5.248  -3.285  0.00  0.00     0.027 A 
ATOM     26  C   LIG d   1       9.168   4.228  -3.749  0.00  0.00    -0.038 A 
ATOM     27  H   LIG d   1       9.729   6.278  -3.501  0.00  0.00     0.070 H 
ATOM     28  H   LIG d   1       8.285   4.442  -4.331  0.00  0.00     0.063 H 
BRANCH  23  29
ATOM     29  N   LIG d   1      11.920   5.955  -2.067  0.00  0.00    -0.274 N 
ATOM     30  C   LIG d   1      12.425   5.944  -0.684  0.00  0.00     0.041 C 
ATOM     31  C   LIG d   1      12.130   7.302  -0.046  0.00  0.00     0.064 C 
ATOM     32  H   LIG d   1      11.927   5.157  -0.118  0.00  0.00     0.049 H 
ATOM     33  H   LIG d   1      13.501   5.769  -0.688  0.00  0.00     0.049 H 
ATOM     34  O   LIG d   1      12.625   8.340  -0.895  0.00  0.00    -0.377 OA
ATOM     35  H   LIG d   1      12.619   7.362   0.926  0.00  0.00     0.058 H 
ATOM     36  H   LIG d   1      11.054   7.416   0.080  0.00  0.00     0.058 H 
ATOM     37  C   LIG d   1      12.006   8.388  -2.183  0.00  0.00     0.064 C 
ATOM     38  C   LIG d   1      12.300   7.083  -2.932  0.00  0.00     0.041 C 
ATOM     39  H   LIG d   1      12.405   9.230  -2.748  0.00  0.00     0.058 H 
ATOM     40  H   LIG d   1      10.929   8.505  -2.065  0.00  0.00     0.058 H 
ATOM     41  H   LIG d   1      13.362   7.025  -3.166  0.00  0.00     0.049 H 
ATOM     42  H   LIG d   1      11.718   7.049  -3.854  0.00  0.00     0.049 H 
ENDBRANCH  23  29
ENDBRANCH  17  19
ENDBRANCH   5  14
BRANCH   1  43
ATOM     43  C   LIG d   1       4.568  -1.110  -6.209  0.00  0.00    -0.017 C 
ATOM     44  C   LIG d   1       3.557   0.017  -5.984  0.00  0.00     0.006 C 
ATOM     45  C   LIG d   1       2.628   0.113  -7.198  0.00  0.00     0.020 C 
ATOM     46  H   LIG d   1       4.087   0.960  -5.855  0.00  0.00     0.034 H 
ATOM     47  H   LIG d   1       2.968  -0.196  -5.091  0.00  0.00     0.034 H 
ATOM     48  N   LIG d   1       3.446   0.270  -8.409  0.00  0.00    -0.301 N 
ATOM     49  H   LIG d   1       1.971   0.976  -7.088  0.00  0.00     0.047 H 
ATOM     50  H   LIG d   1       2.031  -0.796  -7.275  0.00  0.00     0.047 H 
ATOM     51  C   LIG d   1       3.225   1.291  -9.260  0.00  0.00     0.212 C 
ATOM     52  C   LIG d   1       4.505  -0.713  -8.677  0.00  0.00     0.020 C 
ATOM     53  O   LIG d   1       2.418   2.150  -8.978  0.00  0.00    -0.276 OA
ATOM     54  C   LIG d   1       5.416  -0.798  -7.443  0.00  0.00     0.006 C 
ATOM     55  H   LIG d   1       4.058  -1.688  -8.872  0.00  0.00     0.047 H 
ATOM     56  H   LIG d   1       5.087  -0.396  -9.542  0.00  0.00     0.047 H 
ATOM     57  H   LIG d   1       5.929   0.154  -7.300  0.00  0.00     0.034 H 
ATOM     58  H   LIG d   1       6.152  -1.589  -7.589  0.00  0.00     0.034 H 
ATOM     59  H   LIG d   1       4.036  -2.049  -6.362  0.00  0.00     0.085 H 
BRANCH  51  60
ATOM     60  C   LIG d   1       3.982   1.365 -10.560  0.00  0.00     0.012 C 
ATOM     61  H   LIG d   1       3.291   1.230 -11.392  0.00  0.00     0.032 H 
ATOM     62  H   LIG d   1       4.465   2.339 -10.644  0.00  0.00     0.032 H 
ATOM     63  H   LIG d   1       4.739   0.581 -10.585  0.00  0.00     0.032 H 
ENDBRANCH  51  60
ENDBRANCH   1  43
TORSDOF 5
ENDMDL
MODEL 4
REMARK VINA RESULT:      -6.9      8.051     12.458
REMARK  5 active torsions:
REMARK  status: ('A' for Active; 'I' for Inactive)
REMARK    1  A    between atoms: C_1  and  C_2 
REMARK       I    between atoms: C_2  and  N_4 
REMARK    2  A    between atoms: C_7  and  N_10 
REMARK    3  A    between atoms: C_14  and  C_16 
REMARK    4  A    between atoms: C_18  and  C_21 
REMARK    5  A    between atoms: C_24  and  N_27 
ROOT
ATOM      1  N   LIG d   1       7.326   1.253  -6.574  0.00  0.00     0.246 N 
ATOM      2  C   LIG d   1       6.812   0.867  -7.905  0.00  0.00    -0.031 C 
ATOM      3  C   LIG d   1       7.896   1.350  -8.901  0.00  0.00    -0.007 C 
ATOM      4  C   LIG d   1       9.198   1.064  -8.109  0.00  0.00     0.004 C 
ATOM      5  C   LIG d   1       8.794   1.369  -6.652  0.00  0.00     0.060 C 
ATOM      6  H   LIG d   1       9.259   0.648  -5.979  0.00  0.00     0.095 H 
ATOM      7  H   LIG d   1       6.693  -0.213  -7.968  0.00  0.00     0.082 H 
ATOM      8  H   LIG d   1       5.864   1.367  -8.105  0.00  0.00     0.082 H 
ATOM      9  H   LIG d   1       7.864   0.770  -9.823  0.00  0.00     0.032 H 
ATOM     10  H   LIG d   1       7.790   2.414  -9.108  0.00  0.00     0.032 H 
ATOM     11  H   LIG d   1       9.494   0.021  -8.217  0.00  0.00     0.033 H 
ATOM     12  H   LIG d   1      10.000   1.728  -8.433  0.00  0.00     0.033 H 
ATOM     13  H   LIG d   1       6.928   2.139  -6.301  0.00  0.00     0.204 HD
ENDROOT
BRANCH   5  14
ATOM     14  C   LIG d   1       9.217   2.768  -6.284  0.00  0.00     0.276 A 
ATOM     15  O   LIG d   1       9.727   3.677  -7.123  0.00  0.00    -0.332 OA
ATOM     16  N   LIG d   1       9.974   4.843  -6.350  0.00  0.00    -0.056 NA
ATOM     17  C   LIG d   1       9.610   4.558  -5.123  0.00  0.00     0.208 A 
ATOM     18  N   LIG d   1       9.151   3.293  -5.093  0.00  0.00    -0.186 NA
BRANCH  17  19
ATOM     19  C   LIG d   1       9.692   5.476  -3.962  0.00  0.00     0.086 A 
ATOM     20  C   LIG d   1       9.451   6.838  -4.120  0.00  0.00     0.182 A 
ATOM     21  N   LIG d   1       9.516   7.657  -3.090  0.00  0.00    -0.198 N 
ATOM     22  H   LIG d   1       9.204   7.226  -5.097  0.00  0.00     0.138 H 
ATOM     23  C   LIG d   1       9.821   7.225  -1.875  0.00  0.00     0.272 A 
ATOM     24  H   LIG d   1       9.341   8.601  -3.225  0.00  0.00     0.454 HD
ATOM     25  C   LIG d   1      10.081   5.878  -1.639  0.00  0.00     0.027 A 
ATOM     26  C   LIG d   1      10.017   4.986  -2.691  0.00  0.00    -0.038 A 
ATOM     27  H   LIG d   1      10.328   5.534  -0.646  0.00  0.00     0.070 H 
ATOM     28  H   LIG d   1      10.213   3.936  -2.537  0.00  0.00     0.063 H 
BRANCH  23  29
ATOM     29  N   LIG d   1       9.883   8.129  -0.823  0.00  0.00    -0.274 N 
ATOM     30  C   LIG d   1       8.988   9.297  -0.775  0.00  0.00     0.041 C 
ATOM     31  C   LIG d   1       9.831  10.547  -0.526  0.00  0.00     0.064 C 
ATOM     32  H   LIG d   1       8.460   9.394  -1.724  0.00  0.00     0.049 H 
ATOM     33  H   LIG d   1       8.269   9.174   0.035  0.00  0.00     0.049 H 
ATOM     34  O   LIG d   1      10.662  10.337   0.618  0.00  0.00    -0.377 OA
ATOM     35  H   LIG d   1       9.175  11.400  -0.348  0.00  0.00     0.058 H 
ATOM     36  H   LIG d   1      10.454  10.743  -1.398  0.00  0.00     0.058 H 
ATOM     37  C   LIG d   1      11.605   9.272   0.468  0.00  0.00     0.064 C 
ATOM     38  C   LIG d   1      10.849   7.953   0.273  0.00  0.00     0.041 C 
ATOM     39  H   LIG d   1      12.226   9.207   1.361  0.00  0.00     0.058 H 
ATOM     40  H   LIG d   1      12.234   9.463  -0.401  0.00  0.00     0.058 H 
ATOM     41  H   LIG d   1      10.321   7.694   1.190  0.00  0.00     0.049 H 
ATOM     42  H   LIG d   1      11.552   7.161   0.017  0.00  0.00     0.049 H 
ENDBRANCH  23  29
ENDBRANCH  17  19
ENDBRANCH   5  14
BRANCH   1  43
ATOM     43  C   LIG d   1       6.962   0.225  -5.588  0.00  0.00    -0.017 C 
ATOM     44  C   LIG d   1       7.058   0.814  -4.178  0.00  0.00     0.006 C 
ATOM     45  C   LIG d   1       6.713  -0.269  -3.152  0.00  0.00     0.020 C 
ATOM     46  H   LIG d   1       6.358   1.643  -4.082  0.00  0.00     0.034 H 
ATOM     47  H   LIG d   1       8.073   1.173  -4.002  0.00  0.00     0.034 H 
ATOM     48  N   LIG d   1       5.397  -0.832  -3.483  0.00  0.00    -0.301 N 
ATOM     49  H   LIG d   1       6.683   0.168  -2.155  0.00  0.00     0.047 H 
ATOM     50  H   LIG d   1       7.467  -1.057  -3.186  0.00  0.00     0.047 H 
ATOM     51  C   LIG d   1       4.418  -0.878  -2.557  0.00  0.00     0.212 C 
ATOM     52  C   LIG d   1       5.170  -1.349  -4.839  0.00  0.00     0.020 C 
ATOM     53  O   LIG d   1       4.582  -0.359  -1.475  0.00  0.00    -0.276 OA
ATOM     54  C   LIG d   1       5.531  -0.249  -5.848  0.00  0.00     0.006 C 
ATOM     55  H   LIG d   1       5.800  -2.223  -5.007  0.00  0.00     0.047 H 
ATOM     56  H   LIG d   1       4.122  -1.624  -4.955  0.00  0.00     0.047 H 
ATOM     57  H   LIG d   1       4.844   0.591  -5.736  0.00  0.00     0.034 H 
ATOM     58  H   LIG d   1       5.458  -0.646  -6.861  0.00  0.00     0.034 H 
ATOM     59  H   LIG d   1       7.647  -0.619  -5.676  0.00  0.00     0.085 H 
BRANCH  51  60
ATOM     60  C   LIG d   1       3.118  -1.575  -2.870  0.00  0.00     0.012 C 
ATOM     61  H   LIG d   1       2.678  -1.137  -3.765  0.00  0.00     0.032 H 
ATOM     62  H   LIG d   1       3.307  -2.636  -3.038  0.00  0.00     0.032 H 
ATOM     63  H   LIG d   1       2.432  -1.456  -2.031  0.00  0.00     0.032 H 
ENDBRANCH  51  60
ENDBRANCH   1  43
TORSDOF 5
ENDMDL
MODEL 5
REMARK VINA RESULT:      -6.9      6.481      8.797
REMARK  5 active torsions:
REMARK  status: ('A' for Active; 'I' for Inactive)
REMARK    1  A    between atoms: C_1  and  C_2 
REMARK       I    between atoms: C_2  and  N_4 
REMARK    2  A    between atoms: C_7  and  N_10 
REMARK    3  A    between atoms: C_14  and  C_16 
REMARK    4  A    between atoms: C_18  and  C_21 
REMARK    5  A    between atoms: C_24  and  N_27 
ROOT
ATOM      1  N   LIG d   1       5.545   0.432  -3.835  0.00  0.00     0.246 N 
ATOM      2  C   LIG d   1       5.321   1.078  -2.524  0.00  0.00    -0.031 C 
ATOM      3  C   LIG d   1       3.783   1.074  -2.339  0.00  0.00    -0.007 C 
ATOM      4  C   LIG d   1       3.396  -0.293  -2.964  0.00  0.00     0.004 C 
ATOM      5  C   LIG d   1       4.389  -0.433  -4.136  0.00  0.00     0.060 C 
ATOM      6  H   LIG d   1       4.716  -1.470  -4.224  0.00  0.00     0.095 H 
ATOM      7  H   LIG d   1       5.800   0.504  -1.731  0.00  0.00     0.082 H 
ATOM      8  H   LIG d   1       5.698   2.100  -2.535  0.00  0.00     0.082 H 
ATOM      9  H   LIG d   1       3.517   1.109  -1.283  0.00  0.00     0.032 H 
ATOM     10  H   LIG d   1       3.322   1.896  -2.884  0.00  0.00     0.032 H 
ATOM     11  H   LIG d   1       3.534  -1.099  -2.243  0.00  0.00     0.033 H 
ATOM     12  H   LIG d   1       2.369  -0.273  -3.329  0.00  0.00     0.033 H 
ATOM     13  H   LIG d   1       5.636   1.139  -4.549  0.00  0.00     0.204 HD
ENDROOT
BRANCH   5  14
ATOM     14  C   LIG d   1       3.736   0.013  -5.418  0.00  0.00     0.276 A 
ATOM     15  O   LIG d   1       2.993   1.116  -5.576  0.00  0.00    -0.332 OA
ATOM     16  N   LIG d   1       2.590   1.138  -6.937  0.00  0.00    -0.056 NA
ATOM     17  C   LIG d   1       3.100   0.065  -7.492  0.00  0.00     0.208 A 
ATOM     18  N   LIG d   1       3.795  -0.612  -6.560  0.00  0.00    -0.186 NA
BRANCH  17  19
ATOM     19  C   LIG d   1       2.937  -0.335  -8.910  0.00  0.00     0.086 A 
ATOM     20  C   LIG d   1       4.053  -0.556  -9.713  0.00  0.00     0.182 A 
ATOM     21  N   LIG d   1       3.914  -0.919 -10.973  0.00  0.00    -0.198 N 
ATOM     22  H   LIG d   1       5.042  -0.433  -9.299  0.00  0.00     0.138 H 
ATOM     23  C   LIG d   1       2.719  -1.076 -11.525  0.00  0.00     0.272 A 
ATOM     24  H   LIG d   1       4.706  -1.070 -11.511  0.00  0.00     0.454 HD
ATOM     25  C   LIG d   1       1.558  -0.868 -10.786  0.00  0.00     0.027 A 
ATOM     26  C   LIG d   1       1.660  -0.493  -9.462  0.00  0.00    -0.038 A 
ATOM     27  H   LIG d   1       0.588  -0.999 -11.243  0.00  0.00     0.070 H 
ATOM     28  H   LIG d   1       0.776  -0.325  -8.865  0.00  0.00     0.063 H 
BRANCH  23  29
ATOM     29  N   LIG d   1       2.626  -1.454 -12.858  0.00  0.00    -0.274 N 
ATOM     30  C   LIG d   1       1.452  -2.189 -13.356  0.00  0.00     0.041 C 
ATOM     31  C   LIG d   1       1.937  -3.417 -14.126  0.00  0.00     0.064 C 
ATOM     32  H   LIG d   1       0.834  -2.504 -12.515  0.00  0.00     0.049 H 
ATOM     33  H   LIG d   1       0.872  -1.548 -14.019  0.00  0.00     0.049 H 
ATOM     34  O   LIG d   1       2.896  -3.013 -15.106  0.00  0.00    -0.377 OA
ATOM     35  H   LIG d   1       1.091  -3.896 -14.619  0.00  0.00     0.058 H 
ATOM     36  H   LIG d   1       2.399  -4.120 -13.433  0.00  0.00     0.058 H 
ATOM     37  C   LIG d   1       4.077  -2.421 -14.559  0.00  0.00     0.064 C 
ATOM     38  C   LIG d   1       3.699  -1.137 -13.813  0.00  0.00     0.041 C 
ATOM     39  H   LIG d   1       4.772  -2.183 -15.365  0.00  0.00     0.058 H 
ATOM     40  H   LIG d   1       4.547  -3.119 -13.867  0.00  0.00     0.058 H 
ATOM     41  H   LIG d   1       3.350  -0.389 -14.523  0.00  0.00     0.049 H 
ATOM     42  H   LIG d   1       4.567  -0.755 -13.275  0.00  0.00     0.049 H 
ENDBRANCH  23  29
ENDBRANCH  17  19
ENDBRANCH   5  14
BRANCH   1  43
ATOM     43  C   LIG d   1       6.770  -0.378  -3.783  0.00  0.00    -0.017 C 
ATOM     44  C   LIG d   1       6.399  -1.852  -3.599  0.00  0.00     0.006 C 
ATOM     45  C   LIG d   1       7.678  -2.689  -3.510  0.00  0.00     0.020 C 
ATOM     46  H   LIG d   1       5.804  -2.186  -4.448  0.00  0.00     0.034 H 
ATOM     47  H   LIG d   1       5.822  -1.970  -2.681  0.00  0.00     0.034 H 
ATOM     48  N   LIG d   1       8.504  -2.418  -4.695  0.00  0.00    -0.301 N 
ATOM     49  H   LIG d   1       7.421  -3.747  -3.479  0.00  0.00     0.047 H 
ATOM     50  H   LIG d   1       8.230  -2.418  -2.609  0.00  0.00     0.047 H 
ATOM     51  C   LIG d   1       8.943  -3.428  -5.472  0.00  0.00     0.212 C 
ATOM     52  C   LIG d   1       8.849  -1.025  -5.012  0.00  0.00     0.020 C 
ATOM     53  O   LIG d   1       8.570  -4.562  -5.259  0.00  0.00    -0.276 OA
ATOM     54  C   LIG d   1       7.551  -0.206  -5.087  0.00  0.00     0.006 C 
ATOM     55  H   LIG d   1       9.494  -0.622  -4.232  0.00  0.00     0.047 H 
ATOM     56  H   LIG d   1       9.363  -0.986  -5.972  0.00  0.00     0.047 H 
ATOM     57  H   LIG d   1       6.945  -0.556  -5.923  0.00  0.00     0.034 H 
ATOM     58  H   LIG d   1       7.794   0.847  -5.229  0.00  0.00     0.034 H 
ATOM     59  H   LIG d   1       7.385  -0.052  -2.944  0.00  0.00     0.085 H 
BRANCH  51  60
ATOM     60  C   LIG d   1       9.895  -3.148  -6.606  0.00  0.00     0.012 C 
ATOM     61  H   LIG d   1       9.333  -2.807  -7.476  0.00  0.00     0.032 H 
ATOM     62  H   LIG d   1      10.601  -2.373  -6.304  0.00  0.00     0.032 H 
ATOM     63  H   LIG d   1      10.439  -4.058  -6.857  0.00  0.00     0.032 H 
ENDBRANCH  51  60
ENDBRANCH   1  43
TORSDOF 5
ENDMDL
MODEL 6
REMARK VINA RESULT:      -6.6      7.681      9.584
REMARK  5 active torsions:
REMARK  status: ('A' for Active; 'I' for Inactive)
REMARK    1  A    between atoms: C_1  and  C_2 
REMARK       I    between atoms: C_2  and  N_4 
REMARK    2  A    between atoms: C_7  and  N_10 
REMARK    3  A    between atoms: C_14  and  C_16 
REMARK    4  A    between atoms: C_18  and  C_21 
REMARK    5  A    between atoms: C_24  and  N_27 
ROOT
ATOM      1  N   LIG d   1       5.693   0.527  -3.751  0.00  0.00     0.246 N 
ATOM      2  C   LIG d   1       5.279   0.617  -2.335  0.00  0.00    -0.031 C 
ATOM      3  C   LIG d   1       3.986  -0.232  -2.248  0.00  0.00    -0.007 C 
ATOM      4  C   LIG d   1       4.311  -1.398  -3.218  0.00  0.00     0.004 C 
ATOM      5  C   LIG d   1       5.132  -0.708  -4.328  0.00  0.00     0.060 C 
ATOM      6  H   LIG d   1       5.938  -1.365  -4.655  0.00  0.00     0.095 H 
ATOM      7  H   LIG d   1       6.049   0.203  -1.686  0.00  0.00     0.082 H 
ATOM      8  H   LIG d   1       5.070   1.653  -2.067  0.00  0.00     0.082 H 
ATOM      9  H   LIG d   1       3.829  -0.600  -1.234  0.00  0.00     0.032 H 
ATOM     10  H   LIG d   1       3.122   0.334  -2.594  0.00  0.00     0.032 H 
ATOM     11  H   LIG d   1       4.906  -2.162  -2.717  0.00  0.00     0.033 H 
ATOM     12  H   LIG d   1       3.395  -1.827  -3.626  0.00  0.00     0.033 H 
ATOM     13  H   LIG d   1       5.345   1.327  -4.257  0.00  0.00     0.204 HD
ENDROOT
BRANCH   5  14
ATOM     14  C   LIG d   1       4.237  -0.369  -5.492  0.00  0.00     0.276 A 
ATOM     15  O   LIG d   1       3.490   0.735  -5.610  0.00  0.00    -0.332 OA
ATOM     16  N   LIG d   1       2.819   0.636  -6.857  0.00  0.00    -0.056 NA
ATOM     17  C   LIG d   1       3.194  -0.501  -7.390  0.00  0.00     0.208 A 
ATOM     18  N   LIG d   1       4.056  -1.106  -6.552  0.00  0.00    -0.186 NA
BRANCH  17  19
ATOM     19  C   LIG d   1       2.743  -1.034  -8.698  0.00  0.00     0.086 A 
ATOM     20  C   LIG d   1       3.133  -2.303  -9.116  0.00  0.00     0.182 A 
ATOM     21  N   LIG d   1       2.730  -2.784 -10.275  0.00  0.00    -0.198 N 
ATOM     22  H   LIG d   1       3.770  -2.902  -8.482  0.00  0.00     0.138 H 
ATOM     23  C   LIG d   1       1.953  -2.083 -11.087  0.00  0.00     0.272 A 
ATOM     24  H   LIG d   1       3.013  -3.672 -10.542  0.00  0.00     0.454 HD
ATOM     25  C   LIG d   1       1.526  -0.804 -10.741  0.00  0.00     0.027 A 
ATOM     26  C   LIG d   1       1.922  -0.266  -9.533  0.00  0.00    -0.038 A 
ATOM     27  H   LIG d   1       0.892  -0.240 -11.408  0.00  0.00     0.070 H 
ATOM     28  H   LIG d   1       1.605   0.723  -9.238  0.00  0.00     0.063 H 
BRANCH  23  29
ATOM     29  N   LIG d   1       1.560  -2.632 -12.300  0.00  0.00    -0.274 N 
ATOM     30  C   LIG d   1       2.541  -2.900 -13.364  0.00  0.00     0.041 C 
ATOM     31  C   LIG d   1       2.028  -2.286 -14.666  0.00  0.00     0.064 C 
ATOM     32  H   LIG d   1       3.499  -2.452 -13.100  0.00  0.00     0.049 H 
ATOM     33  H   LIG d   1       2.661  -3.976 -13.490  0.00  0.00     0.049 H 
ATOM     34  O   LIG d   1       0.693  -2.735 -14.907  0.00  0.00    -0.377 OA
ATOM     35  H   LIG d   1       2.671  -2.593 -15.492  0.00  0.00     0.058 H 
ATOM     36  H   LIG d   1       2.038  -1.200 -14.583  0.00  0.00     0.058 H 
ATOM     37  C   LIG d   1      -0.248  -2.335 -13.907  0.00  0.00     0.064 C 
ATOM     38  C   LIG d   1       0.149  -2.957 -12.564  0.00  0.00     0.041 C 
ATOM     39  H   LIG d   1      -1.244  -2.678 -14.187  0.00  0.00     0.058 H 
ATOM     40  H   LIG d   1      -0.247  -1.249 -13.820  0.00  0.00     0.058 H 
ATOM     41  H   LIG d   1       0.024  -4.038 -12.609  0.00  0.00     0.049 H 
ATOM     42  H   LIG d   1      -0.476  -2.547 -11.770  0.00  0.00     0.049 H 
ENDBRANCH  23  29
ENDBRANCH  17  19
ENDBRANCH   5  14
BRANCH   1  43
ATOM     43  C   LIG d   1       7.160   0.490  -3.834  0.00  0.00    -0.017 C 
ATOM     44  C   LIG d   1       7.580  -0.244  -5.111  0.00  0.00     0.006 C 
ATOM     45  C   LIG d   1       9.109  -0.312  -5.176  0.00  0.00     0.020 C 
ATOM     46  H   LIG d   1       7.202   0.294  -5.980  0.00  0.00     0.034 H 
ATOM     47  H   LIG d   1       7.170  -1.255  -5.101  0.00  0.00     0.034 H 
ATOM     48  N   LIG d   1       9.648   1.050  -5.058  0.00  0.00    -0.301 N 
ATOM     49  H   LIG d   1       9.415  -0.744  -6.129  0.00  0.00     0.047 H 
ATOM     50  H   LIG d   1       9.482  -0.926  -4.356  0.00  0.00     0.047 H 
ATOM     51  C   LIG d   1      10.505   1.531  -5.980  0.00  0.00     0.212 C 
ATOM     52  C   LIG d   1       9.241   1.873  -3.911  0.00  0.00     0.020 C 
ATOM     53  O   LIG d   1      10.755   0.883  -6.972  0.00  0.00    -0.276 OA
ATOM     54  C   LIG d   1       7.707   1.918  -3.862  0.00  0.00     0.006 C 
ATOM     55  H   LIG d   1       9.626   1.433  -2.990  0.00  0.00     0.047 H 
ATOM     56  H   LIG d   1       9.635   2.882  -4.028  0.00  0.00     0.047 H 
ATOM     57  H   LIG d   1       7.327   2.436  -4.743  0.00  0.00     0.034 H 
ATOM     58  H   LIG d   1       7.387   2.447  -2.964  0.00  0.00     0.034 H 
ATOM     59  H   LIG d   1       7.559  -0.036  -2.967  0.00  0.00     0.085 H 
BRANCH  51  60
ATOM     60  C   LIG d   1      11.151   2.878  -5.777  0.00  0.00     0.012 C 
ATOM     61  H   LIG d   1      11.487   3.268  -6.737  0.00  0.00     0.032 H 
ATOM     62  H   LIG d   1      10.427   3.565  -5.338  0.00  0.00     0.032 H 
ATOM     63  H   LIG d   1      12.005   2.774  -5.107  0.00  0.00     0.032 H 
ENDBRANCH  51  60
ENDBRANCH   1  43
TORSDOF 5
ENDMDL
MODEL 7
REMARK VINA RESULT:      -6.6      8.083     11.998
REMARK  5 active torsions:
REMARK  status: ('A' for Active; 'I' for Inactive)
REMARK    1  A    between atoms: C_1  and  C_2 
REMARK       I    between atoms: C_2  and  N_4 
REMARK    2  A    between atoms: C_7  and  N_10 
REMARK    3  A    between atoms: C_14  and  C_16 
REMARK    4  A    between atoms: C_18  and  C_21 
REMARK    5  A    between atoms: C_24  and  N_27 
ROOT
ATOM      1  N   LIG d   1       8.157   0.210  -6.380  0.00  0.00     0.246 N 
ATOM      2  C   LIG d   1       8.701  -0.799  -7.313  0.00  0.00    -0.031 C 
ATOM      3  C   LIG d   1      10.196  -0.929  -6.927  0.00  0.00    -0.007 C 
ATOM      4  C   LIG d   1      10.133  -0.791  -5.383  0.00  0.00     0.004 C 
ATOM      5  C   LIG d   1       9.001   0.236  -5.170  0.00  0.00     0.060 C 
ATOM      6  H   LIG d   1       8.407  -0.042  -4.299  0.00  0.00     0.095 H 
ATOM      7  H   LIG d   1       8.191  -1.753  -7.182  0.00  0.00     0.082 H 
ATOM      8  H   LIG d   1       8.605  -0.454  -8.342  0.00  0.00     0.082 H 
ATOM      9  H   LIG d   1      10.590  -1.902  -7.216  0.00  0.00     0.032 H 
ATOM     10  H   LIG d   1      10.784  -0.124  -7.367  0.00  0.00     0.032 H 
ATOM     11  H   LIG d   1       9.880  -1.745  -4.920  0.00  0.00     0.033 H 
ATOM     12  H   LIG d   1      11.076  -0.410  -4.991  0.00  0.00     0.033 H 
ATOM     13  H   LIG d   1       8.166   1.117  -6.820  0.00  0.00     0.204 HD
ENDROOT
BRANCH   5  14
ATOM     14  C   LIG d   1       9.584   1.612  -4.982  0.00  0.00     0.276 A 
ATOM     15  O   LIG d   1      10.376   2.252  -5.851  0.00  0.00    -0.332 OA
ATOM     16  N   LIG d   1      10.681   3.509  -5.267  0.00  0.00    -0.056 NA
ATOM     17  C   LIG d   1      10.070   3.537  -4.107  0.00  0.00     0.208 A 
ATOM     18  N   LIG d   1       9.406   2.378  -3.943  0.00  0.00    -0.186 NA
BRANCH  17  19
ATOM     19  C   LIG d   1      10.106   4.657  -3.137  0.00  0.00     0.086 A 
ATOM     20  C   LIG d   1      10.637   4.471  -1.864  0.00  0.00     0.182 A 
ATOM     21  N   LIG d   1      10.677   5.465  -0.999  0.00  0.00    -0.198 N 
ATOM     22  H   LIG d   1      11.024   3.503  -1.582  0.00  0.00     0.138 H 
ATOM     23  C   LIG d   1      10.209   6.668  -1.299  0.00  0.00     0.272 A 
ATOM     24  H   LIG d   1      11.055   5.312  -0.120  0.00  0.00     0.454 HD
ATOM     25  C   LIG d   1       9.658   6.929  -2.551  0.00  0.00     0.027 A 
ATOM     26  C   LIG d   1       9.603   5.916  -3.487  0.00  0.00    -0.038 A 
ATOM     27  H   LIG d   1       9.280   7.912  -2.787  0.00  0.00     0.070 H 
ATOM     28  H   LIG d   1       9.181   6.090  -4.465  0.00  0.00     0.063 H 
BRANCH  23  29
ATOM     29  N   LIG d   1      10.269   7.681  -0.352  0.00  0.00    -0.274 N 
ATOM     30  C   LIG d   1       9.534   8.942  -0.544  0.00  0.00     0.041 C 
ATOM     31  C   LIG d   1      10.499  10.107  -0.326  0.00  0.00     0.064 C 
ATOM     32  H   LIG d   1       9.133   8.982  -1.557  0.00  0.00     0.049 H 
ATOM     33  H   LIG d   1       8.719   9.004   0.177  0.00  0.00     0.049 H 
ATOM     34  O   LIG d   1      11.162   9.944   0.930  0.00  0.00    -0.377 OA
ATOM     35  H   LIG d   1       9.944  11.045  -0.326  0.00  0.00     0.058 H 
ATOM     36  H   LIG d   1      11.236  10.121  -1.128  0.00  0.00     0.058 H 
ATOM     37  C   LIG d   1      11.969   8.766   1.016  0.00  0.00     0.064 C 
ATOM     38  C   LIG d   1      11.075   7.530   0.870  0.00  0.00     0.041 C 
ATOM     39  H   LIG d   1      12.472   8.740   1.983  0.00  0.00     0.058 H 
ATOM     40  H   LIG d   1      12.711   8.775   0.218  0.00  0.00     0.058 H 
ATOM     41  H   LIG d   1      10.418   7.448   1.735  0.00  0.00     0.049 H 
ATOM     42  H   LIG d   1      11.694   6.636   0.793  0.00  0.00     0.049 H 
ENDBRANCH  23  29
ENDBRANCH  17  19
ENDBRANCH   5  14
BRANCH   1  43
ATOM     43  C   LIG d   1       6.779  -0.148  -6.014  0.00  0.00    -0.017 C 
ATOM     44  C   LIG d   1       6.554  -1.640  -6.275  0.00  0.00     0.006 C 
ATOM     45  C   LIG d   1       5.107  -2.003  -5.927  0.00  0.00     0.020 C 
ATOM     46  H   LIG d   1       7.235  -2.224  -5.656  0.00  0.00     0.034 H 
ATOM     47  H   LIG d   1       6.741  -1.858  -7.327  0.00  0.00     0.034 H 
ATOM     48  N   LIG d   1       4.834  -1.584  -4.545  0.00  0.00    -0.301 N 
ATOM     49  H   LIG d   1       4.969  -3.080  -6.015  0.00  0.00     0.047 H 
ATOM     50  H   LIG d   1       4.428  -1.487  -6.606  0.00  0.00     0.047 H 
ATOM     51  C   LIG d   1       4.346  -2.460  -3.645  0.00  0.00     0.212 C 
ATOM     52  C   LIG d   1       5.097  -0.188  -4.165  0.00  0.00     0.020 C 
ATOM     53  O   LIG d   1       4.228  -3.630  -3.941  0.00  0.00    -0.276 OA
ATOM     54  C   LIG d   1       6.549   0.153  -4.532  0.00  0.00     0.006 C 
ATOM     55  H   LIG d   1       4.417   0.471  -4.704  0.00  0.00     0.047 H 
ATOM     56  H   LIG d   1       4.952  -0.069  -3.092  0.00  0.00     0.047 H 
ATOM     57  H   LIG d   1       7.230  -0.449  -3.929  0.00  0.00     0.034 H 
ATOM     58  H   LIG d   1       6.733   1.210  -4.343  0.00  0.00     0.034 H 
ATOM     59  H   LIG d   1       6.082   0.433  -6.617  0.00  0.00     0.085 H 
BRANCH  51  60
ATOM     60  C   LIG d   1       3.948  -1.986  -2.271  0.00  0.00     0.012 C 
ATOM     61  H   LIG d   1       3.454  -2.797  -1.736  0.00  0.00     0.032 H 
ATOM     62  H   LIG d   1       4.838  -1.678  -1.722  0.00  0.00     0.032 H 
ATOM     63  H   LIG d   1       3.266  -1.141  -2.362  0.00  0.00     0.032 H 
ENDBRANCH  51  60
ENDBRANCH   1  43
TORSDOF 5
ENDMDL
MODEL 8
REMARK VINA RESULT:      -6.5      7.669     10.528
REMARK  5 active torsions:
REMARK  status: ('A' for Active; 'I' for Inactive)
REMARK    1  A    between atoms: C_1  and  C_2 
REMARK       I    between atoms: C_2  and  N_4 
REMARK    2  A    between atoms: C_7  and  N_10 
REMARK    3  A    between atoms: C_14  and  C_16 
REMARK    4  A    between atoms: C_18  and  C_21 
REMARK    5  A    between atoms: C_24  and  N_27 
ROOT
ATOM      1  N   LIG d   1       4.183  -0.143  -8.368  0.00  0.00     0.246 N 
ATOM      2  C   LIG d   1       5.035   1.036  -8.634  0.00  0.00    -0.031 C 
ATOM      3  C   LIG d   1       4.239   1.874  -9.665  0.00  0.00    -0.007 C 
ATOM      4  C   LIG d   1       2.781   1.669  -9.177  0.00  0.00     0.004 C 
ATOM      5  C   LIG d   1       2.784   0.209  -8.675  0.00  0.00     0.060 C 
ATOM      6  H   LIG d   1       2.175   0.126  -7.774  0.00  0.00     0.095 H 
ATOM      7  H   LIG d   1       5.190   1.607  -7.719  0.00  0.00     0.082 H 
ATOM      8  H   LIG d   1       5.991   0.725  -9.055  0.00  0.00     0.082 H 
ATOM      9  H   LIG d   1       4.523   2.924  -9.616  0.00  0.00     0.032 H 
ATOM     10  H   LIG d   1       4.372   1.482 -10.673  0.00  0.00     0.032 H 
ATOM     11  H   LIG d   1       2.546   2.356  -8.364  0.00  0.00     0.033 H 
ATOM     12  H   LIG d   1       2.078   1.790 -10.001  0.00  0.00     0.033 H 
ATOM     13  H   LIG d   1       4.476  -0.911  -8.952  0.00  0.00     0.204 HD
ENDROOT
BRANCH   5  14
ATOM     14  C   LIG d   1       2.250  -0.704  -9.747  0.00  0.00     0.276 A 
ATOM     15  O   LIG d   1       2.117  -0.396 -11.043  0.00  0.00    -0.332 OA
ATOM     16  N   LIG d   1       1.582  -1.548 -11.677  0.00  0.00    -0.056 NA
ATOM     17  C   LIG d   1       1.425  -2.449 -10.738  0.00  0.00     0.208 A 
ATOM     18  N   LIG d   1       1.834  -1.925  -9.568  0.00  0.00    -0.186 NA
BRANCH  17  19
ATOM     19  C   LIG d   1       0.886  -3.816 -10.933  0.00  0.00     0.086 A 
ATOM     20  C   LIG d   1      -0.210  -4.031 -11.763  0.00  0.00     0.182 A 
ATOM     21  N   LIG d   1      -0.690  -5.245 -11.945  0.00  0.00    -0.198 N 
ATOM     22  H   LIG d   1      -0.670  -3.194 -12.268  0.00  0.00     0.138 H 
ATOM     23  C   LIG d   1      -0.160  -6.300 -11.342  0.00  0.00     0.272 A 
ATOM     24  H   LIG d   1      -1.451  -5.369 -12.531  0.00  0.00     0.454 HD
ATOM     25  C   LIG d   1       0.934  -6.164 -10.492  0.00  0.00     0.027 A 
ATOM     26  C   LIG d   1       1.470  -4.909 -10.280  0.00  0.00    -0.038 A 
ATOM     27  H   LIG d   1       1.360  -7.028 -10.006  0.00  0.00     0.070 H 
ATOM     28  H   LIG d   1       2.318  -4.774  -9.627  0.00  0.00     0.063 H 
BRANCH  23  29
ATOM     29  N   LIG d   1      -0.705  -7.558 -11.561  0.00  0.00    -0.274 N 
ATOM     30  C   LIG d   1      -2.142  -7.806 -11.358  0.00  0.00     0.041 C 
ATOM     31  C   LIG d   1      -2.303  -9.040 -10.470  0.00  0.00     0.064 C 
ATOM     32  H   LIG d   1      -2.598  -6.943 -10.874  0.00  0.00     0.049 H 
ATOM     33  H   LIG d   1      -2.623  -7.984 -12.320  0.00  0.00     0.049 H 
ATOM     34  O   LIG d   1      -1.543 -10.120 -11.018  0.00  0.00    -0.377 OA
ATOM     35  H   LIG d   1      -3.355  -9.321 -10.424  0.00  0.00     0.058 H 
ATOM     36  H   LIG d   1      -1.943  -8.813  -9.467  0.00  0.00     0.058 H 
ATOM     37  C   LIG d   1      -0.135  -9.876 -11.071  0.00  0.00     0.064 C 
ATOM     38  C   LIG d   1       0.136  -8.684 -11.996  0.00  0.00     0.041 C 
ATOM     39  H   LIG d   1       0.373 -10.759 -11.457  0.00  0.00     0.058 H 
ATOM     40  H   LIG d   1       0.233  -9.651 -10.070  0.00  0.00     0.058 H 
ATOM     41  H   LIG d   1      -0.111  -8.952 -13.022  0.00  0.00     0.049 H 
ATOM     42  H   LIG d   1       1.187  -8.401 -11.933  0.00  0.00     0.049 H 
ENDBRANCH  23  29
ENDBRANCH  17  19
ENDBRANCH   5  14
BRANCH   1  43
ATOM     43  C   LIG d   1       4.298  -0.526  -6.954  0.00  0.00    -0.017 C 
ATOM     44  C   LIG d   1       5.684  -0.137  -6.431  0.00  0.00     0.006 C 
ATOM     45  C   LIG d   1       5.813  -0.569  -4.968  0.00  0.00     0.020 C 
ATOM     46  H   LIG d   1       5.810   0.943  -6.504  0.00  0.00     0.034 H 
ATOM     47  H   LIG d   1       6.450  -0.634  -7.027  0.00  0.00     0.034 H 
ATOM     48  N   LIG d   1       4.697   0.006  -4.204  0.00  0.00    -0.301 N 
ATOM     49  H   LIG d   1       6.757  -0.208  -4.562  0.00  0.00     0.047 H 
ATOM     50  H   LIG d   1       5.778  -1.657  -4.904  0.00  0.00     0.047 H 
ATOM     51  C   LIG d   1       4.928   0.736  -3.095  0.00  0.00     0.212 C 
ATOM     52  C   LIG d   1       3.324  -0.236  -4.669  0.00  0.00     0.020 C 
ATOM     53  O   LIG d   1       6.065   1.014  -2.778  0.00  0.00    -0.276 OA
ATOM     54  C   LIG d   1       3.223   0.197  -6.140  0.00  0.00     0.006 C 
ATOM     55  H   LIG d   1       3.091  -1.297  -4.581  0.00  0.00     0.047 H 
ATOM     56  H   LIG d   1       2.627   0.345  -4.067  0.00  0.00     0.047 H 
ATOM     57  H   LIG d   1       3.373   1.274  -6.215  0.00  0.00     0.034 H 
ATOM     58  H   LIG d   1       2.238  -0.062  -6.528  0.00  0.00     0.034 H 
ATOM     59  H   LIG d   1       4.165  -1.603  -6.858  0.00  0.00     0.085 H 
BRANCH  51  60
ATOM     60  C   LIG d   1       3.773   1.209  -2.250  0.00  0.00     0.012 C 
ATOM     61  H   LIG d   1       3.824   0.738  -1.269  0.00  0.00     0.032 H 
ATOM     62  H   LIG d   1       3.826   2.292  -2.137  0.00  0.00     0.032 H 
ATOM     63  H   LIG d   1       2.835   0.940  -2.735  0.00  0.00     0.032 H 
ENDBRANCH  51  60
ENDBRANCH   1  43
TORSDOF 5
ENDMDL
MODEL 9
REMARK VINA RESULT:      -6.5      8.822     13.840
REMARK  5 active torsions:
REMARK  status: ('A' for Active; 'I' for Inactive)
REMARK    1  A    between atoms: C_1  and  C_2 
REMARK       I    between atoms: C_2  and  N_4 
REMARK    2  A    between atoms: C_7  and  N_10 
REMARK    3  A    between atoms: C_14  and  C_16 
REMARK    4  A    between atoms: C_18  and  C_21 
REMARK    5  A    between atoms: C_24  and  N_27 
ROOT
ATOM      1  N   LIG d   1      11.617   5.010  -2.411  0.00  0.00     0.246 N 
ATOM      2  C   LIG d   1      13.084   5.002  -2.227  0.00  0.00    -0.031 C 
ATOM      3  C   LIG d   1      13.662   5.026  -3.664  0.00  0.00    -0.007 C 
ATOM      4  C   LIG d   1      12.657   5.958  -4.391  0.00  0.00     0.004 C 
ATOM      5  C   LIG d   1      11.311   5.605  -3.725  0.00  0.00     0.060 C 
ATOM      6  H   LIG d   1      10.715   6.509  -3.592  0.00  0.00     0.095 H 
ATOM      7  H   LIG d   1      13.403   5.886  -1.676  0.00  0.00     0.082 H 
ATOM      8  H   LIG d   1      13.396   4.096  -1.708  0.00  0.00     0.082 H 
ATOM      9  H   LIG d   1      14.665   5.450  -3.674  0.00  0.00     0.032 H 
ATOM     10  H   LIG d   1      13.657   4.029  -4.104  0.00  0.00     0.032 H 
ATOM     11  H   LIG d   1      12.909   7.005  -4.220  0.00  0.00     0.033 H 
ATOM     12  H   LIG d   1      12.629   5.737  -5.458  0.00  0.00     0.033 H 
ATOM     13  H   LIG d   1      11.267   4.065  -2.376  0.00  0.00     0.204 HD
ENDROOT
BRANCH   5  14
ATOM     14  C   LIG d   1      10.562   4.612  -4.575  0.00  0.00     0.276 A 
ATOM     15  O   LIG d   1      10.694   4.459  -5.899  0.00  0.00    -0.332 OA
ATOM     16  N   LIG d   1       9.806   3.416  -6.273  0.00  0.00    -0.056 NA
ATOM     17  C   LIG d   1       9.208   3.026  -5.173  0.00  0.00     0.208 A 
ATOM     18  N   LIG d   1       9.675   3.760  -4.146  0.00  0.00    -0.186 NA
BRANCH  17  19
ATOM     19  C   LIG d   1       8.186   1.956  -5.077  0.00  0.00     0.086 A 
ATOM     20  C   LIG d   1       7.499   1.742  -3.885  0.00  0.00     0.182 A 
ATOM     21  N   LIG d   1       6.585   0.796  -3.796  0.00  0.00    -0.198 N 
ATOM     22  H   LIG d   1       7.713   2.360  -3.026  0.00  0.00     0.138 H 
ATOM     23  C   LIG d   1       6.293   0.010  -4.822  0.00  0.00     0.272 A 
ATOM     24  H   LIG d   1       6.118   0.669  -2.956  0.00  0.00     0.454 HD
ATOM     25  C   LIG d   1       6.943   0.160  -6.044  0.00  0.00     0.027 A 
ATOM     26  C   LIG d   1       7.903   1.143  -6.181  0.00  0.00    -0.038 A 
ATOM     27  H   LIG d   1       6.699  -0.484  -6.876  0.00  0.00     0.070 H 
ATOM     28  H   LIG d   1       8.422   1.282  -7.117  0.00  0.00     0.063 H 
BRANCH  23  29
ATOM     29  N   LIG d   1       5.327  -0.976  -4.676  0.00  0.00    -0.274 N 
ATOM     30  C   LIG d   1       4.250  -0.838  -3.683  0.00  0.00     0.041 C 
ATOM     31  C   LIG d   1       4.187  -2.119  -2.851  0.00  0.00     0.064 C 
ATOM     32  H   LIG d   1       4.457   0.012  -3.033  0.00  0.00     0.049 H 
ATOM     33  H   LIG d   1       3.298  -0.688  -4.193  0.00  0.00     0.049 H 
ATOM     34  O   LIG d   1       4.105  -3.247  -3.724  0.00  0.00    -0.377 OA
ATOM     35  H   LIG d   1       3.309  -2.092  -2.206  0.00  0.00     0.058 H 
ATOM     36  H   LIG d   1       5.085  -2.197  -2.239  0.00  0.00     0.058 H 
ATOM     37  C   LIG d   1       5.240  -3.409  -4.579  0.00  0.00     0.064 C 
ATOM     38  C   LIG d   1       5.353  -2.192  -5.504  0.00  0.00     0.041 C 
ATOM     39  H   LIG d   1       5.120  -4.312  -5.178  0.00  0.00     0.058 H 
ATOM     40  H   LIG d   1       6.143  -3.491  -3.973  0.00  0.00     0.058 H 
ATOM     41  H   LIG d   1       4.515  -2.181  -6.199  0.00  0.00     0.049 H 
ATOM     42  H   LIG d   1       6.291  -2.237  -6.058  0.00  0.00     0.049 H 
ENDBRANCH  23  29
ENDBRANCH  17  19
ENDBRANCH   5  14
BRANCH   1  43
ATOM     43  C   LIG d   1      10.991   5.808  -1.348  0.00  0.00    -0.017 C 
ATOM     44  C   LIG d   1      11.759   5.606  -0.039  0.00  0.00     0.006 C 
ATOM     45  C   LIG d   1      11.083   6.411   1.075  0.00  0.00     0.020 C 
ATOM     46  H   LIG d   1      12.786   5.948  -0.164  0.00  0.00     0.034 H 
ATOM     47  H   LIG d   1      11.757   4.547   0.224  0.00  0.00     0.034 H 
ATOM     48  N   LIG d   1      10.977   7.813   0.648  0.00  0.00    -0.301 N 
ATOM     49  H   LIG d   1      11.680   6.350   1.984  0.00  0.00     0.047 H 
ATOM     50  H   LIG d   1      10.086   6.009   1.262  0.00  0.00     0.047 H 
ATOM     51  C   LIG d   1      11.458   8.805   1.423  0.00  0.00     0.212 C 
ATOM     52  C   LIG d   1      10.331   8.113  -0.638  0.00  0.00     0.020 C 
ATOM     53  O   LIG d   1      12.077   8.541   2.431  0.00  0.00    -0.276 OA
ATOM     54  C   LIG d   1      11.020   7.288  -1.735  0.00  0.00     0.006 C 
ATOM     55  H   LIG d   1       9.275   7.847  -0.586  0.00  0.00     0.047 H 
ATOM     56  H   LIG d   1      10.433   9.175  -0.858  0.00  0.00     0.047 H 
ATOM     57  H   LIG d   1      12.055   7.614  -1.843  0.00  0.00     0.034 H 
ATOM     58  H   LIG d   1      10.494   7.427  -2.679  0.00  0.00     0.034 H 
ATOM     59  H   LIG d   1       9.958   5.487  -1.215  0.00  0.00     0.085 H 
BRANCH  51  60
ATOM     60  C   LIG d   1      11.227  10.243   1.036  0.00  0.00     0.012 C 
ATOM     61  H   LIG d   1      11.470  10.890   1.878  0.00  0.00     0.032 H 
ATOM     62  H   LIG d   1      11.862  10.497   0.187  0.00  0.00     0.032 H 
ATOM     63  H   LIG d   1      10.181  10.382   0.761  0.00  0.00     0.032 H 
ENDBRANCH  51  60
ENDBRANCH   1  43
TORSDOF 5
ENDMDL
