MODEL 1
REMARK VINA RESULT:      -7.5      0.000      0.000
REMARK  5 active torsions:
REMARK  status: ('A' for Active; 'I' for Inactive)
REMARK    1  A    between atoms: C_1  and  C_2 
REMARK    2  A    between atoms: C_2  and  C_3 
REMARK    3  A    between atoms: C_2  and  C_4 
REMARK       I    between atoms: C_4  and  N_6 
REMARK    4  A    between atoms: N_6  and  C_7 
REMARK    5  A    between atoms: C_11  and  C_13 
ROOT
ATOM      1  C   LIG d   1      10.499   3.511  -3.308  0.00  0.00     0.034 A 
ATOM      2  C   LIG d   1      10.659   4.070  -4.570  0.00  0.00    -0.040 A 
ATOM      3  C   LIG d   1       9.821   3.704  -5.606  0.00  0.00    -0.059 A 
ATOM      4  C   LIG d   1       8.820   2.779  -5.395  0.00  0.00    -0.049 A 
ATOM      5  C   LIG d   1       8.649   2.210  -4.130  0.00  0.00     0.039 A 
ATOM      6  C   LIG d   1       9.499   2.577  -3.086  0.00  0.00    -0.028 A 
ATOM      7  H   LIG d   1      11.441   4.795  -4.742  0.00  0.00     0.064 H 
ATOM      8  H   LIG d   1       9.952   4.141  -6.585  0.00  0.00     0.062 H 
ATOM      9  H   LIG d   1       8.166   2.494  -6.207  0.00  0.00     0.062 H 
ATOM     10  H   LIG d   1       9.376   2.137  -2.107  0.00  0.00     0.064 H 
ENDROOT
BRANCH   5  11
ATOM     11  C   LIG d   1       7.577   1.220  -3.901  0.00  0.00     0.232 C 
ATOM     12  O   LIG d   1       7.773  -0.052  -4.309  0.00  0.00    -0.403 OA
ATOM     13  C   LIG d   1       7.089  -1.024  -3.643  0.00  0.00     0.348 C 
ATOM     14  C   LIG d   1       5.734  -0.647  -3.205  0.00  0.00     0.085 A 
ATOM     15  O   LIG d   1       7.561  -2.125  -3.430  0.00  0.00    -0.244 OA
ATOM     16  C   LIG d   1       5.470   0.737  -3.060  0.00  0.00     0.082 A 
ATOM     17  C   LIG d   1       4.739  -1.582  -2.943  0.00  0.00    -0.046 A 
ATOM     18  N   LIG d   1       6.473   1.611  -3.316  0.00  0.00    -0.212 NA
ATOM     19  C   LIG d   1       4.200   1.151  -2.659  0.00  0.00    -0.035 A 
ATOM     20  C   LIG d   1       3.226   0.210  -2.408  0.00  0.00    -0.060 A 
ATOM     21  H   LIG d   1       3.981   2.202  -2.547  0.00  0.00     0.064 H 
ATOM     22  C   LIG d   1       3.491  -1.147  -2.547  0.00  0.00    -0.061 A 
ATOM     23  H   LIG d   1       2.243   0.530  -2.098  0.00  0.00     0.062 H 
ATOM     24  H   LIG d   1       2.714  -1.868  -2.342  0.00  0.00     0.062 H 
ATOM     25  H   LIG d   1       4.941  -2.637  -3.050  0.00  0.00     0.063 H 
ENDBRANCH   5  11
BRANCH   1  26
ATOM     26  N   LIG d   1      11.350   3.886  -2.262  0.00  0.00    -0.285 N 
ATOM     27  C   LIG d   1      11.062   4.970  -1.515  0.00  0.00     0.220 C 
ATOM     28  O   LIG d   1      10.113   5.669  -1.800  0.00  0.00    -0.275 OA
ATOM     29  H   LIG d   1      12.147   3.366  -2.075  0.00  0.00     0.155 HD
BRANCH  27  30
ATOM     30  C   LIG d   1      11.920   5.314  -0.325  0.00  0.00     0.030 C 
ATOM     31  H   LIG d   1      12.368   4.404   0.075  0.00  0.00     0.039 H 
BRANCH  30  32
ATOM     32  C   LIG d   1      13.028   6.279  -0.757  0.00  0.00    -0.054 C 
ATOM     33  H   LIG d   1      13.517   6.688   0.126  0.00  0.00     0.024 H 
ATOM     34  H   LIG d   1      13.759   5.744  -1.363  0.00  0.00     0.024 H 
ATOM     35  H   LIG d   1      12.594   7.090  -1.342  0.00  0.00     0.024 H 
ENDBRANCH  30  32
BRANCH  30  36
ATOM     36  C   LIG d   1      11.059   5.976   0.752  0.00  0.00    -0.054 C 
ATOM     37  H   LIG d   1      11.601   6.818   1.183  0.00  0.00     0.024 H 
ATOM     38  H   LIG d   1      10.130   6.332   0.306  0.00  0.00     0.024 H 
ATOM     39  H   LIG d   1      10.832   5.251   1.533  0.00  0.00     0.024 H 
ENDBRANCH  30  36
ENDBRANCH  27  30
ENDBRANCH   1  26
TORSDOF 5
ENDMDL
MODEL 2
REMARK VINA RESULT:      -6.9      6.727      9.314
REMARK  5 active torsions:
REMARK  status: ('A' for Active; 'I' for Inactive)
REMARK    1  A    between atoms: C_1  and  C_2 
REMARK    2  A    between atoms: C_2  and  C_3 
REMARK    3  A    between atoms: C_2  and  C_4 
REMARK       I    between atoms: C_4  and  N_6 
REMARK    4  A    between atoms: N_6  and  C_7 
REMARK    5  A    between atoms: C_11  and  C_13 
ROOT
ATOM      1  C   LIG d   1       4.454   0.600 -10.594  0.00  0.00     0.034 A 
ATOM      2  C   LIG d   1       3.793   1.823 -10.607  0.00  0.00    -0.040 A 
ATOM      3  C   LIG d   1       3.190   2.300  -9.459  0.00  0.00    -0.059 A 
ATOM      4  C   LIG d   1       3.237   1.564  -8.292  0.00  0.00    -0.049 A 
ATOM      5  C   LIG d   1       3.898   0.334  -8.269  0.00  0.00     0.039 A 
ATOM      6  C   LIG d   1       4.503  -0.150  -9.430  0.00  0.00    -0.028 A 
ATOM      7  H   LIG d   1       3.753   2.403 -11.516  0.00  0.00     0.064 H 
ATOM      8  H   LIG d   1       2.677   3.251  -9.475  0.00  0.00     0.062 H 
ATOM      9  H   LIG d   1       2.763   1.940  -7.396  0.00  0.00     0.062 H 
ATOM     10  H   LIG d   1       5.011  -1.102  -9.419  0.00  0.00     0.064 H 
ENDROOT
BRANCH   5  11
ATOM     11  C   LIG d   1       3.950  -0.455  -7.021  0.00  0.00     0.232 C 
ATOM     12  O   LIG d   1       4.208  -1.778  -7.102  0.00  0.00    -0.403 OA
ATOM     13  C   LIG d   1       4.784  -2.361  -6.014  0.00  0.00     0.348 C 
ATOM     14  C   LIG d   1       4.344  -1.828  -4.712  0.00  0.00     0.085 A 
ATOM     15  O   LIG d   1       5.599  -3.258  -6.108  0.00  0.00    -0.244 OA
ATOM     16  C   LIG d   1       3.802  -0.519  -4.706  0.00  0.00     0.082 A 
ATOM     17  C   LIG d   1       4.437  -2.552  -3.530  0.00  0.00    -0.046 A 
ATOM     18  N   LIG d   1       3.740   0.154  -5.882  0.00  0.00    -0.212 NA
ATOM     19  C   LIG d   1       3.358   0.031  -3.505  0.00  0.00    -0.035 A 
ATOM     20  C   LIG d   1       3.456  -0.704  -2.344  0.00  0.00    -0.060 A 
ATOM     21  H   LIG d   1       2.940   1.026  -3.483  0.00  0.00     0.064 H 
ATOM     22  C   LIG d   1       3.992  -1.986  -2.353  0.00  0.00    -0.061 A 
ATOM     23  H   LIG d   1       3.113  -0.279  -1.413  0.00  0.00     0.062 H 
ATOM     24  H   LIG d   1       4.063  -2.543  -1.432  0.00  0.00     0.062 H 
ATOM     25  H   LIG d   1       4.853  -3.549  -3.533  0.00  0.00     0.063 H 
ENDBRANCH   5  11
BRANCH   1  26
ATOM     26  N   LIG d   1       5.064   0.122 -11.760  0.00  0.00    -0.285 N 
ATOM     27  C   LIG d   1       4.332  -0.530 -12.685  0.00  0.00     0.220 C 
ATOM     28  O   LIG d   1       3.164  -0.777 -12.471  0.00  0.00    -0.275 OA
ATOM     29  H   LIG d   1       6.013   0.260 -11.902  0.00  0.00     0.155 HD
BRANCH  27  30
ATOM     30  C   LIG d   1       4.965  -0.952 -13.985  0.00  0.00     0.030 C 
ATOM     31  H   LIG d   1       5.986  -0.573 -14.032  0.00  0.00     0.039 H 
BRANCH  30  32
ATOM     32  C   LIG d   1       4.985  -2.481 -14.070  0.00  0.00    -0.054 C 
ATOM     33  H   LIG d   1       5.921  -2.806 -14.523  0.00  0.00     0.024 H 
ATOM     34  H   LIG d   1       4.901  -2.901 -13.068  0.00  0.00     0.024 H 
ATOM     35  H   LIG d   1       4.148  -2.821 -14.680  0.00  0.00     0.024 H 
ENDBRANCH  30  32
BRANCH  30  36
ATOM     36  C   LIG d   1       4.156  -0.388 -15.155  0.00  0.00    -0.054 C 
ATOM     37  H   LIG d   1       4.597  -0.719 -16.094  0.00  0.00     0.024 H 
ATOM     38  H   LIG d   1       3.128  -0.745 -15.090  0.00  0.00     0.024 H 
ATOM     39  H   LIG d   1       4.166   0.701 -15.112  0.00  0.00     0.024 H 
ENDBRANCH  30  36
ENDBRANCH  27  30
ENDBRANCH   1  26
TORSDOF 5
ENDMDL
MODEL 3
REMARK VINA RESULT:      -6.9      1.486      1.764
REMARK  5 active torsions:
REMARK  status: ('A' for Active; 'I' for Inactive)
REMARK    1  A    between atoms: C_1  and  C_2 
REMARK    2  A    between atoms: C_2  and  C_3 
REMARK    3  A    between atoms: C_2  and  C_4 
REMARK       I    between atoms: C_4  and  N_6 
REMARK    4  A    between atoms: N_6  and  C_7 
REMARK    5  A    between atoms: C_11  and  C_13 
ROOT
ATOM      1  C   LIG d   1       9.867   4.031  -4.263  0.00  0.00     0.034 A 
ATOM      2  C   LIG d   1      11.058   3.476  -4.718  0.00  0.00    -0.040 A 
ATOM      3  C   LIG d   1      11.160   2.113  -4.915  0.00  0.00    -0.059 A 
ATOM      4  C   LIG d   1      10.080   1.292  -4.661  0.00  0.00    -0.049 A 
ATOM      5  C   LIG d   1       8.879   1.839  -4.203  0.00  0.00     0.039 A 
ATOM      6  C   LIG d   1       8.778   3.215  -3.999  0.00  0.00    -0.028 A 
ATOM      7  H   LIG d   1      11.905   4.114  -4.919  0.00  0.00     0.064 H 
ATOM      8  H   LIG d   1      12.087   1.687  -5.268  0.00  0.00     0.062 H 
ATOM      9  H   LIG d   1      10.163   0.225  -4.816  0.00  0.00     0.062 H 
ATOM     10  H   LIG d   1       7.854   3.644  -3.642  0.00  0.00     0.064 H 
ENDROOT
BRANCH   5  11
ATOM     11  C   LIG d   1       7.722   0.962  -3.931  0.00  0.00     0.232 C 
ATOM     12  O   LIG d   1       7.806  -0.343  -4.265  0.00  0.00    -0.403 OA
ATOM     13  C   LIG d   1       7.035  -1.213  -3.553  0.00  0.00     0.348 C 
ATOM     14  C   LIG d   1       5.716  -0.693  -3.151  0.00  0.00     0.085 A 
ATOM     15  O   LIG d   1       7.406  -2.336  -3.274  0.00  0.00    -0.244 OA
ATOM     16  C   LIG d   1       5.575   0.715  -3.086  0.00  0.00     0.082 A 
ATOM     17  C   LIG d   1       4.641  -1.520  -2.848  0.00  0.00    -0.046 A 
ATOM     18  N   LIG d   1       6.654   1.481  -3.380  0.00  0.00    -0.212 NA
ATOM     19  C   LIG d   1       4.345   1.262  -2.722  0.00  0.00    -0.035 A 
ATOM     20  C   LIG d   1       3.290   0.426  -2.429  0.00  0.00    -0.060 A 
ATOM     21  H   LIG d   1       4.220   2.333  -2.671  0.00  0.00     0.064 H 
ATOM     22  C   LIG d   1       3.434  -0.955  -2.490  0.00  0.00    -0.061 A 
ATOM     23  H   LIG d   1       2.338   0.849  -2.148  0.00  0.00     0.062 H 
ATOM     24  H   LIG d   1       2.595  -1.591  -2.252  0.00  0.00     0.062 H 
ATOM     25  H   LIG d   1       4.748  -2.593  -2.894  0.00  0.00     0.063 H 
ENDBRANCH   5  11
BRANCH   1  26
ATOM     26  N   LIG d   1       9.769   5.413  -4.066  0.00  0.00    -0.285 N 
ATOM     27  C   LIG d   1       9.972   5.935  -2.839  0.00  0.00     0.220 C 
ATOM     28  O   LIG d   1      10.156   5.202  -1.891  0.00  0.00    -0.275 OA
ATOM     29  H   LIG d   1       9.556   5.996  -4.811  0.00  0.00     0.155 HD
BRANCH  27  30
ATOM     30  C   LIG d   1       9.970   7.429  -2.647  0.00  0.00     0.030 C 
ATOM     31  H   LIG d   1       9.348   7.893  -3.412  0.00  0.00     0.039 H 
BRANCH  30  32
ATOM     32  C   LIG d   1       9.409   7.764  -1.262  0.00  0.00    -0.054 C 
ATOM     33  H   LIG d   1       9.724   7.002  -0.549  0.00  0.00     0.024 H 
ATOM     34  H   LIG d   1       9.784   8.736  -0.944  0.00  0.00     0.024 H 
ATOM     35  H   LIG d   1       8.320   7.791  -1.309  0.00  0.00     0.024 H 
ENDBRANCH  30  32
BRANCH  30  36
ATOM     36  C   LIG d   1      11.401   7.961  -2.759  0.00  0.00    -0.054 C 
ATOM     37  H   LIG d   1      11.524   8.813  -2.093  0.00  0.00     0.024 H 
ATOM     38  H   LIG d   1      12.103   7.175  -2.479  0.00  0.00     0.024 H 
ATOM     39  H   LIG d   1      11.593   8.271  -3.786  0.00  0.00     0.024 H 
ENDBRANCH  30  36
ENDBRANCH  27  30
ENDBRANCH   1  26
TORSDOF 5
ENDMDL
MODEL 4
REMARK VINA RESULT:      -6.7      6.281     10.044
REMARK  5 active torsions:
REMARK  status: ('A' for Active; 'I' for Inactive)
REMARK    1  A    between atoms: C_1  and  C_2 
REMARK    2  A    between atoms: C_2  and  C_3 
REMARK    3  A    between atoms: C_2  and  C_4 
REMARK       I    between atoms: C_4  and  N_6 
REMARK    4  A    between atoms: N_6  and  C_7 
REMARK    5  A    between atoms: C_11  and  C_13 
ROOT
ATOM      1  C   LIG d   1       2.152  -0.529  -9.944  0.00  0.00     0.034 A 
ATOM      2  C   LIG d   1       2.733   0.587 -10.536  0.00  0.00    -0.040 A 
ATOM      3  C   LIG d   1       3.620   1.370  -9.823  0.00  0.00    -0.059 A 
ATOM      4  C   LIG d   1       3.934   1.051  -8.517  0.00  0.00    -0.049 A 
ATOM      5  C   LIG d   1       3.356  -0.067  -7.913  0.00  0.00     0.039 A 
ATOM      6  C   LIG d   1       2.456  -0.855  -8.632  0.00  0.00    -0.028 A 
ATOM      7  H   LIG d   1       2.491   0.841 -11.557  0.00  0.00     0.064 H 
ATOM      8  H   LIG d   1       4.068   2.236 -10.288  0.00  0.00     0.062 H 
ATOM      9  H   LIG d   1       4.628   1.667  -7.962  0.00  0.00     0.062 H 
ATOM     10  H   LIG d   1       2.002  -1.718  -8.169  0.00  0.00     0.064 H 
ENDROOT
BRANCH   5  11
ATOM     11  C   LIG d   1       3.691  -0.411  -6.516  0.00  0.00     0.232 C 
ATOM     12  O   LIG d   1       4.133  -1.657  -6.244  0.00  0.00    -0.403 OA
ATOM     13  C   LIG d   1       4.929  -1.803  -5.148  0.00  0.00     0.348 C 
ATOM     14  C   LIG d   1       4.589  -0.933  -4.008  0.00  0.00     0.085 A 
ATOM     15  O   LIG d   1       5.850  -2.595  -5.111  0.00  0.00    -0.244 OA
ATOM     16  C   LIG d   1       3.861   0.247  -4.297  0.00  0.00     0.082 A 
ATOM     17  C   LIG d   1       4.946  -1.233  -2.698  0.00  0.00    -0.046 A 
ATOM     18  N   LIG d   1       3.543   0.503  -5.590  0.00  0.00    -0.212 NA
ATOM     19  C   LIG d   1       3.501   1.100  -3.255  0.00  0.00    -0.035 A 
ATOM     20  C   LIG d   1       3.862   0.785  -1.963  0.00  0.00    -0.060 A 
ATOM     21  H   LIG d   1       2.944   2.002  -3.458  0.00  0.00     0.064 H 
ATOM     22  C   LIG d   1       4.579  -0.372  -1.684  0.00  0.00    -0.061 A 
ATOM     23  H   LIG d   1       3.583   1.445  -1.156  0.00  0.00     0.062 H 
ATOM     24  H   LIG d   1       4.854  -0.598  -0.666  0.00  0.00     0.062 H 
ATOM     25  H   LIG d   1       5.503  -2.131  -2.477  0.00  0.00     0.063 H 
ENDBRANCH   5  11
BRANCH   1  26
ATOM     26  N   LIG d   1       1.254  -1.319 -10.671  0.00  0.00    -0.285 N 
ATOM     27  C   LIG d   1       1.705  -2.377 -11.375  0.00  0.00     0.220 C 
ATOM     28  O   LIG d   1       2.895  -2.595 -11.447  0.00  0.00    -0.275 OA
ATOM     29  H   LIG d   1       0.308  -1.106 -10.669  0.00  0.00     0.155 HD
BRANCH  27  30
ATOM     30  C   LIG d   1       0.728  -3.288 -12.072  0.00  0.00     0.030 C 
ATOM     31  H   LIG d   1       1.268  -3.946 -12.753  0.00  0.00     0.039 H 
BRANCH  30  32
ATOM     32  C   LIG d   1      -0.015  -4.131 -11.032  0.00  0.00    -0.054 C 
ATOM     33  H   LIG d   1      -0.271  -5.097 -11.465  0.00  0.00     0.024 H 
ATOM     34  H   LIG d   1       0.624  -4.280 -10.162  0.00  0.00     0.024 H 
ATOM     35  H   LIG d   1      -0.926  -3.614 -10.731  0.00  0.00     0.024 H 
ENDBRANCH  30  32
BRANCH  30  36
ATOM     36  C   LIG d   1      -0.279  -2.450 -12.862  0.00  0.00    -0.054 C 
ATOM     37  H   LIG d   1      -0.928  -1.915 -12.170  0.00  0.00     0.024 H 
ATOM     38  H   LIG d   1       0.257  -1.733 -13.486  0.00  0.00     0.024 H 
ATOM     39  H   LIG d   1      -0.879  -3.103 -13.494  0.00  0.00     0.024 H 
ENDBRANCH  30  36
ENDBRANCH  27  30
ENDBRANCH   1  26
TORSDOF 5
ENDMDL
MODEL 5
REMARK VINA RESULT:      -6.6      2.428      4.133
REMARK  5 active torsions:
REMARK  status: ('A' for Active; 'I' for Inactive)
REMARK    1  A    between atoms: C_1  and  C_2 
REMARK    2  A    between atoms: C_2  and  C_3 
REMARK    3  A    between atoms: C_2  and  C_4 
REMARK       I    between atoms: C_4  and  N_6 
REMARK    4  A    between atoms: N_6  and  C_7 
REMARK    5  A    between atoms: C_11  and  C_13 
ROOT
ATOM      1  C   LIG d   1       9.747   3.992  -5.485  0.00  0.00     0.034 A 
ATOM      2  C   LIG d   1      10.815   4.058  -4.598  0.00  0.00    -0.040 A 
ATOM      3  C   LIG d   1      10.857   3.224  -3.496  0.00  0.00    -0.059 A 
ATOM      4  C   LIG d   1       9.839   2.322  -3.269  0.00  0.00    -0.049 A 
ATOM      5  C   LIG d   1       8.760   2.248  -4.154  0.00  0.00     0.039 A 
ATOM      6  C   LIG d   1       8.716   3.093  -5.263  0.00  0.00    -0.028 A 
ATOM      7  H   LIG d   1      11.615   4.762  -4.771  0.00  0.00     0.064 H 
ATOM      8  H   LIG d   1      11.690   3.280  -2.810  0.00  0.00     0.062 H 
ATOM      9  H   LIG d   1       9.875   1.671  -2.406  0.00  0.00     0.062 H 
ATOM     10  H   LIG d   1       7.883   3.044  -5.948  0.00  0.00     0.064 H 
ENDROOT
BRANCH   5  11
ATOM     11  C   LIG d   1       7.669   1.282  -3.913  0.00  0.00     0.232 C 
ATOM     12  O   LIG d   1       7.830   0.007  -4.324  0.00  0.00    -0.403 OA
ATOM     13  C   LIG d   1       7.134  -0.951  -3.651  0.00  0.00     0.348 C 
ATOM     14  C   LIG d   1       5.793  -0.544  -3.195  0.00  0.00     0.085 A 
ATOM     15  O   LIG d   1       7.582  -2.062  -3.445  0.00  0.00    -0.244 OA
ATOM     16  C   LIG d   1       5.562   0.845  -3.044  0.00  0.00     0.082 A 
ATOM     17  C   LIG d   1       4.780  -1.456  -2.922  0.00  0.00    -0.046 A 
ATOM     18  N   LIG d   1       6.582   1.697  -3.312  0.00  0.00    -0.212 NA
ATOM     19  C   LIG d   1       4.308   1.288  -2.627  0.00  0.00    -0.035 A 
ATOM     20  C   LIG d   1       3.315   0.369  -2.365  0.00  0.00    -0.060 A 
ATOM     21  H   LIG d   1       4.114   2.343  -2.511  0.00  0.00     0.064 H 
ATOM     22  C   LIG d   1       3.548  -0.994  -2.509  0.00  0.00    -0.061 A 
ATOM     23  H   LIG d   1       2.344   0.711  -2.041  0.00  0.00     0.062 H 
ATOM     24  H   LIG d   1       2.757  -1.696  -2.294  0.00  0.00     0.062 H 
ATOM     25  H   LIG d   1       4.956  -2.515  -3.033  0.00  0.00     0.063 H 
ENDBRANCH   5  11
BRANCH   1  26
ATOM     26  N   LIG d   1       9.709   4.838  -6.599  0.00  0.00    -0.285 N 
ATOM     27  C   LIG d   1      10.210   4.422  -7.779  0.00  0.00     0.220 C 
ATOM     28  O   LIG d   1      10.769   3.348  -7.856  0.00  0.00    -0.275 OA
ATOM     29  H   LIG d   1       9.323   5.724  -6.522  0.00  0.00     0.155 HD
BRANCH  27  30
ATOM     30  C   LIG d   1      10.076   5.291  -9.003  0.00  0.00     0.030 C 
ATOM     31  H   LIG d   1      10.731   4.914  -9.789  0.00  0.00     0.039 H 
BRANCH  30  32
ATOM     32  C   LIG d   1       8.626   5.264  -9.491  0.00  0.00    -0.054 C 
ATOM     33  H   LIG d   1       7.958   5.153  -8.637  0.00  0.00     0.024 H 
ATOM     34  H   LIG d   1       8.400   6.196 -10.009  0.00  0.00     0.024 H 
ATOM     35  H   LIG d   1       8.487   4.425 -10.172  0.00  0.00     0.024 H 
ENDBRANCH  30  32
BRANCH  30  36
ATOM     36  C   LIG d   1      10.471   6.728  -8.655  0.00  0.00    -0.054 C 
ATOM     37  H   LIG d   1      10.443   7.340  -9.555  0.00  0.00     0.024 H 
ATOM     38  H   LIG d   1       9.771   7.128  -7.921  0.00  0.00     0.024 H 
ATOM     39  H   LIG d   1      11.478   6.737  -8.239  0.00  0.00     0.024 H 
ENDBRANCH  30  36
ENDBRANCH  27  30
ENDBRANCH   1  26
TORSDOF 5
ENDMDL
MODEL 6
REMARK VINA RESULT:      -6.4      2.101      7.540
REMARK  5 active torsions:
REMARK  status: ('A' for Active; 'I' for Inactive)
REMARK    1  A    between atoms: C_1  and  C_2 
REMARK    2  A    between atoms: C_2  and  C_3 
REMARK    3  A    between atoms: C_2  and  C_4 
REMARK       I    between atoms: C_4  and  N_6 
REMARK    4  A    between atoms: N_6  and  C_7 
REMARK    5  A    between atoms: C_11  and  C_13 
ROOT
ATOM      1  C   LIG d   1       8.040   0.854  -4.392  0.00  0.00     0.034 A 
ATOM      2  C   LIG d   1       8.282   0.523  -5.720  0.00  0.00    -0.040 A 
ATOM      3  C   LIG d   1       8.902   1.427  -6.562  0.00  0.00    -0.059 A 
ATOM      4  C   LIG d   1       9.284   2.666  -6.090  0.00  0.00    -0.049 A 
ATOM      5  C   LIG d   1       9.046   3.009  -4.757  0.00  0.00     0.039 A 
ATOM      6  C   LIG d   1       8.415   2.098  -3.909  0.00  0.00    -0.028 A 
ATOM      7  H   LIG d   1       7.986  -0.445  -6.095  0.00  0.00     0.064 H 
ATOM      8  H   LIG d   1       9.087   1.163  -7.593  0.00  0.00     0.062 H 
ATOM      9  H   LIG d   1       9.769   3.370  -6.751  0.00  0.00     0.062 H 
ATOM     10  H   LIG d   1       8.224   2.360  -2.879  0.00  0.00     0.064 H 
ENDROOT
BRANCH   5  11
ATOM     11  C   LIG d   1       9.454   4.335  -4.249  0.00  0.00     0.232 C 
ATOM     12  O   LIG d   1       9.626   5.341  -5.132  0.00  0.00    -0.403 OA
ATOM     13  C   LIG d   1       9.454   6.609  -4.663  0.00  0.00     0.348 C 
ATOM     14  C   LIG d   1       9.906   6.830  -3.278  0.00  0.00     0.085 A 
ATOM     15  O   LIG d   1       8.967   7.495  -5.338  0.00  0.00    -0.244 OA
ATOM     16  C   LIG d   1       9.991   5.689  -2.443  0.00  0.00     0.082 A 
ATOM     17  C   LIG d   1      10.245   8.084  -2.786  0.00  0.00    -0.046 A 
ATOM     18  N   LIG d   1       9.640   4.486  -2.962  0.00  0.00    -0.212 NA
ATOM     19  C   LIG d   1      10.425   5.837  -1.126  0.00  0.00    -0.035 A 
ATOM     20  C   LIG d   1      10.760   7.089  -0.658  0.00  0.00    -0.060 A 
ATOM     21  H   LIG d   1      10.499   4.977  -0.477  0.00  0.00     0.064 H 
ATOM     22  C   LIG d   1      10.670   8.206  -1.479  0.00  0.00    -0.061 A 
ATOM     23  H   LIG d   1      11.095   7.204   0.361  0.00  0.00     0.062 H 
ATOM     24  H   LIG d   1      10.934   9.178  -1.091  0.00  0.00     0.062 H 
ATOM     25  H   LIG d   1      10.177   8.955  -3.421  0.00  0.00     0.063 H 
ENDBRANCH   5  11
BRANCH   1  26
ATOM     26  N   LIG d   1       7.412  -0.065  -3.544  0.00  0.00    -0.285 N 
ATOM     27  C   LIG d   1       6.067  -0.143  -3.514  0.00  0.00     0.220 C 
ATOM     28  O   LIG d   1       5.399   0.638  -4.156  0.00  0.00    -0.275 OA
ATOM     29  H   LIG d   1       7.945  -0.646  -2.979  0.00  0.00     0.155 HD
BRANCH  27  30
ATOM     30  C   LIG d   1       5.394  -1.203  -2.680  0.00  0.00     0.030 C 
ATOM     31  H   LIG d   1       6.128  -1.670  -2.024  0.00  0.00     0.039 H 
BRANCH  30  32
ATOM     32  C   LIG d   1       4.290  -0.562  -1.835  0.00  0.00    -0.054 C 
ATOM     33  H   LIG d   1       4.010   0.397  -2.271  0.00  0.00     0.024 H 
ATOM     34  H   LIG d   1       3.422  -1.219  -1.813  0.00  0.00     0.024 H 
ATOM     35  H   LIG d   1       4.655  -0.406  -0.819  0.00  0.00     0.024 H 
ENDBRANCH  30  32
BRANCH  30  36
ATOM     36  C   LIG d   1       4.781  -2.263  -3.598  0.00  0.00    -0.054 C 
ATOM     37  H   LIG d   1       5.486  -3.084  -3.724  0.00  0.00     0.024 H 
ATOM     38  H   LIG d   1       3.860  -2.640  -3.153  0.00  0.00     0.024 H 
ATOM     39  H   LIG d   1       4.561  -1.820  -4.569  0.00  0.00     0.024 H 
ENDBRANCH  30  36
ENDBRANCH  27  30
ENDBRANCH   1  26
TORSDOF 5
ENDMDL
MODEL 7
REMARK VINA RESULT:      -6.4      2.235      7.626
REMARK  5 active torsions:
REMARK  status: ('A' for Active; 'I' for Inactive)
REMARK    1  A    between atoms: C_1  and  C_2 
REMARK    2  A    between atoms: C_2  and  C_3 
REMARK    3  A    between atoms: C_2  and  C_4 
REMARK       I    between atoms: C_4  and  N_6 
REMARK    4  A    between atoms: N_6  and  C_7 
REMARK    5  A    between atoms: C_11  and  C_13 
ROOT
ATOM      1  C   LIG d   1       6.896   0.542  -4.200  0.00  0.00     0.034 A 
ATOM      2  C   LIG d   1       7.171   0.077  -5.481  0.00  0.00    -0.040 A 
ATOM      3  C   LIG d   1       8.031   0.776  -6.306  0.00  0.00    -0.059 A 
ATOM      4  C   LIG d   1       8.623   1.942  -5.864  0.00  0.00    -0.049 A 
ATOM      5  C   LIG d   1       8.354   2.418  -4.578  0.00  0.00     0.039 A 
ATOM      6  C   LIG d   1       7.480   1.715  -3.748  0.00  0.00    -0.028 A 
ATOM      7  H   LIG d   1       6.711  -0.834  -5.832  0.00  0.00     0.064 H 
ATOM      8  H   LIG d   1       8.241   0.410  -7.300  0.00  0.00     0.062 H 
ATOM      9  H   LIG d   1       9.295   2.487  -6.512  0.00  0.00     0.062 H 
ATOM     10  H   LIG d   1       7.265   2.080  -2.755  0.00  0.00     0.064 H 
ENDROOT
BRANCH   5  11
ATOM     11  C   LIG d   1       8.986   3.666  -4.103  0.00  0.00     0.232 C 
ATOM     12  O   LIG d   1       9.441   3.718  -2.833  0.00  0.00    -0.403 OA
ATOM     13  C   LIG d   1      10.460   4.586  -2.578  0.00  0.00     0.348 C 
ATOM     14  C   LIG d   1      10.413   5.846  -3.341  0.00  0.00     0.085 A 
ATOM     15  O   LIG d   1      11.341   4.341  -1.778  0.00  0.00    -0.244 OA
ATOM     16  C   LIG d   1       9.674   5.836  -4.549  0.00  0.00     0.082 A 
ATOM     17  C   LIG d   1      11.048   7.007  -2.917  0.00  0.00    -0.046 A 
ATOM     18  N   LIG d   1       9.080   4.678  -4.928  0.00  0.00    -0.212 NA
ATOM     19  C   LIG d   1       9.585   7.005  -5.305  0.00  0.00    -0.035 A 
ATOM     20  C   LIG d   1      10.219   8.147  -4.866  0.00  0.00    -0.060 A 
ATOM     21  H   LIG d   1       9.024   7.015  -6.226  0.00  0.00     0.064 H 
ATOM     22  C   LIG d   1      10.947   8.151  -3.683  0.00  0.00    -0.061 A 
ATOM     23  H   LIG d   1      10.151   9.052  -5.451  0.00  0.00     0.062 H 
ATOM     24  H   LIG d   1      11.438   9.056  -3.360  0.00  0.00     0.062 H 
ATOM     25  H   LIG d   1      11.614   7.015  -1.998  0.00  0.00     0.063 H 
ENDBRANCH   5  11
BRANCH   1  26
ATOM     26  N   LIG d   1       6.024  -0.170  -3.369  0.00  0.00    -0.285 N 
ATOM     27  C   LIG d   1       4.728   0.190  -3.285  0.00  0.00     0.220 C 
ATOM     28  O   LIG d   1       4.336   1.182  -3.862  0.00  0.00    -0.275 OA
ATOM     29  H   LIG d   1       6.352  -0.924  -2.854  0.00  0.00     0.155 HD
BRANCH  27  30
ATOM     30  C   LIG d   1       3.767  -0.639  -2.473  0.00  0.00     0.030 C 
ATOM     31  H   LIG d   1       3.665  -0.205  -1.477  0.00  0.00     0.039 H 
BRANCH  30  32
ATOM     32  C   LIG d   1       2.401  -0.657  -3.162  0.00  0.00    -0.054 C 
ATOM     33  H   LIG d   1       2.177   0.336  -3.550  0.00  0.00     0.024 H 
ATOM     34  H   LIG d   1       2.419  -1.373  -3.984  0.00  0.00     0.024 H 
ATOM     35  H   LIG d   1       1.635  -0.948  -2.442  0.00  0.00     0.024 H 
ENDBRANCH  30  32
BRANCH  30  36
ATOM     36  C   LIG d   1       4.299  -2.069  -2.355  0.00  0.00    -0.054 C 
ATOM     37  H   LIG d   1       5.077  -2.229  -3.101  0.00  0.00     0.024 H 
ATOM     38  H   LIG d   1       4.713  -2.221  -1.358  0.00  0.00     0.024 H 
ATOM     39  H   LIG d   1       3.485  -2.774  -2.522  0.00  0.00     0.024 H 
ENDBRANCH  30  36
ENDBRANCH  27  30
ENDBRANCH   1  26
TORSDOF 5
ENDMDL
MODEL 8
REMARK VINA RESULT:      -6.4      1.744      2.363
REMARK  5 active torsions:
REMARK  status: ('A' for Active; 'I' for Inactive)
REMARK    1  A    between atoms: C_1  and  C_2 
REMARK    2  A    between atoms: C_2  and  C_3 
REMARK    3  A    between atoms: C_2  and  C_4 
REMARK       I    between atoms: C_4  and  N_6 
REMARK    4  A    between atoms: N_6  and  C_7 
REMARK    5  A    between atoms: C_11  and  C_13 
ROOT
ATOM      1  C   LIG d   1       9.403   3.881  -4.444  0.00  0.00     0.034 A 
ATOM      2  C   LIG d   1       9.741   3.681  -5.778  0.00  0.00    -0.040 A 
ATOM      3  C   LIG d   1       9.168   2.646  -6.493  0.00  0.00    -0.059 A 
ATOM      4  C   LIG d   1       8.257   1.805  -5.888  0.00  0.00    -0.049 A 
ATOM      5  C   LIG d   1       7.911   1.997  -4.548  0.00  0.00     0.039 A 
ATOM      6  C   LIG d   1       8.494   3.038  -3.825  0.00  0.00    -0.028 A 
ATOM      7  H   LIG d   1      10.452   4.336  -6.257  0.00  0.00     0.064 H 
ATOM      8  H   LIG d   1       9.434   2.495  -7.529  0.00  0.00     0.062 H 
ATOM      9  H   LIG d   1       7.811   0.997  -6.450  0.00  0.00     0.062 H 
ATOM     10  H   LIG d   1       8.234   3.189  -2.788  0.00  0.00     0.064 H 
ENDROOT
BRANCH   5  11
ATOM     11  C   LIG d   1       6.936   1.098  -3.898  0.00  0.00     0.232 C 
ATOM     12  O   LIG d   1       6.355   1.496  -2.747  0.00  0.00    -0.403 OA
ATOM     13  C   LIG d   1       5.128   0.976  -2.464  0.00  0.00     0.348 C 
ATOM     14  C   LIG d   1       4.930  -0.424  -2.881  0.00  0.00     0.085 A 
ATOM     15  O   LIG d   1       4.260   1.617  -1.904  0.00  0.00    -0.244 OA
ATOM     16  C   LIG d   1       5.767  -0.907  -3.917  0.00  0.00     0.082 A 
ATOM     17  C   LIG d   1       3.980  -1.256  -2.302  0.00  0.00    -0.046 A 
ATOM     18  N   LIG d   1       6.673  -0.056  -4.459  0.00  0.00    -0.212 NA
ATOM     19  C   LIG d   1       5.633  -2.228  -4.343  0.00  0.00    -0.035 A 
ATOM     20  C   LIG d   1       4.687  -3.039  -3.754  0.00  0.00    -0.060 A 
ATOM     21  H   LIG d   1       6.265  -2.613  -5.129  0.00  0.00     0.064 H 
ATOM     22  C   LIG d   1       3.865  -2.559  -2.742  0.00  0.00    -0.061 A 
ATOM     23  H   LIG d   1       4.583  -4.061  -4.084  0.00  0.00     0.062 H 
ATOM     24  H   LIG d   1       3.129  -3.210  -2.298  0.00  0.00     0.062 H 
ATOM     25  H   LIG d   1       3.340  -0.887  -1.516  0.00  0.00     0.063 H 
ENDBRANCH   5  11
BRANCH   1  26
ATOM     26  N   LIG d   1       9.987   4.930  -3.725  0.00  0.00    -0.285 N 
ATOM     27  C   LIG d   1      11.089   4.707  -2.982  0.00  0.00     0.220 C 
ATOM     28  O   LIG d   1      11.527   3.582  -2.869  0.00  0.00    -0.275 OA
ATOM     29  H   LIG d   1       9.598   5.818  -3.761  0.00  0.00     0.155 HD
BRANCH  27  30
ATOM     30  C   LIG d   1      11.777   5.856  -2.292  0.00  0.00     0.030 C 
ATOM     31  H   LIG d   1      12.689   6.110  -2.832  0.00  0.00     0.039 H 
BRANCH  30  32
ATOM     32  C   LIG d   1      10.844   7.069  -2.268  0.00  0.00    -0.054 C 
ATOM     33  H   LIG d   1      10.853   7.514  -1.273  0.00  0.00     0.024 H 
ATOM     34  H   LIG d   1      11.185   7.804  -2.997  0.00  0.00     0.024 H 
ATOM     35  H   LIG d   1       9.831   6.753  -2.516  0.00  0.00     0.024 H 
ENDBRANCH  30  32
BRANCH  30  36
ATOM     36  C   LIG d   1      12.128   5.454  -0.857  0.00  0.00    -0.054 C 
ATOM     37  H   LIG d   1      11.213   5.368  -0.271  0.00  0.00     0.024 H 
ATOM     38  H   LIG d   1      12.647   4.495  -0.866  0.00  0.00     0.024 H 
ATOM     39  H   LIG d   1      12.773   6.213  -0.415  0.00  0.00     0.024 H 
ENDBRANCH  30  36
ENDBRANCH  27  30
ENDBRANCH   1  26
TORSDOF 5
ENDMDL
MODEL 9
REMARK VINA RESULT:      -6.3      7.300      9.582
REMARK  5 active torsions:
REMARK  status: ('A' for Active; 'I' for Inactive)
REMARK    1  A    between atoms: C_1  and  C_2 
REMARK    2  A    between atoms: C_2  and  C_3 
REMARK    3  A    between atoms: C_2  and  C_4 
REMARK       I    between atoms: C_4  and  N_6 
REMARK    4  A    between atoms: N_6  and  C_7 
REMARK    5  A    between atoms: C_11  and  C_13 
ROOT
ATOM      1  C   LIG d   1       3.470   0.095  -7.115  0.00  0.00     0.034 A 
ATOM      2  C   LIG d   1       3.161   1.289  -7.756  0.00  0.00    -0.040 A 
ATOM      3  C   LIG d   1       2.576   1.276  -9.008  0.00  0.00    -0.059 A 
ATOM      4  C   LIG d   1       2.295   0.077  -9.631  0.00  0.00    -0.049 A 
ATOM      5  C   LIG d   1       2.602  -1.129  -8.996  0.00  0.00     0.039 A 
ATOM      6  C   LIG d   1       3.198  -1.115  -7.734  0.00  0.00    -0.028 A 
ATOM      7  H   LIG d   1       3.378   2.230  -7.273  0.00  0.00     0.064 H 
ATOM      8  H   LIG d   1       2.338   2.208  -9.501  0.00  0.00     0.062 H 
ATOM      9  H   LIG d   1       1.838   0.071 -10.610  0.00  0.00     0.062 H 
ATOM     10  H   LIG d   1       3.441  -2.044  -7.240  0.00  0.00     0.064 H 
ENDROOT
BRANCH   5  11
ATOM     11  C   LIG d   1       2.302  -2.413  -9.661  0.00  0.00     0.232 C 
ATOM     12  O   LIG d   1       3.107  -3.469  -9.422  0.00  0.00    -0.403 OA
ATOM     13  C   LIG d   1       2.557  -4.708  -9.561  0.00  0.00     0.348 C 
ATOM     14  C   LIG d   1       1.567  -4.834 -10.645  0.00  0.00     0.085 A 
ATOM     15  O   LIG d   1       2.862  -5.642  -8.845  0.00  0.00    -0.244 OA
ATOM     16  C   LIG d   1       0.935  -3.642 -11.078  0.00  0.00     0.082 A 
ATOM     17  C   LIG d   1       1.249  -6.050 -11.238  0.00  0.00    -0.046 A 
ATOM     18  N   LIG d   1       1.269  -2.481 -10.463  0.00  0.00    -0.212 NA
ATOM     19  C   LIG d   1      -0.001  -3.701 -12.109  0.00  0.00    -0.035 A 
ATOM     20  C   LIG d   1      -0.299  -4.915 -12.687  0.00  0.00    -0.060 A 
ATOM     21  H   LIG d   1      -0.488  -2.801 -12.453  0.00  0.00     0.064 H 
ATOM     22  C   LIG d   1       0.319  -6.083 -12.256  0.00  0.00    -0.061 A 
ATOM     23  H   LIG d   1      -1.024  -4.961 -13.486  0.00  0.00     0.062 H 
ATOM     24  H   LIG d   1       0.067  -7.024 -12.721  0.00  0.00     0.062 H 
ATOM     25  H   LIG d   1       1.727  -6.959 -10.907  0.00  0.00     0.063 H 
ENDBRANCH   5  11
BRANCH   1  26
ATOM     26  N   LIG d   1       4.062   0.113  -5.847  0.00  0.00    -0.285 N 
ATOM     27  C   LIG d   1       3.289   0.127  -4.743  0.00  0.00     0.220 C 
ATOM     28  O   LIG d   1       2.084   0.208  -4.846  0.00  0.00    -0.275 OA
ATOM     29  H   LIG d   1       5.028   0.117  -5.763  0.00  0.00     0.155 HD
BRANCH  27  30
ATOM     30  C   LIG d   1       3.924   0.042  -3.379  0.00  0.00     0.030 C 
ATOM     31  H   LIG d   1       5.004  -0.057  -3.487  0.00  0.00     0.039 H 
BRANCH  30  32
ATOM     32  C   LIG d   1       3.606   1.313  -2.588  0.00  0.00    -0.054 C 
ATOM     33  H   LIG d   1       4.367   2.066  -2.789  0.00  0.00     0.024 H 
ATOM     34  H   LIG d   1       2.630   1.693  -2.889  0.00  0.00     0.024 H 
ATOM     35  H   LIG d   1       3.594   1.084  -1.522  0.00  0.00     0.024 H 
ENDBRANCH  30  32
BRANCH  30  36
ATOM     36  C   LIG d   1       3.371  -1.174  -2.633  0.00  0.00    -0.054 C 
ATOM     37  H   LIG d   1       2.518  -1.576  -3.177  0.00  0.00     0.024 H 
ATOM     38  H   LIG d   1       4.147  -1.937  -2.558  0.00  0.00     0.024 H 
ATOM     39  H   LIG d   1       3.058  -0.876  -1.633  0.00  0.00     0.024 H 
ENDBRANCH  30  36
ENDBRANCH  27  30
ENDBRANCH   1  26
TORSDOF 5
ENDMDL
MODEL 10
REMARK VINA RESULT:      -6.0      6.606     10.561
REMARK  5 active torsions:
REMARK  status: ('A' for Active; 'I' for Inactive)
REMARK    1  A    between atoms: C_1  and  C_2 
REMARK    2  A    between atoms: C_2  and  C_3 
REMARK    3  A    between atoms: C_2  and  C_4 
REMARK       I    between atoms: C_4  and  N_6 
REMARK    4  A    between atoms: N_6  and  C_7 
REMARK    5  A    between atoms: C_11  and  C_13 
ROOT
ATOM      1  C   LIG d   1       3.066  -2.071 -10.145  0.00  0.00     0.034 A 
ATOM      2  C   LIG d   1       3.026  -0.991 -11.019  0.00  0.00    -0.040 A 
ATOM      3  C   LIG d   1       3.136   0.299 -10.537  0.00  0.00    -0.059 A 
ATOM      4  C   LIG d   1       3.286   0.525  -9.184  0.00  0.00    -0.049 A 
ATOM      5  C   LIG d   1       3.327  -0.553  -8.297  0.00  0.00     0.039 A 
ATOM      6  C   LIG d   1       3.211  -1.856  -8.784  0.00  0.00    -0.028 A 
ATOM      7  H   LIG d   1       2.909  -1.162 -12.079  0.00  0.00     0.064 H 
ATOM      8  H   LIG d   1       3.103   1.134 -11.222  0.00  0.00     0.062 H 
ATOM      9  H   LIG d   1       3.371   1.535  -8.811  0.00  0.00     0.062 H 
ATOM     10  H   LIG d   1       3.238  -2.693  -8.102  0.00  0.00     0.064 H 
ENDROOT
BRANCH   5  11
ATOM     11  C   LIG d   1       3.488  -0.314  -6.848  0.00  0.00     0.232 C 
ATOM     12  O   LIG d   1       3.334   0.942  -6.378  0.00  0.00    -0.403 OA
ATOM     13  C   LIG d   1       2.940   1.070  -5.080  0.00  0.00     0.348 C 
ATOM     14  C   LIG d   1       3.485   0.057  -4.159  0.00  0.00     0.085 A 
ATOM     15  O   LIG d   1       2.198   1.958  -4.707  0.00  0.00    -0.244 OA
ATOM     16  C   LIG d   1       3.912  -1.166  -4.731  0.00  0.00     0.082 A 
ATOM     17  C   LIG d   1       3.592   0.264  -2.789  0.00  0.00    -0.046 A 
ATOM     18  N   LIG d   1       3.779  -1.327  -6.071  0.00  0.00    -0.212 NA
ATOM     19  C   LIG d   1       4.447  -2.155  -3.908  0.00  0.00    -0.035 A 
ATOM     20  C   LIG d   1       4.548  -1.930  -2.553  0.00  0.00    -0.060 A 
ATOM     21  H   LIG d   1       4.781  -3.091  -4.329  0.00  0.00     0.064 H 
ATOM     22  C   LIG d   1       4.124  -0.730  -1.994  0.00  0.00    -0.061 A 
ATOM     23  H   LIG d   1       4.963  -2.696  -1.915  0.00  0.00     0.062 H 
ATOM     24  H   LIG d   1       4.209  -0.576  -0.929  0.00  0.00     0.062 H 
ATOM     25  H   LIG d   1       3.263   1.195  -2.351  0.00  0.00     0.063 H 
ENDBRANCH   5  11
BRANCH   1  26
ATOM     26  N   LIG d   1       2.955  -3.376 -10.638  0.00  0.00    -0.285 N 
ATOM     27  C   LIG d   1       1.740  -3.945 -10.770  0.00  0.00     0.220 C 
ATOM     28  O   LIG d   1       0.750  -3.360 -10.384  0.00  0.00    -0.275 OA
ATOM     29  H   LIG d   1       3.751  -3.871 -10.885  0.00  0.00     0.155 HD
BRANCH  27  30
ATOM     30  C   LIG d   1       1.611  -5.308 -11.398  0.00  0.00     0.030 C 
ATOM     31  H   LIG d   1       2.564  -5.833 -11.326  0.00  0.00     0.039 H 
BRANCH  30  32
ATOM     32  C   LIG d   1       0.532  -6.108 -10.664  0.00  0.00    -0.054 C 
ATOM     33  H   LIG d   1       0.710  -6.057  -9.591  0.00  0.00     0.024 H 
ATOM     34  H   LIG d   1      -0.448  -5.689 -10.890  0.00  0.00     0.024 H 
ATOM     35  H   LIG d   1       0.567  -7.148 -10.990  0.00  0.00     0.024 H 
ENDBRANCH  30  32
BRANCH  30  36
ATOM     36  C   LIG d   1       1.221  -5.158 -12.871  0.00  0.00    -0.054 C 
ATOM     37  H   LIG d   1       0.505  -5.935 -13.137  0.00  0.00     0.024 H 
ATOM     38  H   LIG d   1       0.771  -4.178 -13.028  0.00  0.00     0.024 H 
ATOM     39  H   LIG d   1       2.110  -5.254 -13.493  0.00  0.00     0.024 H 
ENDBRANCH  30  36
ENDBRANCH  27  30
ENDBRANCH   1  26
TORSDOF 5
ENDMDL
