MODEL 1
REMARK VINA RESULT:      -7.4      0.000      0.000
REMARK  9 active torsions:
REMARK  status: ('A' for Active; 'I' for Inactive)
REMARK    1  A    between atoms: C_1  and  C_2 
REMARK    2  A    between atoms: C_2  and  C_3 
REMARK       I    between atoms: C_3  and  N_5 
REMARK    3  A    between atoms: C_15  and  C_17 
REMARK    4  A    between atoms: C_20  and  C_23 
REMARK    5  A    between atoms: C_23  and  O_25 
REMARK    6  A    between atoms: O_25  and  C_26 
REMARK    7  A    between atoms: C_30  and  C_33 
REMARK    8  A    between atoms: C_36  and  O_39 
REMARK    9  A    between atoms: O_39  and  C_40 
ROOT
ATOM      1  C   LIG d   1       8.463  -3.159  -5.208  0.00  0.00     0.220 C 
ATOM      2  O   LIG d   1       9.425  -3.157  -5.945  0.00  0.00    -0.275 OA
ATOM      3  N   LIG d   1       7.569  -2.151  -5.263  0.00  0.00    -0.258 N 
ATOM      4  C   LIG d   1       6.467  -2.164  -4.409  0.00  0.00     0.058 A 
ATOM      5  C   LIG d   1       5.471  -3.121  -4.530  0.00  0.00    -0.038 A 
ATOM      6  C   LIG d   1       4.360  -3.056  -3.706  0.00  0.00    -0.060 A 
ATOM      7  C   LIG d   1       4.240  -2.043  -2.773  0.00  0.00    -0.060 A 
ATOM      8  C   LIG d   1       5.244  -1.100  -2.631  0.00  0.00    -0.039 A 
ATOM      9  C   LIG d   1       6.360  -1.170  -3.447  0.00  0.00     0.053 A 
ATOM     10  N   LIG d   1       7.432  -0.295  -3.318  0.00  0.00    -0.316 N 
ATOM     11  C   LIG d   1       7.837   0.578  -4.274  0.00  0.00     0.017 C 
ATOM     12  C   LIG d   1       8.012   0.277  -5.571  0.00  0.00     0.037 C 
ATOM     13  C   LIG d   1       7.769  -1.072  -6.208  0.00  0.00     0.086 C 
ATOM     14  H   LIG d   1       8.626  -1.317  -6.835  0.00  0.00     0.061 H 
ATOM     15  C   LIG d   1       8.465   1.263  -6.479  0.00  0.00     0.163 C 
ATOM     16  O   LIG d   1       8.596   0.965  -7.650  0.00  0.00    -0.292 OA
ATOM     17  C   LIG d   1       8.792   2.661  -6.049  0.00  0.00     0.017 C 
ATOM     18  C   LIG d   1       9.217   2.635  -4.576  0.00  0.00    -0.004 C 
ATOM     19  H   LIG d   1      10.127   2.045  -4.463  0.00  0.00     0.036 H 
ATOM     20  C   LIG d   1       8.083   1.994  -3.777  0.00  0.00    -0.007 C 
ATOM     21  H   LIG d   1       5.563  -3.914  -5.257  0.00  0.00     0.064 H 
ATOM     22  H   LIG d   1       3.582  -3.798  -3.796  0.00  0.00     0.062 H 
ATOM     23  H   LIG d   1       3.360  -1.989  -2.148  0.00  0.00     0.062 H 
ATOM     24  H   LIG d   1       5.158  -0.318  -1.892  0.00  0.00     0.064 H 
ATOM     25  H   LIG d   1       7.926  -0.310  -2.483  0.00  0.00     0.152 HD
ATOM     26  H   LIG d   1       7.985   3.241  -6.161  0.00  0.00     0.035 H 
ATOM     27  H   LIG d   1       9.607   3.050  -6.659  0.00  0.00     0.035 H 
ATOM     28  H   LIG d   1       7.175   2.584  -3.899  0.00  0.00     0.033 H 
ATOM     29  H   LIG d   1       8.358   1.964  -2.722  0.00  0.00     0.033 H 
ENDROOT
BRANCH  13  30
ATOM     30  C   LIG d   1       6.550  -0.974  -7.087  0.00  0.00    -0.022 A 
ATOM     31  C   LIG d   1       6.472  -1.729  -8.244  0.00  0.00    -0.056 A 
ATOM     32  C   LIG d   1       5.358  -1.644  -9.053  0.00  0.00    -0.047 A 
ATOM     33  H   LIG d   1       7.285  -2.387  -8.513  0.00  0.00     0.062 H 
ATOM     34  C   LIG d   1       4.308  -0.792  -8.703  0.00  0.00     0.059 A 
ATOM     35  H   LIG d   1       5.299  -2.234  -9.955  0.00  0.00     0.063 H 
ATOM     36  C   LIG d   1       4.393  -0.033  -7.534  0.00  0.00    -0.047 A 
ATOM     37  C   LIG d   1       5.510  -0.133  -6.731  0.00  0.00    -0.056 A 
ATOM     38  H   LIG d   1       3.585   0.627  -7.257  0.00  0.00     0.063 H 
ATOM     39  H   LIG d   1       5.575   0.451  -5.824  0.00  0.00     0.062 H 
BRANCH  34  40
ATOM     40  C   LIG d   1       3.112  -0.696  -9.565  0.00  0.00     0.339 C 
ATOM     41  O   LIG d   1       2.039  -1.093  -9.161  0.00  0.00    -0.245 OA
BRANCH  40  42
ATOM     42  O   LIG d   1       3.213  -0.166 -10.799  0.00  0.00    -0.465 OA
BRANCH  42  43
ATOM     43  C   LIG d   1       3.882   1.118 -10.913  0.00  0.00     0.082 C 
ATOM     44  H   LIG d   1       3.213   1.907 -10.568  0.00  0.00     0.066 H 
ATOM     45  H   LIG d   1       4.784   1.114 -10.302  0.00  0.00     0.066 H 
ATOM     46  H   LIG d   1       4.149   1.298 -11.954  0.00  0.00     0.066 H 
ENDBRANCH  42  43
ENDBRANCH  40  42
ENDBRANCH  34  40
ENDBRANCH  13  30
BRANCH   1  47
ATOM     47  C   LIG d   1       8.265  -4.287  -4.229  0.00  0.00     0.022 C 
ATOM     48  H   LIG d   1       7.254  -4.246  -3.824  0.00  0.00     0.036 H 
ATOM     49  H   LIG d   1       8.414  -5.239  -4.738  0.00  0.00     0.036 H 
BRANCH  47  50
ATOM     50  C   LIG d   1       9.276  -4.155  -3.088  0.00  0.00    -0.057 C 
ATOM     51  H   LIG d   1      10.174  -3.658  -3.453  0.00  0.00     0.023 H 
ATOM     52  H   LIG d   1       8.837  -3.566  -2.282  0.00  0.00     0.023 H 
ATOM     53  H   LIG d   1       9.535  -5.145  -2.715  0.00  0.00     0.023 H 
ENDBRANCH  47  50
ENDBRANCH   1  47
BRANCH  18  54
ATOM     54  C   LIG d   1       9.455   4.041  -4.088  0.00  0.00    -0.043 A 
ATOM     55  C   LIG d   1       9.913   4.256  -2.802  0.00  0.00    -0.055 A 
ATOM     56  C   LIG d   1      10.131   5.545  -2.351  0.00  0.00    -0.020 A 
ATOM     57  H   LIG d   1      10.098   3.417  -2.147  0.00  0.00     0.062 H 
ATOM     58  C   LIG d   1       9.892   6.622  -3.192  0.00  0.00     0.120 A 
ATOM     59  H   LIG d   1      10.489   5.712  -1.347  0.00  0.00     0.065 H 
ATOM     60  C   LIG d   1       9.432   6.402  -4.483  0.00  0.00    -0.020 A 
ATOM     61  C   LIG d   1       9.221   5.113  -4.930  0.00  0.00    -0.055 A 
ATOM     62  H   LIG d   1       9.245   7.240  -5.139  0.00  0.00     0.065 H 
ATOM     63  H   LIG d   1       8.867   4.941  -5.936  0.00  0.00     0.062 H 
BRANCH  58  64
ATOM     64  O   LIG d   1      10.106   7.890  -2.752  0.00  0.00    -0.495 OA
BRANCH  64  65
ATOM     65  C   LIG d   1       9.805   8.159  -1.382  0.00  0.00     0.079 C 
ATOM     66  H   LIG d   1       9.858   9.234  -1.203  0.00  0.00     0.066 H 
ATOM     67  H   LIG d   1       8.801   7.802  -1.153  0.00  0.00     0.066 H 
ATOM     68  H   LIG d   1      10.527   7.649  -0.744  0.00  0.00     0.066 H 
ENDBRANCH  64  65
ENDBRANCH  58  64
ENDBRANCH  18  54
TORSDOF 9
ENDMDL
MODEL 2
REMARK VINA RESULT:      -6.8      2.411      7.957
REMARK  9 active torsions:
REMARK  status: ('A' for Active; 'I' for Inactive)
REMARK    1  A    between atoms: C_1  and  C_2 
REMARK    2  A    between atoms: C_2  and  C_3 
REMARK       I    between atoms: C_3  and  N_5 
REMARK    3  A    between atoms: C_15  and  C_17 
REMARK    4  A    between atoms: C_20  and  C_23 
REMARK    5  A    between atoms: C_23  and  O_25 
REMARK    6  A    between atoms: O_25  and  C_26 
REMARK    7  A    between atoms: C_30  and  C_33 
REMARK    8  A    between atoms: C_36  and  O_39 
REMARK    9  A    between atoms: O_39  and  C_40 
ROOT
ATOM      1  C   LIG d   1       4.904  -0.598  -6.496  0.00  0.00     0.220 C 
ATOM      2  O   LIG d   1       5.351  -0.865  -7.590  0.00  0.00    -0.275 OA
ATOM      3  N   LIG d   1       5.739  -0.389  -5.459  0.00  0.00    -0.258 N 
ATOM      4  C   LIG d   1       5.212  -0.084  -4.204  0.00  0.00     0.058 A 
ATOM      5  C   LIG d   1       4.544   1.108  -3.971  0.00  0.00    -0.038 A 
ATOM      6  C   LIG d   1       4.097   1.401  -2.694  0.00  0.00    -0.060 A 
ATOM      7  C   LIG d   1       4.319   0.515  -1.655  0.00  0.00    -0.060 A 
ATOM      8  C   LIG d   1       4.962  -0.689  -1.888  0.00  0.00    -0.039 A 
ATOM      9  C   LIG d   1       5.401  -0.987  -3.168  0.00  0.00     0.053 A 
ATOM     10  N   LIG d   1       5.999  -2.200  -3.484  0.00  0.00    -0.316 N 
ATOM     11  C   LIG d   1       7.272  -2.342  -3.931  0.00  0.00     0.017 C 
ATOM     12  C   LIG d   1       7.834  -1.610  -4.907  0.00  0.00     0.037 C 
ATOM     13  C   LIG d   1       7.169  -0.485  -5.665  0.00  0.00     0.086 C 
ATOM     14  H   LIG d   1       7.356  -0.628  -6.729  0.00  0.00     0.061 H 
ATOM     15  C   LIG d   1       9.166  -1.862  -5.312  0.00  0.00     0.163 C 
ATOM     16  O   LIG d   1       9.653  -1.171  -6.184  0.00  0.00    -0.292 OA
ATOM     17  C   LIG d   1       9.997  -2.954  -4.707  0.00  0.00     0.017 C 
ATOM     18  C   LIG d   1       9.063  -4.059  -4.202  0.00  0.00    -0.004 C 
ATOM     19  H   LIG d   1       8.520  -4.498  -5.039  0.00  0.00     0.036 H 
ATOM     20  C   LIG d   1       8.076  -3.422  -3.224  0.00  0.00    -0.007 C 
ATOM     21  H   LIG d   1       4.368   1.801  -4.781  0.00  0.00     0.064 H 
ATOM     22  H   LIG d   1       3.577   2.328  -2.508  0.00  0.00     0.062 H 
ATOM     23  H   LIG d   1       3.985   0.761  -0.658  0.00  0.00     0.062 H 
ATOM     24  H   LIG d   1       5.122  -1.387  -1.082  0.00  0.00     0.064 H 
ATOM     25  H   LIG d   1       5.467  -3.005  -3.378  0.00  0.00     0.152 HD
ATOM     26  H   LIG d   1      10.530  -2.583  -3.947  0.00  0.00     0.035 H 
ATOM     27  H   LIG d   1      10.671  -3.360  -5.461  0.00  0.00     0.035 H 
ATOM     28  H   LIG d   1       8.624  -2.979  -2.393  0.00  0.00     0.033 H 
ATOM     29  H   LIG d   1       7.398  -4.188  -2.845  0.00  0.00     0.033 H 
ENDROOT
BRANCH  13  30
ATOM     30  C   LIG d   1       7.801   0.816  -5.243  0.00  0.00    -0.022 A 
ATOM     31  C   LIG d   1       8.075   1.788  -6.190  0.00  0.00    -0.056 A 
ATOM     32  C   LIG d   1       8.654   2.981  -5.811  0.00  0.00    -0.047 A 
ATOM     33  H   LIG d   1       7.834   1.611  -7.227  0.00  0.00     0.062 H 
ATOM     34  C   LIG d   1       8.964   3.207  -4.468  0.00  0.00     0.059 A 
ATOM     35  H   LIG d   1       8.866   3.738  -6.551  0.00  0.00     0.063 H 
ATOM     36  C   LIG d   1       8.685   2.222  -3.518  0.00  0.00    -0.047 A 
ATOM     37  C   LIG d   1       8.101   1.036  -3.911  0.00  0.00    -0.056 A 
ATOM     38  H   LIG d   1       8.922   2.391  -2.478  0.00  0.00     0.063 H 
ATOM     39  H   LIG d   1       7.881   0.275  -3.175  0.00  0.00     0.062 H 
BRANCH  34  40
ATOM     40  C   LIG d   1       9.585   4.482  -4.055  0.00  0.00     0.339 C 
ATOM     41  O   LIG d   1       9.225   5.525  -4.563  0.00  0.00    -0.245 OA
BRANCH  40  42
ATOM     42  O   LIG d   1      10.548   4.489  -3.114  0.00  0.00    -0.465 OA
BRANCH  42  43
ATOM     43  C   LIG d   1      10.315   5.305  -1.936  0.00  0.00     0.082 C 
ATOM     44  H   LIG d   1       9.728   4.738  -1.212  0.00  0.00     0.066 H 
ATOM     45  H   LIG d   1      11.270   5.582  -1.491  0.00  0.00     0.066 H 
ATOM     46  H   LIG d   1       9.771   6.206  -2.219  0.00  0.00     0.066 H 
ENDBRANCH  42  43
ENDBRANCH  40  42
ENDBRANCH  34  40
ENDBRANCH  13  30
BRANCH   1  47
ATOM     47  C   LIG d   1       3.414  -0.501  -6.294  0.00  0.00     0.022 C 
ATOM     48  H   LIG d   1       2.984  -1.502  -6.268  0.00  0.00     0.036 H 
ATOM     49  H   LIG d   1       3.207   0.007  -5.353  0.00  0.00     0.036 H 
BRANCH  47  50
ATOM     50  C   LIG d   1       2.793   0.290  -7.448  0.00  0.00    -0.057 C 
ATOM     51  H   LIG d   1       3.431   1.139  -7.691  0.00  0.00     0.023 H 
ATOM     52  H   LIG d   1       2.701  -0.357  -8.321  0.00  0.00     0.023 H 
ATOM     53  H   LIG d   1       1.807   0.648  -7.154  0.00  0.00     0.023 H 
ENDBRANCH  47  50
ENDBRANCH   1  47
BRANCH  18  54
ATOM     54  C   LIG d   1       9.864  -5.123  -3.498  0.00  0.00    -0.043 A 
ATOM     55  C   LIG d   1      10.922  -5.733  -4.146  0.00  0.00    -0.055 A 
ATOM     56  C   LIG d   1      11.658  -6.710  -3.503  0.00  0.00    -0.020 A 
ATOM     57  H   LIG d   1      11.172  -5.447  -5.158  0.00  0.00     0.062 H 
ATOM     58  C   LIG d   1      11.335  -7.078  -2.205  0.00  0.00     0.120 A 
ATOM     59  H   LIG d   1      12.484  -7.185  -4.010  0.00  0.00     0.065 H 
ATOM     60  C   LIG d   1      10.273  -6.464  -1.557  0.00  0.00    -0.020 A 
ATOM     61  C   LIG d   1       9.544  -5.485  -2.202  0.00  0.00    -0.055 A 
ATOM     62  H   LIG d   1      10.020  -6.750  -0.545  0.00  0.00     0.065 H 
ATOM     63  H   LIG d   1       8.720  -5.004  -1.696  0.00  0.00     0.062 H 
BRANCH  58  64
ATOM     64  O   LIG d   1      12.058  -8.038  -1.570  0.00  0.00    -0.495 OA
BRANCH  64  65
ATOM     65  C   LIG d   1      11.928  -8.114  -0.150  0.00  0.00     0.079 C 
ATOM     66  H   LIG d   1      11.938  -9.159   0.161  0.00  0.00     0.066 H 
ATOM     67  H   LIG d   1      12.760  -7.587   0.320  0.00  0.00     0.066 H 
ATOM     68  H   LIG d   1      10.989  -7.653   0.154  0.00  0.00     0.066 H 
ENDBRANCH  64  65
ENDBRANCH  58  64
ENDBRANCH  18  54
TORSDOF 9
ENDMDL
MODEL 3
REMARK VINA RESULT:      -6.6      3.336      8.565
REMARK  9 active torsions:
REMARK  status: ('A' for Active; 'I' for Inactive)
REMARK    1  A    between atoms: C_1  and  C_2 
REMARK    2  A    between atoms: C_2  and  C_3 
REMARK       I    between atoms: C_3  and  N_5 
REMARK    3  A    between atoms: C_15  and  C_17 
REMARK    4  A    between atoms: C_20  and  C_23 
REMARK    5  A    between atoms: C_23  and  O_25 
REMARK    6  A    between atoms: O_25  and  C_26 
REMARK    7  A    between atoms: C_30  and  C_33 
REMARK    8  A    between atoms: C_36  and  O_39 
REMARK    9  A    between atoms: O_39  and  C_40 
ROOT
ATOM      1  C   LIG d   1       5.123  -0.292  -3.695  0.00  0.00     0.220 C 
ATOM      2  O   LIG d   1       4.599   0.801  -3.700  0.00  0.00    -0.275 OA
ATOM      3  N   LIG d   1       5.658  -0.788  -4.829  0.00  0.00    -0.258 N 
ATOM      4  C   LIG d   1       6.257  -2.048  -4.811  0.00  0.00     0.058 A 
ATOM      5  C   LIG d   1       7.423  -2.283  -4.098  0.00  0.00    -0.038 A 
ATOM      6  C   LIG d   1       8.022  -3.529  -4.163  0.00  0.00    -0.060 A 
ATOM      7  C   LIG d   1       7.467  -4.532  -4.937  0.00  0.00    -0.060 A 
ATOM      8  C   LIG d   1       6.288  -4.310  -5.629  0.00  0.00    -0.039 A 
ATOM      9  C   LIG d   1       5.683  -3.066  -5.556  0.00  0.00     0.053 A 
ATOM     10  N   LIG d   1       4.470  -2.793  -6.175  0.00  0.00    -0.316 N 
ATOM     11  C   LIG d   1       4.293  -1.879  -7.162  0.00  0.00     0.017 C 
ATOM     12  C   LIG d   1       4.768  -0.623  -7.145  0.00  0.00     0.037 C 
ATOM     13  C   LIG d   1       5.601  -0.006  -6.046  0.00  0.00     0.086 C 
ATOM     14  H   LIG d   1       5.187   0.974  -5.807  0.00  0.00     0.061 H 
ATOM     15  C   LIG d   1       4.500   0.257  -8.220  0.00  0.00     0.163 C 
ATOM     16  O   LIG d   1       4.959   1.381  -8.185  0.00  0.00    -0.292 OA
ATOM     17  C   LIG d   1       3.669  -0.147  -9.401  0.00  0.00     0.017 C 
ATOM     18  C   LIG d   1       2.684  -1.235  -8.958  0.00  0.00    -0.004 C 
ATOM     19  H   LIG d   1       2.002  -0.836  -8.208  0.00  0.00     0.036 H 
ATOM     20  C   LIG d   1       3.499  -2.381  -8.357  0.00  0.00    -0.007 C 
ATOM     21  H   LIG d   1       7.858  -1.501  -3.492  0.00  0.00     0.064 H 
ATOM     22  H   LIG d   1       8.930  -3.717  -3.611  0.00  0.00     0.062 H 
ATOM     23  H   LIG d   1       7.952  -5.495  -4.998  0.00  0.00     0.062 H 
ATOM     24  H   LIG d   1       5.846  -5.097  -6.220  0.00  0.00     0.064 H 
ATOM     25  H   LIG d   1       3.692  -3.293  -5.880  0.00  0.00     0.152 HD
ATOM     26  H   LIG d   1       4.264  -0.497 -10.123  0.00  0.00     0.035 H 
ATOM     27  H   LIG d   1       3.117   0.718  -9.771  0.00  0.00     0.035 H 
ATOM     28  H   LIG d   1       4.183  -2.771  -9.109  0.00  0.00     0.033 H 
ATOM     29  H   LIG d   1       2.822  -3.174  -8.035  0.00  0.00     0.033 H 
ENDROOT
BRANCH  13  30
ATOM     30  C   LIG d   1       7.004   0.185  -6.558  0.00  0.00    -0.022 A 
ATOM     31  C   LIG d   1       7.511  -0.676  -7.516  0.00  0.00    -0.056 A 
ATOM     32  C   LIG d   1       8.796  -0.507  -7.989  0.00  0.00    -0.047 A 
ATOM     33  H   LIG d   1       6.899  -1.482  -7.893  0.00  0.00     0.062 H 
ATOM     34  C   LIG d   1       9.585   0.536  -7.501  0.00  0.00     0.059 A 
ATOM     35  H   LIG d   1       9.189  -1.180  -8.737  0.00  0.00     0.063 H 
ATOM     36  C   LIG d   1       9.068   1.401  -6.535  0.00  0.00    -0.047 A 
ATOM     37  C   LIG d   1       7.780   1.224  -6.074  0.00  0.00    -0.056 A 
ATOM     38  H   LIG d   1       9.673   2.210  -6.153  0.00  0.00     0.063 H 
ATOM     39  H   LIG d   1       7.377   1.896  -5.330  0.00  0.00     0.062 H 
BRANCH  34  40
ATOM     40  C   LIG d   1      10.962   0.723  -8.003  0.00  0.00     0.339 C 
ATOM     41  O   LIG d   1      11.162   0.840  -9.195  0.00  0.00    -0.245 OA
BRANCH  40  42
ATOM     42  O   LIG d   1      11.994   0.763  -7.139  0.00  0.00    -0.465 OA
BRANCH  42  43
ATOM     43  C   LIG d   1      12.365  -0.485  -6.496  0.00  0.00     0.082 C 
ATOM     44  H   LIG d   1      12.555  -0.305  -5.438  0.00  0.00     0.066 H 
ATOM     45  H   LIG d   1      11.553  -1.203  -6.601  0.00  0.00     0.066 H 
ATOM     46  H   LIG d   1      13.265  -0.882  -6.964  0.00  0.00     0.066 H 
ENDBRANCH  42  43
ENDBRANCH  40  42
ENDBRANCH  34  40
ENDBRANCH  13  30
BRANCH   1  47
ATOM     47  C   LIG d   1       5.177  -1.097  -2.423  0.00  0.00     0.022 C 
ATOM     48  H   LIG d   1       6.058  -1.740  -2.435  0.00  0.00     0.036 H 
ATOM     49  H   LIG d   1       5.231  -0.423  -1.569  0.00  0.00     0.036 H 
BRANCH  47  50
ATOM     50  C   LIG d   1       3.918  -1.960  -2.312  0.00  0.00    -0.057 C 
ATOM     51  H   LIG d   1       3.497  -1.862  -1.312  0.00  0.00     0.023 H 
ATOM     52  H   LIG d   1       3.185  -1.628  -3.049  0.00  0.00     0.023 H 
ATOM     53  H   LIG d   1       4.175  -3.002  -2.498  0.00  0.00     0.023 H 
ENDBRANCH  47  50
ENDBRANCH   1  47
BRANCH  18  54
ATOM     54  C   LIG d   1       1.903  -1.732 -10.147  0.00  0.00    -0.043 A 
ATOM     55  C   LIG d   1       1.434  -0.835 -11.088  0.00  0.00    -0.055 A 
ATOM     56  C   LIG d   1       0.716  -1.288 -12.179  0.00  0.00    -0.020 A 
ATOM     57  H   LIG d   1       1.625   0.221 -10.969  0.00  0.00     0.062 H 
ATOM     58  C   LIG d   1       0.470  -2.645 -12.330  0.00  0.00     0.120 A 
ATOM     59  H   LIG d   1       0.350  -0.587 -12.914  0.00  0.00     0.065 H 
ATOM     60  C   LIG d   1       0.943  -3.543 -11.385  0.00  0.00    -0.020 A 
ATOM     61  C   LIG d   1       1.663  -3.086 -10.299  0.00  0.00    -0.055 A 
ATOM     62  H   LIG d   1       0.752  -4.601 -11.501  0.00  0.00     0.065 H 
ATOM     63  H   LIG d   1       2.035  -3.785  -9.564  0.00  0.00     0.062 H 
BRANCH  58  64
ATOM     64  O   LIG d   1      -0.235  -3.093 -13.403  0.00  0.00    -0.495 OA
BRANCH  64  65
ATOM     65  C   LIG d   1      -1.165  -2.184 -13.993  0.00  0.00     0.079 C 
ATOM     66  H   LIG d   1      -1.062  -1.204 -13.526  0.00  0.00     0.066 H 
ATOM     67  H   LIG d   1      -0.963  -2.100 -15.062  0.00  0.00     0.066 H 
ATOM     68  H   LIG d   1      -2.179  -2.553 -13.843  0.00  0.00     0.066 H 
ENDBRANCH  64  65
ENDBRANCH  58  64
ENDBRANCH  18  54
TORSDOF 9
ENDMDL
MODEL 4
REMARK VINA RESULT:      -6.3      2.786      8.501
REMARK  9 active torsions:
REMARK  status: ('A' for Active; 'I' for Inactive)
REMARK    1  A    between atoms: C_1  and  C_2 
REMARK    2  A    between atoms: C_2  and  C_3 
REMARK       I    between atoms: C_3  and  N_5 
REMARK    3  A    between atoms: C_15  and  C_17 
REMARK    4  A    between atoms: C_20  and  C_23 
REMARK    5  A    between atoms: C_23  and  O_25 
REMARK    6  A    between atoms: O_25  and  C_26 
REMARK    7  A    between atoms: C_30  and  C_33 
REMARK    8  A    between atoms: C_36  and  O_39 
REMARK    9  A    between atoms: O_39  and  C_40 
ROOT
ATOM      1  C   LIG d   1       7.400   0.504  -5.160  0.00  0.00     0.220 C 
ATOM      2  O   LIG d   1       8.250   0.766  -5.983  0.00  0.00    -0.275 OA
ATOM      3  N   LIG d   1       6.630  -0.593  -5.311  0.00  0.00    -0.258 N 
ATOM      4  C   LIG d   1       5.654  -0.883  -4.358  0.00  0.00     0.058 A 
ATOM      5  C   LIG d   1       5.993  -1.238  -3.062  0.00  0.00    -0.038 A 
ATOM      6  C   LIG d   1       4.995  -1.585  -2.168  0.00  0.00    -0.060 A 
ATOM      7  C   LIG d   1       3.670  -1.583  -2.563  0.00  0.00    -0.060 A 
ATOM      8  C   LIG d   1       3.325  -1.203  -3.848  0.00  0.00    -0.039 A 
ATOM      9  C   LIG d   1       4.321  -0.847  -4.741  0.00  0.00     0.053 A 
ATOM     10  N   LIG d   1       4.043  -0.398  -6.026  0.00  0.00    -0.316 N 
ATOM     11  C   LIG d   1       4.424  -1.028  -7.166  0.00  0.00     0.017 C 
ATOM     12  C   LIG d   1       5.655  -1.504  -7.410  0.00  0.00     0.037 C 
ATOM     13  C   LIG d   1       6.830  -1.450  -6.461  0.00  0.00     0.086 C 
ATOM     14  H   LIG d   1       7.701  -1.094  -7.010  0.00  0.00     0.061 H 
ATOM     15  C   LIG d   1       5.950  -2.122  -8.648  0.00  0.00     0.163 C 
ATOM     16  O   LIG d   1       7.068  -2.560  -8.832  0.00  0.00    -0.292 OA
ATOM     17  C   LIG d   1       4.933  -2.255  -9.742  0.00  0.00     0.017 C 
ATOM     18  C   LIG d   1       3.917  -1.115  -9.607  0.00  0.00    -0.004 C 
ATOM     19  H   LIG d   1       4.414  -0.156  -9.749  0.00  0.00     0.036 H 
ATOM     20  C   LIG d   1       3.322  -1.187  -8.201  0.00  0.00    -0.007 C 
ATOM     21  H   LIG d   1       7.028  -1.239  -2.751  0.00  0.00     0.064 H 
ATOM     22  H   LIG d   1       5.254  -1.863  -1.157  0.00  0.00     0.062 H 
ATOM     23  H   LIG d   1       2.900  -1.875  -1.863  0.00  0.00     0.062 H 
ATOM     24  H   LIG d   1       2.290  -1.187  -4.153  0.00  0.00     0.064 H 
ATOM     25  H   LIG d   1       3.538   0.427  -6.115  0.00  0.00     0.152 HD
ATOM     26  H   LIG d   1       4.470  -3.137  -9.660  0.00  0.00     0.035 H 
ATOM     27  H   LIG d   1       5.429  -2.192 -10.711  0.00  0.00     0.035 H 
ATOM     28  H   LIG d   1       2.832  -2.150  -8.064  0.00  0.00     0.033 H 
ATOM     29  H   LIG d   1       2.591  -0.387  -8.078  0.00  0.00     0.033 H 
ENDROOT
BRANCH  13  30
ATOM     30  C   LIG d   1       7.115  -2.846  -5.973  0.00  0.00    -0.022 A 
ATOM     31  C   LIG d   1       8.404  -3.202  -5.617  0.00  0.00    -0.056 A 
ATOM     32  C   LIG d   1       8.673  -4.479  -5.170  0.00  0.00    -0.047 A 
ATOM     33  H   LIG d   1       9.202  -2.478  -5.691  0.00  0.00     0.062 H 
ATOM     34  C   LIG d   1       7.639  -5.413  -5.075  0.00  0.00     0.059 A 
ATOM     35  H   LIG d   1       9.679  -4.754  -4.892  0.00  0.00     0.063 H 
ATOM     36  C   LIG d   1       6.341  -5.048  -5.435  0.00  0.00    -0.047 A 
ATOM     37  C   LIG d   1       6.086  -3.766  -5.876  0.00  0.00    -0.056 A 
ATOM     38  H   LIG d   1       5.537  -5.765  -5.364  0.00  0.00     0.063 H 
ATOM     39  H   LIG d   1       5.080  -3.480  -6.150  0.00  0.00     0.062 H 
BRANCH  34  40
ATOM     40  C   LIG d   1       7.919  -6.783  -4.596  0.00  0.00     0.339 C 
ATOM     41  O   LIG d   1       8.882  -6.993  -3.887  0.00  0.00    -0.245 OA
BRANCH  40  42
ATOM     42  O   LIG d   1       7.106  -7.797  -4.947  0.00  0.00    -0.465 OA
BRANCH  42  43
ATOM     43  C   LIG d   1       7.165  -9.000  -4.135  0.00  0.00     0.082 C 
ATOM     44  H   LIG d   1       6.689  -9.822  -4.670  0.00  0.00     0.066 H 
ATOM     45  H   LIG d   1       8.206  -9.252  -3.935  0.00  0.00     0.066 H 
ATOM     46  H   LIG d   1       6.644  -8.830  -3.193  0.00  0.00     0.066 H 
ENDBRANCH  42  43
ENDBRANCH  40  42
ENDBRANCH  34  40
ENDBRANCH  13  30
BRANCH   1  47
ATOM     47  C   LIG d   1       7.201   1.403  -3.968  0.00  0.00     0.022 C 
ATOM     48  H   LIG d   1       6.307   2.010  -4.113  0.00  0.00     0.036 H 
ATOM     49  H   LIG d   1       7.086   0.797  -3.070  0.00  0.00     0.036 H 
BRANCH  47  50
ATOM     50  C   LIG d   1       8.418   2.319  -3.812  0.00  0.00    -0.057 C 
ATOM     51  H   LIG d   1       8.087   3.319  -3.532  0.00  0.00     0.023 H 
ATOM     52  H   LIG d   1       9.073   1.923  -3.035  0.00  0.00     0.023 H 
ATOM     53  H   LIG d   1       8.960   2.367  -4.756  0.00  0.00     0.023 H 
ENDBRANCH  47  50
ENDBRANCH   1  47
BRANCH  18  54
ATOM     54  C   LIG d   1       2.825  -1.281 -10.633  0.00  0.00    -0.043 A 
ATOM     55  C   LIG d   1       1.546  -0.835 -10.358  0.00  0.00    -0.055 A 
ATOM     56  C   LIG d   1       0.543  -0.987 -11.296  0.00  0.00    -0.020 A 
ATOM     57  H   LIG d   1       1.329  -0.370  -9.407  0.00  0.00     0.062 H 
ATOM     58  C   LIG d   1       0.821  -1.585 -12.517  0.00  0.00     0.120 A 
ATOM     59  H   LIG d   1      -0.456  -0.638 -11.081  0.00  0.00     0.065 H 
ATOM     60  C   LIG d   1       2.106  -2.031 -12.790  0.00  0.00    -0.020 A 
ATOM     61  C   LIG d   1       3.106  -1.873 -11.851  0.00  0.00    -0.055 A 
ATOM     62  H   LIG d   1       2.325  -2.498 -13.740  0.00  0.00     0.065 H 
ATOM     63  H   LIG d   1       4.107  -2.217 -12.065  0.00  0.00     0.062 H 
BRANCH  58  64
ATOM     64  O   LIG d   1      -0.163  -1.735 -13.442  0.00  0.00    -0.495 OA
BRANCH  64  65
ATOM     65  C   LIG d   1      -1.140  -2.748 -13.191  0.00  0.00     0.079 C 
ATOM     66  H   LIG d   1      -1.052  -3.531 -13.944  0.00  0.00     0.066 H 
ATOM     67  H   LIG d   1      -0.975  -3.174 -12.201  0.00  0.00     0.066 H 
ATOM     68  H   LIG d   1      -2.136  -2.309 -13.236  0.00  0.00     0.066 H 
ENDBRANCH  64  65
ENDBRANCH  58  64
ENDBRANCH  18  54
TORSDOF 9
ENDMDL
MODEL 5
REMARK VINA RESULT:      -6.2      3.838      9.192
REMARK  9 active torsions:
REMARK  status: ('A' for Active; 'I' for Inactive)
REMARK    1  A    between atoms: C_1  and  C_2 
REMARK    2  A    between atoms: C_2  and  C_3 
REMARK       I    between atoms: C_3  and  N_5 
REMARK    3  A    between atoms: C_15  and  C_17 
REMARK    4  A    between atoms: C_20  and  C_23 
REMARK    5  A    between atoms: C_23  and  O_25 
REMARK    6  A    between atoms: O_25  and  C_26 
REMARK    7  A    between atoms: C_30  and  C_33 
REMARK    8  A    between atoms: C_36  and  O_39 
REMARK    9  A    between atoms: O_39  and  C_40 
ROOT
ATOM      1  C   LIG d   1      12.822   4.136  -7.881  0.00  0.00     0.220 C 
ATOM      2  O   LIG d   1      13.654   3.742  -7.092  0.00  0.00    -0.275 OA
ATOM      3  N   LIG d   1      11.622   4.562  -7.439  0.00  0.00    -0.258 N 
ATOM      4  C   LIG d   1      10.672   5.011  -8.357  0.00  0.00     0.058 A 
ATOM      5  C   LIG d   1      10.870   6.170  -9.091  0.00  0.00    -0.038 A 
ATOM      6  C   LIG d   1       9.872   6.617  -9.941  0.00  0.00    -0.060 A 
ATOM      7  C   LIG d   1       8.685   5.918 -10.053  0.00  0.00    -0.060 A 
ATOM      8  C   LIG d   1       8.494   4.745  -9.342  0.00  0.00    -0.039 A 
ATOM      9  C   LIG d   1       9.495   4.292  -8.500  0.00  0.00     0.053 A 
ATOM     10  N   LIG d   1       9.395   3.094  -7.803  0.00  0.00    -0.316 N 
ATOM     11  C   LIG d   1       9.379   2.984  -6.451  0.00  0.00     0.017 C 
ATOM     12  C   LIG d   1      10.229   3.602  -5.615  0.00  0.00     0.037 C 
ATOM     13  C   LIG d   1      11.338   4.545  -6.019  0.00  0.00     0.086 C 
ATOM     14  H   LIG d   1      12.246   4.258  -5.489  0.00  0.00     0.061 H 
ATOM     15  C   LIG d   1      10.137   3.394  -4.219  0.00  0.00     0.163 C 
ATOM     16  O   LIG d   1      10.909   3.981  -3.488  0.00  0.00    -0.292 OA
ATOM     17  C   LIG d   1       9.123   2.473  -3.609  0.00  0.00     0.017 C 
ATOM     18  C   LIG d   1       8.768   1.388  -4.633  0.00  0.00    -0.004 C 
ATOM     19  H   LIG d   1       9.649   0.788  -4.859  0.00  0.00     0.036 H 
ATOM     20  C   LIG d   1       8.280   2.088  -5.901  0.00  0.00    -0.007 C 
ATOM     21  H   LIG d   1      11.798   6.717  -9.006  0.00  0.00     0.064 H 
ATOM     22  H   LIG d   1      10.021   7.519 -10.514  0.00  0.00     0.062 H 
ATOM     23  H   LIG d   1       7.904   6.285 -10.703  0.00  0.00     0.062 H 
ATOM     24  H   LIG d   1       7.573   4.191  -9.441  0.00  0.00     0.064 H 
ATOM     25  H   LIG d   1       9.332   2.277  -8.322  0.00  0.00     0.152 HD
ATOM     26  H   LIG d   1       8.305   2.993  -3.365  0.00  0.00     0.035 H 
ATOM     27  H   LIG d   1       9.541   2.010  -2.715  0.00  0.00     0.035 H 
ATOM     28  H   LIG d   1       7.404   2.691  -5.667  0.00  0.00     0.033 H 
ATOM     29  H   LIG d   1       8.017   1.338  -6.648  0.00  0.00     0.033 H 
ENDROOT
BRANCH  13  30
ATOM     30  C   LIG d   1      10.960   5.939  -5.591  0.00  0.00    -0.022 A 
ATOM     31  C   LIG d   1       9.629   6.315  -5.565  0.00  0.00    -0.056 A 
ATOM     32  C   LIG d   1       9.276   7.590  -5.174  0.00  0.00    -0.047 A 
ATOM     33  H   LIG d   1       8.864   5.608  -5.852  0.00  0.00     0.062 H 
ATOM     34  C   LIG d   1      10.266   8.502  -4.803  0.00  0.00     0.059 A 
ATOM     35  H   LIG d   1       8.236   7.881  -5.154  0.00  0.00     0.063 H 
ATOM     36  C   LIG d   1      11.607   8.117  -4.831  0.00  0.00    -0.047 A 
ATOM     37  C   LIG d   1      11.946   6.837  -5.219  0.00  0.00    -0.056 A 
ATOM     38  H   LIG d   1      12.378   8.817  -4.545  0.00  0.00     0.063 H 
ATOM     39  H   LIG d   1      12.984   6.536  -5.237  0.00  0.00     0.062 H 
BRANCH  34  40
ATOM     40  C   LIG d   1       9.895   9.869  -4.383  0.00  0.00     0.339 C 
ATOM     41  O   LIG d   1      10.222  10.276  -3.287  0.00  0.00    -0.245 OA
BRANCH  40  42
ATOM     42  O   LIG d   1       9.196  10.663  -5.216  0.00  0.00    -0.465 OA
BRANCH  42  43
ATOM     43  C   LIG d   1       9.949  11.638  -5.986  0.00  0.00     0.082 C 
ATOM     44  H   LIG d   1      10.568  11.121  -6.719  0.00  0.00     0.066 H 
ATOM     45  H   LIG d   1       9.259  12.306  -6.500  0.00  0.00     0.066 H 
ATOM     46  H   LIG d   1      10.585  12.217  -5.317  0.00  0.00     0.066 H 
ENDBRANCH  42  43
ENDBRANCH  40  42
ENDBRANCH  34  40
ENDBRANCH  13  30
BRANCH   1  47
ATOM     47  C   LIG d   1      13.128   4.148  -9.356  0.00  0.00     0.022 C 
ATOM     48  H   LIG d   1      12.412   4.789  -9.872  0.00  0.00     0.036 H 
ATOM     49  H   LIG d   1      14.136   4.530  -9.514  0.00  0.00     0.036 H 
BRANCH  47  50
ATOM     50  C   LIG d   1      13.029   2.724  -9.910  0.00  0.00    -0.057 C 
ATOM     51  H   LIG d   1      13.673   2.064  -9.331  0.00  0.00     0.023 H 
ATOM     52  H   LIG d   1      11.997   2.380  -9.838  0.00  0.00     0.023 H 
ATOM     53  H   LIG d   1      13.343   2.718 -10.952  0.00  0.00     0.023 H 
ENDBRANCH  47  50
ENDBRANCH   1  47
BRANCH  18  54
ATOM     54  C   LIG d   1       7.676   0.506  -4.084  0.00  0.00    -0.043 A 
ATOM     55  C   LIG d   1       6.601   1.069  -3.422  0.00  0.00    -0.055 A 
ATOM     56  C   LIG d   1       5.599   0.263  -2.917  0.00  0.00    -0.020 A 
ATOM     57  H   LIG d   1       6.545   2.141  -3.297  0.00  0.00     0.062 H 
ATOM     58  C   LIG d   1       5.672  -1.113  -3.077  0.00  0.00     0.120 A 
ATOM     59  H   LIG d   1       4.760   0.704  -2.401  0.00  0.00     0.065 H 
ATOM     60  C   LIG d   1       6.752  -1.676  -3.742  0.00  0.00    -0.020 A 
ATOM     61  C   LIG d   1       7.748  -0.865  -4.249  0.00  0.00    -0.055 A 
ATOM     62  H   LIG d   1       6.810  -2.748  -3.867  0.00  0.00     0.065 H 
ATOM     63  H   LIG d   1       8.587  -1.302  -4.770  0.00  0.00     0.062 H 
BRANCH  58  64
ATOM     64  O   LIG d   1       4.687  -1.909  -2.581  0.00  0.00    -0.495 OA
BRANCH  64  65
ATOM     65  C   LIG d   1       3.344  -1.443  -2.723  0.00  0.00     0.079 C 
ATOM     66  H   LIG d   1       3.349  -0.366  -2.890  0.00  0.00     0.066 H 
ATOM     67  H   LIG d   1       2.875  -1.940  -3.572  0.00  0.00     0.066 H 
ATOM     68  H   LIG d   1       2.785  -1.667  -1.815  0.00  0.00     0.066 H 
ENDBRANCH  64  65
ENDBRANCH  58  64
ENDBRANCH  18  54
TORSDOF 9
ENDMDL
MODEL 6
REMARK VINA RESULT:      -5.9      3.090      8.515
REMARK  9 active torsions:
REMARK  status: ('A' for Active; 'I' for Inactive)
REMARK    1  A    between atoms: C_1  and  C_2 
REMARK    2  A    between atoms: C_2  and  C_3 
REMARK       I    between atoms: C_3  and  N_5 
REMARK    3  A    between atoms: C_15  and  C_17 
REMARK    4  A    between atoms: C_20  and  C_23 
REMARK    5  A    between atoms: C_23  and  O_25 
REMARK    6  A    between atoms: O_25  and  C_26 
REMARK    7  A    between atoms: C_30  and  C_33 
REMARK    8  A    between atoms: C_36  and  O_39 
REMARK    9  A    between atoms: O_39  and  C_40 
ROOT
ATOM      1  C   LIG d   1       4.439  -0.699  -4.381  0.00  0.00     0.220 C 
ATOM      2  O   LIG d   1       3.891   0.382  -4.385  0.00  0.00    -0.275 OA
ATOM      3  N   LIG d   1       5.356  -0.993  -5.324  0.00  0.00    -0.258 N 
ATOM      4  C   LIG d   1       5.979  -2.242  -5.310  0.00  0.00     0.058 A 
ATOM      5  C   LIG d   1       6.839  -2.608  -4.286  0.00  0.00    -0.038 A 
ATOM      6  C   LIG d   1       7.489  -3.829  -4.347  0.00  0.00    -0.060 A 
ATOM      7  C   LIG d   1       7.287  -4.676  -5.421  0.00  0.00    -0.060 A 
ATOM      8  C   LIG d   1       6.408  -4.326  -6.432  0.00  0.00    -0.039 A 
ATOM      9  C   LIG d   1       5.750  -3.109  -6.368  0.00  0.00     0.053 A 
ATOM     10  N   LIG d   1       4.811  -2.721  -7.315  0.00  0.00    -0.316 N 
ATOM     11  C   LIG d   1       4.936  -1.646  -8.134  0.00  0.00     0.017 C 
ATOM     12  C   LIG d   1       5.309  -0.417  -7.743  0.00  0.00     0.037 C 
ATOM     13  C   LIG d   1       5.679  -0.009  -6.336  0.00  0.00     0.086 C 
ATOM     14  H   LIG d   1       5.158   0.917  -6.096  0.00  0.00     0.061 H 
ATOM     15  C   LIG d   1       5.381   0.640  -8.680  0.00  0.00     0.163 C 
ATOM     16  O   LIG d   1       5.740   1.737  -8.300  0.00  0.00    -0.292 OA
ATOM     17  C   LIG d   1       5.029   0.457 -10.126  0.00  0.00     0.017 C 
ATOM     18  C   LIG d   1       4.011  -0.684 -10.242  0.00  0.00    -0.004 C 
ATOM     19  H   LIG d   1       3.092  -0.416  -9.721  0.00  0.00     0.036 H 
ATOM     20  C   LIG d   1       4.629  -1.924  -9.597  0.00  0.00    -0.007 C 
ATOM     21  H   LIG d   1       6.997  -1.949  -3.446  0.00  0.00     0.064 H 
ATOM     22  H   LIG d   1       8.160  -4.119  -3.553  0.00  0.00     0.062 H 
ATOM     23  H   LIG d   1       7.814  -5.618  -5.470  0.00  0.00     0.062 H 
ATOM     24  H   LIG d   1       6.239  -4.993  -7.263  0.00  0.00     0.064 H 
ATOM     25  H   LIG d   1       4.007  -3.258  -7.397  0.00  0.00     0.152 HD
ATOM     26  H   LIG d   1       5.854   0.233 -10.644  0.00  0.00     0.035 H 
ATOM     27  H   LIG d   1       4.593   1.377 -10.515  0.00  0.00     0.035 H 
ATOM     28  H   LIG d   1       5.550  -2.183 -10.118  0.00  0.00     0.033 H 
ATOM     29  H   LIG d   1       3.926  -2.755  -9.667  0.00  0.00     0.033 H 
ENDROOT
BRANCH  13  30
ATOM     30  C   LIG d   1       7.161   0.256  -6.289  0.00  0.00    -0.022 A 
ATOM     31  C   LIG d   1       8.011  -0.423  -7.145  0.00  0.00    -0.056 A 
ATOM     32  C   LIG d   1       9.369  -0.185  -7.107  0.00  0.00    -0.047 A 
ATOM     33  H   LIG d   1       7.609  -1.141  -7.844  0.00  0.00     0.062 H 
ATOM     34  C   LIG d   1       9.887   0.744  -6.202  0.00  0.00     0.059 A 
ATOM     35  H   LIG d   1      10.030  -0.716  -7.776  0.00  0.00     0.063 H 
ATOM     36  C   LIG d   1       9.024   1.426  -5.341  0.00  0.00    -0.047 A 
ATOM     37  C   LIG d   1       7.668   1.182  -5.394  0.00  0.00    -0.056 A 
ATOM     38  H   LIG d   1       9.418   2.146  -4.639  0.00  0.00     0.063 H 
ATOM     39  H   LIG d   1       6.999   1.712  -4.731  0.00  0.00     0.062 H 
BRANCH  34  40
ATOM     40  C   LIG d   1      11.340   1.004  -6.156  0.00  0.00     0.339 C 
ATOM     41  O   LIG d   1      12.023   0.809  -7.140  0.00  0.00    -0.245 OA
BRANCH  40  42
ATOM     42  O   LIG d   1      11.907   1.458  -5.022  0.00  0.00    -0.465 OA
BRANCH  42  43
ATOM     43  C   LIG d   1      12.568   0.480  -4.177  0.00  0.00     0.082 C 
ATOM     44  H   LIG d   1      12.188   0.564  -3.159  0.00  0.00     0.066 H 
ATOM     45  H   LIG d   1      12.369  -0.522  -4.557  0.00  0.00     0.066 H 
ATOM     46  H   LIG d   1      13.642   0.663  -4.180  0.00  0.00     0.066 H 
ENDBRANCH  42  43
ENDBRANCH  40  42
ENDBRANCH  34  40
ENDBRANCH  13  30
BRANCH   1  47
ATOM     47  C   LIG d   1       4.094  -1.715  -3.323  0.00  0.00     0.022 C 
ATOM     48  H   LIG d   1       3.054  -2.021  -3.437  0.00  0.00     0.036 H 
ATOM     49  H   LIG d   1       4.742  -2.584  -3.429  0.00  0.00     0.036 H 
BRANCH  47  50
ATOM     50  C   LIG d   1       4.293  -1.096  -1.938  0.00  0.00    -0.057 C 
ATOM     51  H   LIG d   1       3.950  -1.793  -1.175  0.00  0.00     0.023 H 
ATOM     52  H   LIG d   1       5.352  -0.883  -1.785  0.00  0.00     0.023 H 
ATOM     53  H   LIG d   1       3.722  -0.171  -1.868  0.00  0.00     0.023 H 
ENDBRANCH  47  50
ENDBRANCH   1  47
BRANCH  18  54
ATOM     54  C   LIG d   1       3.714  -0.958 -11.694  0.00  0.00    -0.043 A 
ATOM     55  C   LIG d   1       4.550  -0.460 -12.675  0.00  0.00    -0.055 A 
ATOM     56  C   LIG d   1       4.279  -0.709 -14.008  0.00  0.00    -0.020 A 
ATOM     57  H   LIG d   1       5.415   0.126 -12.401  0.00  0.00     0.062 H 
ATOM     58  C   LIG d   1       3.168  -1.461 -14.359  0.00  0.00     0.120 A 
ATOM     59  H   LIG d   1       4.933  -0.320 -14.774  0.00  0.00     0.065 H 
ATOM     60  C   LIG d   1       2.331  -1.960 -13.372  0.00  0.00    -0.020 A 
ATOM     61  C   LIG d   1       2.608  -1.713 -12.042  0.00  0.00    -0.055 A 
ATOM     62  H   LIG d   1       1.464  -2.546 -13.644  0.00  0.00     0.065 H 
ATOM     63  H   LIG d   1       1.959  -2.104 -11.273  0.00  0.00     0.062 H 
BRANCH  58  64
ATOM     64  O   LIG d   1       2.900  -1.708 -15.668  0.00  0.00    -0.495 OA
BRANCH  64  65
ATOM     65  C   LIG d   1       1.653  -2.339 -15.967  0.00  0.00     0.079 C 
ATOM     66  H   LIG d   1       0.877  -1.580 -16.070  0.00  0.00     0.066 H 
ATOM     67  H   LIG d   1       1.742  -2.896 -16.900  0.00  0.00     0.066 H 
ATOM     68  H   LIG d   1       1.389  -3.021 -15.159  0.00  0.00     0.066 H 
ENDBRANCH  64  65
ENDBRANCH  58  64
ENDBRANCH  18  54
TORSDOF 9
ENDMDL
MODEL 7
REMARK VINA RESULT:      -5.8      2.857      4.642
REMARK  9 active torsions:
REMARK  status: ('A' for Active; 'I' for Inactive)
REMARK    1  A    between atoms: C_1  and  C_2 
REMARK    2  A    between atoms: C_2  and  C_3 
REMARK       I    between atoms: C_3  and  N_5 
REMARK    3  A    between atoms: C_15  and  C_17 
REMARK    4  A    between atoms: C_20  and  C_23 
REMARK    5  A    between atoms: C_23  and  O_25 
REMARK    6  A    between atoms: O_25  and  C_26 
REMARK    7  A    between atoms: C_30  and  C_33 
REMARK    8  A    between atoms: C_36  and  O_39 
REMARK    9  A    between atoms: O_39  and  C_40 
ROOT
ATOM      1  C   LIG d   1       9.992  -0.434  -8.019  0.00  0.00     0.220 C 
ATOM      2  O   LIG d   1       9.502   0.471  -8.660  0.00  0.00    -0.275 OA
ATOM      3  N   LIG d   1       9.743  -0.537  -6.698  0.00  0.00    -0.258 N 
ATOM      4  C   LIG d   1      10.315  -1.581  -5.971  0.00  0.00     0.058 A 
ATOM      5  C   LIG d   1       9.950  -2.900  -6.194  0.00  0.00    -0.038 A 
ATOM      6  C   LIG d   1      10.491  -3.899  -5.403  0.00  0.00    -0.060 A 
ATOM      7  C   LIG d   1      11.384  -3.587  -4.395  0.00  0.00    -0.060 A 
ATOM      8  C   LIG d   1      11.772  -2.274  -4.187  0.00  0.00    -0.039 A 
ATOM      9  C   LIG d   1      11.239  -1.275  -4.984  0.00  0.00     0.053 A 
ATOM     10  N   LIG d   1      11.629   0.054  -4.870  0.00  0.00    -0.316 N 
ATOM     11  C   LIG d   1      10.808   1.073  -4.513  0.00  0.00     0.017 C 
ATOM     12  C   LIG d   1       9.584   1.293  -5.021  0.00  0.00     0.037 C 
ATOM     13  C   LIG d   1       8.889   0.439  -6.056  0.00  0.00     0.086 C 
ATOM     14  H   LIG d   1       8.476   1.095  -6.823  0.00  0.00     0.061 H 
ATOM     15  C   LIG d   1       8.823   2.406  -4.594  0.00  0.00     0.163 C 
ATOM     16  O   LIG d   1       7.711   2.567  -5.057  0.00  0.00    -0.292 OA
ATOM     17  C   LIG d   1       9.338   3.395  -3.592  0.00  0.00     0.017 C 
ATOM     18  C   LIG d   1      10.869   3.421  -3.671  0.00  0.00    -0.004 C 
ATOM     19  H   LIG d   1      11.183   3.770  -4.655  0.00  0.00     0.036 H 
ATOM     20  C   LIG d   1      11.370   1.996  -3.443  0.00  0.00    -0.007 C 
ATOM     21  H   LIG d   1       9.253  -3.147  -6.981  0.00  0.00     0.064 H 
ATOM     22  H   LIG d   1      10.209  -4.928  -5.572  0.00  0.00     0.062 H 
ATOM     23  H   LIG d   1      11.786  -4.371  -3.770  0.00  0.00     0.062 H 
ATOM     24  H   LIG d   1      12.481  -2.031  -3.411  0.00  0.00     0.064 H 
ATOM     25  H   LIG d   1      12.557   0.268  -5.059  0.00  0.00     0.152 HD
ATOM     26  H   LIG d   1       9.048   3.122  -2.675  0.00  0.00     0.035 H 
ATOM     27  H   LIG d   1       8.942   4.385  -3.820  0.00  0.00     0.035 H 
ATOM     28  H   LIG d   1      11.047   1.651  -2.462  0.00  0.00     0.033 H 
ATOM     29  H   LIG d   1      12.459   1.985  -3.491  0.00  0.00     0.033 H 
ENDROOT
BRANCH  13  30
ATOM     30  C   LIG d   1       7.749  -0.287  -5.390  0.00  0.00    -0.022 A 
ATOM     31  C   LIG d   1       6.621  -0.615  -6.120  0.00  0.00    -0.056 A 
ATOM     32  C   LIG d   1       5.574  -1.280  -5.516  0.00  0.00    -0.047 A 
ATOM     33  H   LIG d   1       6.560  -0.350  -7.165  0.00  0.00     0.062 H 
ATOM     34  C   LIG d   1       5.655  -1.623  -4.165  0.00  0.00     0.059 A 
ATOM     35  H   LIG d   1       4.694  -1.536  -6.088  0.00  0.00     0.063 H 
ATOM     36  C   LIG d   1       6.797  -1.289  -3.434  0.00  0.00    -0.047 A 
ATOM     37  C   LIG d   1       7.838  -0.628  -4.052  0.00  0.00    -0.056 A 
ATOM     38  H   LIG d   1       6.866  -1.551  -2.389  0.00  0.00     0.063 H 
ATOM     39  H   LIG d   1       8.724  -0.373  -3.488  0.00  0.00     0.062 H 
BRANCH  34  40
ATOM     40  C   LIG d   1       4.538  -2.335  -3.512  0.00  0.00     0.339 C 
ATOM     41  O   LIG d   1       4.293  -3.486  -3.813  0.00  0.00    -0.245 OA
BRANCH  40  42
ATOM     42  O   LIG d   1       3.791  -1.709  -2.583  0.00  0.00    -0.465 OA
BRANCH  42  43
ATOM     43  C   LIG d   1       2.793  -0.769  -3.062  0.00  0.00     0.082 C 
ATOM     44  H   LIG d   1       2.827   0.136  -2.455  0.00  0.00     0.066 H 
ATOM     45  H   LIG d   1       3.002  -0.516  -4.101  0.00  0.00     0.066 H 
ATOM     46  H   LIG d   1       1.804  -1.219  -2.988  0.00  0.00     0.066 H 
ENDBRANCH  42  43
ENDBRANCH  40  42
ENDBRANCH  34  40
ENDBRANCH  13  30
BRANCH   1  47
ATOM     47  C   LIG d   1      10.880  -1.444  -8.698  0.00  0.00     0.022 C 
ATOM     48  H   LIG d   1      11.005  -2.313  -8.052  0.00  0.00     0.036 H 
ATOM     49  H   LIG d   1      10.426  -1.753  -9.639  0.00  0.00     0.036 H 
BRANCH  47  50
ATOM     50  C   LIG d   1      12.248  -0.816  -8.975  0.00  0.00    -0.057 C 
ATOM     51  H   LIG d   1      13.031  -1.455  -8.569  0.00  0.00     0.023 H 
ATOM     52  H   LIG d   1      12.387  -0.710 -10.051  0.00  0.00     0.023 H 
ATOM     53  H   LIG d   1      12.300   0.165  -8.504  0.00  0.00     0.023 H 
ENDBRANCH  47  50
ENDBRANCH   1  47
BRANCH  18  54
ATOM     54  C   LIG d   1      11.420   4.334  -2.606  0.00  0.00    -0.043 A 
ATOM     55  C   LIG d   1      12.773   4.615  -2.571  0.00  0.00    -0.055 A 
ATOM     56  C   LIG d   1      13.281   5.451  -1.594  0.00  0.00    -0.020 A 
ATOM     57  H   LIG d   1      13.434   4.180  -3.306  0.00  0.00     0.062 H 
ATOM     58  C   LIG d   1      12.431   6.008  -0.649  0.00  0.00     0.120 A 
ATOM     59  H   LIG d   1      14.338   5.671  -1.568  0.00  0.00     0.065 H 
ATOM     60  C   LIG d   1      11.074   5.724  -0.687  0.00  0.00    -0.020 A 
ATOM     61  C   LIG d   1      10.570   4.892  -1.668  0.00  0.00    -0.055 A 
ATOM     62  H   LIG d   1      10.410   6.157   0.048  0.00  0.00     0.065 H 
ATOM     63  H   LIG d   1       9.513   4.674  -1.701  0.00  0.00     0.062 H 
BRANCH  58  64
ATOM     64  O   LIG d   1      12.928   6.830   0.312  0.00  0.00    -0.495 OA
BRANCH  64  65
ATOM     65  C   LIG d   1      12.541   8.204   0.254  0.00  0.00     0.079 C 
ATOM     66  H   LIG d   1      11.689   8.314  -0.418  0.00  0.00     0.066 H 
ATOM     67  H   LIG d   1      12.264   8.546   1.251  0.00  0.00     0.066 H 
ATOM     68  H   LIG d   1      13.374   8.801  -0.117  0.00  0.00     0.066 H 
ENDBRANCH  64  65
ENDBRANCH  58  64
ENDBRANCH  18  54
TORSDOF 9
ENDMDL
MODEL 8
REMARK VINA RESULT:      -5.7      4.414      9.026
REMARK  9 active torsions:
REMARK  status: ('A' for Active; 'I' for Inactive)
REMARK    1  A    between atoms: C_1  and  C_2 
REMARK    2  A    between atoms: C_2  and  C_3 
REMARK       I    between atoms: C_3  and  N_5 
REMARK    3  A    between atoms: C_15  and  C_17 
REMARK    4  A    between atoms: C_20  and  C_23 
REMARK    5  A    between atoms: C_23  and  O_25 
REMARK    6  A    between atoms: O_25  and  C_26 
REMARK    7  A    between atoms: C_30  and  C_33 
REMARK    8  A    between atoms: C_36  and  O_39 
REMARK    9  A    between atoms: O_39  and  C_40 
ROOT
ATOM      1  C   LIG d   1       8.922  -4.356  -7.832  0.00  0.00     0.220 C 
ATOM      2  O   LIG d   1      10.083  -4.006  -7.846  0.00  0.00    -0.275 OA
ATOM      3  N   LIG d   1       8.227  -4.344  -6.678  0.00  0.00    -0.258 N 
ATOM      4  C   LIG d   1       6.893  -4.750  -6.675  0.00  0.00     0.058 A 
ATOM      5  C   LIG d   1       5.914  -4.019  -7.330  0.00  0.00    -0.038 A 
ATOM      6  C   LIG d   1       4.592  -4.420  -7.245  0.00  0.00    -0.060 A 
ATOM      7  C   LIG d   1       4.247  -5.538  -6.508  0.00  0.00    -0.060 A 
ATOM      8  C   LIG d   1       5.224  -6.287  -5.874  0.00  0.00    -0.039 A 
ATOM      9  C   LIG d   1       6.548  -5.892  -5.967  0.00  0.00     0.053 A 
ATOM     10  N   LIG d   1       7.585  -6.628  -5.408  0.00  0.00    -0.316 N 
ATOM     11  C   LIG d   1       8.407  -6.184  -4.424  0.00  0.00     0.017 C 
ATOM     12  C   LIG d   1       9.014  -4.986  -4.408  0.00  0.00     0.037 C 
ATOM     13  C   LIG d   1       8.878  -3.910  -5.459  0.00  0.00     0.086 C 
ATOM     14  H   LIG d   1       9.874  -3.545  -5.710  0.00  0.00     0.061 H 
ATOM     15  C   LIG d   1       9.875  -4.636  -3.341  0.00  0.00     0.163 C 
ATOM     16  O   LIG d   1      10.395  -3.538  -3.344  0.00  0.00    -0.292 OA
ATOM     17  C   LIG d   1      10.170  -5.571  -2.206  0.00  0.00     0.017 C 
ATOM     18  C   LIG d   1      10.016  -7.012  -2.706  0.00  0.00    -0.004 C 
ATOM     19  H   LIG d   1      10.750  -7.215  -3.486  0.00  0.00     0.036 H 
ATOM     20  C   LIG d   1       8.604  -7.159  -3.274  0.00  0.00    -0.007 C 
ATOM     21  H   LIG d   1       6.182  -3.146  -7.908  0.00  0.00     0.064 H 
ATOM     22  H   LIG d   1       3.826  -3.854  -7.752  0.00  0.00     0.062 H 
ATOM     23  H   LIG d   1       3.210  -5.832  -6.430  0.00  0.00     0.062 H 
ATOM     24  H   LIG d   1       4.957  -7.168  -5.312  0.00  0.00     0.064 H 
ATOM     25  H   LIG d   1       7.731  -7.526  -5.745  0.00  0.00     0.152 HD
ATOM     26  H   LIG d   1       9.530  -5.399  -1.458  0.00  0.00     0.035 H 
ATOM     27  H   LIG d   1      11.190  -5.411  -1.857  0.00  0.00     0.035 H 
ATOM     28  H   LIG d   1       7.876  -6.949  -2.492  0.00  0.00     0.033 H 
ATOM     29  H   LIG d   1       8.465  -8.178  -3.635  0.00  0.00     0.033 H 
ENDROOT
BRANCH  13  30
ATOM     30  C   LIG d   1       8.088  -2.768  -4.875  0.00  0.00    -0.022 A 
ATOM     31  C   LIG d   1       7.102  -3.020  -3.938  0.00  0.00    -0.056 A 
ATOM     32  C   LIG d   1       6.375  -1.979  -3.399  0.00  0.00    -0.047 A 
ATOM     33  H   LIG d   1       6.902  -4.035  -3.627  0.00  0.00     0.062 H 
ATOM     34  C   LIG d   1       6.635  -0.668  -3.802  0.00  0.00     0.059 A 
ATOM     35  H   LIG d   1       5.606  -2.178  -2.667  0.00  0.00     0.063 H 
ATOM     36  C   LIG d   1       7.632  -0.420  -4.749  0.00  0.00    -0.047 A 
ATOM     37  C   LIG d   1       8.355  -1.470  -5.275  0.00  0.00    -0.056 A 
ATOM     38  H   LIG d   1       7.838   0.592  -5.065  0.00  0.00     0.063 H 
ATOM     39  H   LIG d   1       9.129  -1.279  -6.004  0.00  0.00     0.062 H 
BRANCH  34  40
ATOM     40  C   LIG d   1       5.860   0.452  -3.230  0.00  0.00     0.339 C 
ATOM     41  O   LIG d   1       6.354   1.559  -3.163  0.00  0.00    -0.245 OA
BRANCH  40  42
ATOM     42  O   LIG d   1       4.607   0.245  -2.784  0.00  0.00    -0.465 OA
BRANCH  42  43
ATOM     43  C   LIG d   1       3.873   1.407  -2.314  0.00  0.00     0.082 C 
ATOM     44  H   LIG d   1       2.978   1.081  -1.785  0.00  0.00     0.066 H 
ATOM     45  H   LIG d   1       4.503   1.986  -1.639  0.00  0.00     0.066 H 
ATOM     46  H   LIG d   1       3.588   2.025  -3.165  0.00  0.00     0.066 H 
ENDBRANCH  42  43
ENDBRANCH  40  42
ENDBRANCH  34  40
ENDBRANCH  13  30
BRANCH   1  47
ATOM     47  C   LIG d   1       8.256  -4.805  -9.107  0.00  0.00     0.022 C 
ATOM     48  H   LIG d   1       8.389  -5.881  -9.228  0.00  0.00     0.036 H 
ATOM     49  H   LIG d   1       7.192  -4.574  -9.062  0.00  0.00     0.036 H 
BRANCH  47  50
ATOM     50  C   LIG d   1       8.887  -4.077 -10.297  0.00  0.00    -0.057 C 
ATOM     51  H   LIG d   1       9.864  -4.508 -10.509  0.00  0.00     0.023 H 
ATOM     52  H   LIG d   1       8.244  -4.187 -11.171  0.00  0.00     0.023 H 
ATOM     53  H   LIG d   1       8.999  -3.021 -10.058  0.00  0.00     0.023 H 
ENDBRANCH  47  50
ENDBRANCH   1  47
BRANCH  18  54
ATOM     54  C   LIG d   1      10.208  -7.973  -1.561  0.00  0.00    -0.043 A 
ATOM     55  C   LIG d   1       9.521  -9.172  -1.544  0.00  0.00    -0.055 A 
ATOM     56  C   LIG d   1       9.695 -10.055  -0.495  0.00  0.00    -0.020 A 
ATOM     57  H   LIG d   1       8.845  -9.419  -2.350  0.00  0.00     0.062 H 
ATOM     58  C   LIG d   1      10.562  -9.737   0.541  0.00  0.00     0.120 A 
ATOM     59  H   LIG d   1       9.158 -10.992  -0.482  0.00  0.00     0.065 H 
ATOM     60  C   LIG d   1      11.251  -8.533   0.520  0.00  0.00    -0.020 A 
ATOM     61  C   LIG d   1      11.077  -7.657  -0.533  0.00  0.00    -0.055 A 
ATOM     62  H   LIG d   1      11.927  -8.283   1.326  0.00  0.00     0.065 H 
ATOM     63  H   LIG d   1      11.616  -6.721  -0.551  0.00  0.00     0.062 H 
BRANCH  58  64
ATOM     64  O   LIG d   1      10.736 -10.604   1.573  0.00  0.00    -0.495 OA
BRANCH  64  65
ATOM     65  C   LIG d   1      11.114 -10.044   2.832  0.00  0.00     0.079 C 
ATOM     66  H   LIG d   1      10.935  -8.969   2.821  0.00  0.00     0.066 H 
ATOM     67  H   LIG d   1      10.523 -10.502   3.626  0.00  0.00     0.066 H 
ATOM     68  H   LIG d   1      12.172 -10.235   3.011  0.00  0.00     0.066 H 
ENDBRANCH  64  65
ENDBRANCH  58  64
ENDBRANCH  18  54
TORSDOF 9
ENDMDL
MODEL 9
REMARK VINA RESULT:      -5.6      3.218      9.393
REMARK  9 active torsions:
REMARK  status: ('A' for Active; 'I' for Inactive)
REMARK    1  A    between atoms: C_1  and  C_2 
REMARK    2  A    between atoms: C_2  and  C_3 
REMARK       I    between atoms: C_3  and  N_5 
REMARK    3  A    between atoms: C_15  and  C_17 
REMARK    4  A    between atoms: C_20  and  C_23 
REMARK    5  A    between atoms: C_23  and  O_25 
REMARK    6  A    between atoms: O_25  and  C_26 
REMARK    7  A    between atoms: C_30  and  C_33 
REMARK    8  A    between atoms: C_36  and  O_39 
REMARK    9  A    between atoms: O_39  and  C_40 
ROOT
ATOM      1  C   LIG d   1      13.408   2.437  -4.236  0.00  0.00     0.220 C 
ATOM      2  O   LIG d   1      13.207   1.510  -3.481  0.00  0.00    -0.275 OA
ATOM      3  N   LIG d   1      12.399   3.266  -4.569  0.00  0.00    -0.258 N 
ATOM      4  C   LIG d   1      12.643   4.328  -5.441  0.00  0.00     0.058 A 
ATOM      5  C   LIG d   1      13.460   5.387  -5.077  0.00  0.00    -0.038 A 
ATOM      6  C   LIG d   1      13.619   6.453  -5.945  0.00  0.00    -0.060 A 
ATOM      7  C   LIG d   1      12.965   6.467  -7.164  0.00  0.00    -0.060 A 
ATOM      8  C   LIG d   1      12.170   5.399  -7.542  0.00  0.00    -0.039 A 
ATOM      9  C   LIG d   1      12.017   4.328  -6.679  0.00  0.00     0.053 A 
ATOM     10  N   LIG d   1      11.284   3.198  -7.018  0.00  0.00    -0.316 N 
ATOM     11  C   LIG d   1      10.164   2.780  -6.377  0.00  0.00     0.017 C 
ATOM     12  C   LIG d   1      10.028   2.683  -5.044  0.00  0.00     0.037 C 
ATOM     13  C   LIG d   1      11.079   3.040  -4.019  0.00  0.00     0.086 C 
ATOM     14  H   LIG d   1      11.142   2.229  -3.293  0.00  0.00     0.061 H 
ATOM     15  C   LIG d   1       8.820   2.209  -4.481  0.00  0.00     0.163 C 
ATOM     16  O   LIG d   1       8.721   2.150  -3.272  0.00  0.00    -0.292 OA
ATOM     17  C   LIG d   1       7.658   1.775  -5.323  0.00  0.00     0.017 C 
ATOM     18  C   LIG d   1       8.188   1.287  -6.676  0.00  0.00    -0.004 C 
ATOM     19  H   LIG d   1       8.822   0.412  -6.533  0.00  0.00     0.036 H 
ATOM     20  C   LIG d   1       9.004   2.423  -7.292  0.00  0.00    -0.007 C 
ATOM     21  H   LIG d   1      13.972   5.378  -4.126  0.00  0.00     0.064 H 
ATOM     22  H   LIG d   1      14.254   7.281  -5.667  0.00  0.00     0.062 H 
ATOM     23  H   LIG d   1      13.080   7.313  -7.826  0.00  0.00     0.062 H 
ATOM     24  H   LIG d   1      11.672   5.402  -8.499  0.00  0.00     0.064 H 
ATOM     25  H   LIG d   1      11.595   2.669  -7.770  0.00  0.00     0.152 HD
ATOM     26  H   LIG d   1       7.037   2.547  -5.457  0.00  0.00     0.035 H 
ATOM     27  H   LIG d   1       7.128   0.964  -4.823  0.00  0.00     0.035 H 
ATOM     28  H   LIG d   1       8.366   3.295  -7.427  0.00  0.00     0.033 H 
ATOM     29  H   LIG d   1       9.392   2.104  -8.260  0.00  0.00     0.033 H 
ENDROOT
BRANCH  13  30
ATOM     30  C   LIG d   1      10.641   4.288  -3.299  0.00  0.00    -0.022 A 
ATOM     31  C   LIG d   1      11.018   4.493  -1.983  0.00  0.00    -0.056 A 
ATOM     32  C   LIG d   1      10.620   5.634  -1.318  0.00  0.00    -0.047 A 
ATOM     33  H   LIG d   1      11.625   3.758  -1.476  0.00  0.00     0.062 H 
ATOM     34  C   LIG d   1       9.835   6.583  -1.975  0.00  0.00     0.059 A 
ATOM     35  H   LIG d   1      10.915   5.792  -0.291  0.00  0.00     0.063 H 
ATOM     36  C   LIG d   1       9.459   6.371  -3.303  0.00  0.00    -0.047 A 
ATOM     37  C   LIG d   1       9.868   5.228  -3.957  0.00  0.00    -0.056 A 
ATOM     38  H   LIG d   1       8.852   7.101  -3.817  0.00  0.00     0.063 H 
ATOM     39  H   LIG d   1       9.581   5.064  -4.986  0.00  0.00     0.062 H 
BRANCH  34  40
ATOM     40  C   LIG d   1       9.405   7.808  -1.269  0.00  0.00     0.339 C 
ATOM     41  O   LIG d   1       8.273   7.893  -0.838  0.00  0.00    -0.245 OA
BRANCH  40  42
ATOM     42  O   LIG d   1      10.268   8.828  -1.104  0.00  0.00    -0.465 OA
BRANCH  42  43
ATOM     43  C   LIG d   1      10.798   9.034   0.232  0.00  0.00     0.082 C 
ATOM     44  H   LIG d   1      10.454   9.995   0.615  0.00  0.00     0.066 H 
ATOM     45  H   LIG d   1      10.450   8.237   0.888  0.00  0.00     0.066 H 
ATOM     46  H   LIG d   1      11.887   9.027   0.197  0.00  0.00     0.066 H 
ENDBRANCH  42  43
ENDBRANCH  40  42
ENDBRANCH  34  40
ENDBRANCH  13  30
BRANCH   1  47
ATOM     47  C   LIG d   1      14.786   2.662  -4.803  0.00  0.00     0.022 C 
ATOM     48  H   LIG d   1      15.061   1.819  -5.438  0.00  0.00     0.036 H 
ATOM     49  H   LIG d   1      14.791   3.578  -5.393  0.00  0.00     0.036 H 
BRANCH  47  50
ATOM     50  C   LIG d   1      15.794   2.788  -3.658  0.00  0.00    -0.057 C 
ATOM     51  H   LIG d   1      16.228   3.787  -3.664  0.00  0.00     0.023 H 
ATOM     52  H   LIG d   1      15.286   2.618  -2.708  0.00  0.00     0.023 H 
ATOM     53  H   LIG d   1      16.583   2.048  -3.787  0.00  0.00     0.023 H 
ENDBRANCH  47  50
ENDBRANCH   1  47
BRANCH  18  54
ATOM     54  C   LIG d   1       7.034   0.938  -7.581  0.00  0.00    -0.043 A 
ATOM     55  C   LIG d   1       6.311  -0.220  -7.363  0.00  0.00    -0.055 A 
ATOM     56  C   LIG d   1       5.253  -0.542  -8.191  0.00  0.00    -0.020 A 
ATOM     57  H   LIG d   1       6.575  -0.875  -6.545  0.00  0.00     0.062 H 
ATOM     58  C   LIG d   1       4.915   0.298  -9.242  0.00  0.00     0.120 A 
ATOM     59  H   LIG d   1       4.689  -1.447  -8.020  0.00  0.00     0.065 H 
ATOM     60  C   LIG d   1       5.643   1.460  -9.458  0.00  0.00    -0.020 A 
ATOM     61  C   LIG d   1       6.696   1.780  -8.625  0.00  0.00    -0.055 A 
ATOM     62  H   LIG d   1       5.381   2.116 -10.277  0.00  0.00     0.065 H 
ATOM     63  H   LIG d   1       7.259   2.686  -8.790  0.00  0.00     0.062 H 
BRANCH  58  64
ATOM     64  O   LIG d   1       3.875  -0.016 -10.058  0.00  0.00    -0.495 OA
BRANCH  64  65
ATOM     65  C   LIG d   1       3.907   0.517 -11.383  0.00  0.00     0.079 C 
ATOM     66  H   LIG d   1       4.292   1.536 -11.356  0.00  0.00     0.066 H 
ATOM     67  H   LIG d   1       4.555  -0.099 -12.007  0.00  0.00     0.066 H 
ATOM     68  H   LIG d   1       2.899   0.520 -11.797  0.00  0.00     0.066 H 
ENDBRANCH  64  65
ENDBRANCH  58  64
ENDBRANCH  18  54
TORSDOF 9
ENDMDL
MODEL 10
REMARK VINA RESULT:      -5.5      3.766      8.272
REMARK  9 active torsions:
REMARK  status: ('A' for Active; 'I' for Inactive)
REMARK    1  A    between atoms: C_1  and  C_2 
REMARK    2  A    between atoms: C_2  and  C_3 
REMARK       I    between atoms: C_3  and  N_5 
REMARK    3  A    between atoms: C_15  and  C_17 
REMARK    4  A    between atoms: C_20  and  C_23 
REMARK    5  A    between atoms: C_23  and  O_25 
REMARK    6  A    between atoms: O_25  and  C_26 
REMARK    7  A    between atoms: C_30  and  C_33 
REMARK    8  A    between atoms: C_36  and  O_39 
REMARK    9  A    between atoms: O_39  and  C_40 
ROOT
ATOM      1  C   LIG d   1       4.750  -5.625  -6.079  0.00  0.00     0.220 C 
ATOM      2  O   LIG d   1       3.541  -5.646  -6.173  0.00  0.00    -0.275 OA
ATOM      3  N   LIG d   1       5.427  -4.490  -6.344  0.00  0.00    -0.258 N 
ATOM      4  C   LIG d   1       6.818  -4.479  -6.234  0.00  0.00     0.058 A 
ATOM      5  C   LIG d   1       7.447  -4.628  -5.007  0.00  0.00    -0.038 A 
ATOM      6  C   LIG d   1       8.826  -4.542  -4.934  0.00  0.00    -0.060 A 
ATOM      7  C   LIG d   1       9.574  -4.304  -6.073  0.00  0.00    -0.060 A 
ATOM      8  C   LIG d   1       8.952  -4.182  -7.304  0.00  0.00    -0.039 A 
ATOM      9  C   LIG d   1       7.573  -4.277  -7.380  0.00  0.00     0.053 A 
ATOM     10  N   LIG d   1       6.889  -4.225  -8.589  0.00  0.00    -0.316 N 
ATOM     11  C   LIG d   1       5.992  -3.266  -8.929  0.00  0.00     0.017 C 
ATOM     12  C   LIG d   1       4.993  -2.829  -8.144  0.00  0.00     0.037 C 
ATOM     13  C   LIG d   1       4.700  -3.302  -6.739  0.00  0.00     0.086 C 
ATOM     14  H   LIG d   1       3.633  -3.508  -6.659  0.00  0.00     0.061 H 
ATOM     15  C   LIG d   1       4.096  -1.840  -8.612  0.00  0.00     0.163 C 
ATOM     16  O   LIG d   1       3.215  -1.452  -7.871  0.00  0.00    -0.292 OA
ATOM     17  C   LIG d   1       4.193  -1.255  -9.989  0.00  0.00     0.017 C 
ATOM     18  C   LIG d   1       4.842  -2.289 -10.916  0.00  0.00    -0.004 C 
ATOM     19  H   LIG d   1       4.208  -3.173 -10.988  0.00  0.00     0.036 H 
ATOM     20  C   LIG d   1       6.193  -2.670 -10.313  0.00  0.00    -0.007 C 
ATOM     21  H   LIG d   1       6.865  -4.815  -4.117  0.00  0.00     0.064 H 
ATOM     22  H   LIG d   1       9.320  -4.656  -3.981  0.00  0.00     0.062 H 
ATOM     23  H   LIG d   1      10.648  -4.219  -6.003  0.00  0.00     0.062 H 
ATOM     24  H   LIG d   1       9.535  -4.012  -8.196  0.00  0.00     0.064 H 
ATOM     25  H   LIG d   1       7.067  -4.925  -9.236  0.00  0.00     0.152 HD
ATOM     26  H   LIG d   1       4.749  -0.425  -9.960  0.00  0.00     0.035 H 
ATOM     27  H   LIG d   1       3.194  -1.012 -10.353  0.00  0.00     0.035 H 
ATOM     28  H   LIG d   1       6.820  -1.782 -10.238  0.00  0.00     0.033 H 
ATOM     29  H   LIG d   1       6.681  -3.405 -10.955  0.00  0.00     0.033 H 
ENDROOT
BRANCH  13  30
ATOM     30  C   LIG d   1       5.041  -2.192  -5.780  0.00  0.00    -0.022 A 
ATOM     31  C   LIG d   1       5.906  -1.184  -6.170  0.00  0.00    -0.056 A 
ATOM     32  C   LIG d   1       6.222  -0.165  -5.297  0.00  0.00    -0.047 A 
ATOM     33  H   LIG d   1       6.333  -1.197  -7.162  0.00  0.00     0.062 H 
ATOM     34  C   LIG d   1       5.668  -0.150  -4.015  0.00  0.00     0.059 A 
ATOM     35  H   LIG d   1       6.897   0.621  -5.604  0.00  0.00     0.063 H 
ATOM     36  C   LIG d   1       4.797  -1.170  -3.627  0.00  0.00    -0.047 A 
ATOM     37  C   LIG d   1       4.484  -2.180  -4.513  0.00  0.00    -0.056 A 
ATOM     38  H   LIG d   1       4.364  -1.165  -2.638  0.00  0.00     0.063 H 
ATOM     39  H   LIG d   1       3.806  -2.967  -4.215  0.00  0.00     0.062 H 
BRANCH  34  40
ATOM     40  C   LIG d   1       6.003   0.938  -3.074  0.00  0.00     0.339 C 
ATOM     41  O   LIG d   1       7.006   1.601  -3.245  0.00  0.00    -0.245 OA
BRANCH  40  42
ATOM     42  O   LIG d   1       5.195   1.196  -2.029  0.00  0.00    -0.465 OA
BRANCH  42  43
ATOM     43  C   LIG d   1       3.819   1.551  -2.329  0.00  0.00     0.082 C 
ATOM     44  H   LIG d   1       3.446   0.912  -3.129  0.00  0.00     0.066 H 
ATOM     45  H   LIG d   1       3.206   1.414  -1.439  0.00  0.00     0.066 H 
ATOM     46  H   LIG d   1       3.774   2.593  -2.645  0.00  0.00     0.066 H 
ENDBRANCH  42  43
ENDBRANCH  40  42
ENDBRANCH  34  40
ENDBRANCH  13  30
BRANCH   1  47
ATOM     47  C   LIG d   1       5.496  -6.868  -5.667  0.00  0.00     0.022 C 
ATOM     48  H   LIG d   1       6.513  -6.828  -6.057  0.00  0.00     0.036 H 
ATOM     49  H   LIG d   1       5.525  -6.930  -4.581  0.00  0.00     0.036 H 
BRANCH  47  50
ATOM     50  C   LIG d   1       4.783  -8.100  -6.230  0.00  0.00    -0.057 C 
ATOM     51  H   LIG d   1       3.803  -8.198  -5.764  0.00  0.00     0.023 H 
ATOM     52  H   LIG d   1       4.663  -7.987  -7.308  0.00  0.00     0.023 H 
ATOM     53  H   LIG d   1       5.376  -8.989  -6.021  0.00  0.00     0.023 H 
ENDBRANCH  47  50
ENDBRANCH   1  47
BRANCH  18  54
ATOM     54  C   LIG d   1       5.043  -1.692 -12.285  0.00  0.00    -0.043 A 
ATOM     55  C   LIG d   1       3.962  -1.191 -12.986  0.00  0.00    -0.055 A 
ATOM     56  C   LIG d   1       4.145  -0.643 -14.241  0.00  0.00    -0.020 A 
ATOM     57  H   LIG d   1       2.974  -1.229 -12.552  0.00  0.00     0.062 H 
ATOM     58  C   LIG d   1       5.414  -0.596 -14.798  0.00  0.00     0.120 A 
ATOM     59  H   LIG d   1       3.300  -0.251 -14.788  0.00  0.00     0.065 H 
ATOM     60  C   LIG d   1       6.498  -1.099 -14.093  0.00  0.00    -0.020 A 
ATOM     61  C   LIG d   1       6.311  -1.641 -12.836  0.00  0.00    -0.055 A 
ATOM     62  H   LIG d   1       7.488  -1.064 -14.525  0.00  0.00     0.065 H 
ATOM     63  H   LIG d   1       7.155  -2.030 -12.285  0.00  0.00     0.062 H 
BRANCH  58  64
ATOM     64  O   LIG d   1       5.596  -0.057 -16.033  0.00  0.00    -0.495 OA
BRANCH  64  65
ATOM     65  C   LIG d   1       4.496   0.659 -16.596  0.00  0.00     0.079 C 
ATOM     66  H   LIG d   1       4.652   1.730 -16.459  0.00  0.00     0.066 H 
ATOM     67  H   LIG d   1       4.424   0.436 -17.661  0.00  0.00     0.066 H 
ATOM     68  H   LIG d   1       3.575   0.359 -16.099  0.00  0.00     0.066 H 
ENDBRANCH  64  65
ENDBRANCH  58  64
ENDBRANCH  18  54
TORSDOF 9
ENDMDL
