MODEL 1
REMARK VINA RESULT:      -5.5      0.000      0.000
REMARK  3 active torsions:
REMARK  status: ('A' for Active; 'I' for Inactive)
REMARK    1  A    between atoms: C_1  and  C_2 
REMARK    2  A    between atoms: C_2  and  C_4 
REMARK    3  A    between atoms: C_2  and  O_10 
ROOT
ATOM      1  C   LIG d   1       3.129   0.107  -3.729  0.00  0.00    -0.019 A 
ATOM      2  C   LIG d   1       3.156  -1.258  -3.509  0.00  0.00    -0.056 A 
ATOM      3  C   LIG d   1       3.855  -1.771  -2.432  0.00  0.00    -0.061 A 
ATOM      4  C   LIG d   1       4.527  -0.920  -1.575  0.00  0.00    -0.062 A 
ATOM      5  C   LIG d   1       4.499   0.445  -1.795  0.00  0.00    -0.061 A 
ATOM      6  C   LIG d   1       3.801   0.958  -2.872  0.00  0.00    -0.056 A 
ATOM      7  H   LIG d   1       2.636  -1.923  -4.181  0.00  0.00     0.062 H 
ATOM      8  H   LIG d   1       3.877  -2.837  -2.261  0.00  0.00     0.062 H 
ATOM      9  H   LIG d   1       5.073  -1.321  -0.734  0.00  0.00     0.062 H 
ATOM     10  H   LIG d   1       5.024   1.111  -1.124  0.00  0.00     0.062 H 
ATOM     11  H   LIG d   1       3.779   2.024  -3.042  0.00  0.00     0.062 H 
ENDROOT
BRANCH   1  12
ATOM     12  C   LIG d   1       2.368   0.666  -4.902  0.00  0.00     0.077 C 
ATOM     13  H   LIG d   1       1.319   0.376  -4.827  0.00  0.00     0.064 H 
BRANCH  12  14
ATOM     14  C   LIG d   1       2.957   0.116  -6.202  0.00  0.00    -0.035 C 
ATOM     15  H   LIG d   1       2.185  -0.422  -6.753  0.00  0.00     0.026 H 
ATOM     16  H   LIG d   1       3.330   0.940  -6.810  0.00  0.00     0.026 H 
ATOM     17  H   LIG d   1       3.777  -0.564  -5.969  0.00  0.00     0.026 H 
ENDBRANCH  12  14
BRANCH  12  18
ATOM     18  O   LIG d   1       2.468   2.092  -4.900  0.00  0.00    -0.388 OA
ATOM     19  H   LIG d   1       2.562   2.481  -5.780  0.00  0.00     0.210 HD
ENDBRANCH  12  18
ENDBRANCH   1  12
TORSDOF 3
ENDMDL
MODEL 2
REMARK VINA RESULT:      -4.9      2.177      3.184
REMARK  3 active torsions:
REMARK  status: ('A' for Active; 'I' for Inactive)
REMARK    1  A    between atoms: C_1  and  C_2 
REMARK    2  A    between atoms: C_2  and  C_4 
REMARK    3  A    between atoms: C_2  and  O_10 
ROOT
ATOM      1  C   LIG d   1       4.294  -1.255  -3.316  0.00  0.00    -0.019 A 
ATOM      2  C   LIG d   1       3.476  -0.445  -4.082  0.00  0.00    -0.056 A 
ATOM      3  C   LIG d   1       3.155   0.826  -3.643  0.00  0.00    -0.061 A 
ATOM      4  C   LIG d   1       3.651   1.288  -2.439  0.00  0.00    -0.062 A 
ATOM      5  C   LIG d   1       4.470   0.478  -1.673  0.00  0.00    -0.061 A 
ATOM      6  C   LIG d   1       4.790  -0.793  -2.111  0.00  0.00    -0.056 A 
ATOM      7  H   LIG d   1       3.085  -0.807  -5.020  0.00  0.00     0.062 H 
ATOM      8  H   LIG d   1       2.516   1.458  -4.242  0.00  0.00     0.062 H 
ATOM      9  H   LIG d   1       3.401   2.281  -2.096  0.00  0.00     0.062 H 
ATOM     10  H   LIG d   1       4.858   0.839  -0.731  0.00  0.00     0.062 H 
ATOM     11  H   LIG d   1       5.430  -1.425  -1.513  0.00  0.00     0.062 H 
ENDROOT
BRANCH   1  12
ATOM     12  C   LIG d   1       4.644  -2.640  -3.793  0.00  0.00     0.077 C 
ATOM     13  H   LIG d   1       4.429  -3.362  -3.003  0.00  0.00     0.064 H 
BRANCH  12  14
ATOM     14  C   LIG d   1       6.132  -2.698  -4.144  0.00  0.00    -0.035 C 
ATOM     15  H   LIG d   1       6.690  -2.045  -3.473  0.00  0.00     0.026 H 
ATOM     16  H   LIG d   1       6.492  -3.721  -4.036  0.00  0.00     0.026 H 
ATOM     17  H   LIG d   1       6.275  -2.370  -5.173  0.00  0.00     0.026 H 
ENDBRANCH  12  14
BRANCH  12  18
ATOM     18  O   LIG d   1       3.869  -2.956  -4.951  0.00  0.00    -0.388 OA
ATOM     19  H   LIG d   1       4.371  -3.388  -5.655  0.00  0.00     0.210 HD
ENDBRANCH  12  18
ENDBRANCH   1  12
TORSDOF 3
ENDMDL
MODEL 3
REMARK VINA RESULT:      -4.7      3.334      3.906
REMARK  3 active torsions:
REMARK  status: ('A' for Active; 'I' for Inactive)
REMARK    1  A    between atoms: C_1  and  C_2 
REMARK    2  A    between atoms: C_2  and  C_4 
REMARK    3  A    between atoms: C_2  and  O_10 
ROOT
ATOM      1  C   LIG d   1       6.110  -1.023  -3.247  0.00  0.00    -0.019 A 
ATOM      2  C   LIG d   1       5.057  -1.529  -2.507  0.00  0.00    -0.056 A 
ATOM      3  C   LIG d   1       4.200  -0.669  -1.846  0.00  0.00    -0.061 A 
ATOM      4  C   LIG d   1       4.396   0.697  -1.924  0.00  0.00    -0.062 A 
ATOM      5  C   LIG d   1       5.449   1.203  -2.665  0.00  0.00    -0.061 A 
ATOM      6  C   LIG d   1       6.306   0.342  -3.325  0.00  0.00    -0.056 A 
ATOM      7  H   LIG d   1       4.907  -2.596  -2.442  0.00  0.00     0.062 H 
ATOM      8  H   LIG d   1       3.378  -1.064  -1.268  0.00  0.00     0.062 H 
ATOM      9  H   LIG d   1       3.727   1.369  -1.408  0.00  0.00     0.062 H 
ATOM     10  H   LIG d   1       5.602   2.271  -2.726  0.00  0.00     0.062 H 
ATOM     11  H   LIG d   1       7.128   0.738  -3.903  0.00  0.00     0.062 H 
ENDROOT
BRANCH   1  12
ATOM     12  C   LIG d   1       7.044  -1.960  -3.967  0.00  0.00     0.077 C 
ATOM     13  H   LIG d   1       7.539  -1.427  -4.780  0.00  0.00     0.064 H 
BRANCH  12  14
ATOM     14  C   LIG d   1       6.247  -3.134  -4.540  0.00  0.00    -0.035 C 
ATOM     15  H   LIG d   1       5.867  -3.749  -3.723  0.00  0.00     0.026 H 
ATOM     16  H   LIG d   1       5.411  -2.754  -5.127  0.00  0.00     0.026 H 
ATOM     17  H   LIG d   1       6.895  -3.736  -5.178  0.00  0.00     0.026 H 
ENDBRANCH  12  14
BRANCH  12  18
ATOM     18  O   LIG d   1       8.026  -2.452  -3.052  0.00  0.00    -0.388 OA
ATOM     19  H   LIG d   1       7.658  -2.797  -2.228  0.00  0.00     0.210 HD
ENDBRANCH  12  18
ENDBRANCH   1  12
TORSDOF 3
ENDMDL
MODEL 4
REMARK VINA RESULT:      -4.6      2.807      3.733
REMARK  3 active torsions:
REMARK  status: ('A' for Active; 'I' for Inactive)
REMARK    1  A    between atoms: C_1  and  C_2 
REMARK    2  A    between atoms: C_2  and  C_4 
REMARK    3  A    between atoms: C_2  and  O_10 
ROOT
ATOM      1  C   LIG d   1       6.292   0.202  -3.456  0.00  0.00    -0.019 A 
ATOM      2  C   LIG d   1       5.567   1.144  -2.749  0.00  0.00    -0.056 A 
ATOM      3  C   LIG d   1       4.547   0.742  -1.908  0.00  0.00    -0.061 A 
ATOM      4  C   LIG d   1       4.250  -0.601  -1.772  0.00  0.00    -0.062 A 
ATOM      5  C   LIG d   1       4.975  -1.543  -2.479  0.00  0.00    -0.061 A 
ATOM      6  C   LIG d   1       5.995  -1.141  -3.321  0.00  0.00    -0.056 A 
ATOM      7  H   LIG d   1       5.795   2.194  -2.859  0.00  0.00     0.062 H 
ATOM      8  H   LIG d   1       3.980   1.478  -1.356  0.00  0.00     0.062 H 
ATOM      9  H   LIG d   1       3.453  -0.915  -1.115  0.00  0.00     0.062 H 
ATOM     10  H   LIG d   1       4.744  -2.593  -2.372  0.00  0.00     0.062 H 
ATOM     11  H   LIG d   1       6.561  -1.877  -3.871  0.00  0.00     0.062 H 
ENDROOT
BRANCH   1  12
ATOM     12  C   LIG d   1       7.403   0.639  -4.374  0.00  0.00     0.077 C 
ATOM     13  H   LIG d   1       8.158  -0.146  -4.430  0.00  0.00     0.064 H 
BRANCH  12  14
ATOM     14  C   LIG d   1       8.040   1.919  -3.830  0.00  0.00    -0.035 C 
ATOM     15  H   LIG d   1       7.356   2.756  -3.976  0.00  0.00     0.026 H 
ATOM     16  H   LIG d   1       8.244   1.800  -2.765  0.00  0.00     0.026 H 
ATOM     17  H   LIG d   1       8.972   2.114  -4.359  0.00  0.00     0.026 H 
ENDBRANCH  12  14
BRANCH  12  18
ATOM     18  O   LIG d   1       6.875   0.887  -5.678  0.00  0.00    -0.388 OA
ATOM     19  H   LIG d   1       5.910   0.921  -5.712  0.00  0.00     0.210 HD
ENDBRANCH  12  18
ENDBRANCH   1  12
TORSDOF 3
ENDMDL
MODEL 5
REMARK VINA RESULT:      -4.5      1.682      2.383
REMARK  3 active torsions:
REMARK  status: ('A' for Active; 'I' for Inactive)
REMARK    1  A    between atoms: C_1  and  C_2 
REMARK    2  A    between atoms: C_2  and  C_4 
REMARK    3  A    between atoms: C_2  and  O_10 
ROOT
ATOM      1  C   LIG d   1       4.130  -0.638  -4.359  0.00  0.00    -0.019 A 
ATOM      2  C   LIG d   1       4.414   0.450  -3.554  0.00  0.00    -0.056 A 
ATOM      3  C   LIG d   1       4.538   0.285  -2.187  0.00  0.00    -0.061 A 
ATOM      4  C   LIG d   1       4.378  -0.967  -1.624  0.00  0.00    -0.062 A 
ATOM      5  C   LIG d   1       4.094  -2.055  -2.430  0.00  0.00    -0.061 A 
ATOM      6  C   LIG d   1       3.969  -1.890  -3.796  0.00  0.00    -0.056 A 
ATOM      7  H   LIG d   1       4.534   1.429  -3.992  0.00  0.00     0.062 H 
ATOM      8  H   LIG d   1       4.760   1.135  -1.558  0.00  0.00     0.062 H 
ATOM      9  H   LIG d   1       4.475  -1.097  -0.556  0.00  0.00     0.062 H 
ATOM     10  H   LIG d   1       3.969  -3.035  -1.990  0.00  0.00     0.062 H 
ATOM     11  H   LIG d   1       3.748  -2.740  -4.424  0.00  0.00     0.062 H 
ENDROOT
BRANCH   1  12
ATOM     12  C   LIG d   1       3.994  -0.458  -5.848  0.00  0.00     0.077 C 
ATOM     13  H   LIG d   1       4.872   0.063  -6.233  0.00  0.00     0.064 H 
BRANCH  12  14
ATOM     14  C   LIG d   1       2.740   0.364  -6.150  0.00  0.00    -0.035 C 
ATOM     15  H   LIG d   1       1.993  -0.272  -6.626  0.00  0.00     0.026 H 
ATOM     16  H   LIG d   1       2.335   0.766  -5.221  0.00  0.00     0.026 H 
ATOM     17  H   LIG d   1       2.997   1.186  -6.819  0.00  0.00     0.026 H 
ENDBRANCH  12  14
BRANCH  12  18
ATOM     18  O   LIG d   1       3.887  -1.738  -6.475  0.00  0.00    -0.388 OA
ATOM     19  H   LIG d   1       3.369  -1.734  -7.291  0.00  0.00     0.210 HD
ENDBRANCH  12  18
ENDBRANCH   1  12
TORSDOF 3
ENDMDL
MODEL 6
REMARK VINA RESULT:      -4.0      2.836      3.627
REMARK  3 active torsions:
REMARK  status: ('A' for Active; 'I' for Inactive)
REMARK    1  A    between atoms: C_1  and  C_2 
REMARK    2  A    between atoms: C_2  and  C_4 
REMARK    3  A    between atoms: C_2  and  O_10 
ROOT
ATOM      1  C   LIG d   1       4.966  -1.895  -3.073  0.00  0.00    -0.019 A 
ATOM      2  C   LIG d   1       4.562  -2.890  -3.943  0.00  0.00    -0.056 A 
ATOM      3  C   LIG d   1       5.491  -3.527  -4.744  0.00  0.00    -0.061 A 
ATOM      4  C   LIG d   1       6.824  -3.169  -4.676  0.00  0.00    -0.062 A 
ATOM      5  C   LIG d   1       7.228  -2.174  -3.805  0.00  0.00    -0.061 A 
ATOM      6  C   LIG d   1       6.299  -1.537  -3.004  0.00  0.00    -0.056 A 
ATOM      7  H   LIG d   1       3.520  -3.167  -4.001  0.00  0.00     0.062 H 
ATOM      8  H   LIG d   1       5.175  -4.304  -5.425  0.00  0.00     0.062 H 
ATOM      9  H   LIG d   1       7.550  -3.666  -5.302  0.00  0.00     0.062 H 
ATOM     10  H   LIG d   1       8.271  -1.894  -3.751  0.00  0.00     0.062 H 
ATOM     11  H   LIG d   1       6.616  -0.760  -2.324  0.00  0.00     0.062 H 
ENDROOT
BRANCH   1  12
ATOM     12  C   LIG d   1       3.954  -1.200  -2.200  0.00  0.00     0.077 C 
ATOM     13  H   LIG d   1       3.618  -1.883  -1.418  0.00  0.00     0.064 H 
BRANCH  12  14
ATOM     14  C   LIG d   1       2.756  -0.772  -3.049  0.00  0.00    -0.035 C 
ATOM     15  H   LIG d   1       3.031   0.091  -3.656  0.00  0.00     0.026 H 
ATOM     16  H   LIG d   1       2.460  -1.594  -3.701  0.00  0.00     0.026 H 
ATOM     17  H   LIG d   1       1.924  -0.508  -2.397  0.00  0.00     0.026 H 
ENDBRANCH  12  14
BRANCH  12  18
ATOM     18  O   LIG d   1       4.550  -0.048  -1.601  0.00  0.00    -0.388 OA
ATOM     19  H   LIG d   1       3.996   0.743  -1.633  0.00  0.00     0.210 HD
ENDBRANCH  12  18
ENDBRANCH   1  12
TORSDOF 3
ENDMDL
MODEL 7
REMARK VINA RESULT:      -3.8      5.958      7.041
REMARK  3 active torsions:
REMARK  status: ('A' for Active; 'I' for Inactive)
REMARK    1  A    between atoms: C_1  and  C_2 
REMARK    2  A    between atoms: C_2  and  C_4 
REMARK    3  A    between atoms: C_2  and  O_10 
ROOT
ATOM      1  C   LIG d   1       2.431  -0.070  -9.763  0.00  0.00    -0.019 A 
ATOM      2  C   LIG d   1       2.439   0.776  -8.669  0.00  0.00    -0.056 A 
ATOM      3  C   LIG d   1       3.219   1.917  -8.683  0.00  0.00    -0.061 A 
ATOM      4  C   LIG d   1       3.991   2.213  -9.790  0.00  0.00    -0.062 A 
ATOM      5  C   LIG d   1       3.982   1.368 -10.885  0.00  0.00    -0.061 A 
ATOM      6  C   LIG d   1       3.203   0.226 -10.870  0.00  0.00    -0.056 A 
ATOM      7  H   LIG d   1       1.840   0.542  -7.801  0.00  0.00     0.062 H 
ATOM      8  H   LIG d   1       3.225   2.577  -7.828  0.00  0.00     0.062 H 
ATOM      9  H   LIG d   1       4.600   3.105  -9.801  0.00  0.00     0.062 H 
ATOM     10  H   LIG d   1       4.586   1.600 -11.751  0.00  0.00     0.062 H 
ATOM     11  H   LIG d   1       3.197  -0.433 -11.725  0.00  0.00     0.062 H 
ENDROOT
BRANCH   1  12
ATOM     12  C   LIG d   1       1.582  -1.314  -9.748  0.00  0.00     0.077 C 
ATOM     13  H   LIG d   1       0.971  -1.326  -8.844  0.00  0.00     0.064 H 
BRANCH  12  14
ATOM     14  C   LIG d   1       2.485  -2.548  -9.768  0.00  0.00    -0.035 C 
ATOM     15  H   LIG d   1       3.345  -2.381  -9.119  0.00  0.00     0.026 H 
ATOM     16  H   LIG d   1       1.926  -3.414  -9.412  0.00  0.00     0.026 H 
ATOM     17  H   LIG d   1       2.828  -2.731 -10.786  0.00  0.00     0.026 H 
ENDBRANCH  12  14
BRANCH  12  18
ATOM     18  O   LIG d   1       0.733  -1.326 -10.897  0.00  0.00    -0.388 OA
ATOM     19  H   LIG d   1       0.177  -0.540 -10.984  0.00  0.00     0.210 HD
ENDBRANCH  12  18
ENDBRANCH   1  12
TORSDOF 3
ENDMDL
MODEL 8
REMARK VINA RESULT:      -3.7      5.817      7.346
REMARK  3 active torsions:
REMARK  status: ('A' for Active; 'I' for Inactive)
REMARK    1  A    between atoms: C_1  and  C_2 
REMARK    2  A    between atoms: C_2  and  C_4 
REMARK    3  A    between atoms: C_2  and  O_10 
ROOT
ATOM      1  C   LIG d   1       3.268   0.188 -10.552  0.00  0.00    -0.019 A 
ATOM      2  C   LIG d   1       3.807   1.442 -10.777  0.00  0.00    -0.056 A 
ATOM      3  C   LIG d   1       3.754   2.405  -9.786  0.00  0.00    -0.061 A 
ATOM      4  C   LIG d   1       3.163   2.116  -8.571  0.00  0.00    -0.062 A 
ATOM      5  C   LIG d   1       2.624   0.862  -8.346  0.00  0.00    -0.061 A 
ATOM      6  C   LIG d   1       2.676  -0.101  -9.336  0.00  0.00    -0.056 A 
ATOM      7  H   LIG d   1       4.264   1.670 -11.727  0.00  0.00     0.062 H 
ATOM      8  H   LIG d   1       4.176   3.384  -9.962  0.00  0.00     0.062 H 
ATOM      9  H   LIG d   1       3.122   2.868  -7.797  0.00  0.00     0.062 H 
ATOM     10  H   LIG d   1       2.162   0.636  -7.395  0.00  0.00     0.062 H 
ATOM     11  H   LIG d   1       2.256  -1.079  -9.159  0.00  0.00     0.062 H 
ENDROOT
BRANCH   1  12
ATOM     12  C   LIG d   1       3.324  -0.861 -11.630  0.00  0.00     0.077 C 
ATOM     13  H   LIG d   1       3.697  -1.796 -11.209  0.00  0.00     0.064 H 
BRANCH  12  14
ATOM     14  C   LIG d   1       4.261  -0.396 -12.746  0.00  0.00    -0.035 C 
ATOM     15  H   LIG d   1       4.877   0.428 -12.385  0.00  0.00     0.026 H 
ATOM     16  H   LIG d   1       4.903  -1.222 -13.051  0.00  0.00     0.026 H 
ATOM     17  H   LIG d   1       3.671  -0.061 -13.600  0.00  0.00     0.026 H 
ENDBRANCH  12  14
BRANCH  12  18
ATOM     18  O   LIG d   1       2.014  -1.069 -12.163  0.00  0.00    -0.388 OA
ATOM     19  H   LIG d   1       1.330  -0.526 -11.749  0.00  0.00     0.210 HD
ENDBRANCH  12  18
ENDBRANCH   1  12
TORSDOF 3
ENDMDL
MODEL 9
REMARK VINA RESULT:      -3.6      9.805     11.072
REMARK  3 active torsions:
REMARK  status: ('A' for Active; 'I' for Inactive)
REMARK    1  A    between atoms: C_1  and  C_2 
REMARK    2  A    between atoms: C_2  and  C_4 
REMARK    3  A    between atoms: C_2  and  O_10 
ROOT
ATOM      1  C   LIG d   1       9.967   8.500  -0.737  0.00  0.00    -0.019 A 
ATOM      2  C   LIG d   1       9.561   7.501  -1.603  0.00  0.00    -0.056 A 
ATOM      3  C   LIG d   1       9.978   6.199  -1.402  0.00  0.00    -0.061 A 
ATOM      4  C   LIG d   1      10.802   5.894  -0.334  0.00  0.00    -0.062 A 
ATOM      5  C   LIG d   1      11.208   6.893   0.533  0.00  0.00    -0.061 A 
ATOM      6  C   LIG d   1      10.791   8.195   0.330  0.00  0.00    -0.056 A 
ATOM      7  H   LIG d   1       8.922   7.740  -2.440  0.00  0.00     0.062 H 
ATOM      8  H   LIG d   1       9.661   5.419  -2.078  0.00  0.00     0.062 H 
ATOM      9  H   LIG d   1      11.128   4.877  -0.176  0.00  0.00     0.062 H 
ATOM     10  H   LIG d   1      11.851   6.654   1.367  0.00  0.00     0.062 H 
ATOM     11  H   LIG d   1      11.108   8.974   1.008  0.00  0.00     0.062 H 
ENDROOT
BRANCH   1  12
ATOM     12  C   LIG d   1       9.513   9.919  -0.957  0.00  0.00     0.077 C 
ATOM     13  H   LIG d   1      10.001  10.323  -1.846  0.00  0.00     0.064 H 
BRANCH  12  14
ATOM     14  C   LIG d   1       9.887  10.768   0.259  0.00  0.00    -0.035 C 
ATOM     15  H   LIG d   1       9.139  11.549   0.401  0.00  0.00     0.026 H 
ATOM     16  H   LIG d   1       9.923  10.136   1.147  0.00  0.00     0.026 H 
ATOM     17  H   LIG d   1      10.863  11.224   0.098  0.00  0.00     0.026 H 
ENDBRANCH  12  14
BRANCH  12  18
ATOM     18  O   LIG d   1       8.096   9.944  -1.138  0.00  0.00    -0.388 OA
ATOM     19  H   LIG d   1       7.806  10.469  -1.896  0.00  0.00     0.210 HD
ENDBRANCH  12  18
ENDBRANCH   1  12
TORSDOF 3
ENDMDL
