MODEL 1
REMARK VINA RESULT:      -7.1      0.000      0.000
REMARK  11 active torsions:
REMARK  status: ('A' for Active; 'I' for Inactive)
REMARK    1  A    between atoms: C_1  and  C_2 
REMARK    2  A    between atoms: C_2  and  O_3 
REMARK    3  A    between atoms: O_3  and  C_4 
REMARK    4  A    between atoms: C_9  and  O_10 
REMARK    5  A    between atoms: O_10  and  C_11 
REMARK    6  A    between atoms: C_16  and  C_17 
REMARK    7  A    between atoms: C_20  and  O_24 
REMARK    8  A    between atoms: C_22  and  O_23 
REMARK    9  A    between atoms: O_24  and  C_25 
REMARK   10  A    between atoms: C_25  and  C_26 
REMARK   11  A    between atoms: C_31  and  C_32 
ROOT
ATOM      1  C   LIG d   1       4.229  -3.781  -8.176  0.00  0.00     0.047 A 
ATOM      2  C   LIG d   1       5.192  -2.827  -8.497  0.00  0.00    -0.045 A 
ATOM      3  C   LIG d   1       5.981  -2.283  -7.504  0.00  0.00    -0.019 A 
ATOM      4  C   LIG d   1       5.817  -2.684  -6.184  0.00  0.00     0.124 A 
ATOM      5  C   LIG d   1       4.860  -3.633  -5.857  0.00  0.00     0.022 A 
ATOM      6  C   LIG d   1       4.061  -4.180  -6.846  0.00  0.00     0.130 A 
ATOM      7  H   LIG d   1       5.323  -2.515  -9.521  0.00  0.00     0.063 H 
ATOM      8  H   LIG d   1       6.727  -1.543  -7.753  0.00  0.00     0.065 H 
ATOM      9  H   LIG d   1       4.735  -3.942  -4.829  0.00  0.00     0.069 H 
ENDROOT
BRANCH   1  10
ATOM     10  C   LIG d   1       3.380  -4.368  -9.241  0.00  0.00     0.138 A 
ATOM     11  C   LIG d   1       2.291  -3.733  -9.877  0.00  0.00     0.174 A 
ATOM     12  C   LIG d   1       1.785  -4.596 -10.790  0.00  0.00     0.065 A 
ATOM     13  N   LIG d   1       2.519  -5.739 -10.734  0.00  0.00    -0.281 N 
ATOM     14  H   LIG d   1       0.947  -4.410 -11.445  0.00  0.00     0.086 H 
ATOM     15  H   LIG d   1       2.382  -6.531 -11.277  0.00  0.00     0.188 HD
ATOM     16  N   LIG d   1       3.508  -5.573  -9.756  0.00  0.00    -0.170 NA
BRANCH  11  17
ATOM     17  O   LIG d   1       1.836  -2.476  -9.622  0.00  0.00    -0.449 OA
BRANCH  17  18
ATOM     18  C   LIG d   1       2.523  -1.429 -10.152  0.00  0.00     0.170 A 
ATOM     19  C   LIG d   1       2.853  -0.337  -9.354  0.00  0.00     0.163 A 
ATOM     20  C   LIG d   1       3.559   0.725  -9.897  0.00  0.00    -0.016 A 
ATOM     21  C   LIG d   1       3.929   0.701 -11.229  0.00  0.00    -0.058 A 
ATOM     22  H   LIG d   1       3.821   1.571  -9.279  0.00  0.00     0.066 H 
ATOM     23  C   LIG d   1       3.595  -0.381 -12.023  0.00  0.00    -0.058 A 
ATOM     24  H   LIG d   1       4.478   1.529 -11.651  0.00  0.00     0.062 H 
ATOM     25  C   LIG d   1       2.891  -1.444 -11.488  0.00  0.00    -0.016 A 
ATOM     26  H   LIG d   1       3.884  -0.396 -13.063  0.00  0.00     0.062 H 
ATOM     27  H   LIG d   1       2.632  -2.288 -12.110  0.00  0.00     0.066 H 
BRANCH  19  28
ATOM     28  O   LIG d   1       2.490  -0.315  -8.044  0.00  0.00    -0.489 OA
BRANCH  28  29
ATOM     29  C   LIG d   1       3.344   0.398  -7.146  0.00  0.00     0.087 C 
ATOM     30  H   LIG d   1       3.212   1.470  -7.294  0.00  0.00     0.069 H 
ATOM     31  H   LIG d   1       4.382   0.129  -7.341  0.00  0.00     0.069 H 
BRANCH  29  32
ATOM     32  C   LIG d   1       2.985   0.034  -5.704  0.00  0.00    -0.031 C 
ATOM     33  H   LIG d   1       3.014  -1.050  -5.585  0.00  0.00     0.026 H 
ATOM     34  H   LIG d   1       3.703   0.494  -5.024  0.00  0.00     0.026 H 
ATOM     35  H   LIG d   1       1.983   0.397  -5.476  0.00  0.00     0.026 H 
ENDBRANCH  29  32
ENDBRANCH  28  29
ENDBRANCH  19  28
ENDBRANCH  17  18
ENDBRANCH  11  17
ENDBRANCH   1  10
BRANCH   6  36
ATOM     36  O   LIG d   1       3.119  -5.106  -6.526  0.00  0.00    -0.506 OA
ATOM     37  H   LIG d   1       3.100  -5.340  -5.588  0.00  0.00     0.292 HD
ENDBRANCH   6  36
BRANCH   4  38
ATOM     38  O   LIG d   1       6.596  -2.144  -5.211  0.00  0.00    -0.487 OA
BRANCH  38  39
ATOM     39  C   LIG d   1       6.196  -2.370  -3.858  0.00  0.00     0.115 C 
ATOM     40  H   LIG d   1       5.423  -3.139  -3.832  0.00  0.00     0.075 H 
ATOM     41  H   LIG d   1       7.057  -2.700  -3.276  0.00  0.00     0.075 H 
BRANCH  39  42
ATOM     42  C   LIG d   1       5.654  -1.092  -3.273  0.00  0.00    -0.007 A 
ATOM     43  C   LIG d   1       4.487  -1.110  -2.534  0.00  0.00    -0.044 A 
ATOM     44  C   LIG d   1       3.992   0.062  -1.994  0.00  0.00    -0.059 A 
ATOM     45  C   LIG d   1       4.660   1.254  -2.201  0.00  0.00    -0.061 A 
ATOM     46  H   LIG d   1       3.082   0.047  -1.412  0.00  0.00     0.062 H 
ATOM     47  C   LIG d   1       5.825   1.274  -2.944  0.00  0.00    -0.061 A 
ATOM     48  H   LIG d   1       4.272   2.171  -1.780  0.00  0.00     0.062 H 
ATOM     49  C   LIG d   1       6.323   0.101  -3.481  0.00  0.00    -0.055 A 
ATOM     50  H   LIG d   1       6.348   2.206  -3.105  0.00  0.00     0.062 H 
ATOM     51  H   LIG d   1       7.233   0.116  -4.061  0.00  0.00     0.062 H 
BRANCH  43  52
ATOM     52  C   LIG d   1       3.755  -2.409  -2.314  0.00  0.00    -0.039 C 
ATOM     53  H   LIG d   1       3.640  -2.928  -3.266  0.00  0.00     0.028 H 
ATOM     54  H   LIG d   1       4.323  -3.034  -1.625  0.00  0.00     0.028 H 
ATOM     55  H   LIG d   1       2.771  -2.205  -1.892  0.00  0.00     0.028 H 
ENDBRANCH  43  52
ENDBRANCH  39  42
ENDBRANCH  38  39
ENDBRANCH   4  38
TORSDOF 11
ENDMDL
MODEL 2
REMARK VINA RESULT:      -6.8      4.301      6.990
REMARK  11 active torsions:
REMARK  status: ('A' for Active; 'I' for Inactive)
REMARK    1  A    between atoms: C_1  and  C_2 
REMARK    2  A    between atoms: C_2  and  O_3 
REMARK    3  A    between atoms: O_3  and  C_4 
REMARK    4  A    between atoms: C_9  and  O_10 
REMARK    5  A    between atoms: O_10  and  C_11 
REMARK    6  A    between atoms: C_16  and  C_17 
REMARK    7  A    between atoms: C_20  and  O_24 
REMARK    8  A    between atoms: C_22  and  O_23 
REMARK    9  A    between atoms: O_24  and  C_25 
REMARK   10  A    between atoms: C_25  and  C_26 
REMARK   11  A    between atoms: C_31  and  C_32 
ROOT
ATOM      1  C   LIG d   1       5.304  -4.302  -6.337  0.00  0.00     0.047 A 
ATOM      2  C   LIG d   1       6.680  -4.473  -6.209  0.00  0.00    -0.045 A 
ATOM      3  C   LIG d   1       7.189  -5.690  -5.805  0.00  0.00    -0.019 A 
ATOM      4  C   LIG d   1       6.332  -6.747  -5.525  0.00  0.00     0.124 A 
ATOM      5  C   LIG d   1       4.960  -6.584  -5.650  0.00  0.00     0.022 A 
ATOM      6  C   LIG d   1       4.441  -5.365  -6.050  0.00  0.00     0.130 A 
ATOM      7  H   LIG d   1       7.349  -3.654  -6.427  0.00  0.00     0.063 H 
ATOM      8  H   LIG d   1       8.257  -5.822  -5.705  0.00  0.00     0.065 H 
ATOM      9  H   LIG d   1       4.297  -7.409  -5.431  0.00  0.00     0.069 H 
ENDROOT
BRANCH   1  10
ATOM     10  C   LIG d   1       4.754  -2.995  -6.771  0.00  0.00     0.138 A 
ATOM     11  C   LIG d   1       5.082  -1.735  -6.225  0.00  0.00     0.174 A 
ATOM     12  C   LIG d   1       4.374  -0.796  -6.897  0.00  0.00     0.065 A 
ATOM     13  N   LIG d   1       3.621  -1.433  -7.831  0.00  0.00    -0.281 N 
ATOM     14  H   LIG d   1       4.403   0.269  -6.721  0.00  0.00     0.086 H 
ATOM     15  H   LIG d   1       3.014  -1.010  -8.459  0.00  0.00     0.188 HD
ATOM     16  N   LIG d   1       3.872  -2.807  -7.731  0.00  0.00    -0.170 NA
BRANCH  11  17
ATOM     17  O   LIG d   1       5.957  -1.506  -5.208  0.00  0.00    -0.449 OA
BRANCH  17  18
ATOM     18  C   LIG d   1       5.460  -1.040  -4.031  0.00  0.00     0.170 A 
ATOM     19  C   LIG d   1       5.733   0.264  -3.626  0.00  0.00     0.163 A 
ATOM     20  C   LIG d   1       5.219   0.736  -2.429  0.00  0.00    -0.016 A 
ATOM     21  C   LIG d   1       4.442  -0.089  -1.637  0.00  0.00    -0.058 A 
ATOM     22  H   LIG d   1       5.425   1.749  -2.114  0.00  0.00     0.066 H 
ATOM     23  C   LIG d   1       4.176  -1.386  -2.036  0.00  0.00    -0.058 A 
ATOM     24  H   LIG d   1       4.042   0.280  -0.704  0.00  0.00     0.062 H 
ATOM     25  C   LIG d   1       4.685  -1.864  -3.229  0.00  0.00    -0.016 A 
ATOM     26  H   LIG d   1       3.570  -2.027  -1.414  0.00  0.00     0.062 H 
ATOM     27  H   LIG d   1       4.477  -2.876  -3.539  0.00  0.00     0.066 H 
BRANCH  19  28
ATOM     28  O   LIG d   1       6.496   1.074  -4.407  0.00  0.00    -0.489 OA
BRANCH  28  29
ATOM     29  C   LIG d   1       7.858   1.259  -4.013  0.00  0.00     0.087 C 
ATOM     30  H   LIG d   1       8.464   0.440  -4.402  0.00  0.00     0.069 H 
ATOM     31  H   LIG d   1       7.923   1.273  -2.925  0.00  0.00     0.069 H 
BRANCH  29  32
ATOM     32  C   LIG d   1       8.375   2.587  -4.571  0.00  0.00    -0.031 C 
ATOM     33  H   LIG d   1       9.039   2.392  -5.413  0.00  0.00     0.026 H 
ATOM     34  H   LIG d   1       7.532   3.192  -4.906  0.00  0.00     0.026 H 
ATOM     35  H   LIG d   1       8.920   3.120  -3.794  0.00  0.00     0.026 H 
ENDBRANCH  29  32
ENDBRANCH  28  29
ENDBRANCH  19  28
ENDBRANCH  17  18
ENDBRANCH  11  17
ENDBRANCH   1  10
BRANCH   6  36
ATOM     36  O   LIG d   1       3.097  -5.202  -6.168  0.00  0.00    -0.506 OA
ATOM     37  H   LIG d   1       2.833  -4.328  -6.484  0.00  0.00     0.292 HD
ENDBRANCH   6  36
BRANCH   4  38
ATOM     38  O   LIG d   1       6.840  -7.943  -5.128  0.00  0.00    -0.487 OA
BRANCH  38  39
ATOM     39  C   LIG d   1       5.903  -8.945  -4.727  0.00  0.00     0.115 C 
ATOM     40  H   LIG d   1       4.914  -8.497  -4.625  0.00  0.00     0.075 H 
ATOM     41  H   LIG d   1       5.870  -9.732  -5.481  0.00  0.00     0.075 H 
BRANCH  39  42
ATOM     42  C   LIG d   1       6.328  -9.532  -3.406  0.00  0.00    -0.007 A 
ATOM     43  C   LIG d   1       5.483 -10.388  -2.726  0.00  0.00    -0.044 A 
ATOM     44  C   LIG d   1       5.875 -10.930  -1.516  0.00  0.00    -0.059 A 
ATOM     45  C   LIG d   1       7.108 -10.608  -0.982  0.00  0.00    -0.061 A 
ATOM     46  H   LIG d   1       5.217 -11.603  -0.988  0.00  0.00     0.062 H 
ATOM     47  C   LIG d   1       7.952  -9.747  -1.659  0.00  0.00    -0.061 A 
ATOM     48  H   LIG d   1       7.413 -11.029  -0.036  0.00  0.00     0.062 H 
ATOM     49  C   LIG d   1       7.562  -9.208  -2.872  0.00  0.00    -0.055 A 
ATOM     50  H   LIG d   1       8.916  -9.496  -1.242  0.00  0.00     0.062 H 
ATOM     51  H   LIG d   1       8.220  -8.537  -3.401  0.00  0.00     0.062 H 
BRANCH  43  52
ATOM     52  C   LIG d   1       4.136 -10.735  -3.306  0.00  0.00    -0.039 C 
ATOM     53  H   LIG d   1       3.522  -9.835  -3.363  0.00  0.00     0.028 H 
ATOM     54  H   LIG d   1       4.266 -11.151  -4.305  0.00  0.00     0.028 H 
ATOM     55  H   LIG d   1       3.644 -11.469  -2.668  0.00  0.00     0.028 H 
ENDBRANCH  43  52
ENDBRANCH  39  42
ENDBRANCH  38  39
ENDBRANCH   4  38
TORSDOF 11
ENDMDL
MODEL 3
REMARK VINA RESULT:      -6.5      7.673     11.403
REMARK  11 active torsions:
REMARK  status: ('A' for Active; 'I' for Inactive)
REMARK    1  A    between atoms: C_1  and  C_2 
REMARK    2  A    between atoms: C_2  and  O_3 
REMARK    3  A    between atoms: O_3  and  C_4 
REMARK    4  A    between atoms: C_9  and  O_10 
REMARK    5  A    between atoms: O_10  and  C_11 
REMARK    6  A    between atoms: C_16  and  C_17 
REMARK    7  A    between atoms: C_20  and  O_24 
REMARK    8  A    between atoms: C_22  and  O_23 
REMARK    9  A    between atoms: O_24  and  C_25 
REMARK   10  A    between atoms: C_25  and  C_26 
REMARK   11  A    between atoms: C_31  and  C_32 
ROOT
ATOM      1  C   LIG d   1      10.449   4.291  -3.845  0.00  0.00     0.047 A 
ATOM      2  C   LIG d   1       9.686   4.488  -4.993  0.00  0.00    -0.045 A 
ATOM      3  C   LIG d   1       8.697   3.586  -5.327  0.00  0.00    -0.019 A 
ATOM      4  C   LIG d   1       8.459   2.481  -4.519  0.00  0.00     0.124 A 
ATOM      5  C   LIG d   1       9.215   2.279  -3.374  0.00  0.00     0.022 A 
ATOM      6  C   LIG d   1      10.213   3.176  -3.034  0.00  0.00     0.130 A 
ATOM      7  H   LIG d   1       9.868   5.346  -5.622  0.00  0.00     0.063 H 
ATOM      8  H   LIG d   1       8.107   3.739  -6.218  0.00  0.00     0.065 H 
ATOM      9  H   LIG d   1       9.026   1.418  -2.748  0.00  0.00     0.069 H 
ENDROOT
BRANCH   1  10
ATOM     10  C   LIG d   1      11.513   5.260  -3.483  0.00  0.00     0.138 A 
ATOM     11  C   LIG d   1      11.312   6.590  -3.056  0.00  0.00     0.174 A 
ATOM     12  C   LIG d   1      12.528   7.137  -2.820  0.00  0.00     0.065 A 
ATOM     13  N   LIG d   1      13.468   6.194  -3.093  0.00  0.00    -0.281 N 
ATOM     14  H   LIG d   1      12.718   8.143  -2.477  0.00  0.00     0.086 H 
ATOM     15  H   LIG d   1      14.428   6.307  -3.013  0.00  0.00     0.188 HD
ATOM     16  N   LIG d   1      12.809   5.031  -3.509  0.00  0.00    -0.170 NA
BRANCH  11  17
ATOM     17  O   LIG d   1      10.110   7.210  -2.901  0.00  0.00    -0.449 OA
BRANCH  17  18
ATOM     18  C   LIG d   1      10.091   8.420  -2.281  0.00  0.00     0.170 A 
ATOM     19  C   LIG d   1       9.990   8.491  -0.894  0.00  0.00     0.163 A 
ATOM     20  C   LIG d   1       9.977   9.726  -0.266  0.00  0.00    -0.016 A 
ATOM     21  C   LIG d   1      10.058  10.885  -1.017  0.00  0.00    -0.058 A 
ATOM     22  H   LIG d   1       9.903   9.784   0.810  0.00  0.00     0.066 H 
ATOM     23  C   LIG d   1      10.152  10.814  -2.395  0.00  0.00    -0.058 A 
ATOM     24  H   LIG d   1      10.048  11.847  -0.527  0.00  0.00     0.062 H 
ATOM     25  C   LIG d   1      10.166   9.585  -3.028  0.00  0.00    -0.016 A 
ATOM     26  H   LIG d   1      10.215  11.721  -2.978  0.00  0.00     0.062 H 
ATOM     27  H   LIG d   1      10.239   9.532  -4.104  0.00  0.00     0.066 H 
BRANCH  19  28
ATOM     28  O   LIG d   1       9.910   7.351  -0.157  0.00  0.00    -0.489 OA
BRANCH  28  29
ATOM     29  C   LIG d   1      11.029   7.039   0.677  0.00  0.00     0.087 C 
ATOM     30  H   LIG d   1      10.766   7.219   1.720  0.00  0.00     0.069 H 
ATOM     31  H   LIG d   1      11.875   7.669   0.402  0.00  0.00     0.069 H 
BRANCH  29  32
ATOM     32  C   LIG d   1      11.407   5.568   0.493  0.00  0.00    -0.031 C 
ATOM     33  H   LIG d   1      11.200   5.021   1.414  0.00  0.00     0.026 H 
ATOM     34  H   LIG d   1      10.821   5.142  -0.322  0.00  0.00     0.026 H 
ATOM     35  H   LIG d   1      12.468   5.492   0.257  0.00  0.00     0.026 H 
ENDBRANCH  29  32
ENDBRANCH  28  29
ENDBRANCH  19  28
ENDBRANCH  17  18
ENDBRANCH  11  17
ENDBRANCH   1  10
BRANCH   6  36
ATOM     36  O   LIG d   1      10.957   2.976  -1.915  0.00  0.00    -0.506 OA
ATOM     37  H   LIG d   1      11.667   2.330  -2.026  0.00  0.00     0.292 HD
ENDBRANCH   6  36
BRANCH   4  38
ATOM     38  O   LIG d   1       7.484   1.596  -4.853  0.00  0.00    -0.487 OA
BRANCH  38  39
ATOM     39  C   LIG d   1       7.577   0.285  -4.293  0.00  0.00     0.115 C 
ATOM     40  H   LIG d   1       7.619  -0.450  -5.098  0.00  0.00     0.075 H 
ATOM     41  H   LIG d   1       8.479   0.213  -3.687  0.00  0.00     0.075 H 
BRANCH  39  42
ATOM     42  C   LIG d   1       6.370   0.018  -3.432  0.00  0.00    -0.007 A 
ATOM     43  C   LIG d   1       5.947  -1.280  -3.217  0.00  0.00    -0.044 A 
ATOM     44  C   LIG d   1       4.842  -1.525  -2.423  0.00  0.00    -0.059 A 
ATOM     45  C   LIG d   1       4.154  -0.471  -1.853  0.00  0.00    -0.061 A 
ATOM     46  H   LIG d   1       4.515  -2.539  -2.251  0.00  0.00     0.062 H 
ATOM     47  C   LIG d   1       4.573   0.828  -2.072  0.00  0.00    -0.061 A 
ATOM     48  H   LIG d   1       3.289  -0.662  -1.234  0.00  0.00     0.062 H 
ATOM     49  C   LIG d   1       5.681   1.073  -2.862  0.00  0.00    -0.055 A 
ATOM     50  H   LIG d   1       4.036   1.653  -1.625  0.00  0.00     0.062 H 
ATOM     51  H   LIG d   1       6.008   2.088  -3.034  0.00  0.00     0.062 H 
BRANCH  43  52
ATOM     52  C   LIG d   1       6.694  -2.429  -3.844  0.00  0.00    -0.039 C 
ATOM     53  H   LIG d   1       5.998  -3.242  -4.056  0.00  0.00     0.028 H 
ATOM     54  H   LIG d   1       7.159  -2.097  -4.772  0.00  0.00     0.028 H 
ATOM     55  H   LIG d   1       7.463  -2.781  -3.157  0.00  0.00     0.028 H 
ENDBRANCH  43  52
ENDBRANCH  39  42
ENDBRANCH  38  39
ENDBRANCH   4  38
TORSDOF 11
ENDMDL
MODEL 4
REMARK VINA RESULT:      -6.5      7.682     10.820
REMARK  11 active torsions:
REMARK  status: ('A' for Active; 'I' for Inactive)
REMARK    1  A    between atoms: C_1  and  C_2 
REMARK    2  A    between atoms: C_2  and  O_3 
REMARK    3  A    between atoms: O_3  and  C_4 
REMARK    4  A    between atoms: C_9  and  O_10 
REMARK    5  A    between atoms: O_10  and  C_11 
REMARK    6  A    between atoms: C_16  and  C_17 
REMARK    7  A    between atoms: C_20  and  O_24 
REMARK    8  A    between atoms: C_22  and  O_23 
REMARK    9  A    between atoms: O_24  and  C_25 
REMARK   10  A    between atoms: C_25  and  C_26 
REMARK   11  A    between atoms: C_31  and  C_32 
ROOT
ATOM      1  C   LIG d   1      10.539   4.074  -4.043  0.00  0.00     0.047 A 
ATOM      2  C   LIG d   1       9.826   4.218  -5.231  0.00  0.00    -0.045 A 
ATOM      3  C   LIG d   1       8.779   3.367  -5.514  0.00  0.00    -0.019 A 
ATOM      4  C   LIG d   1       8.432   2.365  -4.616  0.00  0.00     0.124 A 
ATOM      5  C   LIG d   1       9.137   2.215  -3.431  0.00  0.00     0.022 A 
ATOM      6  C   LIG d   1      10.193   3.062  -3.142  0.00  0.00     0.130 A 
ATOM      7  H   LIG d   1      10.093   4.996  -5.930  0.00  0.00     0.063 H 
ATOM      8  H   LIG d   1       8.227   3.479  -6.435  0.00  0.00     0.065 H 
ATOM      9  H   LIG d   1       8.864   1.435  -2.735  0.00  0.00     0.069 H 
ENDROOT
BRANCH   1  10
ATOM     10  C   LIG d   1      11.666   4.989  -3.736  0.00  0.00     0.138 A 
ATOM     11  C   LIG d   1      11.553   6.333  -3.319  0.00  0.00     0.174 A 
ATOM     12  C   LIG d   1      12.804   6.817  -3.138  0.00  0.00     0.065 A 
ATOM     13  N   LIG d   1      13.682   5.822  -3.435  0.00  0.00    -0.281 N 
ATOM     14  H   LIG d   1      13.060   7.815  -2.816  0.00  0.00     0.086 H 
ATOM     15  H   LIG d   1      14.649   5.885  -3.394  0.00  0.00     0.188 HD
ATOM     16  N   LIG d   1      12.947   4.691  -3.809  0.00  0.00    -0.170 NA
BRANCH  11  17
ATOM     17  O   LIG d   1      10.392   7.017  -3.126  0.00  0.00    -0.449 OA
BRANCH  17  18
ATOM     18  C   LIG d   1      10.100   8.032  -3.982  0.00  0.00     0.170 A 
ATOM     19  C   LIG d   1      10.186   9.353  -3.553  0.00  0.00     0.163 A 
ATOM     20  C   LIG d   1       9.892  10.384  -4.432  0.00  0.00    -0.016 A 
ATOM     21  C   LIG d   1       9.510  10.099  -5.730  0.00  0.00    -0.058 A 
ATOM     22  H   LIG d   1       9.963  11.410  -4.103  0.00  0.00     0.066 H 
ATOM     23  C   LIG d   1       9.419   8.786  -6.154  0.00  0.00    -0.058 A 
ATOM     24  H   LIG d   1       9.282  10.902  -6.414  0.00  0.00     0.062 H 
ATOM     25  C   LIG d   1       9.710   7.753  -5.283  0.00  0.00    -0.016 A 
ATOM     26  H   LIG d   1       9.119   8.567  -7.168  0.00  0.00     0.062 H 
ATOM     27  H   LIG d   1       9.638   6.728  -5.617  0.00  0.00     0.066 H 
BRANCH  19  28
ATOM     28  O   LIG d   1      10.562   9.632  -2.277  0.00  0.00    -0.489 OA
BRANCH  28  29
ATOM     29  C   LIG d   1       9.678  10.446  -1.503  0.00  0.00     0.087 C 
ATOM     30  H   LIG d   1       9.111  11.100  -2.166  0.00  0.00     0.069 H 
ATOM     31  H   LIG d   1      10.258  11.052  -0.806  0.00  0.00     0.069 H 
BRANCH  29  32
ATOM     32  C   LIG d   1       8.714   9.552  -0.721  0.00  0.00    -0.031 C 
ATOM     33  H   LIG d   1       8.814   8.522  -1.064  0.00  0.00     0.026 H 
ATOM     34  H   LIG d   1       8.951   9.605   0.342  0.00  0.00     0.026 H 
ATOM     35  H   LIG d   1       7.691   9.891  -0.883  0.00  0.00     0.026 H 
ENDBRANCH  29  32
ENDBRANCH  28  29
ENDBRANCH  19  28
ENDBRANCH  17  18
ENDBRANCH  11  17
ENDBRANCH   1  10
BRANCH   6  36
ATOM     36  O   LIG d   1      10.888   2.914  -1.984  0.00  0.00    -0.506 OA
ATOM     37  H   LIG d   1      10.369   3.092  -1.188  0.00  0.00     0.292 HD
ENDBRANCH   6  36
BRANCH   4  38
ATOM     38  O   LIG d   1       7.398   1.530  -4.900  0.00  0.00    -0.487 OA
BRANCH  38  39
ATOM     39  C   LIG d   1       7.483   0.197  -4.394  0.00  0.00     0.115 C 
ATOM     40  H   LIG d   1       7.466  -0.509  -5.225  0.00  0.00     0.075 H 
ATOM     41  H   LIG d   1       8.412   0.079  -3.836  0.00  0.00     0.075 H 
BRANCH  39  42
ATOM     42  C   LIG d   1       6.313  -0.072  -3.483  0.00  0.00    -0.007 A 
ATOM     43  C   LIG d   1       5.871  -1.366  -3.288  0.00  0.00    -0.044 A 
ATOM     44  C   LIG d   1       4.800  -1.612  -2.449  0.00  0.00    -0.059 A 
ATOM     45  C   LIG d   1       4.165  -0.562  -1.813  0.00  0.00    -0.061 A 
ATOM     46  H   LIG d   1       4.458  -2.624  -2.292  0.00  0.00     0.062 H 
ATOM     47  C   LIG d   1       4.603   0.734  -2.013  0.00  0.00    -0.061 A 
ATOM     48  H   LIG d   1       3.327  -0.754  -1.159  0.00  0.00     0.062 H 
ATOM     49  C   LIG d   1       5.677   0.980  -2.848  0.00  0.00    -0.055 A 
ATOM     50  H   LIG d   1       4.107   1.555  -1.516  0.00  0.00     0.062 H 
ATOM     51  H   LIG d   1       6.019   1.992  -3.004  0.00  0.00     0.062 H 
BRANCH  43  52
ATOM     52  C   LIG d   1       6.560  -2.511  -3.985  0.00  0.00    -0.039 C 
ATOM     53  H   LIG d   1       7.381  -2.126  -4.591  0.00  0.00     0.028 H 
ATOM     54  H   LIG d   1       6.950  -3.207  -3.243  0.00  0.00     0.028 H 
ATOM     55  H   LIG d   1       5.847  -3.027  -4.627  0.00  0.00     0.028 H 
ENDBRANCH  43  52
ENDBRANCH  39  42
ENDBRANCH  38  39
ENDBRANCH   4  38
TORSDOF 11
ENDMDL
MODEL 5
REMARK VINA RESULT:      -6.4      7.527     10.924
REMARK  11 active torsions:
REMARK  status: ('A' for Active; 'I' for Inactive)
REMARK    1  A    between atoms: C_1  and  C_2 
REMARK    2  A    between atoms: C_2  and  O_3 
REMARK    3  A    between atoms: O_3  and  C_4 
REMARK    4  A    between atoms: C_9  and  O_10 
REMARK    5  A    between atoms: O_10  and  C_11 
REMARK    6  A    between atoms: C_16  and  C_17 
REMARK    7  A    between atoms: C_20  and  O_24 
REMARK    8  A    between atoms: C_22  and  O_23 
REMARK    9  A    between atoms: O_24  and  C_25 
REMARK   10  A    between atoms: C_25  and  C_26 
REMARK   11  A    between atoms: C_31  and  C_32 
ROOT
ATOM      1  C   LIG d   1      10.703   3.897  -4.348  0.00  0.00     0.047 A 
ATOM      2  C   LIG d   1      10.062   3.863  -5.584  0.00  0.00    -0.045 A 
ATOM      3  C   LIG d   1       8.960   3.053  -5.767  0.00  0.00    -0.019 A 
ATOM      4  C   LIG d   1       8.487   2.271  -4.721  0.00  0.00     0.124 A 
ATOM      5  C   LIG d   1       9.120   2.299  -3.487  0.00  0.00     0.022 A 
ATOM      6  C   LIG d   1      10.230   3.105  -3.297  0.00  0.00     0.130 A 
ATOM      7  H   LIG d   1      10.426   4.470  -6.399  0.00  0.00     0.063 H 
ATOM      8  H   LIG d   1       8.464   3.027  -6.726  0.00  0.00     0.065 H 
ATOM      9  H   LIG d   1       8.749   1.690  -2.676  0.00  0.00     0.069 H 
ENDROOT
BRANCH   1  10
ATOM     10  C   LIG d   1      11.888   4.767  -4.148  0.00  0.00     0.138 A 
ATOM     11  C   LIG d   1      11.885   6.178  -4.127  0.00  0.00     0.174 A 
ATOM     12  C   LIG d   1      13.157   6.591  -3.915  0.00  0.00     0.065 A 
ATOM     13  N   LIG d   1      13.941   5.486  -3.811  0.00  0.00    -0.281 N 
ATOM     14  H   LIG d   1      13.490   7.616  -3.842  0.00  0.00     0.086 H 
ATOM     15  H   LIG d   1      14.899   5.479  -3.657  0.00  0.00     0.188 HD
ATOM     16  N   LIG d   1      13.126   4.358  -3.963  0.00  0.00    -0.170 NA
BRANCH  11  17
ATOM     17  O   LIG d   1      10.797   6.981  -4.286  0.00  0.00    -0.449 OA
BRANCH  17  18
ATOM     18  C   LIG d   1      10.330   7.646  -3.195  0.00  0.00     0.170 A 
ATOM     19  C   LIG d   1      10.259   9.036  -3.204  0.00  0.00     0.163 A 
ATOM     20  C   LIG d   1       9.777   9.708  -2.092  0.00  0.00    -0.016 A 
ATOM     21  C   LIG d   1       9.374   8.999  -0.976  0.00  0.00    -0.058 A 
ATOM     22  H   LIG d   1       9.716  10.787  -2.098  0.00  0.00     0.066 H 
ATOM     23  C   LIG d   1       9.450   7.619  -0.965  0.00  0.00    -0.058 A 
ATOM     24  H   LIG d   1       8.999   9.524  -0.110  0.00  0.00     0.062 H 
ATOM     25  C   LIG d   1       9.930   6.941  -2.070  0.00  0.00    -0.016 A 
ATOM     26  H   LIG d   1       9.136   7.068  -0.091  0.00  0.00     0.062 H 
ATOM     27  H   LIG d   1       9.989   5.863  -2.060  0.00  0.00     0.066 H 
BRANCH  19  28
ATOM     28  O   LIG d   1      10.655   9.731  -4.302  0.00  0.00    -0.489 OA
BRANCH  28  29
ATOM     29  C   LIG d   1       9.626  10.281  -5.129  0.00  0.00     0.087 C 
ATOM     30  H   LIG d   1       9.862  11.319  -5.362  0.00  0.00     0.069 H 
ATOM     31  H   LIG d   1       8.673  10.235  -4.601  0.00  0.00     0.069 H 
BRANCH  29  32
ATOM     32  C   LIG d   1       9.530   9.476  -6.427  0.00  0.00    -0.031 C 
ATOM     33  H   LIG d   1      10.194   9.910  -7.173  0.00  0.00     0.026 H 
ATOM     34  H   LIG d   1       9.823   8.443  -6.236  0.00  0.00     0.026 H 
ATOM     35  H   LIG d   1       8.504   9.501  -6.794  0.00  0.00     0.026 H 
ENDBRANCH  29  32
ENDBRANCH  28  29
ENDBRANCH  19  28
ENDBRANCH  17  18
ENDBRANCH  11  17
ENDBRANCH   1  10
BRANCH   6  36
ATOM     36  O   LIG d   1      10.854   3.130  -2.090  0.00  0.00    -0.506 OA
ATOM     37  H   LIG d   1      10.302   2.831  -1.355  0.00  0.00     0.292 HD
ENDBRANCH   6  36
BRANCH   4  38
ATOM     38  O   LIG d   1       7.401   1.476  -4.908  0.00  0.00    -0.487 OA
BRANCH  38  39
ATOM     39  C   LIG d   1       7.474   0.146  -4.392  0.00  0.00     0.115 C 
ATOM     40  H   LIG d   1       7.449  -0.566  -5.218  0.00  0.00     0.075 H 
ATOM     41  H   LIG d   1       8.403   0.023  -3.835  0.00  0.00     0.075 H 
BRANCH  39  42
ATOM     42  C   LIG d   1       6.303  -0.105  -3.477  0.00  0.00    -0.007 A 
ATOM     43  C   LIG d   1       5.842  -1.392  -3.281  0.00  0.00    -0.044 A 
ATOM     44  C   LIG d   1       4.770  -1.621  -2.438  0.00  0.00    -0.059 A 
ATOM     45  C   LIG d   1       4.154  -0.562  -1.800  0.00  0.00    -0.061 A 
ATOM     46  H   LIG d   1       4.413  -2.628  -2.281  0.00  0.00     0.062 H 
ATOM     47  C   LIG d   1       4.612   0.727  -2.000  0.00  0.00    -0.061 A 
ATOM     48  H   LIG d   1       3.315  -0.741  -1.143  0.00  0.00     0.062 H 
ATOM     49  C   LIG d   1       5.687   0.956  -2.839  0.00  0.00    -0.055 A 
ATOM     50  H   LIG d   1       4.131   1.556  -1.500  0.00  0.00     0.062 H 
ATOM     51  H   LIG d   1       6.045   1.963  -2.995  0.00  0.00     0.062 H 
BRANCH  43  52
ATOM     52  C   LIG d   1       6.509  -2.547  -3.982  0.00  0.00    -0.039 C 
ATOM     53  H   LIG d   1       6.776  -3.311  -3.251  0.00  0.00     0.028 H 
ATOM     54  H   LIG d   1       5.825  -2.970  -4.718  0.00  0.00     0.028 H 
ATOM     55  H   LIG d   1       7.411  -2.196  -4.484  0.00  0.00     0.028 H 
ENDBRANCH  43  52
ENDBRANCH  39  42
ENDBRANCH  38  39
ENDBRANCH   4  38
TORSDOF 11
ENDMDL
MODEL 6
REMARK VINA RESULT:      -6.4      2.213      3.519
REMARK  11 active torsions:
REMARK  status: ('A' for Active; 'I' for Inactive)
REMARK    1  A    between atoms: C_1  and  C_2 
REMARK    2  A    between atoms: C_2  and  O_3 
REMARK    3  A    between atoms: O_3  and  C_4 
REMARK    4  A    between atoms: C_9  and  O_10 
REMARK    5  A    between atoms: O_10  and  C_11 
REMARK    6  A    between atoms: C_16  and  C_17 
REMARK    7  A    between atoms: C_20  and  O_24 
REMARK    8  A    between atoms: C_22  and  O_23 
REMARK    9  A    between atoms: O_24  and  C_25 
REMARK   10  A    between atoms: C_25  and  C_26 
REMARK   11  A    between atoms: C_31  and  C_32 
ROOT
ATOM      1  C   LIG d   1       3.069  -1.903  -9.235  0.00  0.00     0.047 A 
ATOM      2  C   LIG d   1       4.095  -2.063  -8.307  0.00  0.00    -0.045 A 
ATOM      3  C   LIG d   1       4.177  -1.220  -7.218  0.00  0.00    -0.019 A 
ATOM      4  C   LIG d   1       3.238  -0.211  -7.045  0.00  0.00     0.124 A 
ATOM      5  C   LIG d   1       2.214  -0.045  -7.965  0.00  0.00     0.022 A 
ATOM      6  C   LIG d   1       2.127  -0.883  -9.064  0.00  0.00     0.130 A 
ATOM      7  H   LIG d   1       4.824  -2.847  -8.438  0.00  0.00     0.063 H 
ATOM      8  H   LIG d   1       4.972  -1.344  -6.499  0.00  0.00     0.065 H 
ATOM      9  H   LIG d   1       1.486   0.742  -7.827  0.00  0.00     0.069 H 
ENDROOT
BRANCH   1  10
ATOM     10  C   LIG d   1       2.978  -2.808 -10.407  0.00  0.00     0.138 A 
ATOM     11  C   LIG d   1       3.516  -2.561 -11.689  0.00  0.00     0.174 A 
ATOM     12  C   LIG d   1       3.225  -3.627 -12.472  0.00  0.00     0.065 A 
ATOM     13  N   LIG d   1       2.523  -4.516 -11.720  0.00  0.00    -0.281 N 
ATOM     14  H   LIG d   1       3.500  -3.749 -13.509  0.00  0.00     0.086 H 
ATOM     15  H   LIG d   1       2.182  -5.372 -12.022  0.00  0.00     0.188 HD
ATOM     16  N   LIG d   1       2.379  -3.980 -10.435  0.00  0.00    -0.170 NA
BRANCH  11  17
ATOM     17  O   LIG d   1       4.210  -1.453 -12.067  0.00  0.00    -0.449 OA
BRANCH  17  18
ATOM     18  C   LIG d   1       5.488  -1.317 -11.624  0.00  0.00     0.170 A 
ATOM     19  C   LIG d   1       5.852  -0.201 -10.877  0.00  0.00     0.163 A 
ATOM     20  C   LIG d   1       7.155  -0.070 -10.422  0.00  0.00    -0.016 A 
ATOM     21  C   LIG d   1       8.091  -1.045 -10.715  0.00  0.00    -0.058 A 
ATOM     22  H   LIG d   1       7.439   0.793  -9.838  0.00  0.00     0.066 H 
ATOM     23  C   LIG d   1       7.730  -2.151 -11.462  0.00  0.00    -0.058 A 
ATOM     24  H   LIG d   1       9.105  -0.942 -10.361  0.00  0.00     0.062 H 
ATOM     25  C   LIG d   1       6.433  -2.288 -11.920  0.00  0.00    -0.016 A 
ATOM     26  H   LIG d   1       8.464  -2.910 -11.690  0.00  0.00     0.062 H 
ATOM     27  H   LIG d   1       6.153  -3.153 -12.503  0.00  0.00     0.066 H 
BRANCH  19  28
ATOM     28  O   LIG d   1       4.931   0.756 -10.589  0.00  0.00    -0.489 OA
BRANCH  28  29
ATOM     29  C   LIG d   1       5.225   1.633  -9.499  0.00  0.00     0.087 C 
ATOM     30  H   LIG d   1       6.162   2.156  -9.695  0.00  0.00     0.069 H 
ATOM     31  H   LIG d   1       5.319   1.053  -8.581  0.00  0.00     0.069 H 
BRANCH  29  32
ATOM     32  C   LIG d   1       4.094   2.653  -9.344  0.00  0.00    -0.031 C 
ATOM     33  H   LIG d   1       3.212   2.300  -9.877  0.00  0.00     0.026 H 
ATOM     34  H   LIG d   1       3.857   2.774  -8.287  0.00  0.00     0.026 H 
ATOM     35  H   LIG d   1       4.410   3.610  -9.758  0.00  0.00     0.026 H 
ENDBRANCH  29  32
ENDBRANCH  28  29
ENDBRANCH  19  28
ENDBRANCH  17  18
ENDBRANCH  11  17
ENDBRANCH   1  10
BRANCH   6  36
ATOM     36  O   LIG d   1       1.128  -0.719  -9.969  0.00  0.00    -0.506 OA
ATOM     37  H   LIG d   1       0.240  -0.797  -9.593  0.00  0.00     0.292 HD
ENDBRANCH   6  36
BRANCH   4  38
ATOM     38  O   LIG d   1       3.324   0.617  -5.970  0.00  0.00    -0.487 OA
BRANCH  38  39
ATOM     39  C   LIG d   1       2.422   0.374  -4.890  0.00  0.00     0.115 C 
ATOM     40  H   LIG d   1       1.950   1.311  -4.593  0.00  0.00     0.075 H 
ATOM     41  H   LIG d   1       1.656  -0.334  -5.208  0.00  0.00     0.075 H 
BRANCH  39  42
ATOM     42  C   LIG d   1       3.180  -0.199  -3.720  0.00  0.00    -0.007 A 
ATOM     43  C   LIG d   1       3.761   0.644  -2.792  0.00  0.00    -0.044 A 
ATOM     44  C   LIG d   1       4.452   0.118  -1.717  0.00  0.00    -0.059 A 
ATOM     45  C   LIG d   1       4.570  -1.251  -1.575  0.00  0.00    -0.061 A 
ATOM     46  H   LIG d   1       4.902   0.777  -0.990  0.00  0.00     0.062 H 
ATOM     47  C   LIG d   1       3.994  -2.096  -2.506  0.00  0.00    -0.061 A 
ATOM     48  H   LIG d   1       5.112  -1.663  -0.736  0.00  0.00     0.062 H 
ATOM     49  C   LIG d   1       3.299  -1.570  -3.579  0.00  0.00    -0.055 A 
ATOM     50  H   LIG d   1       4.086  -3.167  -2.394  0.00  0.00     0.062 H 
ATOM     51  H   LIG d   1       2.848  -2.229  -4.306  0.00  0.00     0.062 H 
BRANCH  43  52
ATOM     52  C   LIG d   1       3.637   2.138  -2.950  0.00  0.00    -0.039 C 
ATOM     53  H   LIG d   1       3.242   2.569  -2.030  0.00  0.00     0.028 H 
ATOM     54  H   LIG d   1       4.618   2.564  -3.160  0.00  0.00     0.028 H 
ATOM     55  H   LIG d   1       2.960   2.361  -3.774  0.00  0.00     0.028 H 
ENDBRANCH  43  52
ENDBRANCH  39  42
ENDBRANCH  38  39
ENDBRANCH   4  38
TORSDOF 11
ENDMDL
MODEL 7
REMARK VINA RESULT:      -6.3      7.607     11.485
REMARK  11 active torsions:
REMARK  status: ('A' for Active; 'I' for Inactive)
REMARK    1  A    between atoms: C_1  and  C_2 
REMARK    2  A    between atoms: C_2  and  O_3 
REMARK    3  A    between atoms: O_3  and  C_4 
REMARK    4  A    between atoms: C_9  and  O_10 
REMARK    5  A    between atoms: O_10  and  C_11 
REMARK    6  A    between atoms: C_16  and  C_17 
REMARK    7  A    between atoms: C_20  and  O_24 
REMARK    8  A    between atoms: C_22  and  O_23 
REMARK    9  A    between atoms: O_24  and  C_25 
REMARK   10  A    between atoms: C_25  and  C_26 
REMARK   11  A    between atoms: C_31  and  C_32 
ROOT
ATOM      1  C   LIG d   1      10.687   3.874  -4.166  0.00  0.00     0.047 A 
ATOM      2  C   LIG d   1       9.987   4.010  -5.362  0.00  0.00    -0.045 A 
ATOM      3  C   LIG d   1       8.875   3.230  -5.603  0.00  0.00    -0.019 A 
ATOM      4  C   LIG d   1       8.451   2.308  -4.655  0.00  0.00     0.124 A 
ATOM      5  C   LIG d   1       9.143   2.166  -3.461  0.00  0.00     0.022 A 
ATOM      6  C   LIG d   1      10.263   2.941  -3.214  0.00  0.00     0.130 A 
ATOM      7  H   LIG d   1      10.313   4.727  -6.100  0.00  0.00     0.063 H 
ATOM      8  H   LIG d   1       8.333   3.336  -6.531  0.00  0.00     0.065 H 
ATOM      9  H   LIG d   1       8.810   1.448  -2.726  0.00  0.00     0.069 H 
ENDROOT
BRANCH   1  10
ATOM     10  C   LIG d   1      11.883   4.712  -3.904  0.00  0.00     0.138 A 
ATOM     11  C   LIG d   1      11.911   5.898  -3.139  0.00  0.00     0.174 A 
ATOM     12  C   LIG d   1      13.185   6.357  -3.135  0.00  0.00     0.065 A 
ATOM     13  N   LIG d   1      13.938   5.500  -3.874  0.00  0.00    -0.281 N 
ATOM     14  H   LIG d   1      13.540   7.246  -2.635  0.00  0.00     0.086 H 
ATOM     15  H   LIG d   1      14.890   5.579  -4.044  0.00  0.00     0.188 HD
ATOM     16  N   LIG d   1      13.101   4.482  -4.346  0.00  0.00    -0.170 NA
BRANCH  11  17
ATOM     17  O   LIG d   1      10.849   6.474  -2.513  0.00  0.00    -0.449 OA
BRANCH  17  18
ATOM     18  C   LIG d   1      10.971   6.770  -1.191  0.00  0.00     0.170 A 
ATOM     19  C   LIG d   1      11.144   8.090  -0.785  0.00  0.00     0.163 A 
ATOM     20  C   LIG d   1      11.262   8.386   0.564  0.00  0.00    -0.016 A 
ATOM     21  C   LIG d   1      11.214   7.372   1.502  0.00  0.00    -0.058 A 
ATOM     22  H   LIG d   1      11.392   9.410   0.883  0.00  0.00     0.066 H 
ATOM     23  C   LIG d   1      11.048   6.059   1.098  0.00  0.00    -0.058 A 
ATOM     24  H   LIG d   1      11.307   7.603   2.552  0.00  0.00     0.062 H 
ATOM     25  C   LIG d   1      10.930   5.756  -0.246  0.00  0.00    -0.016 A 
ATOM     26  H   LIG d   1      11.012   5.270   1.833  0.00  0.00     0.062 H 
ATOM     27  H   LIG d   1      10.801   4.731  -0.559  0.00  0.00     0.066 H 
BRANCH  19  28
ATOM     28  O   LIG d   1      11.191   9.086  -1.708  0.00  0.00    -0.489 OA
BRANCH  28  29
ATOM     29  C   LIG d   1      10.801  10.392  -1.274  0.00  0.00     0.087 C 
ATOM     30  H   LIG d   1      11.682  11.031  -1.206  0.00  0.00     0.069 H 
ATOM     31  H   LIG d   1      10.326  10.322  -0.295  0.00  0.00     0.069 H 
BRANCH  29  32
ATOM     32  C   LIG d   1       9.814  10.990  -2.279  0.00  0.00    -0.031 C 
ATOM     33  H   LIG d   1      10.365  11.478  -3.082  0.00  0.00     0.026 H 
ATOM     34  H   LIG d   1       9.193  10.195  -2.694  0.00  0.00     0.026 H 
ATOM     35  H   LIG d   1       9.181  11.720  -1.776  0.00  0.00     0.026 H 
ENDBRANCH  29  32
ENDBRANCH  28  29
ENDBRANCH  19  28
ENDBRANCH  17  18
ENDBRANCH  11  17
ENDBRANCH   1  10
BRANCH   6  36
ATOM     36  O   LIG d   1      10.945   2.800  -2.047  0.00  0.00    -0.506 OA
ATOM     37  H   LIG d   1      10.797   1.952  -1.606  0.00  0.00     0.292 HD
ENDBRANCH   6  36
BRANCH   4  38
ATOM     38  O   LIG d   1       7.355   1.542  -4.898  0.00  0.00    -0.487 OA
BRANCH  38  39
ATOM     39  C   LIG d   1       7.399   0.185  -4.454  0.00  0.00     0.115 C 
ATOM     40  H   LIG d   1       7.318  -0.481  -5.314  0.00  0.00     0.075 H 
ATOM     41  H   LIG d   1       8.342   0.002  -3.940  0.00  0.00     0.075 H 
BRANCH  39  42
ATOM     42  C   LIG d   1       6.254  -0.073  -3.510  0.00  0.00    -0.007 A 
ATOM     43  C   LIG d   1       5.791  -1.361  -3.320  0.00  0.00    -0.044 A 
ATOM     44  C   LIG d   1       4.743  -1.598  -2.450  0.00  0.00    -0.059 A 
ATOM     45  C   LIG d   1       4.152  -0.545  -1.777  0.00  0.00    -0.061 A 
ATOM     46  H   LIG d   1       4.385  -2.605  -2.297  0.00  0.00     0.062 H 
ATOM     47  C   LIG d   1       4.611   0.744  -1.971  0.00  0.00    -0.061 A 
ATOM     48  H   LIG d   1       3.332  -0.730  -1.099  0.00  0.00     0.062 H 
ATOM     49  C   LIG d   1       5.662   0.981  -2.837  0.00  0.00    -0.055 A 
ATOM     50  H   LIG d   1       4.150   1.567  -1.444  0.00  0.00     0.062 H 
ATOM     51  H   LIG d   1       6.021   1.988  -2.989  0.00  0.00     0.062 H 
BRANCH  43  52
ATOM     52  C   LIG d   1       6.431  -2.508  -4.058  0.00  0.00    -0.039 C 
ATOM     53  H   LIG d   1       7.184  -2.975  -3.422  0.00  0.00     0.028 H 
ATOM     54  H   LIG d   1       5.670  -3.243  -4.318  0.00  0.00     0.028 H 
ATOM     55  H   LIG d   1       6.904  -2.138  -4.967  0.00  0.00     0.028 H 
ENDBRANCH  43  52
ENDBRANCH  39  42
ENDBRANCH  38  39
ENDBRANCH   4  38
TORSDOF 11
ENDMDL
MODEL 8
REMARK VINA RESULT:      -6.1      3.133      7.519
REMARK  11 active torsions:
REMARK  status: ('A' for Active; 'I' for Inactive)
REMARK    1  A    between atoms: C_1  and  C_2 
REMARK    2  A    between atoms: C_2  and  O_3 
REMARK    3  A    between atoms: O_3  and  C_4 
REMARK    4  A    between atoms: C_9  and  O_10 
REMARK    5  A    between atoms: O_10  and  C_11 
REMARK    6  A    between atoms: C_16  and  C_17 
REMARK    7  A    between atoms: C_20  and  O_24 
REMARK    8  A    between atoms: C_22  and  O_23 
REMARK    9  A    between atoms: O_24  and  C_25 
REMARK   10  A    between atoms: C_25  and  C_26 
REMARK   11  A    between atoms: C_31  and  C_32 
ROOT
ATOM      1  C   LIG d   1       7.314   0.324  -7.569  0.00  0.00     0.047 A 
ATOM      2  C   LIG d   1       6.753   1.461  -8.146  0.00  0.00    -0.045 A 
ATOM      3  C   LIG d   1       6.161   1.382  -9.389  0.00  0.00    -0.019 A 
ATOM      4  C   LIG d   1       6.124   0.172 -10.069  0.00  0.00     0.124 A 
ATOM      5  C   LIG d   1       6.681  -0.965  -9.502  0.00  0.00     0.022 A 
ATOM      6  C   LIG d   1       7.281  -0.894  -8.256  0.00  0.00     0.130 A 
ATOM      7  H   LIG d   1       6.779   2.403  -7.619  0.00  0.00     0.063 H 
ATOM      8  H   LIG d   1       5.727   2.264  -9.836  0.00  0.00     0.065 H 
ATOM      9  H   LIG d   1       6.650  -1.905 -10.034  0.00  0.00     0.069 H 
ENDROOT
BRANCH   1  10
ATOM     10  C   LIG d   1       7.951   0.405  -6.231  0.00  0.00     0.138 A 
ATOM     11  C   LIG d   1       7.276   0.569  -5.002  0.00  0.00     0.174 A 
ATOM     12  C   LIG d   1       8.208   0.590  -4.019  0.00  0.00     0.065 A 
ATOM     13  N   LIG d   1       9.428   0.451  -4.600  0.00  0.00    -0.281 N 
ATOM     14  H   LIG d   1       8.015   0.698  -2.962  0.00  0.00     0.086 H 
ATOM     15  H   LIG d   1      10.281   0.431  -4.137  0.00  0.00     0.188 HD
ATOM     16  N   LIG d   1       9.242   0.341  -5.983  0.00  0.00    -0.170 NA
BRANCH  11  17
ATOM     17  O   LIG d   1       5.930   0.679  -4.834  0.00  0.00    -0.449 OA
BRANCH  17  18
ATOM     18  C   LIG d   1       5.324  -0.171  -3.963  0.00  0.00     0.170 A 
ATOM     19  C   LIG d   1       5.112  -1.500  -4.318  0.00  0.00     0.163 A 
ATOM     20  C   LIG d   1       4.499  -2.364  -3.424  0.00  0.00    -0.016 A 
ATOM     21  C   LIG d   1       4.095  -1.904  -2.185  0.00  0.00    -0.058 A 
ATOM     22  H   LIG d   1       4.338  -3.397  -3.696  0.00  0.00     0.066 H 
ATOM     23  C   LIG d   1       4.299  -0.582  -1.834  0.00  0.00    -0.058 A 
ATOM     24  H   LIG d   1       3.617  -2.577  -1.489  0.00  0.00     0.062 H 
ATOM     25  C   LIG d   1       4.910   0.286  -2.721  0.00  0.00    -0.016 A 
ATOM     26  H   LIG d   1       3.981  -0.226  -0.866  0.00  0.00     0.062 H 
ATOM     27  H   LIG d   1       5.069   1.317  -2.445  0.00  0.00     0.066 H 
BRANCH  19  28
ATOM     28  O   LIG d   1       5.511  -1.951  -5.537  0.00  0.00    -0.489 OA
BRANCH  28  29
ATOM     29  C   LIG d   1       4.708  -2.962  -6.149  0.00  0.00     0.087 C 
ATOM     30  H   LIG d   1       3.912  -3.258  -5.466  0.00  0.00     0.069 H 
ATOM     31  H   LIG d   1       5.328  -3.828  -6.381  0.00  0.00     0.069 H 
BRANCH  29  32
ATOM     32  C   LIG d   1       4.094  -2.414  -7.440  0.00  0.00    -0.031 C 
ATOM     33  H   LIG d   1       3.776  -1.384  -7.282  0.00  0.00     0.026 H 
ATOM     34  H   LIG d   1       4.837  -2.448  -8.237  0.00  0.00     0.026 H 
ATOM     35  H   LIG d   1       3.233  -3.021  -7.719  0.00  0.00     0.026 H 
ENDBRANCH  29  32
ENDBRANCH  28  29
ENDBRANCH  19  28
ENDBRANCH  17  18
ENDBRANCH  11  17
ENDBRANCH   1  10
BRANCH   6  36
ATOM     36  O   LIG d   1       7.832  -2.005  -7.701  0.00  0.00    -0.506 OA
ATOM     37  H   LIG d   1       7.655  -2.819  -8.193  0.00  0.00     0.292 HD
ENDBRANCH   6  36
BRANCH   4  38
ATOM     38  O   LIG d   1       5.540   0.101 -11.294  0.00  0.00    -0.487 OA
BRANCH  38  39
ATOM     39  C   LIG d   1       4.250   0.699 -11.434  0.00  0.00     0.115 C 
ATOM     40  H   LIG d   1       4.174   1.559 -10.767  0.00  0.00     0.075 H 
ATOM     41  H   LIG d   1       4.112   1.026 -12.465  0.00  0.00     0.075 H 
BRANCH  39  42
ATOM     42  C   LIG d   1       3.186  -0.307 -11.079  0.00  0.00    -0.007 A 
ATOM     43  C   LIG d   1       2.405  -0.120  -9.956  0.00  0.00    -0.044 A 
ATOM     44  C   LIG d   1       1.426  -1.042  -9.633  0.00  0.00    -0.059 A 
ATOM     45  C   LIG d   1       1.236  -2.155 -10.429  0.00  0.00    -0.061 A 
ATOM     46  H   LIG d   1       0.812  -0.893  -8.758  0.00  0.00     0.062 H 
ATOM     47  C   LIG d   1       2.022  -2.346 -11.551  0.00  0.00    -0.061 A 
ATOM     48  H   LIG d   1       0.473  -2.877 -10.176  0.00  0.00     0.062 H 
ATOM     49  C   LIG d   1       2.998  -1.422 -11.876  0.00  0.00    -0.055 A 
ATOM     50  H   LIG d   1       1.873  -3.216 -12.174  0.00  0.00     0.062 H 
ATOM     51  H   LIG d   1       3.611  -1.570 -12.752  0.00  0.00     0.062 H 
BRANCH  43  52
ATOM     52  C   LIG d   1       2.615   1.091  -9.084  0.00  0.00    -0.039 C 
ATOM     53  H   LIG d   1       3.585   1.536  -9.309  0.00  0.00     0.028 H 
ATOM     54  H   LIG d   1       1.827   1.818  -9.276  0.00  0.00     0.028 H 
ATOM     55  H   LIG d   1       2.588   0.794  -8.036  0.00  0.00     0.028 H 
ENDBRANCH  43  52
ENDBRANCH  39  42
ENDBRANCH  38  39
ENDBRANCH   4  38
TORSDOF 11
ENDMDL
MODEL 9
REMARK VINA RESULT:      -6.1      5.157      8.248
REMARK  11 active torsions:
REMARK  status: ('A' for Active; 'I' for Inactive)
REMARK    1  A    between atoms: C_1  and  C_2 
REMARK    2  A    between atoms: C_2  and  O_3 
REMARK    3  A    between atoms: O_3  and  C_4 
REMARK    4  A    between atoms: C_9  and  O_10 
REMARK    5  A    between atoms: O_10  and  C_11 
REMARK    6  A    between atoms: C_16  and  C_17 
REMARK    7  A    between atoms: C_20  and  O_24 
REMARK    8  A    between atoms: C_22  and  O_23 
REMARK    9  A    between atoms: O_24  and  C_25 
REMARK   10  A    between atoms: C_25  and  C_26 
REMARK   11  A    between atoms: C_31  and  C_32 
ROOT
ATOM      1  C   LIG d   1       8.875   1.770  -5.305  0.00  0.00     0.047 A 
ATOM      2  C   LIG d   1       8.645   2.284  -4.031  0.00  0.00    -0.045 A 
ATOM      3  C   LIG d   1       9.685   2.838  -3.313  0.00  0.00    -0.019 A 
ATOM      4  C   LIG d   1      10.962   2.884  -3.858  0.00  0.00     0.124 A 
ATOM      5  C   LIG d   1      11.199   2.374  -5.126  0.00  0.00     0.022 A 
ATOM      6  C   LIG d   1      10.162   1.812  -5.851  0.00  0.00     0.130 A 
ATOM      7  H   LIG d   1       7.654   2.250  -3.606  0.00  0.00     0.063 H 
ATOM      8  H   LIG d   1       9.507   3.235  -2.325  0.00  0.00     0.065 H 
ATOM      9  H   LIG d   1      12.193   2.412  -5.547  0.00  0.00     0.069 H 
ENDROOT
BRANCH   1  10
ATOM     10  C   LIG d   1       7.759   1.174  -6.079  0.00  0.00     0.138 A 
ATOM     11  C   LIG d   1       7.007   0.038  -5.709  0.00  0.00     0.174 A 
ATOM     12  C   LIG d   1       6.082  -0.179  -6.674  0.00  0.00     0.065 A 
ATOM     13  N   LIG d   1       6.242   0.778  -7.625  0.00  0.00    -0.281 N 
ATOM     14  H   LIG d   1       5.349  -0.971  -6.686  0.00  0.00     0.086 H 
ATOM     15  H   LIG d   1       5.716   0.870  -8.435  0.00  0.00     0.188 HD
ATOM     16  N   LIG d   1       7.298   1.610  -7.233  0.00  0.00    -0.170 NA
BRANCH  11  17
ATOM     17  O   LIG d   1       7.178  -0.703  -4.580  0.00  0.00    -0.449 OA
BRANCH  17  18
ATOM     18  C   LIG d   1       6.158  -0.740  -3.681  0.00  0.00     0.170 A 
ATOM     19  C   LIG d   1       5.439  -1.917  -3.490  0.00  0.00     0.163 A 
ATOM     20  C   LIG d   1       4.405  -1.951  -2.568  0.00  0.00    -0.016 A 
ATOM     21  C   LIG d   1       4.086  -0.817  -1.844  0.00  0.00    -0.058 A 
ATOM     22  H   LIG d   1       3.848  -2.863  -2.415  0.00  0.00     0.066 H 
ATOM     23  C   LIG d   1       4.797   0.353  -2.038  0.00  0.00    -0.058 A 
ATOM     24  H   LIG d   1       3.280  -0.844  -1.127  0.00  0.00     0.062 H 
ATOM     25  C   LIG d   1       5.829   0.395  -2.956  0.00  0.00    -0.016 A 
ATOM     26  H   LIG d   1       4.544   1.237  -1.472  0.00  0.00     0.062 H 
ATOM     27  H   LIG d   1       6.383   1.310  -3.105  0.00  0.00     0.066 H 
BRANCH  19  28
ATOM     28  O   LIG d   1       5.754  -3.031  -4.202  0.00  0.00    -0.489 OA
BRANCH  28  29
ATOM     29  C   LIG d   1       4.841  -3.424  -5.230  0.00  0.00     0.087 C 
ATOM     30  H   LIG d   1       5.136  -2.963  -6.174  0.00  0.00     0.069 H 
ATOM     31  H   LIG d   1       3.835  -3.099  -4.966  0.00  0.00     0.069 H 
BRANCH  29  32
ATOM     32  C   LIG d   1       4.864  -4.947  -5.378  0.00  0.00    -0.031 C 
ATOM     33  H   LIG d   1       5.100  -5.401  -4.415  0.00  0.00     0.026 H 
ATOM     34  H   LIG d   1       3.885  -5.293  -5.712  0.00  0.00     0.026 H 
ATOM     35  H   LIG d   1       5.620  -5.230  -6.109  0.00  0.00     0.026 H 
ENDBRANCH  29  32
ENDBRANCH  28  29
ENDBRANCH  19  28
ENDBRANCH  17  18
ENDBRANCH  11  17
ENDBRANCH   1  10
BRANCH   6  36
ATOM     36  O   LIG d   1      10.393   1.307  -7.091  0.00  0.00    -0.506 OA
ATOM     37  H   LIG d   1      10.723   1.958  -7.725  0.00  0.00     0.292 HD
ENDBRANCH   6  36
BRANCH   4  38
ATOM     38  O   LIG d   1      11.982   3.431  -3.147  0.00  0.00    -0.487 OA
BRANCH  38  39
ATOM     39  C   LIG d   1      12.180   4.840  -3.272  0.00  0.00     0.115 C 
ATOM     40  H   LIG d   1      13.245   5.049  -3.383  0.00  0.00     0.075 H 
ATOM     41  H   LIG d   1      11.646   5.204  -4.150  0.00  0.00     0.075 H 
BRANCH  39  42
ATOM     42  C   LIG d   1      11.657   5.534  -2.042  0.00  0.00    -0.007 A 
ATOM     43  C   LIG d   1      10.524   6.322  -2.121  0.00  0.00    -0.044 A 
ATOM     44  C   LIG d   1      10.042   6.955  -0.990  0.00  0.00    -0.059 A 
ATOM     45  C   LIG d   1      10.698   6.807   0.217  0.00  0.00    -0.061 A 
ATOM     46  H   LIG d   1       9.154   7.566  -1.051  0.00  0.00     0.062 H 
ATOM     47  C   LIG d   1      11.835   6.024   0.295  0.00  0.00    -0.061 A 
ATOM     48  H   LIG d   1      10.323   7.304   1.100  0.00  0.00     0.062 H 
ATOM     49  C   LIG d   1      12.315   5.387  -0.834  0.00  0.00    -0.055 A 
ATOM     50  H   LIG d   1      12.348   5.908   1.239  0.00  0.00     0.062 H 
ATOM     51  H   LIG d   1      13.202   4.775  -0.773  0.00  0.00     0.062 H 
BRANCH  43  52
ATOM     52  C   LIG d   1       9.812   6.487  -3.438  0.00  0.00    -0.039 C 
ATOM     53  H   LIG d   1      10.312   7.257  -4.028  0.00  0.00     0.028 H 
ATOM     54  H   LIG d   1       9.829   5.543  -3.982  0.00  0.00     0.028 H 
ATOM     55  H   LIG d   1       8.779   6.784  -3.258  0.00  0.00     0.028 H 
ENDBRANCH  43  52
ENDBRANCH  39  42
ENDBRANCH  38  39
ENDBRANCH   4  38
TORSDOF 11
ENDMDL
