MODEL 1
REMARK VINA RESULT:      -8.6      0.000      0.000
REMARK  3 active torsions:
REMARK  status: ('A' for Active; 'I' for Inactive)
REMARK    1  A    between atoms: C_6  and  C_11 
REMARK    2  A    between atoms: N_25  and  C_27 
REMARK    3  A    between atoms: C_27  and  C_28 
ROOT
ATOM      1  C   LIG d   1       7.652   1.117  -4.380  0.00  0.00    -0.032 A 
ATOM      2  C   LIG d   1       8.448   2.249  -4.397  0.00  0.00    -0.057 A 
ATOM      3  C   LIG d   1       8.912   2.758  -5.597  0.00  0.00    -0.060 A 
ATOM      4  C   LIG d   1       8.579   2.144  -6.786  0.00  0.00    -0.044 A 
ATOM      5  C   LIG d   1       7.771   1.005  -6.777  0.00  0.00     0.052 A 
ATOM      6  C   LIG d   1       7.306   0.496  -5.562  0.00  0.00    -0.040 A 
ATOM      7  C   LIG d   1       7.421   0.362  -8.008  0.00  0.00     0.099 C 
ATOM      8  N   LIG d   1       7.144  -0.149  -8.984  0.00  0.00    -0.191 NA
ATOM      9  H   LIG d   1       8.713   2.734  -3.469  0.00  0.00     0.062 H 
ATOM     10  H   LIG d   1       9.538   3.639  -5.602  0.00  0.00     0.062 H 
ATOM     11  H   LIG d   1       8.943   2.542  -7.722  0.00  0.00     0.063 H 
ATOM     12  H   LIG d   1       6.681  -0.384  -5.548  0.00  0.00     0.063 H 
ENDROOT
BRANCH   1  13
ATOM     13  C   LIG d   1       7.155   0.567  -3.068  0.00  0.00     0.024 C 
ATOM     14  H   LIG d   1       7.024   1.391  -2.352  0.00  0.00     0.048 H 
ATOM     15  H   LIG d   1       7.887  -0.151  -2.671  0.00  0.00     0.048 H 
BRANCH  13  16
ATOM     16  N   LIG d   1       5.868  -0.110  -3.277  0.00  0.00    -0.297 N 
ATOM     17  C   LIG d   1       4.847   0.408  -2.362  0.00  0.00     0.004 C 
ATOM     18  C   LIG d   1       3.499  -0.250  -2.613  0.00  0.00    -0.009 C 
ATOM     19  H   LIG d   1       4.758   1.493  -2.512  0.00  0.00     0.043 H 
ATOM     20  H   LIG d   1       5.167   0.206  -1.328  0.00  0.00     0.043 H 
ATOM     21  C   LIG d   1       3.614  -1.776  -2.527  0.00  0.00    -0.038 C 
ATOM     22  H   LIG d   1       2.817   0.118  -1.833  0.00  0.00     0.033 H 
ATOM     23  C   LIG d   1       2.923   0.137  -3.964  0.00  0.00     0.030 C 
ATOM     24  C   LIG d   1       4.676  -2.216  -3.542  0.00  0.00     0.013 C 
ATOM     25  H   LIG d   1       2.652  -2.247  -2.776  0.00  0.00     0.028 H 
ATOM     26  H   LIG d   1       3.922  -2.081  -1.518  0.00  0.00     0.028 H 
ATOM     27  C   LIG d   1       4.307  -1.687  -4.909  0.00  0.00     0.034 C 
ATOM     28  H   LIG d   1       4.740  -3.313  -3.574  0.00  0.00     0.038 H 
ATOM     29  C   LIG d   1       6.012  -1.568  -3.141  0.00  0.00     0.007 C 
ATOM     30  C   LIG d   1       4.747  -2.393  -5.999  0.00  0.00     0.002 C 
ATOM     31  N   LIG d   1       3.577  -0.562  -5.071  0.00  0.00    -0.311 N 
ATOM     32  C   LIG d   1       4.481  -1.926  -7.303  0.00  0.00    -0.047 C 
ATOM     33  C   LIG d   1       3.818  -0.746  -7.452  0.00  0.00     0.004 C 
ATOM     34  H   LIG d   1       4.797  -2.493  -8.165  0.00  0.00     0.063 H 
ATOM     35  C   LIG d   1       3.396  -0.046  -6.312  0.00  0.00     0.252 C 
ATOM     36  H   LIG d   1       3.620  -0.353  -8.439  0.00  0.00     0.067 H 
ATOM     37  O   LIG d   1       2.858   1.042  -6.439  0.00  0.00    -0.268 OA
ATOM     38  H   LIG d   1       6.250  -1.831  -2.100  0.00  0.00     0.043 H 
ATOM     39  H   LIG d   1       6.811  -1.935  -3.804  0.00  0.00     0.043 H 
ATOM     40  H   LIG d   1       3.052   1.223  -4.089  0.00  0.00     0.050 H 
ATOM     41  H   LIG d   1       1.851  -0.107  -3.959  0.00  0.00     0.050 H 
BRANCH  30  42
ATOM     42  C   LIG d   1       5.505  -3.653  -5.806  0.00  0.00    -0.016 A 
ATOM     43  C   LIG d   1       4.826  -4.853  -5.701  0.00  0.00    -0.046 A 
ATOM     44  C   LIG d   1       5.548  -6.042  -5.519  0.00  0.00    -0.017 A 
ATOM     45  H   LIG d   1       3.748  -4.874  -5.760  0.00  0.00     0.063 H 
ATOM     46  C   LIG d   1       4.892  -7.281  -5.408  0.00  0.00    -0.054 A 
ATOM     47  C   LIG d   1       6.963  -5.994  -5.445  0.00  0.00    -0.018 A 
ATOM     48  C   LIG d   1       5.623  -8.416  -5.232  0.00  0.00    -0.061 A 
ATOM     49  H   LIG d   1       3.816  -7.332  -5.463  0.00  0.00     0.062 H 
ATOM     50  C   LIG d   1       7.014  -8.369  -5.161  0.00  0.00    -0.061 A 
ATOM     51  H   LIG d   1       5.118  -9.366  -5.148  0.00  0.00     0.062 H 
ATOM     52  C   LIG d   1       7.683  -7.188  -5.262  0.00  0.00    -0.054 A 
ATOM     53  H   LIG d   1       7.571  -9.284  -5.020  0.00  0.00     0.062 H 
ATOM     54  H   LIG d   1       8.761  -7.167  -5.205  0.00  0.00     0.062 H 
ATOM     55  C   LIG d   1       7.625  -4.757  -5.555  0.00  0.00    -0.053 A 
ATOM     56  C   LIG d   1       6.908  -3.619  -5.737  0.00  0.00    -0.053 A 
ATOM     57  H   LIG d   1       8.702  -4.714  -5.501  0.00  0.00     0.062 H 
ATOM     58  H   LIG d   1       7.422  -2.673  -5.826  0.00  0.00     0.062 H 
ENDBRANCH  30  42
ENDBRANCH  13  16
ENDBRANCH   1  13
TORSDOF 3
ENDMDL
MODEL 2
REMARK VINA RESULT:      -8.2      1.314      2.211
REMARK  3 active torsions:
REMARK  status: ('A' for Active; 'I' for Inactive)
REMARK    1  A    between atoms: C_6  and  C_11 
REMARK    2  A    between atoms: N_25  and  C_27 
REMARK    3  A    between atoms: C_27  and  C_28 
ROOT
ATOM      1  C   LIG d   1       7.625   1.059  -4.356  0.00  0.00    -0.032 A 
ATOM      2  C   LIG d   1       7.300   0.476  -5.568  0.00  0.00    -0.057 A 
ATOM      3  C   LIG d   1       7.762   1.022  -6.752  0.00  0.00    -0.060 A 
ATOM      4  C   LIG d   1       8.557   2.150  -6.732  0.00  0.00    -0.044 A 
ATOM      5  C   LIG d   1       8.894   2.740  -5.513  0.00  0.00     0.052 A 
ATOM      6  C   LIG d   1       8.424   2.184  -4.321  0.00  0.00    -0.040 A 
ATOM      7  C   LIG d   1       9.719   3.911  -5.484  0.00  0.00     0.099 C 
ATOM      8  N   LIG d   1      10.372   4.840  -5.460  0.00  0.00    -0.191 NA
ATOM      9  H   LIG d   1       6.677  -0.406  -5.590  0.00  0.00     0.062 H 
ATOM     10  H   LIG d   1       7.500   0.565  -7.695  0.00  0.00     0.062 H 
ATOM     11  H   LIG d   1       8.917   2.575  -7.657  0.00  0.00     0.063 H 
ATOM     12  H   LIG d   1       8.680   2.635  -3.375  0.00  0.00     0.063 H 
ENDROOT
BRANCH   1  13
ATOM     13  C   LIG d   1       7.113   0.460  -3.072  0.00  0.00     0.024 C 
ATOM     14  H   LIG d   1       7.019   1.250  -2.312  0.00  0.00     0.048 H 
ATOM     15  H   LIG d   1       7.817  -0.307  -2.718  0.00  0.00     0.048 H 
BRANCH  13  16
ATOM     16  N   LIG d   1       5.798  -0.152  -3.307  0.00  0.00    -0.297 N 
ATOM     17  C   LIG d   1       4.782   0.430  -2.426  0.00  0.00     0.004 C 
ATOM     18  C   LIG d   1       3.409  -0.161  -2.706  0.00  0.00    -0.009 C 
ATOM     19  H   LIG d   1       4.754   1.517  -2.592  0.00  0.00     0.043 H 
ATOM     20  H   LIG d   1       5.063   0.226  -1.382  0.00  0.00     0.043 H 
ATOM     21  C   LIG d   1       3.442  -1.689  -2.600  0.00  0.00    -0.038 C 
ATOM     22  H   LIG d   1       2.726   0.252  -1.949  0.00  0.00     0.033 H 
ATOM     23  C   LIG d   1       2.889   0.238  -4.077  0.00  0.00     0.030 C 
ATOM     24  C   LIG d   1       4.506  -2.197  -3.580  0.00  0.00     0.013 C 
ATOM     25  H   LIG d   1       2.464  -2.113  -2.868  0.00  0.00     0.028 H 
ATOM     26  H   LIG d   1       3.707  -1.997  -1.578  0.00  0.00     0.028 H 
ATOM     27  C   LIG d   1       4.201  -1.667  -4.962  0.00  0.00     0.034 C 
ATOM     28  H   LIG d   1       4.513  -3.296  -3.597  0.00  0.00     0.038 H 
ATOM     29  C   LIG d   1       5.863  -1.614  -3.151  0.00  0.00     0.007 C 
ATOM     30  C   LIG d   1       4.632  -2.410  -6.031  0.00  0.00     0.002 C 
ATOM     31  N   LIG d   1       3.535  -0.508  -5.157  0.00  0.00    -0.311 N 
ATOM     32  C   LIG d   1       4.425  -1.946  -7.347  0.00  0.00    -0.047 C 
ATOM     33  C   LIG d   1       3.829  -0.736  -7.528  0.00  0.00     0.004 C 
ATOM     34  H   LIG d   1       4.734  -2.541  -8.194  0.00  0.00     0.063 H 
ATOM     35  C   LIG d   1       3.414  -0.000  -6.409  0.00  0.00     0.252 C 
ATOM     36  H   LIG d   1       3.677  -0.346  -8.525  0.00  0.00     0.067 H 
ATOM     37  O   LIG d   1       2.937   1.112  -6.563  0.00  0.00    -0.268 OA
ATOM     38  H   LIG d   1       6.059  -1.875  -2.100  0.00  0.00     0.043 H 
ATOM     39  H   LIG d   1       6.658  -2.030  -3.787  0.00  0.00     0.043 H 
ATOM     40  H   LIG d   1       3.078   1.314  -4.211  0.00  0.00     0.050 H 
ATOM     41  H   LIG d   1       1.806   0.050  -4.098  0.00  0.00     0.050 H 
BRANCH  30  42
ATOM     42  C   LIG d   1       5.318  -3.704  -5.804  0.00  0.00    -0.016 A 
ATOM     43  C   LIG d   1       6.682  -3.727  -5.578  0.00  0.00    -0.046 A 
ATOM     44  C   LIG d   1       7.326  -4.956  -5.363  0.00  0.00    -0.017 A 
ATOM     45  H   LIG d   1       7.247  -2.807  -5.565  0.00  0.00     0.063 H 
ATOM     46  C   LIG d   1       8.711  -5.019  -5.129  0.00  0.00    -0.054 A 
ATOM     47  C   LIG d   1       6.568  -6.154  -5.383  0.00  0.00    -0.018 A 
ATOM     48  C   LIG d   1       9.305  -6.227  -4.924  0.00  0.00    -0.061 A 
ATOM     49  H   LIG d   1       9.300  -4.116  -5.112  0.00  0.00     0.062 H 
ATOM     50  C   LIG d   1       8.559  -7.405  -4.943  0.00  0.00    -0.061 A 
ATOM     51  H   LIG d   1      10.368  -6.274  -4.745  0.00  0.00     0.062 H 
ATOM     52  C   LIG d   1       7.217  -7.381  -5.167  0.00  0.00    -0.054 A 
ATOM     53  H   LIG d   1       9.055  -8.350  -4.778  0.00  0.00     0.062 H 
ATOM     54  H   LIG d   1       6.652  -8.303  -5.177  0.00  0.00     0.062 H 
ATOM     55  C   LIG d   1       5.181  -6.096  -5.616  0.00  0.00    -0.053 A 
ATOM     56  C   LIG d   1       4.577  -4.897  -5.815  0.00  0.00    -0.053 A 
ATOM     57  H   LIG d   1       4.598  -7.005  -5.631  0.00  0.00     0.062 H 
ATOM     58  H   LIG d   1       3.511  -4.860  -5.989  0.00  0.00     0.062 H 
ENDBRANCH  30  42
ENDBRANCH  13  16
ENDBRANCH   1  13
TORSDOF 3
ENDMDL
MODEL 3
REMARK VINA RESULT:      -8.2      2.358      6.161
REMARK  3 active torsions:
REMARK  status: ('A' for Active; 'I' for Inactive)
REMARK    1  A    between atoms: C_6  and  C_11 
REMARK    2  A    between atoms: N_25  and  C_27 
REMARK    3  A    between atoms: C_27  and  C_28 
ROOT
ATOM      1  C   LIG d   1       2.968   0.508  -6.962  0.00  0.00    -0.032 A 
ATOM      2  C   LIG d   1       2.793   1.556  -7.848  0.00  0.00    -0.057 A 
ATOM      3  C   LIG d   1       3.426   1.544  -9.078  0.00  0.00    -0.060 A 
ATOM      4  C   LIG d   1       4.233   0.482  -9.432  0.00  0.00    -0.044 A 
ATOM      5  C   LIG d   1       4.409  -0.582  -8.545  0.00  0.00     0.052 A 
ATOM      6  C   LIG d   1       3.767  -0.563  -7.305  0.00  0.00    -0.040 A 
ATOM      7  C   LIG d   1       5.245  -1.688  -8.905  0.00  0.00     0.099 C 
ATOM      8  N   LIG d   1       5.909  -2.565  -9.191  0.00  0.00    -0.191 NA
ATOM      9  H   LIG d   1       2.163   2.390  -7.576  0.00  0.00     0.062 H 
ATOM     10  H   LIG d   1       3.289   2.368  -9.763  0.00  0.00     0.062 H 
ATOM     11  H   LIG d   1       4.726   0.474 -10.392  0.00  0.00     0.063 H 
ATOM     12  H   LIG d   1       3.899  -1.382  -6.614  0.00  0.00     0.063 H 
ENDROOT
BRANCH   1  13
ATOM     13  C   LIG d   1       2.278   0.532  -5.622  0.00  0.00     0.024 C 
ATOM     14  H   LIG d   1       1.359  -0.069  -5.672  0.00  0.00     0.048 H 
ATOM     15  H   LIG d   1       2.023   1.570  -5.360  0.00  0.00     0.048 H 
BRANCH  13  16
ATOM     16  N   LIG d   1       3.173  -0.026  -4.600  0.00  0.00    -0.297 N 
ATOM     17  C   LIG d   1       2.418  -0.460  -3.421  0.00  0.00     0.004 C 
ATOM     18  C   LIG d   1       3.334  -1.091  -2.383  0.00  0.00    -0.009 C 
ATOM     19  H   LIG d   1       1.663  -1.194  -3.738  0.00  0.00     0.043 H 
ATOM     20  H   LIG d   1       1.917   0.416  -2.983  0.00  0.00     0.043 H 
ATOM     21  C   LIG d   1       4.471  -0.134  -2.007  0.00  0.00    -0.038 C 
ATOM     22  H   LIG d   1       2.714  -1.301  -1.500  0.00  0.00     0.033 H 
ATOM     23  C   LIG d   1       3.922  -2.405  -2.871  0.00  0.00     0.030 C 
ATOM     24  C   LIG d   1       5.214   0.230  -3.298  0.00  0.00     0.013 C 
ATOM     25  H   LIG d   1       5.166  -0.621  -1.308  0.00  0.00     0.028 H 
ATOM     26  H   LIG d   1       4.067   0.778  -1.546  0.00  0.00     0.028 H 
ATOM     27  C   LIG d   1       5.660  -1.039  -3.988  0.00  0.00     0.034 C 
ATOM     28  H   LIG d   1       6.089   0.855  -3.069  0.00  0.00     0.038 H 
ATOM     29  C   LIG d   1       4.221   0.940  -4.233  0.00  0.00     0.007 C 
ATOM     30  C   LIG d   1       6.773  -0.965  -4.786  0.00  0.00     0.002 C 
ATOM     31  N   LIG d   1       5.000  -2.208  -3.841  0.00  0.00    -0.311 N 
ATOM     32  C   LIG d   1       7.213  -2.100  -5.499  0.00  0.00    -0.047 C 
ATOM     33  C   LIG d   1       6.488  -3.249  -5.410  0.00  0.00     0.004 C 
ATOM     34  H   LIG d   1       8.106  -2.057  -6.104  0.00  0.00     0.063 H 
ATOM     35  C   LIG d   1       5.348  -3.281  -4.594  0.00  0.00     0.252 C 
ATOM     36  H   LIG d   1       6.789  -4.128  -5.962  0.00  0.00     0.067 H 
ATOM     37  O   LIG d   1       4.661  -4.288  -4.560  0.00  0.00    -0.268 OA
ATOM     38  H   LIG d   1       3.778   1.802  -3.712  0.00  0.00     0.043 H 
ATOM     39  H   LIG d   1       4.750   1.287  -5.133  0.00  0.00     0.043 H 
ATOM     40  H   LIG d   1       3.112  -2.986  -3.335  0.00  0.00     0.050 H 
ATOM     41  H   LIG d   1       4.310  -2.948  -1.997  0.00  0.00     0.050 H 
BRANCH  30  42
ATOM     42  C   LIG d   1       7.518   0.312  -4.899  0.00  0.00    -0.016 A 
ATOM     43  C   LIG d   1       7.822   0.821  -6.148  0.00  0.00    -0.046 A 
ATOM     44  C   LIG d   1       8.527   2.030  -6.249  0.00  0.00    -0.017 A 
ATOM     45  H   LIG d   1       7.516   0.292  -7.039  0.00  0.00     0.063 H 
ATOM     46  C   LIG d   1       8.852   2.579  -7.503  0.00  0.00    -0.054 A 
ATOM     47  C   LIG d   1       8.918   2.710  -5.069  0.00  0.00    -0.018 A 
ATOM     48  C   LIG d   1       9.538   3.754  -7.565  0.00  0.00    -0.061 A 
ATOM     49  H   LIG d   1       8.561   2.072  -8.409  0.00  0.00     0.062 H 
ATOM     50  C   LIG d   1       9.921   4.422  -6.404  0.00  0.00    -0.061 A 
ATOM     51  H   LIG d   1       9.787   4.173  -8.528  0.00  0.00     0.062 H 
ATOM     52  C   LIG d   1       9.624   3.920  -5.174  0.00  0.00    -0.054 A 
ATOM     53  H   LIG d   1      10.465   5.353  -6.482  0.00  0.00     0.062 H 
ATOM     54  H   LIG d   1       9.928   4.451  -4.284  0.00  0.00     0.062 H 
ATOM     55  C   LIG d   1       8.594   2.166  -3.812  0.00  0.00    -0.053 A 
ATOM     56  C   LIG d   1       7.906   0.998  -3.736  0.00  0.00    -0.053 A 
ATOM     57  H   LIG d   1       8.888   2.679  -2.909  0.00  0.00     0.062 H 
ATOM     58  H   LIG d   1       7.657   0.587  -2.768  0.00  0.00     0.062 H 
ENDBRANCH  30  42
ENDBRANCH  13  16
ENDBRANCH   1  13
TORSDOF 3
ENDMDL
MODEL 4
REMARK VINA RESULT:      -7.7      2.013      4.775
REMARK  3 active torsions:
REMARK  status: ('A' for Active; 'I' for Inactive)
REMARK    1  A    between atoms: C_6  and  C_11 
REMARK    2  A    between atoms: N_25  and  C_27 
REMARK    3  A    between atoms: C_27  and  C_28 
ROOT
ATOM      1  C   LIG d   1       5.350  -0.058  -8.075  0.00  0.00    -0.032 A 
ATOM      2  C   LIG d   1       4.564  -0.207  -9.203  0.00  0.00    -0.057 A 
ATOM      3  C   LIG d   1       3.185  -0.251  -9.093  0.00  0.00    -0.060 A 
ATOM      4  C   LIG d   1       2.585  -0.140  -7.856  0.00  0.00    -0.044 A 
ATOM      5  C   LIG d   1       3.372   0.016  -6.713  0.00  0.00     0.052 A 
ATOM      6  C   LIG d   1       4.764   0.060  -6.832  0.00  0.00    -0.040 A 
ATOM      7  C   LIG d   1       2.757   0.132  -5.425  0.00  0.00     0.099 C 
ATOM      8  N   LIG d   1       2.269   0.222  -4.403  0.00  0.00    -0.191 NA
ATOM      9  H   LIG d   1       5.028  -0.295 -10.175  0.00  0.00     0.062 H 
ATOM     10  H   LIG d   1       2.577  -0.373  -9.977  0.00  0.00     0.062 H 
ATOM     11  H   LIG d   1       1.509  -0.175  -7.771  0.00  0.00     0.063 H 
ATOM     12  H   LIG d   1       5.378   0.180  -5.953  0.00  0.00     0.063 H 
ENDROOT
BRANCH   1  13
ATOM     13  C   LIG d   1       6.851  -0.016  -8.205  0.00  0.00     0.024 C 
ATOM     14  H   LIG d   1       7.140   0.829  -8.846  0.00  0.00     0.048 H 
ATOM     15  H   LIG d   1       7.206  -0.955  -8.655  0.00  0.00     0.048 H 
BRANCH  13  16
ATOM     16  N   LIG d   1       7.454   0.149  -6.875  0.00  0.00    -0.297 N 
ATOM     17  C   LIG d   1       8.170   1.424  -6.778  0.00  0.00     0.004 C 
ATOM     18  C   LIG d   1       8.747   1.624  -5.385  0.00  0.00    -0.009 C 
ATOM     19  H   LIG d   1       7.469   2.239  -7.005  0.00  0.00     0.043 H 
ATOM     20  H   LIG d   1       8.986   1.426  -7.516  0.00  0.00     0.043 H 
ATOM     21  C   LIG d   1       9.639   0.443  -4.990  0.00  0.00    -0.038 C 
ATOM     22  H   LIG d   1       9.344   2.548  -5.419  0.00  0.00     0.033 H 
ATOM     23  C   LIG d   1       7.658   1.806  -4.341  0.00  0.00     0.030 C 
ATOM     24  C   LIG d   1       8.790  -0.830  -5.091  0.00  0.00     0.013 C 
ATOM     25  H   LIG d   1       9.998   0.562  -3.957  0.00  0.00     0.028 H 
ATOM     26  H   LIG d   1      10.498   0.366  -5.670  0.00  0.00     0.028 H 
ATOM     27  C   LIG d   1       7.547  -0.667  -4.246  0.00  0.00     0.034 C 
ATOM     28  H   LIG d   1       9.365  -1.700  -4.742  0.00  0.00     0.038 H 
ATOM     29  C   LIG d   1       8.337  -0.983  -6.553  0.00  0.00     0.007 C 
ATOM     30  C   LIG d   1       6.974  -1.806  -3.741  0.00  0.00     0.002 C 
ATOM     31  N   LIG d   1       7.005   0.544  -3.992  0.00  0.00    -0.311 N 
ATOM     32  C   LIG d   1       5.785  -1.728  -2.987  0.00  0.00    -0.047 C 
ATOM     33  C   LIG d   1       5.201  -0.511  -2.810  0.00  0.00     0.004 C 
ATOM     34  H   LIG d   1       5.346  -2.617  -2.560  0.00  0.00     0.063 H 
ATOM     35  C   LIG d   1       5.811   0.629  -3.354  0.00  0.00     0.252 C 
ATOM     36  H   LIG d   1       4.278  -0.424  -2.256  0.00  0.00     0.067 H 
ATOM     37  O   LIG d   1       5.259   1.712  -3.253  0.00  0.00    -0.268 OA
ATOM     38  H   LIG d   1       9.218  -0.977  -7.213  0.00  0.00     0.043 H 
ATOM     39  H   LIG d   1       7.796  -1.934  -6.672  0.00  0.00     0.043 H 
ATOM     40  H   LIG d   1       6.912   2.504  -4.748  0.00  0.00     0.050 H 
ATOM     41  H   LIG d   1       8.118   2.241  -3.442  0.00  0.00     0.050 H 
BRANCH  30  42
ATOM     42  C   LIG d   1       7.608  -3.124  -3.986  0.00  0.00    -0.016 A 
ATOM     43  C   LIG d   1       8.708  -3.506  -3.240  0.00  0.00    -0.046 A 
ATOM     44  C   LIG d   1       9.303  -4.754  -3.477  0.00  0.00    -0.017 A 
ATOM     45  H   LIG d   1       9.104  -2.848  -2.480  0.00  0.00     0.063 H 
ATOM     46  C   LIG d   1      10.422  -5.178  -2.738  0.00  0.00    -0.054 A 
ATOM     47  C   LIG d   1       8.769  -5.604  -4.478  0.00  0.00    -0.018 A 
ATOM     48  C   LIG d   1      10.976  -6.395  -2.993  0.00  0.00    -0.061 A 
ATOM     49  H   LIG d   1      10.840  -4.541  -1.973  0.00  0.00     0.062 H 
ATOM     50  C   LIG d   1      10.450  -7.230  -3.976  0.00  0.00    -0.061 A 
ATOM     51  H   LIG d   1      11.835  -6.718  -2.424  0.00  0.00     0.062 H 
ATOM     52  C   LIG d   1       9.368  -6.853  -4.712  0.00  0.00    -0.054 A 
ATOM     53  H   LIG d   1      10.909  -8.191  -4.159  0.00  0.00     0.062 H 
ATOM     54  H   LIG d   1       8.971  -7.512  -5.470  0.00  0.00     0.062 H 
ATOM     55  C   LIG d   1       7.649  -5.186  -5.220  0.00  0.00    -0.053 A 
ATOM     56  C   LIG d   1       7.084  -3.976  -4.972  0.00  0.00    -0.053 A 
ATOM     57  H   LIG d   1       7.236  -5.828  -5.983  0.00  0.00     0.062 H 
ATOM     58  H   LIG d   1       6.221  -3.663  -5.542  0.00  0.00     0.062 H 
ENDBRANCH  30  42
ENDBRANCH  13  16
ENDBRANCH   1  13
TORSDOF 3
ENDMDL
MODEL 5
REMARK VINA RESULT:      -7.4      4.298      6.889
REMARK  3 active torsions:
REMARK  status: ('A' for Active; 'I' for Inactive)
REMARK    1  A    between atoms: C_6  and  C_11 
REMARK    2  A    between atoms: N_25  and  C_27 
REMARK    3  A    between atoms: C_27  and  C_28 
ROOT
ATOM      1  C   LIG d   1      12.779   0.518  -4.377  0.00  0.00    -0.032 A 
ATOM      2  C   LIG d   1      13.225  -0.701  -3.897  0.00  0.00    -0.057 A 
ATOM      3  C   LIG d   1      12.944  -1.868  -4.584  0.00  0.00    -0.060 A 
ATOM      4  C   LIG d   1      12.222  -1.824  -5.758  0.00  0.00    -0.044 A 
ATOM      5  C   LIG d   1      11.773  -0.598  -6.252  0.00  0.00     0.052 A 
ATOM      6  C   LIG d   1      12.060   0.577  -5.553  0.00  0.00    -0.040 A 
ATOM      7  C   LIG d   1      11.022  -0.544  -7.470  0.00  0.00     0.099 C 
ATOM      8  N   LIG d   1      10.425  -0.502  -8.436  0.00  0.00    -0.191 NA
ATOM      9  H   LIG d   1      13.791  -0.741  -2.977  0.00  0.00     0.062 H 
ATOM     10  H   LIG d   1      13.292  -2.816  -4.200  0.00  0.00     0.062 H 
ATOM     11  H   LIG d   1      12.003  -2.736  -6.293  0.00  0.00     0.063 H 
ATOM     12  H   LIG d   1      11.716   1.528  -5.929  0.00  0.00     0.063 H 
ENDROOT
BRANCH   1  13
ATOM     13  C   LIG d   1      13.085   1.783  -3.619  0.00  0.00     0.024 C 
ATOM     14  H   LIG d   1      13.996   2.244  -4.027  0.00  0.00     0.048 H 
ATOM     15  H   LIG d   1      13.240   1.545  -2.556  0.00  0.00     0.048 H 
BRANCH  13  16
ATOM     16  N   LIG d   1      11.961   2.719  -3.753  0.00  0.00    -0.297 N 
ATOM     17  C   LIG d   1      12.323   4.050  -3.255  0.00  0.00     0.004 C 
ATOM     18  C   LIG d   1      11.181   5.036  -3.445  0.00  0.00    -0.009 C 
ATOM     19  H   LIG d   1      13.207   4.403  -3.805  0.00  0.00     0.043 H 
ATOM     20  H   LIG d   1      12.564   3.970  -2.184  0.00  0.00     0.043 H 
ATOM     21  C   LIG d   1       9.897   4.516  -2.789  0.00  0.00    -0.038 C 
ATOM     22  H   LIG d   1      11.491   5.976  -2.965  0.00  0.00     0.033 H 
ATOM     23  C   LIG d   1      10.917   5.322  -4.914  0.00  0.00     0.030 C 
ATOM     24  C   LIG d   1       9.590   3.144  -3.401  0.00  0.00     0.013 C 
ATOM     25  H   LIG d   1       9.060   5.201  -2.988  0.00  0.00     0.028 H 
ATOM     26  H   LIG d   1      10.036   4.412  -1.704  0.00  0.00     0.028 H 
ATOM     27  C   LIG d   1       9.522   3.275  -4.906  0.00  0.00     0.034 C 
ATOM     28  H   LIG d   1       8.632   2.763  -3.018  0.00  0.00     0.038 H 
ATOM     29  C   LIG d   1      10.762   2.205  -3.072  0.00  0.00     0.007 C 
ATOM     30  C   LIG d   1       8.733   2.380  -5.581  0.00  0.00     0.002 C 
ATOM     31  N   LIG d   1      10.207   4.227  -5.576  0.00  0.00    -0.311 N 
ATOM     32  C   LIG d   1       8.666   2.415  -6.990  0.00  0.00    -0.047 C 
ATOM     33  C   LIG d   1       9.428   3.324  -7.659  0.00  0.00     0.004 C 
ATOM     34  H   LIG d   1       8.023   1.733  -7.526  0.00  0.00     0.063 H 
ATOM     35  C   LIG d   1      10.232   4.214  -6.932  0.00  0.00     0.252 C 
ATOM     36  H   LIG d   1       9.413   3.359  -8.738  0.00  0.00     0.067 H 
ATOM     37  O   LIG d   1      10.964   4.987  -7.528  0.00  0.00    -0.268 OA
ATOM     38  H   LIG d   1      10.923   2.185  -1.983  0.00  0.00     0.043 H 
ATOM     39  H   LIG d   1      10.530   1.190  -3.427  0.00  0.00     0.043 H 
ATOM     40  H   LIG d   1      11.887   5.481  -5.407  0.00  0.00     0.050 H 
ATOM     41  H   LIG d   1      10.317   6.241  -4.979  0.00  0.00     0.050 H 
BRANCH  30  42
ATOM     42  C   LIG d   1       7.948   1.372  -4.829  0.00  0.00    -0.016 A 
ATOM     43  C   LIG d   1       6.913   1.781  -4.010  0.00  0.00    -0.046 A 
ATOM     44  C   LIG d   1       6.173   0.823  -3.300  0.00  0.00    -0.017 A 
ATOM     45  H   LIG d   1       6.675   2.831  -3.917  0.00  0.00     0.063 H 
ATOM     46  C   LIG d   1       5.112   1.201  -2.457  0.00  0.00    -0.054 A 
ATOM     47  C   LIG d   1       6.499  -0.551  -3.434  0.00  0.00    -0.018 A 
ATOM     48  C   LIG d   1       4.414   0.245  -1.783  0.00  0.00    -0.061 A 
ATOM     49  H   LIG d   1       4.853   2.242  -2.345  0.00  0.00     0.062 H 
ATOM     50  C   LIG d   1       4.735  -1.104  -1.917  0.00  0.00    -0.061 A 
ATOM     51  H   LIG d   1       3.601   0.538  -1.137  0.00  0.00     0.062 H 
ATOM     52  C   LIG d   1       5.755  -1.507  -2.723  0.00  0.00    -0.054 A 
ATOM     53  H   LIG d   1       4.166  -1.842  -1.370  0.00  0.00     0.062 H 
ATOM     54  H   LIG d   1       5.991  -2.557  -2.816  0.00  0.00     0.062 H 
ATOM     55  C   LIG d   1       7.559  -0.935  -4.277  0.00  0.00    -0.053 A 
ATOM     56  C   LIG d   1       8.258   0.008  -4.959  0.00  0.00    -0.053 A 
ATOM     57  H   LIG d   1       7.811  -1.979  -4.385  0.00  0.00     0.062 H 
ATOM     58  H   LIG d   1       9.068  -0.294  -5.608  0.00  0.00     0.062 H 
ENDBRANCH  30  42
ENDBRANCH  13  16
ENDBRANCH   1  13
TORSDOF 3
ENDMDL
MODEL 6
REMARK VINA RESULT:      -7.3      2.342      4.627
REMARK  3 active torsions:
REMARK  status: ('A' for Active; 'I' for Inactive)
REMARK    1  A    between atoms: C_6  and  C_11 
REMARK    2  A    between atoms: N_25  and  C_27 
REMARK    3  A    between atoms: C_27  and  C_28 
ROOT
ATOM      1  C   LIG d   1       4.648   0.498  -8.629  0.00  0.00    -0.032 A 
ATOM      2  C   LIG d   1       3.714   0.404  -7.613  0.00  0.00    -0.057 A 
ATOM      3  C   LIG d   1       2.455  -0.111  -7.868  0.00  0.00    -0.060 A 
ATOM      4  C   LIG d   1       2.124  -0.539  -9.136  0.00  0.00    -0.044 A 
ATOM      5  C   LIG d   1       3.064  -0.452 -10.166  0.00  0.00     0.052 A 
ATOM      6  C   LIG d   1       4.334   0.068  -9.902  0.00  0.00    -0.040 A 
ATOM      7  C   LIG d   1       2.728  -0.895 -11.486  0.00  0.00     0.099 C 
ATOM      8  N   LIG d   1       2.462  -1.245 -12.533  0.00  0.00    -0.191 NA
ATOM      9  H   LIG d   1       3.966   0.739  -6.618  0.00  0.00     0.062 H 
ATOM     10  H   LIG d   1       1.728  -0.176  -7.070  0.00  0.00     0.062 H 
ATOM     11  H   LIG d   1       1.141  -0.940  -9.333  0.00  0.00     0.063 H 
ATOM     12  H   LIG d   1       5.064   0.138 -10.693  0.00  0.00     0.063 H 
ENDROOT
BRANCH   1  13
ATOM     13  C   LIG d   1       6.015   1.065  -8.344  0.00  0.00     0.024 C 
ATOM     14  H   LIG d   1       5.933   2.147  -8.167  0.00  0.00     0.048 H 
ATOM     15  H   LIG d   1       6.674   0.883  -9.205  0.00  0.00     0.048 H 
BRANCH  13  16
ATOM     16  N   LIG d   1       6.576   0.415  -7.152  0.00  0.00    -0.297 N 
ATOM     17  C   LIG d   1       7.872   1.000  -6.794  0.00  0.00     0.004 C 
ATOM     18  C   LIG d   1       8.429   0.368  -5.528  0.00  0.00    -0.009 C 
ATOM     19  H   LIG d   1       7.738   2.080  -6.638  0.00  0.00     0.043 H 
ATOM     20  H   LIG d   1       8.573   0.834  -7.626  0.00  0.00     0.043 H 
ATOM     21  C   LIG d   1       8.516  -1.155  -5.672  0.00  0.00    -0.038 C 
ATOM     22  H   LIG d   1       9.435   0.788  -5.381  0.00  0.00     0.033 H 
ATOM     23  C   LIG d   1       7.591   0.713  -4.308  0.00  0.00     0.030 C 
ATOM     24  C   LIG d   1       7.110  -1.667  -6.009  0.00  0.00     0.013 C 
ATOM     25  H   LIG d   1       8.855  -1.610  -4.730  0.00  0.00     0.028 H 
ATOM     26  H   LIG d   1       9.209  -1.425  -6.481  0.00  0.00     0.028 H 
ATOM     27  C   LIG d   1       6.140  -1.187  -4.954  0.00  0.00     0.034 C 
ATOM     28  H   LIG d   1       7.105  -2.766  -6.046  0.00  0.00     0.038 H 
ATOM     29  C   LIG d   1       6.685  -1.040  -7.347  0.00  0.00     0.007 C 
ATOM     30  C   LIG d   1       5.024  -1.952  -4.729  0.00  0.00     0.002 C 
ATOM     31  N   LIG d   1       6.345  -0.051  -4.253  0.00  0.00    -0.311 N 
ATOM     32  C   LIG d   1       4.054  -1.534  -3.795  0.00  0.00    -0.047 C 
ATOM     33  C   LIG d   1       4.229  -0.344  -3.157  0.00  0.00     0.004 C 
ATOM     34  H   LIG d   1       3.189  -2.147  -3.590  0.00  0.00     0.063 H 
ATOM     35  C   LIG d   1       5.377   0.416  -3.424  0.00  0.00     0.252 C 
ATOM     36  H   LIG d   1       3.491   0.012  -2.453  0.00  0.00     0.067 H 
ATOM     37  O   LIG d   1       5.508   1.511  -2.904  0.00  0.00    -0.268 OA
ATOM     38  H   LIG d   1       7.441  -1.264  -8.115  0.00  0.00     0.043 H 
ATOM     39  H   LIG d   1       5.715  -1.456  -7.655  0.00  0.00     0.043 H 
ATOM     40  H   LIG d   1       7.361   1.788  -4.348  0.00  0.00     0.050 H 
ATOM     41  H   LIG d   1       8.192   0.499  -3.412  0.00  0.00     0.050 H 
BRANCH  30  42
ATOM     42  C   LIG d   1       4.837  -3.222  -5.470  0.00  0.00    -0.016 A 
ATOM     43  C   LIG d   1       4.253  -3.206  -6.723  0.00  0.00    -0.046 A 
ATOM     44  C   LIG d   1       4.079  -4.412  -7.420  0.00  0.00    -0.017 A 
ATOM     45  H   LIG d   1       3.936  -2.272  -7.163  0.00  0.00     0.063 H 
ATOM     46  C   LIG d   1       3.490  -4.435  -8.697  0.00  0.00    -0.054 A 
ATOM     47  C   LIG d   1       4.502  -5.628  -6.827  0.00  0.00    -0.018 A 
ATOM     48  C   LIG d   1       3.335  -5.622  -9.345  0.00  0.00    -0.061 A 
ATOM     49  H   LIG d   1       3.163  -3.517  -9.160  0.00  0.00     0.062 H 
ATOM     50  C   LIG d   1       3.753  -6.817  -8.762  0.00  0.00    -0.061 A 
ATOM     51  H   LIG d   1       2.883  -5.638 -10.325  0.00  0.00     0.062 H 
ATOM     52  C   LIG d   1       4.325  -6.833  -7.527  0.00  0.00    -0.054 A 
ATOM     53  H   LIG d   1       3.618  -7.745  -9.298  0.00  0.00     0.062 H 
ATOM     54  H   LIG d   1       4.644  -7.768  -7.089  0.00  0.00     0.062 H 
ATOM     55  C   LIG d   1       5.092  -5.611  -5.549  0.00  0.00    -0.053 A 
ATOM     56  C   LIG d   1       5.258  -4.433  -4.894  0.00  0.00    -0.053 A 
ATOM     57  H   LIG d   1       5.418  -6.533  -5.093  0.00  0.00     0.062 H 
ATOM     58  H   LIG d   1       5.715  -4.427  -3.916  0.00  0.00     0.062 H 
ENDBRANCH  30  42
ENDBRANCH  13  16
ENDBRANCH   1  13
TORSDOF 3
ENDMDL
MODEL 7
REMARK VINA RESULT:      -7.3      3.063      7.413
REMARK  3 active torsions:
REMARK  status: ('A' for Active; 'I' for Inactive)
REMARK    1  A    between atoms: C_6  and  C_11 
REMARK    2  A    between atoms: N_25  and  C_27 
REMARK    3  A    between atoms: C_27  and  C_28 
ROOT
ATOM      1  C   LIG d   1       7.714  -7.488  -4.584  0.00  0.00    -0.032 A 
ATOM      2  C   LIG d   1       7.504  -8.849  -4.446  0.00  0.00    -0.057 A 
ATOM      3  C   LIG d   1       6.321  -9.420  -4.879  0.00  0.00    -0.060 A 
ATOM      4  C   LIG d   1       5.344  -8.637  -5.459  0.00  0.00    -0.044 A 
ATOM      5  C   LIG d   1       5.552  -7.264  -5.607  0.00  0.00     0.052 A 
ATOM      6  C   LIG d   1       6.749  -6.694  -5.167  0.00  0.00    -0.040 A 
ATOM      7  C   LIG d   1       4.543  -6.445  -6.207  0.00  0.00     0.099 C 
ATOM      8  N   LIG d   1       3.742  -5.794  -6.683  0.00  0.00    -0.191 NA
ATOM      9  H   LIG d   1       8.265  -9.467  -3.992  0.00  0.00     0.062 H 
ATOM     10  H   LIG d   1       6.162 -10.483  -4.763  0.00  0.00     0.062 H 
ATOM     11  H   LIG d   1       4.422  -9.085  -5.796  0.00  0.00     0.063 H 
ATOM     12  H   LIG d   1       6.916  -5.633  -5.278  0.00  0.00     0.063 H 
ENDROOT
BRANCH   1  13
ATOM     13  C   LIG d   1       9.004  -6.874  -4.104  0.00  0.00     0.024 C 
ATOM     14  H   LIG d   1       9.835  -7.568  -4.297  0.00  0.00     0.048 H 
ATOM     15  H   LIG d   1       8.936  -6.676  -3.024  0.00  0.00     0.048 H 
BRANCH  13  16
ATOM     16  N   LIG d   1       9.242  -5.613  -4.819  0.00  0.00    -0.297 N 
ATOM     17  C   LIG d   1      10.663  -5.453  -5.142  0.00  0.00     0.004 C 
ATOM     18  C   LIG d   1      10.906  -4.176  -5.933  0.00  0.00    -0.009 C 
ATOM     19  H   LIG d   1      10.988  -6.319  -5.736  0.00  0.00     0.043 H 
ATOM     20  H   LIG d   1      11.235  -5.417  -4.203  0.00  0.00     0.043 H 
ATOM     21  C   LIG d   1      10.355  -2.959  -5.183  0.00  0.00    -0.038 C 
ATOM     22  H   LIG d   1      11.995  -4.080  -6.053  0.00  0.00     0.033 H 
ATOM     23  C   LIG d   1      10.283  -4.241  -7.317  0.00  0.00     0.030 C 
ATOM     24  C   LIG d   1       8.865  -3.211  -4.926  0.00  0.00     0.013 C 
ATOM     25  H   LIG d   1      10.474  -2.049  -5.790  0.00  0.00     0.028 H 
ATOM     26  H   LIG d   1      10.877  -2.831  -4.224  0.00  0.00     0.028 H 
ATOM     27  C   LIG d   1       8.177  -3.507  -6.239  0.00  0.00     0.034 C 
ATOM     28  H   LIG d   1       8.405  -2.329  -4.458  0.00  0.00     0.038 H 
ATOM     29  C   LIG d   1       8.741  -4.466  -4.046  0.00  0.00     0.007 C 
ATOM     30  C   LIG d   1       6.844  -3.200  -6.337  0.00  0.00     0.002 C 
ATOM     31  N   LIG d   1       8.832  -4.057  -7.285  0.00  0.00    -0.311 N 
ATOM     32  C   LIG d   1       6.131  -3.498  -7.517  0.00  0.00    -0.047 C 
ATOM     33  C   LIG d   1       6.782  -4.130  -8.532  0.00  0.00     0.004 C 
ATOM     34  H   LIG d   1       5.090  -3.231  -7.611  0.00  0.00     0.063 H 
ATOM     35  C   LIG d   1       8.142  -4.440  -8.389  0.00  0.00     0.252 C 
ATOM     36  H   LIG d   1       6.256  -4.391  -9.439  0.00  0.00     0.067 H 
ATOM     37  O   LIG d   1       8.714  -5.062  -9.269  0.00  0.00    -0.268 OA
ATOM     38  H   LIG d   1       9.338  -4.334  -3.131  0.00  0.00     0.043 H 
ATOM     39  H   LIG d   1       7.685  -4.622  -3.776  0.00  0.00     0.043 H 
ATOM     40  H   LIG d   1      10.519  -5.224  -7.749  0.00  0.00     0.050 H 
ATOM     41  H   LIG d   1      10.739  -3.451  -7.932  0.00  0.00     0.050 H 
BRANCH  30  42
ATOM     42  C   LIG d   1       6.150  -2.552  -5.199  0.00  0.00    -0.016 A 
ATOM     43  C   LIG d   1       6.422  -1.231  -4.891  0.00  0.00    -0.046 A 
ATOM     44  C   LIG d   1       5.762  -0.623  -3.813  0.00  0.00    -0.017 A 
ATOM     45  H   LIG d   1       7.136  -0.673  -5.478  0.00  0.00     0.063 H 
ATOM     46  C   LIG d   1       6.012   0.719  -3.471  0.00  0.00    -0.054 A 
ATOM     47  C   LIG d   1       4.827  -1.372  -3.054  0.00  0.00    -0.018 A 
ATOM     48  C   LIG d   1       5.354   1.279  -2.419  0.00  0.00    -0.061 A 
ATOM     49  H   LIG d   1       6.721   1.300  -4.039  0.00  0.00     0.062 H 
ATOM     50  C   LIG d   1       4.434   0.542  -1.674  0.00  0.00    -0.061 A 
ATOM     51  H   LIG d   1       5.547   2.308  -2.158  0.00  0.00     0.062 H 
ATOM     52  C   LIG d   1       4.168  -0.758  -1.976  0.00  0.00    -0.054 A 
ATOM     53  H   LIG d   1       3.927   1.010  -0.844  0.00  0.00     0.062 H 
ATOM     54  H   LIG d   1       3.452  -1.316  -1.389  0.00  0.00     0.062 H 
ATOM     55  C   LIG d   1       4.572  -2.714  -3.393  0.00  0.00    -0.053 A 
ATOM     56  C   LIG d   1       5.217  -3.282  -4.443  0.00  0.00    -0.053 A 
ATOM     57  H   LIG d   1       3.861  -3.289  -2.820  0.00  0.00     0.062 H 
ATOM     58  H   LIG d   1       5.014  -4.312  -4.700  0.00  0.00     0.062 H 
ENDBRANCH  30  42
ENDBRANCH  13  16
ENDBRANCH   1  13
TORSDOF 3
ENDMDL
MODEL 8
REMARK VINA RESULT:      -7.2      2.727      5.918
REMARK  3 active torsions:
REMARK  status: ('A' for Active; 'I' for Inactive)
REMARK    1  A    between atoms: C_6  and  C_11 
REMARK    2  A    between atoms: N_25  and  C_27 
REMARK    3  A    between atoms: C_27  and  C_28 
ROOT
ATOM      1  C   LIG d   1       7.525  -0.225  -8.388  0.00  0.00    -0.032 A 
ATOM      2  C   LIG d   1       7.364   1.135  -8.194  0.00  0.00    -0.057 A 
ATOM      3  C   LIG d   1       8.040   1.781  -7.174  0.00  0.00    -0.060 A 
ATOM      4  C   LIG d   1       8.887   1.072  -6.347  0.00  0.00    -0.044 A 
ATOM      5  C   LIG d   1       9.059  -0.300  -6.540  0.00  0.00     0.052 A 
ATOM      6  C   LIG d   1       8.373  -0.945  -7.572  0.00  0.00    -0.040 A 
ATOM      7  C   LIG d   1       9.936  -1.042  -5.685  0.00  0.00     0.099 C 
ATOM      8  N   LIG d   1      10.631  -1.632  -5.007  0.00  0.00    -0.191 NA
ATOM      9  H   LIG d   1       6.701   1.695  -8.838  0.00  0.00     0.062 H 
ATOM     10  H   LIG d   1       7.905   2.842  -7.025  0.00  0.00     0.062 H 
ATOM     11  H   LIG d   1       9.414   1.577  -5.551  0.00  0.00     0.063 H 
ATOM     12  H   LIG d   1       8.502  -2.006  -7.726  0.00  0.00     0.063 H 
ENDROOT
BRANCH   1  13
ATOM     13  C   LIG d   1       6.780  -0.920  -9.498  0.00  0.00     0.024 C 
ATOM     14  H   LIG d   1       7.489  -1.223 -10.282  0.00  0.00     0.048 H 
ATOM     15  H   LIG d   1       6.034  -0.234  -9.924  0.00  0.00     0.048 H 
BRANCH  13  16
ATOM     16  N   LIG d   1       6.103  -2.110  -8.964  0.00  0.00    -0.297 N 
ATOM     17  C   LIG d   1       5.399  -2.835 -10.025  0.00  0.00     0.004 C 
ATOM     18  C   LIG d   1       4.745  -4.098  -9.487  0.00  0.00    -0.009 C 
ATOM     19  H   LIG d   1       6.123  -3.102 -10.808  0.00  0.00     0.043 H 
ATOM     20  H   LIG d   1       4.628  -2.175 -10.449  0.00  0.00     0.043 H 
ATOM     21  C   LIG d   1       3.817  -3.772  -8.312  0.00  0.00    -0.038 C 
ATOM     22  H   LIG d   1       4.163  -4.531 -10.314  0.00  0.00     0.033 H 
ATOM     23  C   LIG d   1       5.774  -5.125  -9.047  0.00  0.00     0.030 C 
ATOM     24  C   LIG d   1       4.654  -3.051  -7.249  0.00  0.00     0.013 C 
ATOM     25  H   LIG d   1       3.400  -4.696  -7.885  0.00  0.00     0.028 H 
ATOM     26  H   LIG d   1       2.997  -3.118  -8.640  0.00  0.00     0.028 H 
ATOM     27  C   LIG d   1       5.848  -3.906  -6.891  0.00  0.00     0.034 C 
ATOM     28  H   LIG d   1       4.049  -2.864  -6.350  0.00  0.00     0.038 H 
ATOM     29  C   LIG d   1       5.188  -1.749  -7.869  0.00  0.00     0.007 C 
ATOM     30  C   LIG d   1       6.375  -3.759  -5.634  0.00  0.00     0.002 C 
ATOM     31  N   LIG d   1       6.389  -4.784  -7.763  0.00  0.00    -0.311 N 
ATOM     32  C   LIG d   1       7.520  -4.490  -5.255  0.00  0.00    -0.047 C 
ATOM     33  C   LIG d   1       8.108  -5.307  -6.172  0.00  0.00     0.004 C 
ATOM     34  H   LIG d   1       7.922  -4.403  -4.257  0.00  0.00     0.063 H 
ATOM     35  C   LIG d   1       7.546  -5.421  -7.451  0.00  0.00     0.252 C 
ATOM     36  H   LIG d   1       8.999  -5.863  -5.915  0.00  0.00     0.067 H 
ATOM     37  O   LIG d   1       8.104  -6.102  -8.296  0.00  0.00    -0.268 OA
ATOM     38  H   LIG d   1       4.347  -1.155  -8.258  0.00  0.00     0.043 H 
ATOM     39  H   LIG d   1       5.723  -1.169  -7.102  0.00  0.00     0.043 H 
ATOM     40  H   LIG d   1       6.551  -5.181  -9.823  0.00  0.00     0.050 H 
ATOM     41  H   LIG d   1       5.269  -6.099  -8.963  0.00  0.00     0.050 H 
BRANCH  30  42
ATOM     42  C   LIG d   1       5.740  -2.829  -4.670  0.00  0.00    -0.016 A 
ATOM     43  C   LIG d   1       6.223  -1.540  -4.541  0.00  0.00    -0.046 A 
ATOM     44  C   LIG d   1       5.618  -0.664  -3.627  0.00  0.00    -0.017 A 
ATOM     45  H   LIG d   1       7.058  -1.210  -5.141  0.00  0.00     0.063 H 
ATOM     46  C   LIG d   1       6.080   0.655  -3.468  0.00  0.00    -0.054 A 
ATOM     47  C   LIG d   1       4.521  -1.115  -2.849  0.00  0.00    -0.018 A 
ATOM     48  C   LIG d   1       5.471   1.479  -2.573  0.00  0.00    -0.061 A 
ATOM     49  H   LIG d   1       6.914   1.011  -4.053  0.00  0.00     0.062 H 
ATOM     50  C   LIG d   1       4.393   1.036  -1.809  0.00  0.00    -0.061 A 
ATOM     51  H   LIG d   1       5.828   2.491  -2.452  0.00  0.00     0.062 H 
ATOM     52  C   LIG d   1       3.919  -0.234  -1.935  0.00  0.00    -0.054 A 
ATOM     53  H   LIG d   1       3.927   1.710  -1.105  0.00  0.00     0.062 H 
ATOM     54  H   LIG d   1       3.082  -0.563  -1.336  0.00  0.00     0.062 H 
ATOM     55  C   LIG d   1       4.054  -2.433  -3.004  0.00  0.00    -0.053 A 
ATOM     56  C   LIG d   1       4.650  -3.263  -3.898  0.00  0.00    -0.053 A 
ATOM     57  H   LIG d   1       3.219  -2.782  -2.415  0.00  0.00     0.062 H 
ATOM     58  H   LIG d   1       4.283  -4.273  -4.015  0.00  0.00     0.062 H 
ENDBRANCH  30  42
ENDBRANCH  13  16
ENDBRANCH   1  13
TORSDOF 3
ENDMDL
MODEL 9
REMARK VINA RESULT:      -7.2      2.946      6.748
REMARK  3 active torsions:
REMARK  status: ('A' for Active; 'I' for Inactive)
REMARK    1  A    between atoms: C_6  and  C_11 
REMARK    2  A    between atoms: N_25  and  C_27 
REMARK    3  A    between atoms: C_27  and  C_28 
ROOT
ATOM      1  C   LIG d   1       2.839  -2.735  -9.297  0.00  0.00    -0.032 A 
ATOM      2  C   LIG d   1       1.836  -2.842 -10.245  0.00  0.00    -0.057 A 
ATOM      3  C   LIG d   1       1.144  -1.718 -10.660  0.00  0.00    -0.060 A 
ATOM      4  C   LIG d   1       1.454  -0.481 -10.136  0.00  0.00    -0.044 A 
ATOM      5  C   LIG d   1       2.468  -0.364  -9.183  0.00  0.00     0.052 A 
ATOM      6  C   LIG d   1       3.163  -1.503  -8.769  0.00  0.00    -0.040 A 
ATOM      7  C   LIG d   1       2.795   0.918  -8.634  0.00  0.00     0.099 C 
ATOM      8  N   LIG d   1       3.054   1.935  -8.198  0.00  0.00    -0.191 NA
ATOM      9  H   LIG d   1       1.589  -3.809 -10.658  0.00  0.00     0.062 H 
ATOM     10  H   LIG d   1       0.359  -1.810 -11.397  0.00  0.00     0.062 H 
ATOM     11  H   LIG d   1       0.913   0.395 -10.461  0.00  0.00     0.063 H 
ATOM     12  H   LIG d   1       3.948  -1.419  -8.033  0.00  0.00     0.063 H 
ENDROOT
BRANCH   1  13
ATOM     13  C   LIG d   1       3.584  -3.965  -8.848  0.00  0.00     0.024 C 
ATOM     14  H   LIG d   1       3.488  -4.751  -9.611  0.00  0.00     0.048 H 
ATOM     15  H   LIG d   1       3.160  -4.324  -7.898  0.00  0.00     0.048 H 
BRANCH  13  16
ATOM     16  N   LIG d   1       5.003  -3.637  -8.658  0.00  0.00    -0.297 N 
ATOM     17  C   LIG d   1       5.862  -4.723  -9.140  0.00  0.00     0.004 C 
ATOM     18  C   LIG d   1       7.333  -4.363  -8.998  0.00  0.00    -0.009 C 
ATOM     19  H   LIG d   1       5.631  -4.910 -10.198  0.00  0.00     0.043 H 
ATOM     20  H   LIG d   1       5.647  -5.628  -8.552  0.00  0.00     0.043 H 
ATOM     21  C   LIG d   1       7.663  -3.980  -7.551  0.00  0.00    -0.038 C 
ATOM     22  H   LIG d   1       7.907  -5.256  -9.289  0.00  0.00     0.033 H 
ATOM     23  C   LIG d   1       7.730  -3.226  -9.924  0.00  0.00     0.030 C 
ATOM     24  C   LIG d   1       6.739  -2.821  -7.159  0.00  0.00     0.013 C 
ATOM     25  H   LIG d   1       8.710  -3.657  -7.470  0.00  0.00     0.028 H 
ATOM     26  H   LIG d   1       7.488  -4.832  -6.880  0.00  0.00     0.028 H 
ATOM     27  C   LIG d   1       6.896  -1.700  -8.160  0.00  0.00     0.034 C 
ATOM     28  H   LIG d   1       6.991  -2.458  -6.152  0.00  0.00     0.038 H 
ATOM     29  C   LIG d   1       5.287  -3.320  -7.249  0.00  0.00     0.007 C 
ATOM     30  C   LIG d   1       6.641  -0.425  -7.724  0.00  0.00     0.002 C 
ATOM     31  N   LIG d   1       7.268  -1.925  -9.439  0.00  0.00    -0.311 N 
ATOM     32  C   LIG d   1       6.720   0.661  -8.621  0.00  0.00    -0.047 C 
ATOM     33  C   LIG d   1       7.012   0.411  -9.927  0.00  0.00     0.004 C 
ATOM     34  H   LIG d   1       6.551   1.671  -8.277  0.00  0.00     0.063 H 
ATOM     35  C   LIG d   1       7.253  -0.908 -10.337  0.00  0.00     0.252 C 
ATOM     36  H   LIG d   1       7.057   1.221 -10.640  0.00  0.00     0.067 H 
ATOM     37  O   LIG d   1       7.452  -1.145 -11.517  0.00  0.00    -0.268 OA
ATOM     38  H   LIG d   1       5.168  -4.220  -6.626  0.00  0.00     0.043 H 
ATOM     39  H   LIG d   1       4.606  -2.534  -6.891  0.00  0.00     0.043 H 
ATOM     40  H   LIG d   1       7.291  -3.425 -10.913  0.00  0.00     0.050 H 
ATOM     41  H   LIG d   1       8.827  -3.219 -10.003  0.00  0.00     0.050 H 
BRANCH  30  42
ATOM     42  C   LIG d   1       6.283  -0.186  -6.305  0.00  0.00    -0.016 A 
ATOM     43  C   LIG d   1       4.970  -0.332  -5.896  0.00  0.00    -0.046 A 
ATOM     44  C   LIG d   1       4.637  -0.106  -4.552  0.00  0.00    -0.017 A 
ATOM     45  H   LIG d   1       4.208  -0.621  -6.605  0.00  0.00     0.063 H 
ATOM     46  C   LIG d   1       3.313  -0.245  -4.098  0.00  0.00    -0.054 A 
ATOM     47  C   LIG d   1       5.651   0.271  -3.635  0.00  0.00    -0.018 A 
ATOM     48  C   LIG d   1       3.023  -0.018  -2.787  0.00  0.00    -0.061 A 
ATOM     49  H   LIG d   1       2.531  -0.531  -4.784  0.00  0.00     0.062 H 
ATOM     50  C   LIG d   1       4.021   0.352  -1.886  0.00  0.00    -0.061 A 
ATOM     51  H   LIG d   1       2.007  -0.125  -2.441  0.00  0.00     0.062 H 
ATOM     52  C   LIG d   1       5.312   0.497  -2.290  0.00  0.00    -0.054 A 
ATOM     53  H   LIG d   1       3.764   0.527  -0.852  0.00  0.00     0.062 H 
ATOM     54  H   LIG d   1       6.074   0.784  -1.580  0.00  0.00     0.062 H 
ATOM     55  C   LIG d   1       6.977   0.412  -4.084  0.00  0.00    -0.053 A 
ATOM     56  C   LIG d   1       7.280   0.182  -5.387  0.00  0.00    -0.053 A 
ATOM     57  H   LIG d   1       7.754   0.697  -3.391  0.00  0.00     0.062 H 
ATOM     58  H   LIG d   1       8.301   0.288  -5.724  0.00  0.00     0.062 H 
ENDBRANCH  30  42
ENDBRANCH  13  16
ENDBRANCH   1  13
TORSDOF 3
ENDMDL
