MODEL 1
REMARK VINA RESULT:      -4.7      0.000      0.000
REMARK  11 active torsions:
REMARK  status: ('A' for Active; 'I' for Inactive)
REMARK    1  A    between atoms: C_1  and  C_2 
REMARK    2  A    between atoms: C_2  and  C_4 
REMARK    3  A    between atoms: C_2  and  N_36 
REMARK    4  A    between atoms: C_4  and  C_5 
REMARK    5  A    between atoms: C_5  and  C_6 
REMARK    6  A    between atoms: C_6  and  C_7 
REMARK    7  A    between atoms: C_7  and  C_8 
REMARK    8  A    between atoms: C_8  and  C_9 
REMARK    9  A    between atoms: C_9  and  C_10 
REMARK   10  A    between atoms: C_10  and  C_11 
REMARK   11  A    between atoms: C_11  and  C_12 
ROOT
ATOM      1  C   LIG d   1       5.769  -1.458  -5.419  0.00  0.00    -0.053 C 
ATOM      2  H   LIG d   1       6.279  -2.128  -6.110  0.00  0.00     0.026 H 
ATOM      3  H   LIG d   1       6.483  -1.076  -4.688  0.00  0.00     0.026 H 
ENDROOT
BRANCH   1   4
ATOM      4  C   LIG d   1       5.159  -0.290  -6.196  0.00  0.00    -0.048 C 
ATOM      5  H   LIG d   1       5.927   0.176  -6.814  0.00  0.00     0.027 H 
ATOM      6  H   LIG d   1       4.760   0.444  -5.497  0.00  0.00     0.027 H 
BRANCH   4   7
ATOM      7  C   LIG d   1       4.031  -0.808  -7.091  0.00  0.00    -0.010 C 
ATOM      8  H   LIG d   1       3.691  -1.775  -6.724  0.00  0.00     0.032 H 
ATOM      9  H   LIG d   1       4.397  -0.914  -8.112  0.00  0.00     0.032 H 
BRANCH   7  10
ATOM     10  C   LIG d   1       2.866   0.185  -7.069  0.00  0.00    -0.027 C 
ATOM     11  H   LIG d   1       1.927  -0.355  -7.197  0.00  0.00     0.085 H 
BRANCH  10  12
ATOM     12  C   LIG d   1       3.034   1.194  -8.207  0.00  0.00    -0.022 C 
ATOM     13  H   LIG d   1       4.069   1.532  -8.242  0.00  0.00     0.028 H 
ATOM     14  H   LIG d   1       2.774   0.719  -9.153  0.00  0.00     0.028 H 
ATOM     15  H   LIG d   1       2.378   2.048  -8.035  0.00  0.00     0.028 H 
ENDBRANCH  10  12
BRANCH  10  16
ATOM     16  N   LIG d   1       2.849   0.875  -5.768  0.00  0.00     0.221 N 
ATOM     17  H   LIG d   1       3.770   0.825  -5.333  0.00  0.00     0.200 HD
ATOM     18  H   LIG d   1       2.586   1.851  -5.893  0.00  0.00     0.200 HD
ATOM     19  H   LIG d   1       2.164   0.420  -5.152  0.00  0.00     0.200 HD
ENDBRANCH  10  16
ENDBRANCH   7  10
ENDBRANCH   4   7
ENDBRANCH   1   4
BRANCH   1  20
ATOM     20  C   LIG d   1       4.659  -2.223  -4.694  0.00  0.00    -0.053 C 
ATOM     21  H   LIG d   1       3.723  -1.669  -4.776  0.00  0.00     0.026 H 
ATOM     22  H   LIG d   1       4.540  -3.207  -5.147  0.00  0.00     0.026 H 
BRANCH  20  23
ATOM     23  C   LIG d   1       5.030  -2.383  -3.218  0.00  0.00    -0.053 C 
ATOM     24  H   LIG d   1       5.357  -3.406  -3.034  0.00  0.00     0.026 H 
ATOM     25  H   LIG d   1       5.837  -1.693  -2.970  0.00  0.00     0.026 H 
BRANCH  23  26
ATOM     26  C   LIG d   1       3.809  -2.073  -2.349  0.00  0.00    -0.053 C 
ATOM     27  H   LIG d   1       2.983  -2.723  -2.638  0.00  0.00     0.026 H 
ATOM     28  H   LIG d   1       4.057  -2.244  -1.302  0.00  0.00     0.026 H 
BRANCH  26  29
ATOM     29  C   LIG d   1       3.401  -0.612  -2.545  0.00  0.00    -0.048 C 
ATOM     30  H   LIG d   1       3.379  -0.382  -3.611  0.00  0.00     0.027 H 
ATOM     31  H   LIG d   1       2.411  -0.450  -2.118  0.00  0.00     0.027 H 
BRANCH  29  32
ATOM     32  C   LIG d   1       4.413   0.298  -1.847  0.00  0.00    -0.013 C 
ATOM     33  H   LIG d   1       3.956   0.736  -0.960  0.00  0.00     0.033 H 
ATOM     34  H   LIG d   1       5.286  -0.287  -1.555  0.00  0.00     0.033 H 
BRANCH  32  35
ATOM     35  C   LIG d   1       4.836   1.396  -2.789  0.00  0.00     0.042 C 
ATOM     36  O   LIG d   1       4.010   2.147  -3.251  0.00  0.00    -0.550 OA
ATOM     37  O   LIG d   1       6.130   1.537  -3.116  0.00  0.00    -0.550 OA
ENDBRANCH  32  35
ENDBRANCH  29  32
ENDBRANCH  26  29
ENDBRANCH  23  26
ENDBRANCH  20  23
ENDBRANCH   1  20
TORSDOF 11
ENDMDL
MODEL 2
REMARK VINA RESULT:      -4.5      1.839      2.282
REMARK  11 active torsions:
REMARK  status: ('A' for Active; 'I' for Inactive)
REMARK    1  A    between atoms: C_1  and  C_2 
REMARK    2  A    between atoms: C_2  and  C_4 
REMARK    3  A    between atoms: C_2  and  N_36 
REMARK    4  A    between atoms: C_4  and  C_5 
REMARK    5  A    between atoms: C_5  and  C_6 
REMARK    6  A    between atoms: C_6  and  C_7 
REMARK    7  A    between atoms: C_7  and  C_8 
REMARK    8  A    between atoms: C_8  and  C_9 
REMARK    9  A    between atoms: C_9  and  C_10 
REMARK   10  A    between atoms: C_10  and  C_11 
REMARK   11  A    between atoms: C_11  and  C_12 
ROOT
ATOM      1  C   LIG d   1       3.381  -0.267  -5.504  0.00  0.00    -0.053 C 
ATOM      2  H   LIG d   1       3.276  -1.348  -5.580  0.00  0.00     0.026 H 
ATOM      3  H   LIG d   1       4.389  -0.023  -5.165  0.00  0.00     0.026 H 
ENDROOT
BRANCH   1   4
ATOM      4  C   LIG d   1       3.134   0.368  -6.874  0.00  0.00    -0.048 C 
ATOM      5  H   LIG d   1       3.926   1.087  -7.089  0.00  0.00     0.027 H 
ATOM      6  H   LIG d   1       2.172   0.877  -6.871  0.00  0.00     0.027 H 
BRANCH   4   7
ATOM      7  C   LIG d   1       3.131  -0.723  -7.947  0.00  0.00    -0.010 C 
ATOM      8  H   LIG d   1       2.414  -1.497  -7.676  0.00  0.00     0.032 H 
ATOM      9  H   LIG d   1       4.126  -1.160  -8.024  0.00  0.00     0.032 H 
BRANCH   7  10
ATOM     10  C   LIG d   1       2.738  -0.112  -9.294  0.00  0.00    -0.027 C 
ATOM     11  H   LIG d   1       3.507  -0.338 -10.033  0.00  0.00     0.085 H 
BRANCH  10  12
ATOM     12  C   LIG d   1       2.604   1.406  -9.146  0.00  0.00    -0.022 C 
ATOM     13  H   LIG d   1       2.301   1.645  -8.127  0.00  0.00     0.028 H 
ATOM     14  H   LIG d   1       3.562   1.877  -9.361  0.00  0.00     0.028 H 
ATOM     15  H   LIG d   1       1.852   1.773  -9.845  0.00  0.00     0.028 H 
ENDBRANCH  10  12
BRANCH  10  16
ATOM     16  N   LIG d   1       1.462  -0.701  -9.734  0.00  0.00     0.221 N 
ATOM     17  H   LIG d   1       1.607  -1.269 -10.567  0.00  0.00     0.200 HD
ATOM     18  H   LIG d   1       1.071  -1.280  -8.993  0.00  0.00     0.200 HD
ATOM     19  H   LIG d   1       0.799   0.052  -9.954  0.00  0.00     0.200 HD
ENDBRANCH  10  16
ENDBRANCH   7  10
ENDBRANCH   4   7
ENDBRANCH   1   4
BRANCH   1  20
ATOM     20  C   LIG d   1       2.362   0.275  -4.500  0.00  0.00    -0.053 C 
ATOM     21  H   LIG d   1       2.637   1.291  -4.215  0.00  0.00     0.026 H 
ATOM     22  H   LIG d   1       1.371   0.281  -4.955  0.00  0.00     0.026 H 
BRANCH  20  23
ATOM     23  C   LIG d   1       2.345  -0.617  -3.257  0.00  0.00    -0.053 C 
ATOM     24  H   LIG d   1       2.397   0.004  -2.363  0.00  0.00     0.026 H 
ATOM     25  H   LIG d   1       1.425  -1.201  -3.242  0.00  0.00     0.026 H 
BRANCH  23  26
ATOM     26  C   LIG d   1       3.548  -1.563  -3.292  0.00  0.00    -0.053 C 
ATOM     27  H   LIG d   1       3.198  -2.593  -3.365  0.00  0.00     0.026 H 
ATOM     28  H   LIG d   1       4.169  -1.328  -4.155  0.00  0.00     0.026 H 
BRANCH  26  29
ATOM     29  C   LIG d   1       4.368  -1.393  -2.011  0.00  0.00    -0.048 C 
ATOM     30  H   LIG d   1       3.819  -1.816  -1.170  0.00  0.00     0.027 H 
ATOM     31  H   LIG d   1       5.322  -1.908  -2.120  0.00  0.00     0.027 H 
BRANCH  29  32
ATOM     32  C   LIG d   1       4.617   0.096  -1.760  0.00  0.00    -0.013 C 
ATOM     33  H   LIG d   1       3.699   0.654  -1.944  0.00  0.00     0.033 H 
ATOM     34  H   LIG d   1       4.932   0.242  -0.727  0.00  0.00     0.033 H 
BRANCH  32  35
ATOM     35  C   LIG d   1       5.698   0.588  -2.689  0.00  0.00     0.042 C 
ATOM     36  O   LIG d   1       5.687   1.731  -3.077  0.00  0.00    -0.550 OA
ATOM     37  O   LIG d   1       6.672  -0.247  -3.085  0.00  0.00    -0.550 OA
ENDBRANCH  32  35
ENDBRANCH  29  32
ENDBRANCH  26  29
ENDBRANCH  23  26
ENDBRANCH  20  23
ENDBRANCH   1  20
TORSDOF 11
ENDMDL
MODEL 3
REMARK VINA RESULT:      -4.5      3.007      4.975
REMARK  11 active torsions:
REMARK  status: ('A' for Active; 'I' for Inactive)
REMARK    1  A    between atoms: C_1  and  C_2 
REMARK    2  A    between atoms: C_2  and  C_4 
REMARK    3  A    between atoms: C_2  and  N_36 
REMARK    4  A    between atoms: C_4  and  C_5 
REMARK    5  A    between atoms: C_5  and  C_6 
REMARK    6  A    between atoms: C_6  and  C_7 
REMARK    7  A    between atoms: C_7  and  C_8 
REMARK    8  A    between atoms: C_8  and  C_9 
REMARK    9  A    between atoms: C_9  and  C_10 
REMARK   10  A    between atoms: C_10  and  C_11 
REMARK   11  A    between atoms: C_11  and  C_12 
ROOT
ATOM      1  C   LIG d   1       4.326  -0.544  -1.917  0.00  0.00    -0.053 C 
ATOM      2  H   LIG d   1       4.090  -0.896  -0.914  0.00  0.00     0.026 H 
ATOM      3  H   LIG d   1       4.874   0.396  -1.853  0.00  0.00     0.026 H 
ENDROOT
BRANCH   1   4
ATOM      4  C   LIG d   1       5.184  -1.588  -2.635  0.00  0.00    -0.048 C 
ATOM      5  H   LIG d   1       5.824  -2.094  -1.910  0.00  0.00     0.027 H 
ATOM      6  H   LIG d   1       5.804  -1.097  -3.384  0.00  0.00     0.027 H 
BRANCH   4   7
ATOM      7  C   LIG d   1       4.276  -2.614  -3.315  0.00  0.00    -0.010 C 
ATOM      8  H   LIG d   1       3.379  -2.117  -3.683  0.00  0.00     0.032 H 
ATOM      9  H   LIG d   1       3.996  -3.384  -2.597  0.00  0.00     0.032 H 
BRANCH   7  10
ATOM     10  C   LIG d   1       5.021  -3.257  -4.487  0.00  0.00    -0.027 C 
ATOM     11  H   LIG d   1       5.474  -4.193  -4.159  0.00  0.00     0.085 H 
BRANCH  10  12
ATOM     12  C   LIG d   1       6.113  -2.306  -4.981  0.00  0.00    -0.022 C 
ATOM     13  H   LIG d   1       6.156  -1.434  -4.330  0.00  0.00     0.028 H 
ATOM     14  H   LIG d   1       7.075  -2.819  -4.966  0.00  0.00     0.028 H 
ATOM     15  H   LIG d   1       5.885  -1.989  -5.999  0.00  0.00     0.028 H 
ENDBRANCH  10  12
BRANCH  10  16
ATOM     16  N   LIG d   1       4.060  -3.543  -5.566  0.00  0.00     0.221 N 
ATOM     17  H   LIG d   1       4.394  -3.150  -6.445  0.00  0.00     0.200 HD
ATOM     18  H   LIG d   1       3.939  -4.549  -5.669  0.00  0.00     0.200 HD
ATOM     19  H   LIG d   1       3.154  -3.119  -5.334  0.00  0.00     0.200 HD
ENDBRANCH  10  16
ENDBRANCH   7  10
ENDBRANCH   4   7
ENDBRANCH   1   4
BRANCH   1  20
ATOM     20  C   LIG d   1       3.030  -0.326  -2.699  0.00  0.00    -0.053 C 
ATOM     21  H   LIG d   1       2.798  -1.221  -3.276  0.00  0.00     0.026 H 
ATOM     22  H   LIG d   1       2.216  -0.120  -2.004  0.00  0.00     0.026 H 
BRANCH  20  23
ATOM     23  C   LIG d   1       3.200   0.862  -3.649  0.00  0.00    -0.053 C 
ATOM     24  H   LIG d   1       2.809   1.763  -3.178  0.00  0.00     0.026 H 
ATOM     25  H   LIG d   1       4.259   0.999  -3.872  0.00  0.00     0.026 H 
BRANCH  23  26
ATOM     26  C   LIG d   1       2.437   0.591  -4.947  0.00  0.00    -0.053 C 
ATOM     27  H   LIG d   1       1.626  -0.110  -4.752  0.00  0.00     0.026 H 
ATOM     28  H   LIG d   1       2.026   1.525  -5.328  0.00  0.00     0.026 H 
BRANCH  26  29
ATOM     29  C   LIG d   1       3.391  -0.007  -5.983  0.00  0.00    -0.048 C 
ATOM     30  H   LIG d   1       4.393   0.394  -5.828  0.00  0.00     0.027 H 
ATOM     31  H   LIG d   1       3.412  -1.091  -5.875  0.00  0.00     0.027 H 
BRANCH  29  32
ATOM     32  C   LIG d   1       2.908   0.357  -7.389  0.00  0.00    -0.013 C 
ATOM     33  H   LIG d   1       1.898   0.760  -7.333  0.00  0.00     0.033 H 
ATOM     34  H   LIG d   1       3.575   1.104  -7.820  0.00  0.00     0.033 H 
BRANCH  32  35
ATOM     35  C   LIG d   1       2.910  -0.877  -8.255  0.00  0.00     0.042 C 
ATOM     36  O   LIG d   1       3.660  -1.790  -8.004  0.00  0.00    -0.550 OA
ATOM     37  O   LIG d   1       2.079  -0.960  -9.306  0.00  0.00    -0.550 OA
ENDBRANCH  32  35
ENDBRANCH  29  32
ENDBRANCH  26  29
ENDBRANCH  23  26
ENDBRANCH  20  23
ENDBRANCH   1  20
TORSDOF 11
ENDMDL
MODEL 4
REMARK VINA RESULT:      -4.4      2.335      3.069
REMARK  11 active torsions:
REMARK  status: ('A' for Active; 'I' for Inactive)
REMARK    1  A    between atoms: C_1  and  C_2 
REMARK    2  A    between atoms: C_2  and  C_4 
REMARK    3  A    between atoms: C_2  and  N_36 
REMARK    4  A    between atoms: C_4  and  C_5 
REMARK    5  A    between atoms: C_5  and  C_6 
REMARK    6  A    between atoms: C_6  and  C_7 
REMARK    7  A    between atoms: C_7  and  C_8 
REMARK    8  A    between atoms: C_8  and  C_9 
REMARK    9  A    between atoms: C_9  and  C_10 
REMARK   10  A    between atoms: C_10  and  C_11 
REMARK   11  A    between atoms: C_11  and  C_12 
ROOT
ATOM      1  C   LIG d   1       2.841   0.160  -7.317  0.00  0.00    -0.053 C 
ATOM      2  H   LIG d   1       1.833  -0.253  -7.343  0.00  0.00     0.026 H 
ATOM      3  H   LIG d   1       3.462  -0.350  -8.054  0.00  0.00     0.026 H 
ENDROOT
BRANCH   1   4
ATOM      4  C   LIG d   1       2.788   1.654  -7.640  0.00  0.00    -0.048 C 
ATOM      5  H   LIG d   1       3.620   2.162  -7.151  0.00  0.00     0.027 H 
ATOM      6  H   LIG d   1       1.848   2.071  -7.281  0.00  0.00     0.027 H 
BRANCH   4   7
ATOM      7  C   LIG d   1       2.889   1.852  -9.153  0.00  0.00    -0.010 C 
ATOM      8  H   LIG d   1       2.873   2.917  -9.382  0.00  0.00     0.032 H 
ATOM      9  H   LIG d   1       2.045   1.363  -9.641  0.00  0.00     0.032 H 
BRANCH   7  10
ATOM     10  C   LIG d   1       4.196   1.240  -9.662  0.00  0.00    -0.027 C 
ATOM     11  H   LIG d   1       4.300   0.229  -9.269  0.00  0.00     0.085 H 
BRANCH  10  12
ATOM     12  C   LIG d   1       5.376   2.094  -9.193  0.00  0.00    -0.022 C 
ATOM     13  H   LIG d   1       5.242   2.351  -8.143  0.00  0.00     0.028 H 
ATOM     14  H   LIG d   1       6.301   1.532  -9.315  0.00  0.00     0.028 H 
ATOM     15  H   LIG d   1       5.423   3.007  -9.788  0.00  0.00     0.028 H 
ENDBRANCH  10  12
BRANCH  10  16
ATOM     16  N   LIG d   1       4.156   1.181 -11.134  0.00  0.00     0.221 N 
ATOM     17  H   LIG d   1       4.989   1.619 -11.524  0.00  0.00     0.200 HD
ATOM     18  H   LIG d   1       4.105   0.213 -11.443  0.00  0.00     0.200 HD
ATOM     19  H   LIG d   1       3.326   1.684 -11.470  0.00  0.00     0.200 HD
ENDBRANCH  10  16
ENDBRANCH   7  10
ENDBRANCH   4   7
ENDBRANCH   1   4
BRANCH   1  20
ATOM     20  C   LIG d   1       3.438  -0.040  -5.922  0.00  0.00    -0.053 C 
ATOM     21  H   LIG d   1       3.646  -1.098  -5.764  0.00  0.00     0.026 H 
ATOM     22  H   LIG d   1       4.364   0.529  -5.838  0.00  0.00     0.026 H 
BRANCH  20  23
ATOM     23  C   LIG d   1       2.443   0.448  -4.867  0.00  0.00    -0.053 C 
ATOM     24  H   LIG d   1       2.431   1.538  -4.854  0.00  0.00     0.026 H 
ATOM     25  H   LIG d   1       1.446   0.078  -5.109  0.00  0.00     0.026 H 
BRANCH  23  26
ATOM     26  C   LIG d   1       2.861  -0.075  -3.491  0.00  0.00    -0.053 C 
ATOM     27  H   LIG d   1       2.006  -0.547  -3.007  0.00  0.00     0.026 H 
ATOM     28  H   LIG d   1       3.661  -0.805  -3.609  0.00  0.00     0.026 H 
BRANCH  26  29
ATOM     29  C   LIG d   1       3.354   1.090  -2.631  0.00  0.00    -0.048 C 
ATOM     30  H   LIG d   1       3.606   1.935  -3.274  0.00  0.00     0.027 H 
ATOM     31  H   LIG d   1       2.570   1.385  -1.934  0.00  0.00     0.027 H 
BRANCH  29  32
ATOM     32  C   LIG d   1       4.596   0.657  -1.849  0.00  0.00    -0.013 C 
ATOM     33  H   LIG d   1       4.784   1.367  -1.045  0.00  0.00     0.033 H 
ATOM     34  H   LIG d   1       4.432  -0.336  -1.429  0.00  0.00     0.033 H 
BRANCH  32  35
ATOM     35  C   LIG d   1       5.785   0.620  -2.775  0.00  0.00     0.042 C 
ATOM     36  O   LIG d   1       6.207   1.643  -3.257  0.00  0.00    -0.550 OA
ATOM     37  O   LIG d   1       6.373  -0.552  -3.064  0.00  0.00    -0.550 OA
ENDBRANCH  32  35
ENDBRANCH  29  32
ENDBRANCH  26  29
ENDBRANCH  23  26
ENDBRANCH  20  23
ENDBRANCH   1  20
TORSDOF 11
ENDMDL
MODEL 5
REMARK VINA RESULT:      -4.4      2.699      4.188
REMARK  11 active torsions:
REMARK  status: ('A' for Active; 'I' for Inactive)
REMARK    1  A    between atoms: C_1  and  C_2 
REMARK    2  A    between atoms: C_2  and  C_4 
REMARK    3  A    between atoms: C_2  and  N_36 
REMARK    4  A    between atoms: C_4  and  C_5 
REMARK    5  A    between atoms: C_5  and  C_6 
REMARK    6  A    between atoms: C_6  and  C_7 
REMARK    7  A    between atoms: C_7  and  C_8 
REMARK    8  A    between atoms: C_8  and  C_9 
REMARK    9  A    between atoms: C_9  and  C_10 
REMARK   10  A    between atoms: C_10  and  C_11 
REMARK   11  A    between atoms: C_11  and  C_12 
ROOT
ATOM      1  C   LIG d   1       5.855   1.164  -2.979  0.00  0.00    -0.053 C 
ATOM      2  H   LIG d   1       6.741   1.514  -2.448  0.00  0.00     0.026 H 
ATOM      3  H   LIG d   1       5.378   2.005  -3.483  0.00  0.00     0.026 H 
ENDROOT
BRANCH   1   4
ATOM      4  C   LIG d   1       6.263   0.113  -4.012  0.00  0.00    -0.048 C 
ATOM      5  H   LIG d   1       7.225   0.385  -4.448  0.00  0.00     0.027 H 
ATOM      6  H   LIG d   1       5.510   0.063  -4.798  0.00  0.00     0.027 H 
BRANCH   4   7
ATOM      7  C   LIG d   1       6.379  -1.252  -3.331  0.00  0.00    -0.010 C 
ATOM      8  H   LIG d   1       5.592  -1.355  -2.586  0.00  0.00     0.032 H 
ATOM      9  H   LIG d   1       7.352  -1.334  -2.846  0.00  0.00     0.032 H 
BRANCH   7  10
ATOM     10  C   LIG d   1       6.239  -2.359  -4.379  0.00  0.00    -0.027 C 
ATOM     11  H   LIG d   1       6.238  -1.917  -5.376  0.00  0.00     0.085 H 
BRANCH  10  12
ATOM     12  C   LIG d   1       4.926  -3.112  -4.154  0.00  0.00    -0.022 C 
ATOM     13  H   LIG d   1       4.482  -2.791  -3.211  0.00  0.00     0.028 H 
ATOM     14  H   LIG d   1       4.239  -2.896  -4.971  0.00  0.00     0.028 H 
ATOM     15  H   LIG d   1       5.123  -4.183  -4.116  0.00  0.00     0.028 H 
ENDBRANCH  10  12
BRANCH  10  16
ATOM     16  N   LIG d   1       7.385  -3.277  -4.262  0.00  0.00     0.221 N 
ATOM     17  H   LIG d   1       7.868  -3.123  -3.378  0.00  0.00     0.200 HD
ATOM     18  H   LIG d   1       7.066  -4.243  -4.311  0.00  0.00     0.200 HD
ATOM     19  H   LIG d   1       8.039  -3.102  -5.035  0.00  0.00     0.200 HD
ENDBRANCH  10  16
ENDBRANCH   7  10
ENDBRANCH   4   7
ENDBRANCH   1   4
BRANCH   1  20
ATOM     20  C   LIG d   1       4.875   0.545  -1.981  0.00  0.00    -0.053 C 
ATOM     21  H   LIG d   1       5.058  -0.527  -1.908  0.00  0.00     0.026 H 
ATOM     22  H   LIG d   1       5.013   1.005  -1.002  0.00  0.00     0.026 H 
BRANCH  20  23
ATOM     23  C   LIG d   1       3.441   0.786  -2.459  0.00  0.00    -0.053 C 
ATOM     24  H   LIG d   1       2.883   1.310  -1.684  0.00  0.00     0.026 H 
ATOM     25  H   LIG d   1       3.457   1.389  -3.367  0.00  0.00     0.026 H 
BRANCH  23  26
ATOM     26  C   LIG d   1       2.769  -0.558  -2.752  0.00  0.00    -0.053 C 
ATOM     27  H   LIG d   1       3.512  -1.354  -2.705  0.00  0.00     0.026 H 
ATOM     28  H   LIG d   1       1.991  -0.743  -2.012  0.00  0.00     0.026 H 
BRANCH  26  29
ATOM     29  C   LIG d   1       2.147  -0.522  -4.149  0.00  0.00    -0.048 C 
ATOM     30  H   LIG d   1       2.487  -1.386  -4.720  0.00  0.00     0.027 H 
ATOM     31  H   LIG d   1       1.060  -0.549  -4.064  0.00  0.00     0.027 H 
BRANCH  29  32
ATOM     32  C   LIG d   1       2.572   0.762  -4.863  0.00  0.00    -0.013 C 
ATOM     33  H   LIG d   1       1.708   1.417  -4.977  0.00  0.00     0.033 H 
ATOM     34  H   LIG d   1       3.338   1.269  -4.275  0.00  0.00     0.033 H 
BRANCH  32  35
ATOM     35  C   LIG d   1       3.126   0.421  -6.222  0.00  0.00     0.042 C 
ATOM     36  O   LIG d   1       2.998   1.196  -7.140  0.00  0.00    -0.550 OA
ATOM     37  O   LIG d   1       3.763  -0.745  -6.413  0.00  0.00    -0.550 OA
ENDBRANCH  32  35
ENDBRANCH  29  32
ENDBRANCH  26  29
ENDBRANCH  23  26
ENDBRANCH  20  23
ENDBRANCH   1  20
TORSDOF 11
ENDMDL
MODEL 6
REMARK VINA RESULT:      -4.4      2.466      3.321
REMARK  11 active torsions:
REMARK  status: ('A' for Active; 'I' for Inactive)
REMARK    1  A    between atoms: C_1  and  C_2 
REMARK    2  A    between atoms: C_2  and  C_4 
REMARK    3  A    between atoms: C_2  and  N_36 
REMARK    4  A    between atoms: C_4  and  C_5 
REMARK    5  A    between atoms: C_5  and  C_6 
REMARK    6  A    between atoms: C_6  and  C_7 
REMARK    7  A    between atoms: C_7  and  C_8 
REMARK    8  A    between atoms: C_8  and  C_9 
REMARK    9  A    between atoms: C_9  and  C_10 
REMARK   10  A    between atoms: C_10  and  C_11 
REMARK   11  A    between atoms: C_11  and  C_12 
ROOT
ATOM      1  C   LIG d   1       3.428  -0.120  -5.828  0.00  0.00    -0.053 C 
ATOM      2  H   LIG d   1       3.555  -1.178  -5.604  0.00  0.00     0.026 H 
ATOM      3  H   LIG d   1       4.393   0.383  -5.768  0.00  0.00     0.026 H 
ENDROOT
BRANCH   1   4
ATOM      4  C   LIG d   1       2.856   0.037  -7.238  0.00  0.00    -0.048 C 
ATOM      5  H   LIG d   1       2.311   0.979  -7.307  0.00  0.00     0.027 H 
ATOM      6  H   LIG d   1       2.180  -0.790  -7.451  0.00  0.00     0.027 H 
BRANCH   4   7
ATOM      7  C   LIG d   1       4.000   0.035  -8.255  0.00  0.00    -0.010 C 
ATOM      8  H   LIG d   1       3.770  -0.663  -9.059  0.00  0.00     0.032 H 
ATOM      9  H   LIG d   1       4.923  -0.269  -7.762  0.00  0.00     0.032 H 
BRANCH   7  10
ATOM     10  C   LIG d   1       4.171   1.442  -8.833  0.00  0.00    -0.027 C 
ATOM     11  H   LIG d   1       4.980   1.953  -8.310  0.00  0.00     0.085 H 
BRANCH  10  12
ATOM     12  C   LIG d   1       2.871   2.229  -8.654  0.00  0.00    -0.022 C 
ATOM     13  H   LIG d   1       2.606   2.256  -7.597  0.00  0.00     0.028 H 
ATOM     14  H   LIG d   1       3.009   3.246  -9.021  0.00  0.00     0.028 H 
ATOM     15  H   LIG d   1       2.073   1.744  -9.217  0.00  0.00     0.028 H 
ENDBRANCH  10  12
BRANCH  10  16
ATOM     16  N   LIG d   1       4.515   1.334 -10.261  0.00  0.00     0.221 N 
ATOM     17  H   LIG d   1       5.488   1.048 -10.366  0.00  0.00     0.200 HD
ATOM     18  H   LIG d   1       3.910   0.653 -10.716  0.00  0.00     0.200 HD
ATOM     19  H   LIG d   1       4.386   2.249 -10.710  0.00  0.00     0.200 HD
ENDBRANCH  10  16
ENDBRANCH   7  10
ENDBRANCH   4   7
ENDBRANCH   1   4
BRANCH   1  20
ATOM     20  C   LIG d   1       2.465   0.504  -4.815  0.00  0.00    -0.053 C 
ATOM     21  H   LIG d   1       2.785   1.521  -4.589  0.00  0.00     0.026 H 
ATOM     22  H   LIG d   1       1.459   0.524  -5.234  0.00  0.00     0.026 H 
BRANCH  20  23
ATOM     23  C   LIG d   1       2.466  -0.329  -3.531  0.00  0.00    -0.053 C 
ATOM     24  H   LIG d   1       1.463  -0.341  -3.106  0.00  0.00     0.026 H 
ATOM     25  H   LIG d   1       2.776  -1.348  -3.760  0.00  0.00     0.026 H 
BRANCH  23  26
ATOM     26  C   LIG d   1       3.441   0.287  -2.524  0.00  0.00    -0.053 C 
ATOM     27  H   LIG d   1       4.063   1.027  -3.028  0.00  0.00     0.026 H 
ATOM     28  H   LIG d   1       2.880   0.768  -1.724  0.00  0.00     0.026 H 
BRANCH  26  29
ATOM     29  C   LIG d   1       4.328  -0.812  -1.937  0.00  0.00    -0.048 C 
ATOM     30  H   LIG d   1       5.362  -0.645  -2.241  0.00  0.00     0.027 H 
ATOM     31  H   LIG d   1       4.260  -0.791  -0.849  0.00  0.00     0.027 H 
BRANCH  29  32
ATOM     32  C   LIG d   1       3.859  -2.175  -2.452  0.00  0.00    -0.013 C 
ATOM     33  H   LIG d   1       3.848  -2.889  -1.630  0.00  0.00     0.033 H 
ATOM     34  H   LIG d   1       2.855  -2.080  -2.867  0.00  0.00     0.033 H 
BRANCH  32  35
ATOM     35  C   LIG d   1       4.802  -2.658  -3.524  0.00  0.00     0.042 C 
ATOM     36  O   LIG d   1       5.908  -2.182  -3.616  0.00  0.00    -0.550 OA
ATOM     37  O   LIG d   1       4.411  -3.618  -4.377  0.00  0.00    -0.550 OA
ENDBRANCH  32  35
ENDBRANCH  29  32
ENDBRANCH  26  29
ENDBRANCH  23  26
ENDBRANCH  20  23
ENDBRANCH   1  20
TORSDOF 11
ENDMDL
MODEL 7
REMARK VINA RESULT:      -4.4      3.077      4.364
REMARK  11 active torsions:
REMARK  status: ('A' for Active; 'I' for Inactive)
REMARK    1  A    between atoms: C_1  and  C_2 
REMARK    2  A    between atoms: C_2  and  C_4 
REMARK    3  A    between atoms: C_2  and  N_36 
REMARK    4  A    between atoms: C_4  and  C_5 
REMARK    5  A    between atoms: C_5  and  C_6 
REMARK    6  A    between atoms: C_6  and  C_7 
REMARK    7  A    between atoms: C_7  and  C_8 
REMARK    8  A    between atoms: C_8  and  C_9 
REMARK    9  A    between atoms: C_9  and  C_10 
REMARK   10  A    between atoms: C_10  and  C_11 
REMARK   11  A    between atoms: C_11  and  C_12 
ROOT
ATOM      1  C   LIG d   1       4.674   0.207  -2.036  0.00  0.00    -0.053 C 
ATOM      2  H   LIG d   1       4.794   0.433  -0.977  0.00  0.00     0.026 H 
ATOM      3  H   LIG d   1       4.758  -0.869  -2.190  0.00  0.00     0.026 H 
ENDROOT
BRANCH   1   4
ATOM      4  C   LIG d   1       3.299   0.685  -2.507  0.00  0.00    -0.048 C 
ATOM      5  H   LIG d   1       3.398   1.657  -2.991  0.00  0.00     0.027 H 
ATOM      6  H   LIG d   1       2.632   0.773  -1.650  0.00  0.00     0.027 H 
BRANCH   4   7
ATOM      7  C   LIG d   1       2.722  -0.324  -3.502  0.00  0.00    -0.010 C 
ATOM      8  H   LIG d   1       1.770  -0.699  -3.128  0.00  0.00     0.032 H 
ATOM      9  H   LIG d   1       3.418  -1.154  -3.622  0.00  0.00     0.032 H 
BRANCH   7  10
ATOM     10  C   LIG d   1       2.506   0.360  -4.854  0.00  0.00    -0.027 C 
ATOM     11  H   LIG d   1       1.499   0.144  -5.213  0.00  0.00     0.085 H 
BRANCH  10  12
ATOM     12  C   LIG d   1       3.531  -0.167  -5.861  0.00  0.00    -0.022 C 
ATOM     13  H   LIG d   1       3.134  -1.057  -6.349  0.00  0.00     0.028 H 
ATOM     14  H   LIG d   1       3.731   0.600  -6.609  0.00  0.00     0.028 H 
ATOM     15  H   LIG d   1       4.455  -0.419  -5.340  0.00  0.00     0.028 H 
ENDBRANCH  10  12
BRANCH  10  16
ATOM     16  N   LIG d   1       2.653   1.816  -4.684  0.00  0.00     0.221 N 
ATOM     17  H   LIG d   1       3.622   2.090  -4.838  0.00  0.00     0.200 HD
ATOM     18  H   LIG d   1       2.052   2.307  -5.343  0.00  0.00     0.200 HD
ATOM     19  H   LIG d   1       2.381   2.074  -3.727  0.00  0.00     0.200 HD
ENDBRANCH  10  16
ENDBRANCH   7  10
ENDBRANCH   4   7
ENDBRANCH   1   4
BRANCH   1  20
ATOM     20  C   LIG d   1       5.764   0.922  -2.837  0.00  0.00    -0.053 C 
ATOM     21  H   LIG d   1       5.301   1.565  -3.587  0.00  0.00     0.026 H 
ATOM     22  H   LIG d   1       6.372   1.528  -2.165  0.00  0.00     0.026 H 
BRANCH  20  23
ATOM     23  C   LIG d   1       6.650  -0.114  -3.532  0.00  0.00    -0.053 C 
ATOM     24  H   LIG d   1       6.554  -0.009  -4.612  0.00  0.00     0.026 H 
ATOM     25  H   LIG d   1       7.689   0.045  -3.242  0.00  0.00     0.026 H 
BRANCH  23  26
ATOM     26  C   LIG d   1       6.214  -1.520  -3.114  0.00  0.00    -0.053 C 
ATOM     27  H   LIG d   1       6.951  -1.940  -2.428  0.00  0.00     0.026 H 
ATOM     28  H   LIG d   1       5.245  -1.467  -2.619  0.00  0.00     0.026 H 
BRANCH  26  29
ATOM     29  C   LIG d   1       6.106  -2.410  -4.354  0.00  0.00    -0.048 C 
ATOM     30  H   LIG d   1       6.004  -1.784  -5.241  0.00  0.00     0.027 H 
ATOM     31  H   LIG d   1       7.004  -3.021  -4.442  0.00  0.00     0.027 H 
BRANCH  29  32
ATOM     32  C   LIG d   1       4.881  -3.317  -4.225  0.00  0.00    -0.013 C 
ATOM     33  H   LIG d   1       4.885  -3.796  -3.246  0.00  0.00     0.033 H 
ATOM     34  H   LIG d   1       3.975  -2.721  -4.335  0.00  0.00     0.033 H 
BRANCH  32  35
ATOM     35  C   LIG d   1       4.923  -4.372  -5.300  0.00  0.00     0.042 C 
ATOM     36  O   LIG d   1       3.926  -4.632  -5.931  0.00  0.00    -0.550 OA
ATOM     37  O   LIG d   1       6.068  -5.024  -5.556  0.00  0.00    -0.550 OA
ENDBRANCH  32  35
ENDBRANCH  29  32
ENDBRANCH  26  29
ENDBRANCH  23  26
ENDBRANCH  20  23
ENDBRANCH   1  20
TORSDOF 11
ENDMDL
MODEL 8
REMARK VINA RESULT:      -4.3      3.052      5.192
REMARK  11 active torsions:
REMARK  status: ('A' for Active; 'I' for Inactive)
REMARK    1  A    between atoms: C_1  and  C_2 
REMARK    2  A    between atoms: C_2  and  C_4 
REMARK    3  A    between atoms: C_2  and  N_36 
REMARK    4  A    between atoms: C_4  and  C_5 
REMARK    5  A    between atoms: C_5  and  C_6 
REMARK    6  A    between atoms: C_6  and  C_7 
REMARK    7  A    between atoms: C_7  and  C_8 
REMARK    8  A    between atoms: C_8  and  C_9 
REMARK    9  A    between atoms: C_9  and  C_10 
REMARK   10  A    between atoms: C_10  and  C_11 
REMARK   11  A    between atoms: C_11  and  C_12 
ROOT
ATOM      1  C   LIG d   1       3.423   0.879  -2.560  0.00  0.00    -0.053 C 
ATOM      2  H   LIG d   1       2.697   1.210  -1.818  0.00  0.00     0.026 H 
ATOM      3  H   LIG d   1       3.733   1.727  -3.170  0.00  0.00     0.026 H 
ENDROOT
BRANCH   1   4
ATOM      4  C   LIG d   1       4.643   0.288  -1.850  0.00  0.00    -0.048 C 
ATOM      5  H   LIG d   1       4.347  -0.087  -0.869  0.00  0.00     0.027 H 
ATOM      6  H   LIG d   1       5.403   1.058  -1.730  0.00  0.00     0.027 H 
BRANCH   4   7
ATOM      7  C   LIG d   1       5.210  -0.862  -2.684  0.00  0.00    -0.010 C 
ATOM      8  H   LIG d   1       4.601  -0.998  -3.578  0.00  0.00     0.032 H 
ATOM      9  H   LIG d   1       5.198  -1.779  -2.095  0.00  0.00     0.032 H 
BRANCH   7  10
ATOM     10  C   LIG d   1       6.649  -0.537  -3.091  0.00  0.00    -0.027 C 
ATOM     11  H   LIG d   1       7.119   0.062  -2.311  0.00  0.00     0.085 H 
BRANCH  10  12
ATOM     12  C   LIG d   1       6.643   0.249  -4.404  0.00  0.00    -0.022 C 
ATOM     13  H   LIG d   1       7.458   0.972  -4.397  0.00  0.00     0.028 H 
ATOM     14  H   LIG d   1       6.774  -0.439  -5.239  0.00  0.00     0.028 H 
ATOM     15  H   LIG d   1       5.693   0.773  -4.509  0.00  0.00     0.028 H 
ENDBRANCH  10  12
BRANCH  10  16
ATOM     16  N   LIG d   1       7.399  -1.795  -3.247  0.00  0.00     0.221 N 
ATOM     17  H   LIG d   1       8.399  -1.619  -3.165  0.00  0.00     0.200 HD
ATOM     18  H   LIG d   1       7.113  -2.464  -2.535  0.00  0.00     0.200 HD
ATOM     19  H   LIG d   1       7.205  -2.192  -4.175  0.00  0.00     0.200 HD
ENDBRANCH  10  16
ENDBRANCH   7  10
ENDBRANCH   4   7
ENDBRANCH   1   4
BRANCH   1  20
ATOM     20  C   LIG d   1       2.788  -0.187  -3.454  0.00  0.00    -0.053 C 
ATOM     21  H   LIG d   1       3.494  -1.004  -3.606  0.00  0.00     0.026 H 
ATOM     22  H   LIG d   1       1.885  -0.572  -2.978  0.00  0.00     0.026 H 
BRANCH  20  23
ATOM     23  C   LIG d   1       2.425   0.431  -4.806  0.00  0.00    -0.053 C 
ATOM     24  H   LIG d   1       1.408   0.148  -5.074  0.00  0.00     0.026 H 
ATOM     25  H   LIG d   1       2.494   1.517  -4.739  0.00  0.00     0.026 H 
BRANCH  23  26
ATOM     26  C   LIG d   1       3.396  -0.076  -5.876  0.00  0.00    -0.053 C 
ATOM     27  H   LIG d   1       4.287   0.552  -5.884  0.00  0.00     0.026 H 
ATOM     28  H   LIG d   1       3.677  -1.104  -5.651  0.00  0.00     0.026 H 
BRANCH  26  29
ATOM     29  C   LIG d   1       2.718  -0.019  -7.246  0.00  0.00    -0.048 C 
ATOM     30  H   LIG d   1       2.341  -1.009  -7.506  0.00  0.00     0.027 H 
ATOM     31  H   LIG d   1       1.890   0.689  -7.213  0.00  0.00     0.027 H 
BRANCH  29  32
ATOM     32  C   LIG d   1       3.734   0.432  -8.298  0.00  0.00    -0.013 C 
ATOM     33  H   LIG d   1       4.731   0.441  -7.860  0.00  0.00     0.033 H 
ATOM     34  H   LIG d   1       3.713  -0.259  -9.142  0.00  0.00     0.033 H 
BRANCH  32  35
ATOM     35  C   LIG d   1       3.381   1.818  -8.774  0.00  0.00     0.042 C 
ATOM     36  O   LIG d   1       2.815   2.585  -8.034  0.00  0.00    -0.550 OA
ATOM     37  O   LIG d   1       3.698   2.198 -10.022  0.00  0.00    -0.550 OA
ENDBRANCH  32  35
ENDBRANCH  29  32
ENDBRANCH  26  29
ENDBRANCH  23  26
ENDBRANCH  20  23
ENDBRANCH   1  20
TORSDOF 11
ENDMDL
MODEL 9
REMARK VINA RESULT:      -4.3      2.048      2.615
REMARK  11 active torsions:
REMARK  status: ('A' for Active; 'I' for Inactive)
REMARK    1  A    between atoms: C_1  and  C_2 
REMARK    2  A    between atoms: C_2  and  C_4 
REMARK    3  A    between atoms: C_2  and  N_36 
REMARK    4  A    between atoms: C_4  and  C_5 
REMARK    5  A    between atoms: C_5  and  C_6 
REMARK    6  A    between atoms: C_6  and  C_7 
REMARK    7  A    between atoms: C_7  and  C_8 
REMARK    8  A    between atoms: C_8  and  C_9 
REMARK    9  A    between atoms: C_9  and  C_10 
REMARK   10  A    between atoms: C_10  and  C_11 
REMARK   11  A    between atoms: C_11  and  C_12 
ROOT
ATOM      1  C   LIG d   1       2.503   0.541  -4.907  0.00  0.00    -0.053 C 
ATOM      2  H   LIG d   1       3.015   1.383  -4.442  0.00  0.00     0.026 H 
ATOM      3  H   LIG d   1       1.580   0.887  -5.372  0.00  0.00     0.026 H 
ENDROOT
BRANCH   1   4
ATOM      4  C   LIG d   1       3.409  -0.081  -5.971  0.00  0.00    -0.048 C 
ATOM      5  H   LIG d   1       3.406  -1.167  -5.863  0.00  0.00     0.027 H 
ATOM      6  H   LIG d   1       4.425   0.293  -5.848  0.00  0.00     0.027 H 
BRANCH   4   7
ATOM      7  C   LIG d   1       2.893   0.293  -7.362  0.00  0.00    -0.010 C 
ATOM      8  H   LIG d   1       2.448   1.287  -7.329  0.00  0.00     0.032 H 
ATOM      9  H   LIG d   1       2.141  -0.431  -7.678  0.00  0.00     0.032 H 
BRANCH   7  10
ATOM     10  C   LIG d   1       4.055   0.287  -8.357  0.00  0.00    -0.027 C 
ATOM     11  H   LIG d   1       3.834   0.970  -9.177  0.00  0.00     0.085 H 
BRANCH  10  12
ATOM     12  C   LIG d   1       4.247  -1.128  -8.909  0.00  0.00    -0.022 C 
ATOM     13  H   LIG d   1       5.115  -1.146  -9.567  0.00  0.00     0.028 H 
ATOM     14  H   LIG d   1       4.402  -1.821  -8.082  0.00  0.00     0.028 H 
ATOM     15  H   LIG d   1       3.359  -1.422  -9.470  0.00  0.00     0.028 H 
ENDBRANCH  10  12
BRANCH  10  16
ATOM     16  N   LIG d   1       5.276   0.741  -7.670  0.00  0.00     0.221 N 
ATOM     17  H   LIG d   1       6.101   0.424  -8.177  0.00  0.00     0.200 HD
ATOM     18  H   LIG d   1       5.285   1.757  -7.608  0.00  0.00     0.200 HD
ATOM     19  H   LIG d   1       5.297   0.348  -6.721  0.00  0.00     0.200 HD
ENDBRANCH  10  16
ENDBRANCH   7  10
ENDBRANCH   4   7
ENDBRANCH   1   4
BRANCH   1  20
ATOM     20  C   LIG d   1       2.175  -0.507  -3.842  0.00  0.00    -0.053 C 
ATOM     21  H   LIG d   1       1.202  -0.286  -3.402  0.00  0.00     0.026 H 
ATOM     22  H   LIG d   1       2.151  -1.496  -4.299  0.00  0.00     0.026 H 
BRANCH  20  23
ATOM     23  C   LIG d   1       3.247  -0.478  -2.750  0.00  0.00    -0.053 C 
ATOM     24  H   LIG d   1       2.878  -0.994  -1.864  0.00  0.00     0.026 H 
ATOM     25  H   LIG d   1       4.147  -0.975  -3.112  0.00  0.00     0.026 H 
BRANCH  23  26
ATOM     26  C   LIG d   1       3.575   0.975  -2.395  0.00  0.00    -0.053 C 
ATOM     27  H   LIG d   1       3.357   1.615  -3.250  0.00  0.00     0.026 H 
ATOM     28  H   LIG d   1       2.970   1.285  -1.545  0.00  0.00     0.026 H 
BRANCH  26  29
ATOM     29  C   LIG d   1       5.058   1.089  -2.037  0.00  0.00    -0.048 C 
ATOM     30  H   LIG d   1       5.399   2.108  -2.224  0.00  0.00     0.027 H 
ATOM     31  H   LIG d   1       5.196   0.848  -0.983  0.00  0.00     0.027 H 
BRANCH  29  32
ATOM     32  C   LIG d   1       5.866   0.114  -2.895  0.00  0.00    -0.013 C 
ATOM     33  H   LIG d   1       6.498  -0.498  -2.251  0.00  0.00     0.033 H 
ATOM     34  H   LIG d   1       5.185  -0.529  -3.454  0.00  0.00     0.033 H 
BRANCH  32  35
ATOM     35  C   LIG d   1       6.730   0.888  -3.857  0.00  0.00     0.042 C 
ATOM     36  O   LIG d   1       6.683   0.648  -5.039  0.00  0.00    -0.550 OA
ATOM     37  O   LIG d   1       7.552   1.845  -3.398  0.00  0.00    -0.550 OA
ENDBRANCH  32  35
ENDBRANCH  29  32
ENDBRANCH  26  29
ENDBRANCH  23  26
ENDBRANCH  20  23
ENDBRANCH   1  20
TORSDOF 11
ENDMDL
MODEL 10
REMARK VINA RESULT:      -4.3      2.193      4.065
REMARK  11 active torsions:
REMARK  status: ('A' for Active; 'I' for Inactive)
REMARK    1  A    between atoms: C_1  and  C_2 
REMARK    2  A    between atoms: C_2  and  C_4 
REMARK    3  A    between atoms: C_2  and  N_36 
REMARK    4  A    between atoms: C_4  and  C_5 
REMARK    5  A    between atoms: C_5  and  C_6 
REMARK    6  A    between atoms: C_6  and  C_7 
REMARK    7  A    between atoms: C_7  and  C_8 
REMARK    8  A    between atoms: C_8  and  C_9 
REMARK    9  A    between atoms: C_9  and  C_10 
REMARK   10  A    between atoms: C_10  and  C_11 
REMARK   11  A    between atoms: C_11  and  C_12 
ROOT
ATOM      1  C   LIG d   1       6.797   0.051  -3.519  0.00  0.00    -0.053 C 
ATOM      2  H   LIG d   1       6.740   0.071  -4.607  0.00  0.00     0.026 H 
ATOM      3  H   LIG d   1       7.804   0.321  -3.202  0.00  0.00     0.026 H 
ENDROOT
BRANCH   1   4
ATOM      4  C   LIG d   1       5.793   1.049  -2.939  0.00  0.00    -0.048 C 
ATOM      5  H   LIG d   1       5.270   1.554  -3.752  0.00  0.00     0.027 H 
ATOM      6  H   LIG d   1       6.321   1.787  -2.335  0.00  0.00     0.027 H 
BRANCH   4   7
ATOM      7  C   LIG d   1       4.781   0.305  -2.065  0.00  0.00    -0.010 C 
ATOM      8  H   LIG d   1       4.888   0.627  -1.030  0.00  0.00     0.032 H 
ATOM      9  H   LIG d   1       4.963  -0.768  -2.133  0.00  0.00     0.032 H 
BRANCH   7  10
ATOM     10  C   LIG d   1       3.363   0.613  -2.552  0.00  0.00    -0.027 C 
ATOM     11  H   LIG d   1       2.774   1.009  -1.725  0.00  0.00     0.085 H 
BRANCH  10  12
ATOM     12  C   LIG d   1       2.713  -0.671  -3.073  0.00  0.00    -0.022 C 
ATOM     13  H   LIG d   1       3.456  -1.467  -3.103  0.00  0.00     0.028 H 
ATOM     14  H   LIG d   1       1.898  -0.959  -2.409  0.00  0.00     0.028 H 
ATOM     15  H   LIG d   1       2.322  -0.499  -4.076  0.00  0.00     0.028 H 
ENDBRANCH  10  12
BRANCH  10  16
ATOM     16  N   LIG d   1       3.433   1.625  -3.620  0.00  0.00     0.221 N 
ATOM     17  H   LIG d   1       2.564   2.156  -3.656  0.00  0.00     0.200 HD
ATOM     18  H   LIG d   1       4.211   2.259  -3.451  0.00  0.00     0.200 HD
ATOM     19  H   LIG d   1       3.574   1.155  -4.523  0.00  0.00     0.200 HD
ENDBRANCH  10  16
ENDBRANCH   7  10
ENDBRANCH   4   7
ENDBRANCH   1   4
BRANCH   1  20
ATOM     20  C   LIG d   1       6.465  -1.355  -3.017  0.00  0.00    -0.053 C 
ATOM     21  H   LIG d   1       7.195  -1.655  -2.265  0.00  0.00     0.026 H 
ATOM     22  H   LIG d   1       5.468  -1.359  -2.576  0.00  0.00     0.026 H 
BRANCH  20  23
ATOM     23  C   LIG d   1       6.507  -2.339  -4.189  0.00  0.00    -0.053 C 
ATOM     24  H   LIG d   1       6.699  -1.795  -5.113  0.00  0.00     0.026 H 
ATOM     25  H   LIG d   1       7.302  -3.066  -4.023  0.00  0.00     0.026 H 
BRANCH  23  26
ATOM     26  C   LIG d   1       5.164  -3.066  -4.293  0.00  0.00    -0.053 C 
ATOM     27  H   LIG d   1       5.287  -4.102  -3.977  0.00  0.00     0.026 H 
ATOM     28  H   LIG d   1       4.435  -2.574  -3.650  0.00  0.00     0.026 H 
BRANCH  26  29
ATOM     29  C   LIG d   1       4.675  -3.028  -5.742  0.00  0.00    -0.048 C 
ATOM     30  H   LIG d   1       4.938  -3.963  -6.238  0.00  0.00     0.027 H 
ATOM     31  H   LIG d   1       3.593  -2.901  -5.757  0.00  0.00     0.027 H 
BRANCH  29  32
ATOM     32  C   LIG d   1       5.337  -1.859  -6.472  0.00  0.00    -0.013 C 
ATOM     33  H   LIG d   1       6.138  -1.452  -5.855  0.00  0.00     0.033 H 
ATOM     34  H   LIG d   1       5.749  -2.209  -7.420  0.00  0.00     0.033 H 
BRANCH  32  35
ATOM     35  C   LIG d   1       4.312  -0.786  -6.736  0.00  0.00     0.042 C 
ATOM     36  O   LIG d   1       4.323   0.233  -6.089  0.00  0.00    -0.550 OA
ATOM     37  O   LIG d   1       3.386  -0.965  -7.692  0.00  0.00    -0.550 OA
ENDBRANCH  32  35
ENDBRANCH  29  32
ENDBRANCH  26  29
ENDBRANCH  23  26
ENDBRANCH  20  23
ENDBRANCH   1  20
TORSDOF 11
ENDMDL
