MODEL 1
REMARK VINA RESULT:      -6.3      0.000      0.000
REMARK  8 active torsions:
REMARK  status: ('A' for Active; 'I' for Inactive)
REMARK    1  A    between atoms: C_4  and  C_7 
REMARK    2  A    between atoms: C_7  and  C_9 
REMARK    3  A    between atoms: C_7  and  N_16 
REMARK    4  A    between atoms: N_19  and  C_22 
REMARK    5  A    between atoms: C_22  and  C_23 
REMARK    6  A    between atoms: C_23  and  O_24 
REMARK    7  A    between atoms: O_24  and  C_25 
REMARK    8  A    between atoms: C_25  and  C_26 
ROOT
ATOM      1  N   LIG d   1       5.521  -2.193  -5.680  0.00  0.00    -0.281 N 
ATOM      2  C   LIG d   1       5.341  -3.199  -6.737  0.00  0.00     0.040 C 
ATOM      3  C   LIG d   1       6.637  -3.994  -6.907  0.00  0.00    -0.019 C 
ATOM      4  N   LIG d   1       6.980  -4.649  -5.638  0.00  0.00     0.239 N 
ATOM      5  C   LIG d   1       7.180  -3.631  -4.597  0.00  0.00    -0.019 C 
ATOM      6  C   LIG d   1       5.889  -2.833  -4.409  0.00  0.00     0.040 C 
ATOM      7  H   LIG d   1       4.532  -3.876  -6.462  0.00  0.00     0.048 H 
ATOM      8  H   LIG d   1       5.095  -2.700  -7.675  0.00  0.00     0.048 H 
ATOM      9  H   LIG d   1       6.501  -4.750  -7.681  0.00  0.00     0.083 H 
ATOM     10  H   LIG d   1       7.443  -3.318  -7.196  0.00  0.00     0.083 H 
ATOM     11  H   LIG d   1       7.447  -4.119  -3.660  0.00  0.00     0.083 H 
ATOM     12  H   LIG d   1       7.983  -2.958  -4.899  0.00  0.00     0.083 H 
ATOM     13  H   LIG d   1       6.041  -2.068  -3.648  0.00  0.00     0.048 H 
ATOM     14  H   LIG d   1       5.089  -3.505  -4.095  0.00  0.00     0.048 H 
ATOM     15  H   LIG d   1       6.229  -5.266  -5.365  0.00  0.00     0.203 HD
ENDROOT
BRANCH   1  16
ATOM     16  C   LIG d   1       4.315  -1.370  -5.526  0.00  0.00     0.061 C 
ATOM     17  H   LIG d   1       3.439  -2.017  -5.457  0.00  0.00     0.056 H 
BRANCH  16  18
ATOM     18  C   LIG d   1       4.428  -0.544  -4.271  0.00  0.00    -0.026 A 
ATOM     19  C   LIG d   1       3.362  -0.470  -3.394  0.00  0.00    -0.057 A 
ATOM     20  C   LIG d   1       3.465   0.287  -2.242  0.00  0.00    -0.061 A 
ATOM     21  H   LIG d   1       2.448  -1.005  -3.607  0.00  0.00     0.062 H 
ATOM     22  C   LIG d   1       4.636   0.970  -1.967  0.00  0.00    -0.062 A 
ATOM     23  H   LIG d   1       2.633   0.345  -1.556  0.00  0.00     0.062 H 
ATOM     24  C   LIG d   1       5.702   0.897  -2.844  0.00  0.00    -0.061 A 
ATOM     25  H   LIG d   1       4.715   1.567  -1.070  0.00  0.00     0.062 H 
ATOM     26  C   LIG d   1       5.597   0.140  -3.997  0.00  0.00    -0.057 A 
ATOM     27  H   LIG d   1       6.615   1.431  -2.631  0.00  0.00     0.062 H 
ATOM     28  H   LIG d   1       6.429   0.082  -4.682  0.00  0.00     0.062 H 
ENDBRANCH  16  18
BRANCH  16  29
ATOM     29  C   LIG d   1       4.173  -0.458  -6.717  0.00  0.00    -0.026 A 
ATOM     30  C   LIG d   1       2.922  -0.013  -7.102  0.00  0.00    -0.055 A 
ATOM     31  C   LIG d   1       2.792   0.828  -8.192  0.00  0.00    -0.043 A 
ATOM     32  H   LIG d   1       2.046  -0.320  -6.549  0.00  0.00     0.062 H 
ATOM     33  C   LIG d   1       3.913   1.216  -8.903  0.00  0.00     0.041 A 
ATOM     34  H   LIG d   1       1.815   1.179  -8.488  0.00  0.00     0.063 H 
ATOM     35  C   LIG d   1       5.164   0.765  -8.520  0.00  0.00    -0.043 A 
ATOM     36 CL   LIG d   1       3.751   2.267 -10.275  0.00  0.00    -0.084 Cl
ATOM     37  C   LIG d   1       5.293  -0.072  -7.428  0.00  0.00    -0.055 A 
ATOM     38  H   LIG d   1       6.040   1.068  -9.076  0.00  0.00     0.063 H 
ATOM     39  H   LIG d   1       6.270  -0.422  -7.129  0.00  0.00     0.062 H 
ENDBRANCH  16  29
ENDBRANCH   1  16
BRANCH   4  40
ATOM     40  C   LIG d   1       8.214  -5.427  -5.806  0.00  0.00    -0.008 C 
ATOM     41  H   LIG d   1       8.346  -5.677  -6.859  0.00  0.00     0.084 H 
ATOM     42  H   LIG d   1       9.065  -4.837  -5.464  0.00  0.00     0.084 H 
BRANCH  40  43
ATOM     43  C   LIG d   1       8.123  -6.714  -4.983  0.00  0.00     0.088 C 
ATOM     44  H   LIG d   1       9.123  -7.119  -4.831  0.00  0.00     0.061 H 
ATOM     45  H   LIG d   1       7.668  -6.496  -4.017  0.00  0.00     0.061 H 
BRANCH  43  46
ATOM     46  O   LIG d   1       7.322  -7.669  -5.682  0.00  0.00    -0.369 OA
BRANCH  46  47
ATOM     47  C   LIG d   1       6.358  -8.332  -4.861  0.00  0.00     0.087 C 
ATOM     48  H   LIG d   1       6.492  -9.409  -4.941  0.00  0.00     0.062 H 
ATOM     49  H   LIG d   1       6.492  -8.024  -3.824  0.00  0.00     0.062 H 
BRANCH  47  50
ATOM     50  C   LIG d   1       4.970  -7.963  -5.319  0.00  0.00     0.067 C 
ATOM     51  O   LIG d   1       4.622  -6.795  -5.331  0.00  0.00    -0.547 OA
ATOM     52  O   LIG d   1       4.195  -8.833  -5.676  0.00  0.00    -0.547 OA
ENDBRANCH  47  50
ENDBRANCH  46  47
ENDBRANCH  43  46
ENDBRANCH  40  43
ENDBRANCH   4  40
TORSDOF 8
ENDMDL
MODEL 2
REMARK VINA RESULT:      -6.3      4.423      6.970
REMARK  8 active torsions:
REMARK  status: ('A' for Active; 'I' for Inactive)
REMARK    1  A    between atoms: C_4  and  C_7 
REMARK    2  A    between atoms: C_7  and  C_9 
REMARK    3  A    between atoms: C_7  and  N_16 
REMARK    4  A    between atoms: N_19  and  C_22 
REMARK    5  A    between atoms: C_22  and  C_23 
REMARK    6  A    between atoms: C_23  and  O_24 
REMARK    7  A    between atoms: O_24  and  C_25 
REMARK    8  A    between atoms: C_25  and  C_26 
ROOT
ATOM      1  N   LIG d   1       5.831  -2.189  -6.362  0.00  0.00    -0.281 N 
ATOM      2  C   LIG d   1       6.664  -2.163  -7.573  0.00  0.00     0.040 C 
ATOM      3  C   LIG d   1       5.796  -2.468  -8.794  0.00  0.00    -0.019 C 
ATOM      4  N   LIG d   1       4.724  -1.467  -8.895  0.00  0.00     0.239 N 
ATOM      5  C   LIG d   1       3.885  -1.522  -7.690  0.00  0.00    -0.019 C 
ATOM      6  C   LIG d   1       4.739  -1.210  -6.460  0.00  0.00     0.040 C 
ATOM      7  H   LIG d   1       7.115  -1.177  -7.684  0.00  0.00     0.048 H 
ATOM      8  H   LIG d   1       7.450  -2.914  -7.489  0.00  0.00     0.048 H 
ATOM      9  H   LIG d   1       6.409  -2.435  -9.695  0.00  0.00     0.083 H 
ATOM     10  H   LIG d   1       5.356  -3.460  -8.690  0.00  0.00     0.083 H 
ATOM     11  H   LIG d   1       3.084  -0.788  -7.773  0.00  0.00     0.083 H 
ATOM     12  H   LIG d   1       3.456  -2.519  -7.592  0.00  0.00     0.083 H 
ATOM     13  H   LIG d   1       4.121  -1.265  -5.564  0.00  0.00     0.048 H 
ATOM     14  H   LIG d   1       5.158  -0.207  -6.553  0.00  0.00     0.048 H 
ATOM     15  H   LIG d   1       5.131  -0.548  -8.981  0.00  0.00     0.203 HD
ENDROOT
BRANCH   1  16
ATOM     16  C   LIG d   1       6.641  -1.958  -5.160  0.00  0.00     0.061 C 
ATOM     17  H   LIG d   1       7.347  -1.147  -5.347  0.00  0.00     0.056 H 
BRANCH  16  18
ATOM     18  C   LIG d   1       5.740  -1.582  -4.012  0.00  0.00    -0.026 A 
ATOM     19  C   LIG d   1       4.756  -2.457  -3.591  0.00  0.00    -0.057 A 
ATOM     20  C   LIG d   1       3.930  -2.113  -2.538  0.00  0.00    -0.061 A 
ATOM     21  H   LIG d   1       4.633  -3.410  -4.084  0.00  0.00     0.062 H 
ATOM     22  C   LIG d   1       4.088  -0.894  -1.905  0.00  0.00    -0.062 A 
ATOM     23  H   LIG d   1       3.161  -2.796  -2.208  0.00  0.00     0.062 H 
ATOM     24  C   LIG d   1       5.072  -0.019  -2.325  0.00  0.00    -0.061 A 
ATOM     25  H   LIG d   1       3.439  -0.622  -1.085  0.00  0.00     0.062 H 
ATOM     26  C   LIG d   1       5.898  -0.363  -3.380  0.00  0.00    -0.057 A 
ATOM     27  H   LIG d   1       5.196   0.934  -1.832  0.00  0.00     0.062 H 
ATOM     28  H   LIG d   1       6.666   0.320  -3.709  0.00  0.00     0.062 H 
ENDBRANCH  16  18
BRANCH  16  29
ATOM     29  C   LIG d   1       7.399  -3.213  -4.814  0.00  0.00    -0.026 A 
ATOM     30  C   LIG d   1       8.418  -3.171  -3.882  0.00  0.00    -0.055 A 
ATOM     31  C   LIG d   1       9.110  -4.325  -3.561  0.00  0.00    -0.043 A 
ATOM     32  H   LIG d   1       8.672  -2.237  -3.402  0.00  0.00     0.062 H 
ATOM     33  C   LIG d   1       8.788  -5.518  -4.180  0.00  0.00     0.041 A 
ATOM     34  H   LIG d   1       9.903  -4.291  -2.829  0.00  0.00     0.063 H 
ATOM     35  C   LIG d   1       7.771  -5.558  -5.118  0.00  0.00    -0.043 A 
ATOM     36 CL   LIG d   1       9.660  -6.966  -3.782  0.00  0.00    -0.084 Cl
ATOM     37  C   LIG d   1       7.077  -4.406  -5.434  0.00  0.00    -0.055 A 
ATOM     38  H   LIG d   1       7.520  -6.491  -5.601  0.00  0.00     0.063 H 
ATOM     39  H   LIG d   1       6.282  -4.438  -6.165  0.00  0.00     0.062 H 
ENDBRANCH  16  29
ENDBRANCH   1  16
BRANCH   4  40
ATOM     40  C   LIG d   1       3.900  -1.749 -10.079  0.00  0.00    -0.008 C 
ATOM     41  H   LIG d   1       4.537  -2.113 -10.886  0.00  0.00     0.084 H 
ATOM     42  H   LIG d   1       3.158  -2.508  -9.832  0.00  0.00     0.084 H 
BRANCH  40  43
ATOM     43  C   LIG d   1       3.192  -0.468 -10.524  0.00  0.00     0.088 C 
ATOM     44  H   LIG d   1       2.591  -0.675 -11.409  0.00  0.00     0.061 H 
ATOM     45  H   LIG d   1       2.546  -0.113  -9.721  0.00  0.00     0.061 H 
BRANCH  43  46
ATOM     46  O   LIG d   1       4.165   0.532 -10.830  0.00  0.00    -0.369 OA
BRANCH  46  47
ATOM     47  C   LIG d   1       3.794   1.850 -10.419  0.00  0.00     0.087 C 
ATOM     48  H   LIG d   1       4.403   2.580 -10.949  0.00  0.00     0.062 H 
ATOM     49  H   LIG d   1       2.741   2.019 -10.649  0.00  0.00     0.062 H 
BRANCH  47  50
ATOM     50  C   LIG d   1       4.013   1.993  -8.935  0.00  0.00     0.067 C 
ATOM     51  O   LIG d   1       3.108   2.388  -8.220  0.00  0.00    -0.547 OA
ATOM     52  O   LIG d   1       5.097   1.716  -8.450  0.00  0.00    -0.547 OA
ENDBRANCH  47  50
ENDBRANCH  46  47
ENDBRANCH  43  46
ENDBRANCH  40  43
ENDBRANCH   4  40
TORSDOF 8
ENDMDL
MODEL 3
REMARK VINA RESULT:      -6.0      3.492      4.841
REMARK  8 active torsions:
REMARK  status: ('A' for Active; 'I' for Inactive)
REMARK    1  A    between atoms: C_4  and  C_7 
REMARK    2  A    between atoms: C_7  and  C_9 
REMARK    3  A    between atoms: C_7  and  N_16 
REMARK    4  A    between atoms: N_19  and  C_22 
REMARK    5  A    between atoms: C_22  and  C_23 
REMARK    6  A    between atoms: C_23  and  O_24 
REMARK    7  A    between atoms: O_24  and  C_25 
REMARK    8  A    between atoms: C_25  and  C_26 
ROOT
ATOM      1  N   LIG d   1       5.761  -3.962  -5.475  0.00  0.00    -0.281 N 
ATOM      2  C   LIG d   1       6.761  -4.885  -6.032  0.00  0.00     0.040 C 
ATOM      3  C   LIG d   1       6.117  -6.253  -6.261  0.00  0.00    -0.019 C 
ATOM      4  N   LIG d   1       4.986  -6.113  -7.188  0.00  0.00     0.239 N 
ATOM      5  C   LIG d   1       3.984  -5.208  -6.609  0.00  0.00    -0.019 C 
ATOM      6  C   LIG d   1       4.611  -3.831  -6.382  0.00  0.00     0.040 C 
ATOM      7  H   LIG d   1       7.131  -4.493  -6.979  0.00  0.00     0.048 H 
ATOM      8  H   LIG d   1       7.591  -4.986  -5.332  0.00  0.00     0.048 H 
ATOM      9  H   LIG d   1       6.853  -6.935  -6.687  0.00  0.00     0.083 H 
ATOM     10  H   LIG d   1       5.760  -6.651  -5.311  0.00  0.00     0.083 H 
ATOM     11  H   LIG d   1       3.141  -5.116  -7.293  0.00  0.00     0.083 H 
ATOM     12  H   LIG d   1       3.639  -5.612  -5.657  0.00  0.00     0.083 H 
ATOM     13  H   LIG d   1       3.873  -3.163  -5.938  0.00  0.00     0.048 H 
ATOM     14  H   LIG d   1       4.946  -3.422  -7.336  0.00  0.00     0.048 H 
ATOM     15  H   LIG d   1       5.315  -5.735  -8.064  0.00  0.00     0.203 HD
ENDROOT
BRANCH   1  16
ATOM     16  C   LIG d   1       6.357  -2.651  -5.187  0.00  0.00     0.061 C 
ATOM     17  H   LIG d   1       6.279  -2.014  -6.069  0.00  0.00     0.056 H 
BRANCH  16  18
ATOM     18  C   LIG d   1       5.623  -2.008  -4.039  0.00  0.00    -0.026 A 
ATOM     19  C   LIG d   1       4.586  -2.679  -3.419  0.00  0.00    -0.057 A 
ATOM     20  C   LIG d   1       3.913  -2.090  -2.365  0.00  0.00    -0.061 A 
ATOM     21  H   LIG d   1       4.301  -3.664  -3.757  0.00  0.00     0.062 H 
ATOM     22  C   LIG d   1       4.279  -0.829  -1.930  0.00  0.00    -0.062 A 
ATOM     23  H   LIG d   1       3.103  -2.613  -1.880  0.00  0.00     0.062 H 
ATOM     24  C   LIG d   1       5.317  -0.158  -2.550  0.00  0.00    -0.061 A 
ATOM     25  H   LIG d   1       3.750  -0.366  -1.110  0.00  0.00     0.062 H 
ATOM     26  C   LIG d   1       5.988  -0.747  -3.605  0.00  0.00    -0.057 A 
ATOM     27  H   LIG d   1       5.602   0.827  -2.211  0.00  0.00     0.062 H 
ATOM     28  H   LIG d   1       6.799  -0.224  -4.089  0.00  0.00     0.062 H 
ENDBRANCH  16  18
BRANCH  16  29
ATOM     29  C   LIG d   1       7.808  -2.828  -4.822  0.00  0.00    -0.026 A 
ATOM     30  C   LIG d   1       8.791  -2.230  -5.587  0.00  0.00    -0.055 A 
ATOM     31  C   LIG d   1      10.122  -2.388  -5.249  0.00  0.00    -0.043 A 
ATOM     32  H   LIG d   1       8.519  -1.637  -6.448  0.00  0.00     0.062 H 
ATOM     33  C   LIG d   1      10.470  -3.152  -4.150  0.00  0.00     0.041 A 
ATOM     34  H   LIG d   1      10.890  -1.916  -5.845  0.00  0.00     0.063 H 
ATOM     35  C   LIG d   1       9.486  -3.755  -3.388  0.00  0.00    -0.043 A 
ATOM     36 CL   LIG d   1      12.142  -3.355  -3.728  0.00  0.00    -0.084 Cl
ATOM     37  C   LIG d   1       8.155  -3.592  -3.724  0.00  0.00    -0.055 A 
ATOM     38  H   LIG d   1       9.757  -4.351  -2.529  0.00  0.00     0.063 H 
ATOM     39  H   LIG d   1       7.386  -4.062  -3.128  0.00  0.00     0.062 H 
ENDBRANCH  16  29
ENDBRANCH   1  16
BRANCH   4  40
ATOM     40  C   LIG d   1       4.379  -7.430  -7.423  0.00  0.00    -0.008 C 
ATOM     41  H   LIG d   1       3.313  -7.383  -7.198  0.00  0.00     0.084 H 
ATOM     42  H   LIG d   1       4.517  -7.713  -8.467  0.00  0.00     0.084 H 
BRANCH  40  43
ATOM     43  C   LIG d   1       5.046  -8.468  -6.519  0.00  0.00     0.088 C 
ATOM     44  H   LIG d   1       5.297  -9.352  -7.106  0.00  0.00     0.061 H 
ATOM     45  H   LIG d   1       5.955  -8.047  -6.091  0.00  0.00     0.061 H 
BRANCH  43  46
ATOM     46  O   LIG d   1       4.149  -8.832  -5.469  0.00  0.00    -0.369 OA
BRANCH  46  47
ATOM     47  C   LIG d   1       4.466 -10.074  -4.837  0.00  0.00     0.087 C 
ATOM     48  H   LIG d   1       3.996 -10.890  -5.385  0.00  0.00     0.062 H 
ATOM     49  H   LIG d   1       5.547 -10.214  -4.833  0.00  0.00     0.062 H 
BRANCH  47  50
ATOM     50  C   LIG d   1       3.955 -10.061  -3.419  0.00  0.00     0.067 C 
ATOM     51  O   LIG d   1       4.707 -10.326  -2.497  0.00  0.00    -0.547 OA
ATOM     52  O   LIG d   1       2.788  -9.787  -3.195  0.00  0.00    -0.547 OA
ENDBRANCH  47  50
ENDBRANCH  46  47
ENDBRANCH  43  46
ENDBRANCH  40  43
ENDBRANCH   4  40
TORSDOF 8
ENDMDL
MODEL 4
REMARK VINA RESULT:      -6.0      5.545      7.404
REMARK  8 active torsions:
REMARK  status: ('A' for Active; 'I' for Inactive)
REMARK    1  A    between atoms: C_4  and  C_7 
REMARK    2  A    between atoms: C_7  and  C_9 
REMARK    3  A    between atoms: C_7  and  N_16 
REMARK    4  A    between atoms: N_19  and  C_22 
REMARK    5  A    between atoms: C_22  and  C_23 
REMARK    6  A    between atoms: C_23  and  O_24 
REMARK    7  A    between atoms: O_24  and  C_25 
REMARK    8  A    between atoms: C_25  and  C_26 
ROOT
ATOM      1  N   LIG d   1       6.847  -0.106  -5.411  0.00  0.00    -0.281 N 
ATOM      2  C   LIG d   1       8.206  -0.578  -5.712  0.00  0.00     0.040 C 
ATOM      3  C   LIG d   1       9.202   0.558  -5.475  0.00  0.00    -0.019 C 
ATOM      4  N   LIG d   1       9.117   1.000  -4.076  0.00  0.00     0.239 N 
ATOM      5  C   LIG d   1       7.761   1.491  -3.797  0.00  0.00    -0.019 C 
ATOM      6  C   LIG d   1       6.753   0.362  -4.022  0.00  0.00     0.040 C 
ATOM      7  H   LIG d   1       8.452  -1.419  -5.063  0.00  0.00     0.048 H 
ATOM      8  H   LIG d   1       8.258  -0.896  -6.753  0.00  0.00     0.048 H 
ATOM      9  H   LIG d   1      10.212   0.206  -5.683  0.00  0.00     0.083 H 
ATOM     10  H   LIG d   1       8.965   1.393  -6.134  0.00  0.00     0.083 H 
ATOM     11  H   LIG d   1       7.703   1.830  -2.763  0.00  0.00     0.083 H 
ATOM     12  H   LIG d   1       7.532   2.322  -4.466  0.00  0.00     0.083 H 
ATOM     13  H   LIG d   1       5.745   0.730  -3.830  0.00  0.00     0.048 H 
ATOM     14  H   LIG d   1       6.975  -0.463  -3.344  0.00  0.00     0.048 H 
ATOM     15  H   LIG d   1       9.326   0.224  -3.465  0.00  0.00     0.203 HD
ENDROOT
BRANCH   1  16
ATOM     16  C   LIG d   1       5.854  -1.154  -5.683  0.00  0.00     0.061 C 
ATOM     17  H   LIG d   1       6.350  -2.124  -5.722  0.00  0.00     0.056 H 
BRANCH  16  18
ATOM     18  C   LIG d   1       4.821  -1.163  -4.585  0.00  0.00    -0.026 A 
ATOM     19  C   LIG d   1       3.829  -0.200  -4.562  0.00  0.00    -0.057 A 
ATOM     20  C   LIG d   1       2.881  -0.209  -3.556  0.00  0.00    -0.061 A 
ATOM     21  H   LIG d   1       3.793   0.558  -5.331  0.00  0.00     0.062 H 
ATOM     22  C   LIG d   1       2.925  -1.180  -2.573  0.00  0.00    -0.062 A 
ATOM     23  H   LIG d   1       2.105   0.543  -3.538  0.00  0.00     0.062 H 
ATOM     24  C   LIG d   1       3.917  -2.143  -2.597  0.00  0.00    -0.061 A 
ATOM     25  H   LIG d   1       2.188  -1.184  -1.784  0.00  0.00     0.062 H 
ATOM     26  C   LIG d   1       4.866  -2.133  -3.602  0.00  0.00    -0.057 A 
ATOM     27  H   LIG d   1       3.953  -2.901  -1.828  0.00  0.00     0.062 H 
ATOM     28  H   LIG d   1       5.641  -2.884  -3.621  0.00  0.00     0.062 H 
ENDBRANCH  16  18
BRANCH  16  29
ATOM     29  C   LIG d   1       5.182  -0.880  -7.003  0.00  0.00    -0.026 A 
ATOM     30  C   LIG d   1       4.288  -1.794  -7.526  0.00  0.00    -0.055 A 
ATOM     31  C   LIG d   1       3.667  -1.540  -8.736  0.00  0.00    -0.043 A 
ATOM     32  H   LIG d   1       4.071  -2.706  -6.989  0.00  0.00     0.062 H 
ATOM     33  C   LIG d   1       3.949  -0.376  -9.426  0.00  0.00     0.041 A 
ATOM     34  H   LIG d   1       2.965  -2.253  -9.142  0.00  0.00     0.063 H 
ATOM     35  C   LIG d   1       4.849   0.537  -8.904  0.00  0.00    -0.043 A 
ATOM     36 CL   LIG d   1       3.175  -0.058 -10.947  0.00  0.00    -0.084 Cl
ATOM     37  C   LIG d   1       5.465   0.284  -7.693  0.00  0.00    -0.055 A 
ATOM     38  H   LIG d   1       5.069   1.447  -9.443  0.00  0.00     0.063 H 
ATOM     39  H   LIG d   1       6.166   0.997  -7.285  0.00  0.00     0.062 H 
ENDBRANCH  16  29
ENDBRANCH   1  16
BRANCH   4  40
ATOM     40  C   LIG d   1      10.086   2.079  -3.843  0.00  0.00    -0.008 C 
ATOM     41  H   LIG d   1      10.655   1.866  -2.937  0.00  0.00     0.084 H 
ATOM     42  H   LIG d   1      10.767   2.146  -4.691  0.00  0.00     0.084 H 
BRANCH  40  43
ATOM     43  C   LIG d   1       9.343   3.406  -3.679  0.00  0.00     0.088 C 
ATOM     44  H   LIG d   1       9.459   4.000  -4.585  0.00  0.00     0.061 H 
ATOM     45  H   LIG d   1       8.285   3.211  -3.505  0.00  0.00     0.061 H 
BRANCH  43  46
ATOM     46  O   LIG d   1       9.884   4.121  -2.567  0.00  0.00    -0.369 OA
BRANCH  46  47
ATOM     47  C   LIG d   1       9.957   5.535  -2.764  0.00  0.00     0.087 C 
ATOM     48  H   LIG d   1      10.883   5.783  -3.280  0.00  0.00     0.062 H 
ATOM     49  H   LIG d   1       9.107   5.862  -3.365  0.00  0.00     0.062 H 
BRANCH  47  50
ATOM     50  C   LIG d   1       9.924   6.231  -1.428  0.00  0.00     0.067 C 
ATOM     51  O   LIG d   1      10.660   5.860  -0.529  0.00  0.00    -0.547 OA
ATOM     52  O   LIG d   1       9.161   7.164  -1.245  0.00  0.00    -0.547 OA
ENDBRANCH  47  50
ENDBRANCH  46  47
ENDBRANCH  43  46
ENDBRANCH  40  43
ENDBRANCH   4  40
TORSDOF 8
ENDMDL
MODEL 5
REMARK VINA RESULT:      -5.9      4.822      6.503
REMARK  8 active torsions:
REMARK  status: ('A' for Active; 'I' for Inactive)
REMARK    1  A    between atoms: C_4  and  C_7 
REMARK    2  A    between atoms: C_7  and  C_9 
REMARK    3  A    between atoms: C_7  and  N_16 
REMARK    4  A    between atoms: N_19  and  C_22 
REMARK    5  A    between atoms: C_22  and  C_23 
REMARK    6  A    between atoms: C_23  and  O_24 
REMARK    7  A    between atoms: O_24  and  C_25 
REMARK    8  A    between atoms: C_25  and  C_26 
ROOT
ATOM      1  N   LIG d   1       6.793  -0.310  -5.945  0.00  0.00    -0.281 N 
ATOM      2  C   LIG d   1       6.827   0.127  -7.349  0.00  0.00     0.040 C 
ATOM      3  C   LIG d   1       7.840   1.263  -7.503  0.00  0.00    -0.019 C 
ATOM      4  N   LIG d   1       9.169   0.794  -7.086  0.00  0.00     0.239 N 
ATOM      5  C   LIG d   1       9.126   0.384  -5.676  0.00  0.00    -0.019 C 
ATOM      6  C   LIG d   1       8.122  -0.759  -5.507  0.00  0.00     0.040 C 
ATOM      7  H   LIG d   1       7.119  -0.710  -7.983  0.00  0.00     0.048 H 
ATOM      8  H   LIG d   1       5.838   0.479  -7.643  0.00  0.00     0.048 H 
ATOM      9  H   LIG d   1       7.877   1.578  -8.545  0.00  0.00     0.083 H 
ATOM     10  H   LIG d   1       7.540   2.105  -6.878  0.00  0.00     0.083 H 
ATOM     11  H   LIG d   1      10.115   0.049  -5.366  0.00  0.00     0.083 H 
ATOM     12  H   LIG d   1       8.819   1.231  -5.062  0.00  0.00     0.083 H 
ATOM     13  H   LIG d   1       8.079  -1.053  -4.458  0.00  0.00     0.048 H 
ATOM     14  H   LIG d   1       8.436  -1.610  -6.112  0.00  0.00     0.048 H 
ATOM     15  H   LIG d   1       9.441   0.008  -7.657  0.00  0.00     0.203 HD
ENDROOT
BRANCH   1  16
ATOM     16  C   LIG d   1       5.789  -1.363  -5.745  0.00  0.00     0.061 C 
ATOM     17  H   LIG d   1       6.255  -2.340  -5.880  0.00  0.00     0.056 H 
BRANCH  16  18
ATOM     18  C   LIG d   1       5.228  -1.263  -4.350  0.00  0.00    -0.026 A 
ATOM     19  C   LIG d   1       4.494  -2.309  -3.824  0.00  0.00    -0.057 A 
ATOM     20  C   LIG d   1       3.979  -2.218  -2.545  0.00  0.00    -0.061 A 
ATOM     21  H   LIG d   1       4.323  -3.199  -4.412  0.00  0.00     0.062 H 
ATOM     22  C   LIG d   1       4.199  -1.080  -1.791  0.00  0.00    -0.062 A 
ATOM     23  H   LIG d   1       3.406  -3.036  -2.133  0.00  0.00     0.062 H 
ATOM     24  C   LIG d   1       4.933  -0.033  -2.317  0.00  0.00    -0.061 A 
ATOM     25  H   LIG d   1       3.792  -1.006  -0.793  0.00  0.00     0.062 H 
ATOM     26  C   LIG d   1       5.446  -0.124  -3.598  0.00  0.00    -0.057 A 
ATOM     27  H   LIG d   1       5.104   0.856  -1.729  0.00  0.00     0.062 H 
ATOM     28  H   LIG d   1       6.020   0.693  -4.009  0.00  0.00     0.062 H 
ENDBRANCH  16  18
BRANCH  16  29
ATOM     29  C   LIG d   1       4.677  -1.194  -6.748  0.00  0.00    -0.026 A 
ATOM     30  C   LIG d   1       3.829  -0.107  -6.662  0.00  0.00    -0.055 A 
ATOM     31  C   LIG d   1       2.812   0.051  -7.586  0.00  0.00    -0.043 A 
ATOM     32  H   LIG d   1       3.961   0.621  -5.875  0.00  0.00     0.062 H 
ATOM     33  C   LIG d   1       2.638  -0.884  -8.590  0.00  0.00     0.041 A 
ATOM     34  H   LIG d   1       2.152   0.903  -7.521  0.00  0.00     0.063 H 
ATOM     35  C   LIG d   1       3.485  -1.975  -8.672  0.00  0.00    -0.043 A 
ATOM     36 CL   LIG d   1       1.359  -0.690  -9.746  0.00  0.00    -0.084 Cl
ATOM     37  C   LIG d   1       4.505  -2.129  -7.751  0.00  0.00    -0.055 A 
ATOM     38  H   LIG d   1       3.350  -2.705  -9.456  0.00  0.00     0.063 H 
ATOM     39  H   LIG d   1       5.167  -2.980  -7.816  0.00  0.00     0.062 H 
ENDBRANCH  16  29
ENDBRANCH   1  16
BRANCH   4  40
ATOM     40  C   LIG d   1      10.145   1.879  -7.251  0.00  0.00    -0.008 C 
ATOM     41  H   LIG d   1      11.034   1.661  -6.658  0.00  0.00     0.084 H 
ATOM     42  H   LIG d   1      10.422   1.962  -8.302  0.00  0.00     0.084 H 
BRANCH  40  43
ATOM     43  C   LIG d   1       9.528   3.197  -6.780  0.00  0.00     0.088 C 
ATOM     44  H   LIG d   1       9.544   3.917  -7.598  0.00  0.00     0.061 H 
ATOM     45  H   LIG d   1       8.498   3.025  -6.468  0.00  0.00     0.061 H 
BRANCH  43  46
ATOM     46  O   LIG d   1      10.281   3.709  -5.679  0.00  0.00    -0.369 OA
BRANCH  46  47
ATOM     47  C   LIG d   1       9.498   4.428  -4.723  0.00  0.00     0.087 C 
ATOM     48  H   LIG d   1       9.886   5.441  -4.624  0.00  0.00     0.062 H 
ATOM     49  H   LIG d   1       8.461   4.467  -5.059  0.00  0.00     0.062 H 
BRANCH  47  50
ATOM     50  C   LIG d   1       9.569   3.730  -3.390  0.00  0.00     0.067 C 
ATOM     51  O   LIG d   1       8.934   2.706  -3.202  0.00  0.00    -0.547 OA
ATOM     52  O   LIG d   1      10.260   4.190  -2.497  0.00  0.00    -0.547 OA
ENDBRANCH  47  50
ENDBRANCH  46  47
ENDBRANCH  43  46
ENDBRANCH  40  43
ENDBRANCH   4  40
TORSDOF 8
ENDMDL
MODEL 6
REMARK VINA RESULT:      -5.9      4.186      6.681
REMARK  8 active torsions:
REMARK  status: ('A' for Active; 'I' for Inactive)
REMARK    1  A    between atoms: C_4  and  C_7 
REMARK    2  A    between atoms: C_7  and  C_9 
REMARK    3  A    between atoms: C_7  and  N_16 
REMARK    4  A    between atoms: N_19  and  C_22 
REMARK    5  A    between atoms: C_22  and  C_23 
REMARK    6  A    between atoms: C_23  and  O_24 
REMARK    7  A    between atoms: O_24  and  C_25 
REMARK    8  A    between atoms: C_25  and  C_26 
ROOT
ATOM      1  N   LIG d   1       4.318  -1.878  -6.559  0.00  0.00    -0.281 N 
ATOM      2  C   LIG d   1       4.619  -2.361  -7.914  0.00  0.00     0.040 C 
ATOM      3  C   LIG d   1       3.401  -2.143  -8.813  0.00  0.00    -0.019 C 
ATOM      4  N   LIG d   1       3.068  -0.712  -8.848  0.00  0.00     0.239 N 
ATOM      5  C   LIG d   1       2.746  -0.249  -7.491  0.00  0.00    -0.019 C 
ATOM      6  C   LIG d   1       3.959  -0.453  -6.581  0.00  0.00     0.040 C 
ATOM      7  H   LIG d   1       5.471  -1.812  -8.316  0.00  0.00     0.048 H 
ATOM      8  H   LIG d   1       4.857  -3.424  -7.876  0.00  0.00     0.048 H 
ATOM      9  H   LIG d   1       3.627  -2.487  -9.822  0.00  0.00     0.083 H 
ATOM     10  H   LIG d   1       2.553  -2.702  -8.419  0.00  0.00     0.083 H 
ATOM     11  H   LIG d   1       2.488   0.809  -7.521  0.00  0.00     0.083 H 
ATOM     12  H   LIG d   1       1.901  -0.819  -7.105  0.00  0.00     0.083 H 
ATOM     13  H   LIG d   1       3.716  -0.123  -5.571  0.00  0.00     0.048 H 
ATOM     14  H   LIG d   1       4.800   0.128  -6.961  0.00  0.00     0.048 H 
ATOM     15  H   LIG d   1       3.857  -0.192  -9.202  0.00  0.00     0.203 HD
ENDROOT
BRANCH   1  16
ATOM     16  C   LIG d   1       5.445  -2.123  -5.650  0.00  0.00     0.061 C 
ATOM     17  H   LIG d   1       6.325  -1.589  -6.009  0.00  0.00     0.056 H 
BRANCH  16  18
ATOM     18  C   LIG d   1       5.092  -1.635  -4.269  0.00  0.00    -0.026 A 
ATOM     19  C   LIG d   1       4.173  -2.329  -3.504  0.00  0.00    -0.057 A 
ATOM     20  C   LIG d   1       3.850  -1.882  -2.237  0.00  0.00    -0.061 A 
ATOM     21  H   LIG d   1       3.709  -3.223  -3.896  0.00  0.00     0.062 H 
ATOM     22  C   LIG d   1       4.445  -0.740  -1.734  0.00  0.00    -0.062 A 
ATOM     23  H   LIG d   1       3.133  -2.425  -1.638  0.00  0.00     0.062 H 
ATOM     24  C   LIG d   1       5.364  -0.045  -2.499  0.00  0.00    -0.061 A 
ATOM     25  H   LIG d   1       4.188  -0.387  -0.746  0.00  0.00     0.062 H 
ATOM     26  C   LIG d   1       5.686  -0.492  -3.767  0.00  0.00    -0.057 A 
ATOM     27  H   LIG d   1       5.828   0.848  -2.107  0.00  0.00     0.062 H 
ATOM     28  H   LIG d   1       6.403   0.050  -4.365  0.00  0.00     0.062 H 
ENDBRANCH  16  18
BRANCH  16  29
ATOM     29  C   LIG d   1       5.739  -3.600  -5.601  0.00  0.00    -0.026 A 
ATOM     30  C   LIG d   1       4.706  -4.514  -5.691  0.00  0.00    -0.055 A 
ATOM     31  C   LIG d   1       4.976  -5.869  -5.651  0.00  0.00    -0.043 A 
ATOM     32  H   LIG d   1       3.687  -4.169  -5.794  0.00  0.00     0.062 H 
ATOM     33  C   LIG d   1       6.279  -6.311  -5.513  0.00  0.00     0.041 A 
ATOM     34  H   LIG d   1       4.168  -6.582  -5.726  0.00  0.00     0.063 H 
ATOM     35  C   LIG d   1       7.312  -5.395  -5.417  0.00  0.00    -0.043 A 
ATOM     36 CL   LIG d   1       6.619  -8.012  -5.457  0.00  0.00    -0.084 Cl
ATOM     37  C   LIG d   1       7.041  -4.040  -5.462  0.00  0.00    -0.055 A 
ATOM     38  H   LIG d   1       8.330  -5.740  -5.309  0.00  0.00     0.063 H 
ATOM     39  H   LIG d   1       7.849  -3.326  -5.389  0.00  0.00     0.062 H 
ENDBRANCH  16  29
ENDBRANCH   1  16
BRANCH   4  40
ATOM     40  C   LIG d   1       1.910  -0.499  -9.726  0.00  0.00    -0.008 C 
ATOM     41  H   LIG d   1       1.158  -1.264  -9.526  0.00  0.00     0.084 H 
ATOM     42  H   LIG d   1       1.484   0.486  -9.533  0.00  0.00     0.084 H 
BRANCH  40  43
ATOM     43  C   LIG d   1       2.353  -0.587 -11.187  0.00  0.00     0.088 C 
ATOM     44  H   LIG d   1       2.713  -1.595 -11.396  0.00  0.00     0.061 H 
ATOM     45  H   LIG d   1       1.509  -0.360 -11.837  0.00  0.00     0.061 H 
BRANCH  43  46
ATOM     46  O   LIG d   1       3.403   0.353 -11.423  0.00  0.00    -0.369 OA
BRANCH  46  47
ATOM     47  C   LIG d   1       4.522  -0.190 -12.127  0.00  0.00     0.087 C 
ATOM     48  H   LIG d   1       4.255  -1.163 -12.538  0.00  0.00     0.062 H 
ATOM     49  H   LIG d   1       4.802   0.483 -12.938  0.00  0.00     0.062 H 
BRANCH  47  50
ATOM     50  C   LIG d   1       5.684  -0.347 -11.180  0.00  0.00     0.067 C 
ATOM     51  O   LIG d   1       5.704   0.274 -10.131  0.00  0.00    -0.547 OA
ATOM     52  O   LIG d   1       6.605  -1.094 -11.463  0.00  0.00    -0.547 OA
ENDBRANCH  47  50
ENDBRANCH  46  47
ENDBRANCH  43  46
ENDBRANCH  40  43
ENDBRANCH   4  40
TORSDOF 8
ENDMDL
MODEL 7
REMARK VINA RESULT:      -5.8      5.312      7.177
REMARK  8 active torsions:
REMARK  status: ('A' for Active; 'I' for Inactive)
REMARK    1  A    between atoms: C_4  and  C_7 
REMARK    2  A    between atoms: C_7  and  C_9 
REMARK    3  A    between atoms: C_7  and  N_16 
REMARK    4  A    between atoms: N_19  and  C_22 
REMARK    5  A    between atoms: C_22  and  C_23 
REMARK    6  A    between atoms: C_23  and  O_24 
REMARK    7  A    between atoms: O_24  and  C_25 
REMARK    8  A    between atoms: C_25  and  C_26 
ROOT
ATOM      1  N   LIG d   1       6.069  -0.007  -6.223  0.00  0.00    -0.281 N 
ATOM      2  C   LIG d   1       6.797   0.066  -7.498  0.00  0.00     0.040 C 
ATOM      3  C   LIG d   1       7.646   1.337  -7.527  0.00  0.00    -0.019 C 
ATOM      4  N   LIG d   1       8.593   1.320  -6.403  0.00  0.00     0.239 N 
ATOM      5  C   LIG d   1       7.851   1.272  -5.136  0.00  0.00    -0.019 C 
ATOM      6  C   LIG d   1       7.003  -0.000  -5.088  0.00  0.00     0.040 C 
ATOM      7  H   LIG d   1       7.443  -0.806  -7.598  0.00  0.00     0.048 H 
ATOM      8  H   LIG d   1       6.084   0.086  -8.322  0.00  0.00     0.048 H 
ATOM      9  H   LIG d   1       8.198   1.386  -8.465  0.00  0.00     0.083 H 
ATOM     10  H   LIG d   1       6.998   2.210  -7.440  0.00  0.00     0.083 H 
ATOM     11  H   LIG d   1       8.555   1.272  -4.304  0.00  0.00     0.083 H 
ATOM     12  H   LIG d   1       7.202   2.145  -5.063  0.00  0.00     0.083 H 
ATOM     13  H   LIG d   1       6.441  -0.029  -4.155  0.00  0.00     0.048 H 
ATOM     14  H   LIG d   1       7.654  -0.873  -5.148  0.00  0.00     0.048 H 
ATOM     15  H   LIG d   1       9.185   0.506  -6.476  0.00  0.00     0.203 HD
ENDROOT
BRANCH   1  16
ATOM     16  C   LIG d   1       5.196  -1.187  -6.181  0.00  0.00     0.061 C 
ATOM     17  H   LIG d   1       5.797  -2.088  -6.308  0.00  0.00     0.056 H 
BRANCH  16  18
ATOM     18  C   LIG d   1       4.488  -1.241  -4.852  0.00  0.00    -0.026 A 
ATOM     19  C   LIG d   1       3.659  -0.203  -4.469  0.00  0.00    -0.057 A 
ATOM     20  C   LIG d   1       3.007  -0.252  -3.251  0.00  0.00    -0.061 A 
ATOM     21  H   LIG d   1       3.518   0.646  -5.122  0.00  0.00     0.062 H 
ATOM     22  C   LIG d   1       3.185  -1.339  -2.415  0.00  0.00    -0.062 A 
ATOM     23  H   LIG d   1       2.359   0.559  -2.951  0.00  0.00     0.062 H 
ATOM     24  C   LIG d   1       4.014  -2.377  -2.799  0.00  0.00    -0.061 A 
ATOM     25  H   LIG d   1       2.681  -1.375  -1.461  0.00  0.00     0.062 H 
ATOM     26  C   LIG d   1       4.667  -2.327  -4.017  0.00  0.00    -0.057 A 
ATOM     27  H   LIG d   1       4.155  -3.226  -2.146  0.00  0.00     0.062 H 
ATOM     28  H   LIG d   1       5.314  -3.137  -4.316  0.00  0.00     0.062 H 
ENDBRANCH  16  18
BRANCH  16  29
ATOM     29  C   LIG d   1       4.180  -1.101  -7.290  0.00  0.00    -0.026 A 
ATOM     30  C   LIG d   1       3.474   0.070  -7.491  0.00  0.00    -0.055 A 
ATOM     31  C   LIG d   1       2.546   0.151  -8.512  0.00  0.00    -0.043 A 
ATOM     32  H   LIG d   1       3.650   0.923  -6.852  0.00  0.00     0.062 H 
ATOM     33  C   LIG d   1       2.316  -0.942  -9.326  0.00  0.00     0.041 A 
ATOM     34  H   LIG d   1       1.998   1.068  -8.671  0.00  0.00     0.063 H 
ATOM     35  C   LIG d   1       3.019  -2.117  -9.121  0.00  0.00    -0.043 A 
ATOM     36 CL   LIG d   1       1.146  -0.844 -10.605  0.00  0.00    -0.084 Cl
ATOM     37  C   LIG d   1       3.951  -2.195  -8.103  0.00  0.00    -0.055 A 
ATOM     38  H   LIG d   1       2.840  -2.971  -9.757  0.00  0.00     0.063 H 
ATOM     39  H   LIG d   1       4.501  -3.111  -7.944  0.00  0.00     0.062 H 
ENDBRANCH  16  29
ENDBRANCH   1  16
BRANCH   4  40
ATOM     40  C   LIG d   1       9.421   2.532  -6.440  0.00  0.00    -0.008 C 
ATOM     41  H   LIG d   1       8.987   3.288  -5.784  0.00  0.00     0.084 H 
ATOM     42  H   LIG d   1      10.429   2.294  -6.102  0.00  0.00     0.084 H 
BRANCH  40  43
ATOM     43  C   LIG d   1       9.475   3.069  -7.872  0.00  0.00     0.088 C 
ATOM     44  H   LIG d   1      10.408   2.757  -8.341  0.00  0.00     0.061 H 
ATOM     45  H   LIG d   1       8.633   2.675  -8.440  0.00  0.00     0.061 H 
BRANCH  43  46
ATOM     46  O   LIG d   1       9.408   4.496  -7.848  0.00  0.00    -0.369 OA
BRANCH  46  47
ATOM     47  C   LIG d   1      10.053   5.128  -8.956  0.00  0.00     0.087 C 
ATOM     48  H   LIG d   1      10.372   6.128  -8.668  0.00  0.00     0.062 H 
ATOM     49  H   LIG d   1      10.921   4.540  -9.254  0.00  0.00     0.062 H 
BRANCH  47  50
ATOM     50  C   LIG d   1       9.089   5.221 -10.111  0.00  0.00     0.067 C 
ATOM     51  O   LIG d   1       9.388   4.748 -11.195  0.00  0.00    -0.547 OA
ATOM     52  O   LIG d   1       8.011   5.769  -9.962  0.00  0.00    -0.547 OA
ENDBRANCH  47  50
ENDBRANCH  46  47
ENDBRANCH  43  46
ENDBRANCH  40  43
ENDBRANCH   4  40
TORSDOF 8
ENDMDL
MODEL 8
REMARK VINA RESULT:      -5.8      3.548      6.111
REMARK  8 active torsions:
REMARK  status: ('A' for Active; 'I' for Inactive)
REMARK    1  A    between atoms: C_4  and  C_7 
REMARK    2  A    between atoms: C_7  and  C_9 
REMARK    3  A    between atoms: C_7  and  N_16 
REMARK    4  A    between atoms: N_19  and  C_22 
REMARK    5  A    between atoms: C_22  and  C_23 
REMARK    6  A    between atoms: C_23  and  O_24 
REMARK    7  A    between atoms: O_24  and  C_25 
REMARK    8  A    between atoms: C_25  and  C_26 
ROOT
ATOM      1  N   LIG d   1       5.815  -0.833  -6.196  0.00  0.00    -0.281 N 
ATOM      2  C   LIG d   1       6.441   0.129  -7.115  0.00  0.00     0.040 C 
ATOM      3  C   LIG d   1       5.584   0.261  -8.374  0.00  0.00    -0.019 C 
ATOM      4  N   LIG d   1       4.237   0.718  -8.005  0.00  0.00     0.239 N 
ATOM      5  C   LIG d   1       3.614  -0.264  -7.107  0.00  0.00    -0.019 C 
ATOM      6  C   LIG d   1       4.457  -0.401  -5.836  0.00  0.00     0.040 C 
ATOM      7  H   LIG d   1       6.522   1.100  -6.626  0.00  0.00     0.048 H 
ATOM      8  H   LIG d   1       7.436  -0.225  -7.387  0.00  0.00     0.048 H 
ATOM      9  H   LIG d   1       6.039   0.984  -9.051  0.00  0.00     0.083 H 
ATOM     10  H   LIG d   1       5.515  -0.708  -8.870  0.00  0.00     0.083 H 
ATOM     11  H   LIG d   1       2.611   0.070  -6.844  0.00  0.00     0.083 H 
ATOM     12  H   LIG d   1       3.556  -1.230  -7.610  0.00  0.00     0.083 H 
ATOM     13  H   LIG d   1       4.003  -1.140  -5.177  0.00  0.00     0.048 H 
ATOM     14  H   LIG d   1       4.504   0.562  -5.327  0.00  0.00     0.048 H 
ATOM     15  H   LIG d   1       4.302   1.609  -7.535  0.00  0.00     0.203 HD
ENDROOT
BRANCH   1  16
ATOM     16  C   LIG d   1       6.640  -1.030  -4.997  0.00  0.00     0.061 C 
ATOM     17  H   LIG d   1       7.510  -0.374  -5.042  0.00  0.00     0.056 H 
BRANCH  16  18
ATOM     18  C   LIG d   1       5.828  -0.703  -3.770  0.00  0.00    -0.026 A 
ATOM     19  C   LIG d   1       5.090  -1.691  -3.146  0.00  0.00    -0.057 A 
ATOM     20  C   LIG d   1       4.346  -1.392  -2.020  0.00  0.00    -0.061 A 
ATOM     21  H   LIG d   1       5.095  -2.698  -3.538  0.00  0.00     0.062 H 
ATOM     22  C   LIG d   1       4.341  -0.104  -1.518  0.00  0.00    -0.062 A 
ATOM     23  H   LIG d   1       3.770  -2.164  -1.532  0.00  0.00     0.062 H 
ATOM     24  C   LIG d   1       5.079   0.884  -2.142  0.00  0.00    -0.061 A 
ATOM     25  H   LIG d   1       3.756   0.132  -0.641  0.00  0.00     0.062 H 
ATOM     26  C   LIG d   1       5.822   0.585  -3.269  0.00  0.00    -0.057 A 
ATOM     27  H   LIG d   1       5.074   1.891  -1.751  0.00  0.00     0.062 H 
ATOM     28  H   LIG d   1       6.399   1.356  -3.756  0.00  0.00     0.062 H 
ENDBRANCH  16  18
BRANCH  16  29
ATOM     29  C   LIG d   1       7.095  -2.465  -4.931  0.00  0.00    -0.026 A 
ATOM     30  C   LIG d   1       8.122  -2.825  -4.079  0.00  0.00    -0.055 A 
ATOM     31  C   LIG d   1       8.537  -4.143  -4.015  0.00  0.00    -0.043 A 
ATOM     32  H   LIG d   1       8.599  -2.078  -3.462  0.00  0.00     0.062 H 
ATOM     33  C   LIG d   1       7.931  -5.098  -4.809  0.00  0.00     0.041 A 
ATOM     34  H   LIG d   1       9.336  -4.424  -3.345  0.00  0.00     0.063 H 
ATOM     35  C   LIG d   1       6.907  -4.735  -5.666  0.00  0.00    -0.043 A 
ATOM     36 CL   LIG d   1       8.454  -6.751  -4.734  0.00  0.00    -0.084 Cl
ATOM     37  C   LIG d   1       6.490  -3.418  -5.726  0.00  0.00    -0.055 A 
ATOM     38  H   LIG d   1       6.433  -5.481  -6.287  0.00  0.00     0.063 H 
ATOM     39  H   LIG d   1       5.689  -3.136  -6.394  0.00  0.00     0.062 H 
ENDBRANCH  16  29
ENDBRANCH   1  16
BRANCH   4  40
ATOM     40  C   LIG d   1       3.419   0.861  -9.216  0.00  0.00    -0.008 C 
ATOM     41  H   LIG d   1       3.056   1.888  -9.289  0.00  0.00     0.084 H 
ATOM     42  H   LIG d   1       4.022   0.627 -10.092  0.00  0.00     0.084 H 
BRANCH  40  43
ATOM     43  C   LIG d   1       2.228  -0.097  -9.144  0.00  0.00     0.088 C 
ATOM     44  H   LIG d   1       2.357  -0.772  -8.298  0.00  0.00     0.061 H 
ATOM     45  H   LIG d   1       1.309   0.474  -9.017  0.00  0.00     0.061 H 
BRANCH  43  46
ATOM     46  O   LIG d   1       2.155  -0.855 -10.353  0.00  0.00    -0.369 OA
BRANCH  46  47
ATOM     47  C   LIG d   1       3.171  -1.852 -10.477  0.00  0.00     0.087 C 
ATOM     48  H   LIG d   1       3.301  -2.110 -11.527  0.00  0.00     0.062 H 
ATOM     49  H   LIG d   1       4.109  -1.466 -10.078  0.00  0.00     0.062 H 
BRANCH  47  50
ATOM     50  C   LIG d   1       2.765  -3.081  -9.705  0.00  0.00     0.067 C 
ATOM     51  O   LIG d   1       3.378  -3.401  -8.700  0.00  0.00    -0.547 OA
ATOM     52  O   LIG d   1       1.824  -3.757 -10.085  0.00  0.00    -0.547 OA
ENDBRANCH  47  50
ENDBRANCH  46  47
ENDBRANCH  43  46
ENDBRANCH  40  43
ENDBRANCH   4  40
TORSDOF 8
ENDMDL
MODEL 9
REMARK VINA RESULT:      -5.8      2.057      2.843
REMARK  8 active torsions:
REMARK  status: ('A' for Active; 'I' for Inactive)
REMARK    1  A    between atoms: C_4  and  C_7 
REMARK    2  A    between atoms: C_7  and  C_9 
REMARK    3  A    between atoms: C_7  and  N_16 
REMARK    4  A    between atoms: N_19  and  C_22 
REMARK    5  A    between atoms: C_22  and  C_23 
REMARK    6  A    between atoms: C_23  and  O_24 
REMARK    7  A    between atoms: O_24  and  C_25 
REMARK    8  A    between atoms: C_25  and  C_26 
ROOT
ATOM      1  N   LIG d   1       5.575  -2.201  -5.553  0.00  0.00    -0.281 N 
ATOM      2  C   LIG d   1       5.316  -3.398  -6.367  0.00  0.00     0.040 C 
ATOM      3  C   LIG d   1       6.612  -4.194  -6.527  0.00  0.00    -0.019 C 
ATOM      4  N   LIG d   1       7.116  -4.581  -5.202  0.00  0.00     0.239 N 
ATOM      5  C   LIG d   1       7.394  -3.375  -4.410  0.00  0.00    -0.019 C 
ATOM      6  C   LIG d   1       6.103  -2.572  -4.233  0.00  0.00     0.040 C 
ATOM      7  H   LIG d   1       4.567  -4.018  -5.874  0.00  0.00     0.048 H 
ATOM      8  H   LIG d   1       4.950  -3.097  -7.349  0.00  0.00     0.048 H 
ATOM      9  H   LIG d   1       6.419  -5.089  -7.118  0.00  0.00     0.083 H 
ATOM     10  H   LIG d   1       7.357  -3.578  -7.032  0.00  0.00     0.083 H 
ATOM     11  H   LIG d   1       7.779  -3.665  -3.432  0.00  0.00     0.083 H 
ATOM     12  H   LIG d   1       8.134  -2.764  -4.927  0.00  0.00     0.083 H 
ATOM     13  H   LIG d   1       6.312  -1.670  -3.658  0.00  0.00     0.048 H 
ATOM     14  H   LIG d   1       5.367  -3.180  -3.705  0.00  0.00     0.048 H 
ATOM     15  H   LIG d   1       6.423  -5.141  -4.730  0.00  0.00     0.203 HD
ENDROOT
BRANCH   1  16
ATOM     16  C   LIG d   1       4.365  -1.380  -5.425  0.00  0.00     0.061 C 
ATOM     17  H   LIG d   1       3.491  -2.028  -5.357  0.00  0.00     0.056 H 
BRANCH  16  18
ATOM     18  C   LIG d   1       4.461  -0.535  -4.181  0.00  0.00    -0.026 A 
ATOM     19  C   LIG d   1       3.442  -0.562  -3.247  0.00  0.00    -0.057 A 
ATOM     20  C   LIG d   1       3.530   0.212  -2.105  0.00  0.00    -0.061 A 
ATOM     21  H   LIG d   1       2.577  -1.188  -3.408  0.00  0.00     0.062 H 
ATOM     22  C   LIG d   1       4.638   1.012  -1.896  0.00  0.00    -0.062 A 
ATOM     23  H   LIG d   1       2.735   0.191  -1.374  0.00  0.00     0.062 H 
ATOM     24  C   LIG d   1       5.657   1.039  -2.830  0.00  0.00    -0.061 A 
ATOM     25  H   LIG d   1       4.705   1.622  -1.007  0.00  0.00     0.062 H 
ATOM     26  C   LIG d   1       5.568   0.266  -3.973  0.00  0.00    -0.057 A 
ATOM     27  H   LIG d   1       6.522   1.665  -2.669  0.00  0.00     0.062 H 
ATOM     28  H   LIG d   1       6.363   0.287  -4.703  0.00  0.00     0.062 H 
ENDBRANCH  16  18
BRANCH  16  29
ATOM     29  C   LIG d   1       4.234  -0.485  -6.631  0.00  0.00    -0.026 A 
ATOM     30  C   LIG d   1       3.008   0.067  -6.951  0.00  0.00    -0.055 A 
ATOM     31  C   LIG d   1       2.889   0.892  -8.055  0.00  0.00    -0.043 A 
ATOM     32  H   LIG d   1       2.144  -0.144  -6.338  0.00  0.00     0.062 H 
ATOM     33  C   LIG d   1       3.994   1.156  -8.843  0.00  0.00     0.041 A 
ATOM     34  H   LIG d   1       1.932   1.327  -8.302  0.00  0.00     0.063 H 
ATOM     35  C   LIG d   1       5.219   0.598  -8.524  0.00  0.00    -0.043 A 
ATOM     36 CL   LIG d   1       3.844   2.187 -10.231  0.00  0.00    -0.084 Cl
ATOM     37  C   LIG d   1       5.338  -0.222  -7.418  0.00  0.00    -0.055 A 
ATOM     38  H   LIG d   1       6.083   0.805  -9.139  0.00  0.00     0.063 H 
ATOM     39  H   LIG d   1       6.296  -0.656  -7.169  0.00  0.00     0.062 H 
ENDBRANCH  16  29
ENDBRANCH   1  16
BRANCH   4  40
ATOM     40  C   LIG d   1       8.352  -5.361  -5.356  0.00  0.00    -0.008 C 
ATOM     41  H   LIG d   1       8.106  -6.421  -5.423  0.00  0.00     0.084 H 
ATOM     42  H   LIG d   1       8.867  -5.049  -6.265  0.00  0.00     0.084 H 
BRANCH  40  43
ATOM     43  C   LIG d   1       9.260  -5.122  -4.148  0.00  0.00     0.088 C 
ATOM     44  H   LIG d   1      10.285  -4.975  -4.488  0.00  0.00     0.061 H 
ATOM     45  H   LIG d   1       8.924  -4.235  -3.611  0.00  0.00     0.061 H 
BRANCH  43  46
ATOM     46  O   LIG d   1       9.203  -6.255  -3.279  0.00  0.00    -0.369 OA
BRANCH  46  47
ATOM     47  C   LIG d   1       9.709  -6.007  -1.966  0.00  0.00     0.087 C 
ATOM     48  H   LIG d   1      10.154  -5.013  -1.930  0.00  0.00     0.062 H 
ATOM     49  H   LIG d   1       8.894  -6.066  -1.245  0.00  0.00     0.062 H 
BRANCH  47  50
ATOM     50  C   LIG d   1      10.755  -7.038  -1.628  0.00  0.00     0.067 C 
ATOM     51  O   LIG d   1      10.876  -7.431  -0.480  0.00  0.00    -0.547 OA
ATOM     52  O   LIG d   1      11.481  -7.479  -2.503  0.00  0.00    -0.547 OA
ENDBRANCH  47  50
ENDBRANCH  46  47
ENDBRANCH  43  46
ENDBRANCH  40  43
ENDBRANCH   4  40
TORSDOF 8
ENDMDL
MODEL 10
REMARK VINA RESULT:      -5.7      4.692      6.771
REMARK  8 active torsions:
REMARK  status: ('A' for Active; 'I' for Inactive)
REMARK    1  A    between atoms: C_4  and  C_7 
REMARK    2  A    between atoms: C_7  and  C_9 
REMARK    3  A    between atoms: C_7  and  N_16 
REMARK    4  A    between atoms: N_19  and  C_22 
REMARK    5  A    between atoms: C_22  and  C_23 
REMARK    6  A    between atoms: C_23  and  O_24 
REMARK    7  A    between atoms: O_24  and  C_25 
REMARK    8  A    between atoms: C_25  and  C_26 
ROOT
ATOM      1  N   LIG d   1       5.735  -0.933  -6.345  0.00  0.00    -0.281 N 
ATOM      2  C   LIG d   1       6.374  -0.757  -7.658  0.00  0.00     0.040 C 
ATOM      3  C   LIG d   1       5.560  -1.494  -8.722  0.00  0.00    -0.019 C 
ATOM      4  N   LIG d   1       4.192  -0.960  -8.750  0.00  0.00     0.239 N 
ATOM      5  C   LIG d   1       3.557  -1.164  -7.440  0.00  0.00    -0.019 C 
ATOM      6  C   LIG d   1       4.356  -0.424  -6.365  0.00  0.00     0.040 C 
ATOM      7  H   LIG d   1       6.417   0.304  -7.902  0.00  0.00     0.048 H 
ATOM      8  H   LIG d   1       7.385  -1.164  -7.626  0.00  0.00     0.048 H 
ATOM      9  H   LIG d   1       6.024  -1.353  -9.698  0.00  0.00     0.083 H 
ATOM     10  H   LIG d   1       5.529  -2.558  -8.484  0.00  0.00     0.083 H 
ATOM     11  H   LIG d   1       2.539  -0.778  -7.467  0.00  0.00     0.083 H 
ATOM     12  H   LIG d   1       3.537  -2.230  -7.210  0.00  0.00     0.083 H 
ATOM     13  H   LIG d   1       3.895  -0.588  -5.391  0.00  0.00     0.048 H 
ATOM     14  H   LIG d   1       4.366   0.643  -6.589  0.00  0.00     0.048 H 
ATOM     15  H   LIG d   1       4.221   0.027  -8.958  0.00  0.00     0.203 HD
ENDROOT
BRANCH   1  16
ATOM     16  C   LIG d   1       6.520  -0.286  -5.286  0.00  0.00     0.061 C 
ATOM     17  H   LIG d   1       6.678   0.763  -5.539  0.00  0.00     0.056 H 
BRANCH  16  18
ATOM     18  C   LIG d   1       5.775  -0.380  -3.980  0.00  0.00    -0.026 A 
ATOM     19  C   LIG d   1       5.249  -1.591  -3.570  0.00  0.00    -0.057 A 
ATOM     20  C   LIG d   1       4.566  -1.678  -2.372  0.00  0.00    -0.061 A 
ATOM     21  H   LIG d   1       5.373  -2.470  -4.186  0.00  0.00     0.062 H 
ATOM     22  C   LIG d   1       4.409  -0.554  -1.583  0.00  0.00    -0.062 A 
ATOM     23  H   LIG d   1       4.155  -2.624  -2.051  0.00  0.00     0.062 H 
ATOM     24  C   LIG d   1       4.935   0.657  -1.992  0.00  0.00    -0.061 A 
ATOM     25  H   LIG d   1       3.870  -0.620  -0.649  0.00  0.00     0.062 H 
ATOM     26  C   LIG d   1       5.617   0.744  -3.192  0.00  0.00    -0.057 A 
ATOM     27  H   LIG d   1       4.811   1.536  -1.377  0.00  0.00     0.062 H 
ATOM     28  H   LIG d   1       6.028   1.690  -3.512  0.00  0.00     0.062 H 
ENDBRANCH  16  18
BRANCH  16  29
ATOM     29  C   LIG d   1       7.853  -0.977  -5.156  0.00  0.00    -0.026 A 
ATOM     30  C   LIG d   1       7.906  -2.330  -4.880  0.00  0.00    -0.055 A 
ATOM     31  C   LIG d   1       9.129  -2.965  -4.766  0.00  0.00    -0.043 A 
ATOM     32  H   LIG d   1       6.992  -2.892  -4.756  0.00  0.00     0.062 H 
ATOM     33  C   LIG d   1      10.299  -2.244  -4.918  0.00  0.00     0.041 A 
ATOM     34  H   LIG d   1       9.170  -4.023  -4.555  0.00  0.00     0.063 H 
ATOM     35  C   LIG d   1      10.245  -0.888  -5.188  0.00  0.00    -0.043 A 
ATOM     36 CL   LIG d   1      11.835  -3.038  -4.769  0.00  0.00    -0.084 Cl
ATOM     37  C   LIG d   1       9.022  -0.255  -5.307  0.00  0.00    -0.055 A 
ATOM     38  H   LIG d   1      11.159  -0.324  -5.307  0.00  0.00     0.063 H 
ATOM     39  H   LIG d   1       8.980   0.803  -5.520  0.00  0.00     0.062 H 
ENDBRANCH  16  29
ENDBRANCH   1  16
BRANCH   4  40
ATOM     40  C   LIG d   1       3.414  -1.655  -9.784  0.00  0.00    -0.008 C 
ATOM     41  H   LIG d   1       3.977  -2.517 -10.143  0.00  0.00     0.084 H 
ATOM     42  H   LIG d   1       2.467  -1.991  -9.362  0.00  0.00     0.084 H 
BRANCH  40  43
ATOM     43  C   LIG d   1       3.145  -0.700 -10.948  0.00  0.00     0.088 C 
ATOM     44  H   LIG d   1       4.016  -0.672 -11.603  0.00  0.00     0.061 H 
ATOM     45  H   LIG d   1       2.279  -1.048 -11.511  0.00  0.00     0.061 H 
BRANCH  43  46
ATOM     46  O   LIG d   1       2.887   0.610 -10.439  0.00  0.00    -0.369 OA
BRANCH  46  47
ATOM     47  C   LIG d   1       3.920   1.557 -10.723  0.00  0.00     0.087 C 
ATOM     48  H   LIG d   1       4.754   1.051 -11.207  0.00  0.00     0.062 H 
ATOM     49  H   LIG d   1       3.531   2.331 -11.384  0.00  0.00     0.062 H 
BRANCH  47  50
ATOM     50  C   LIG d   1       4.392   2.185  -9.437  0.00  0.00     0.067 C 
ATOM     51  O   LIG d   1       5.532   2.606  -9.346  0.00  0.00    -0.547 OA
ATOM     52  O   LIG d   1       3.633   2.270  -8.486  0.00  0.00    -0.547 OA
ENDBRANCH  47  50
ENDBRANCH  46  47
ENDBRANCH  43  46
ENDBRANCH  40  43
ENDBRANCH   4  40
TORSDOF 8
ENDMDL
