MODEL 1
REMARK VINA RESULT:      -7.4      0.000      0.000
REMARK  5 active torsions:
REMARK  status: ('A' for Active; 'I' for Inactive)
REMARK    1  A    between atoms: C_1  and  C_2 
REMARK    2  A    between atoms: C_19  and  C_21 
REMARK    3  A    between atoms: C_21  and  N_22 
REMARK    4  A    between atoms: C_27  and  C_29 
REMARK    5  A    between atoms: C_29  and  O_30 
ROOT
ATOM      1  C   LIG d   1       6.135  -1.217  -4.192  0.00  0.00    -0.022 C 
ATOM      2  C   LIG d   1       5.452  -2.474  -3.658  0.00  0.00    -0.047 C 
ATOM      3  C   LIG d   1       4.065  -2.119  -3.121  0.00  0.00    -0.049 C 
ATOM      4  C   LIG d   1       4.202  -1.158  -1.935  0.00  0.00    -0.032 C 
ATOM      5  C   LIG d   1       5.031   0.032  -2.369  0.00  0.00    -0.073 C 
ATOM      6  C   LIG d   1       4.607   1.256  -2.174  0.00  0.00    -0.099 C 
ATOM      7  C   LIG d   1       6.362  -0.234  -3.034  0.00  0.00    -0.014 C 
ATOM      8  H   LIG d   1       7.066  -0.658  -2.319  0.00  0.00     0.035 H 
ATOM      9  C   LIG d   1       6.911   1.067  -3.615  0.00  0.00    -0.039 C 
ATOM     10  C   LIG d   1       8.269   0.827  -4.278  0.00  0.00     0.015 C 
ATOM     11  H   LIG d   1       9.071   0.692  -3.550  0.00  0.00     0.035 H 
ATOM     12  C   LIG d   1       8.192  -0.325  -5.298  0.00  0.00     0.107 C 
ATOM     13  H   LIG d   1       9.202  -0.596  -5.603  0.00  0.00     0.074 H 
ATOM     14  C   LIG d   1       7.499  -1.552  -4.795  0.00  0.00    -0.009 C 
ATOM     15  O   LIG d   1       7.508   0.255  -6.416  0.00  0.00    -0.461 OA
ATOM     16  C   LIG d   1       7.996   1.505  -6.584  0.00  0.00     0.316 C 
ATOM     17  O   LIG d   1       8.025   2.112  -7.629  0.00  0.00    -0.250 OA
ATOM     18  C   LIG d   1       8.513   2.032  -5.234  0.00  0.00     0.102 C 
ATOM     19  H   LIG d   1       7.943   2.902  -4.907  0.00  0.00     0.047 H 
ATOM     20  H   LIG d   1       5.355  -3.203  -4.462  0.00  0.00     0.027 H 
ATOM     21  H   LIG d   1       6.055  -2.900  -2.854  0.00  0.00     0.027 H 
ATOM     22  H   LIG d   1       3.482  -1.642  -3.909  0.00  0.00     0.027 H 
ATOM     23  H   LIG d   1       3.558  -3.028  -2.794  0.00  0.00     0.027 H 
ATOM     24  H   LIG d   1       3.214  -0.820  -1.622  0.00  0.00     0.031 H 
ATOM     25  H   LIG d   1       4.697  -1.666  -1.108  0.00  0.00     0.031 H 
ATOM     26  H   LIG d   1       3.653   1.428  -1.697  0.00  0.00     0.053 H 
ATOM     27  H   LIG d   1       5.211   2.093  -2.489  0.00  0.00     0.053 H 
ATOM     28  H   LIG d   1       6.212   1.452  -4.356  0.00  0.00     0.028 H 
ATOM     29  H   LIG d   1       7.025   1.797  -2.814  0.00  0.00     0.028 H 
ATOM     30  H   LIG d   1       8.123  -2.014  -4.030  0.00  0.00     0.031 H 
ATOM     31  H   LIG d   1       7.362  -2.255  -5.617  0.00  0.00     0.031 H 
ENDROOT
BRANCH  18  32
ATOM     32  C   LIG d   1      10.004   2.365  -5.312  0.00  0.00    -0.018 C 
ATOM     33  H   LIG d   1      10.557   1.720  -4.629  0.00  0.00     0.082 H 
ATOM     34  H   LIG d   1      10.360   2.203  -6.331  0.00  0.00     0.082 H 
BRANCH  32  35
ATOM     35  N   LIG d   1      10.214   3.769  -4.939  0.00  0.00     0.240 N 
ATOM     36  C   LIG d   1       9.859   3.958  -3.527  0.00  0.00     0.003 C 
ATOM     37  C   LIG d   1      10.152   5.400  -3.111  0.00  0.00    -0.007 C 
ATOM     38  H   LIG d   1       8.798   3.748  -3.389  0.00  0.00     0.087 H 
ATOM     39  C   LIG d   1       9.324   6.354  -3.978  0.00  0.00    -0.043 C 
ATOM     40  H   LIG d   1      11.212   5.610  -3.248  0.00  0.00     0.032 H 
ATOM     41  H   LIG d   1       9.886   5.538  -2.063  0.00  0.00     0.032 H 
ATOM     42  C   LIG d   1       9.649   6.097  -5.453  0.00  0.00    -0.012 C 
ATOM     43  H   LIG d   1       9.571   7.384  -3.724  0.00  0.00     0.027 H 
ATOM     44  H   LIG d   1       8.263   6.178  -3.802  0.00  0.00     0.027 H 
ATOM     45  C   LIG d   1       9.375   4.628  -5.782  0.00  0.00    -0.032 C 
ATOM     46  H   LIG d   1      10.698   6.322  -5.639  0.00  0.00     0.032 H 
ATOM     47  H   LIG d   1       9.023   6.734  -6.078  0.00  0.00     0.032 H 
ATOM     48  H   LIG d   1       9.603   4.443  -6.831  0.00  0.00     0.081 H 
ATOM     49  H   LIG d   1       8.323   4.405  -5.596  0.00  0.00     0.081 H 
ATOM     50  H   LIG d   1      11.184   4.011  -5.076  0.00  0.00     0.204 HD
BRANCH  36  51
ATOM     51  C   LIG d   1      10.683   3.001  -2.663  0.00  0.00     0.087 C 
ATOM     52  H   LIG d   1      10.061   2.158  -2.360  0.00  0.00     0.061 H 
ATOM     53  H   LIG d   1      11.536   2.637  -3.235  0.00  0.00     0.061 H 
BRANCH  51  54
ATOM     54  O   LIG d   1      11.148   3.691  -1.501  0.00  0.00    -0.390 OA
ATOM     55  H   LIG d   1      10.441   4.029  -0.934  0.00  0.00     0.210 HD
ENDBRANCH  51  54
ENDBRANCH  36  51
ENDBRANCH  32  35
ENDBRANCH  18  32
BRANCH   1  56
ATOM     56  C   LIG d   1       5.249  -0.563  -5.255  0.00  0.00    -0.059 C 
ATOM     57  H   LIG d   1       4.685  -1.333  -5.781  0.00  0.00     0.024 H 
ATOM     58  H   LIG d   1       4.557   0.129  -4.775  0.00  0.00     0.024 H 
ATOM     59  H   LIG d   1       5.873  -0.020  -5.964  0.00  0.00     0.024 H 
ENDBRANCH   1  56
TORSDOF 5
ENDMDL
MODEL 2
REMARK VINA RESULT:      -6.9      1.597      2.034
REMARK  5 active torsions:
REMARK  status: ('A' for Active; 'I' for Inactive)
REMARK    1  A    between atoms: C_1  and  C_2 
REMARK    2  A    between atoms: C_19  and  C_21 
REMARK    3  A    between atoms: C_21  and  N_22 
REMARK    4  A    between atoms: C_27  and  C_29 
REMARK    5  A    between atoms: C_29  and  O_30 
ROOT
ATOM      1  C   LIG d   1       6.199  -1.204  -4.055  0.00  0.00    -0.022 C 
ATOM      2  C   LIG d   1       5.615  -2.517  -3.538  0.00  0.00    -0.047 C 
ATOM      3  C   LIG d   1       4.154  -2.309  -3.138  0.00  0.00    -0.049 C 
ATOM      4  C   LIG d   1       4.074  -1.309  -1.980  0.00  0.00    -0.032 C 
ATOM      5  C   LIG d   1       4.801  -0.043  -2.382  0.00  0.00    -0.073 C 
ATOM      6  C   LIG d   1       4.228   1.130  -2.269  0.00  0.00    -0.099 C 
ATOM      7  C   LIG d   1       6.209  -0.172  -2.918  0.00  0.00    -0.014 C 
ATOM      8  H   LIG d   1       6.888  -0.495  -2.129  0.00  0.00     0.035 H 
ATOM      9  C   LIG d   1       6.661   1.167  -3.494  0.00  0.00    -0.039 C 
ATOM     10  C   LIG d   1       8.092   1.066  -4.027  0.00  0.00     0.015 C 
ATOM     11  H   LIG d   1       8.833   1.043  -3.228  0.00  0.00     0.035 H 
ATOM     12  C   LIG d   1       8.236  -0.113  -5.008  0.00  0.00     0.107 C 
ATOM     13  H   LIG d   1       9.294  -0.275  -5.214  0.00  0.00     0.074 H 
ATOM     14  C   LIG d   1       7.641  -1.398  -4.524  0.00  0.00    -0.009 C 
ATOM     15  O   LIG d   1       7.597   0.356  -6.202  0.00  0.00    -0.461 OA
ATOM     16  C   LIG d   1       7.956   1.649  -6.372  0.00  0.00     0.316 C 
ATOM     17  O   LIG d   1       8.012   2.228  -7.431  0.00  0.00    -0.250 OA
ATOM     18  C   LIG d   1       8.286   2.266  -5.001  0.00  0.00     0.102 C 
ATOM     19  H   LIG d   1       7.596   3.074  -4.757  0.00  0.00     0.047 H 
ATOM     20  H   LIG d   1       5.673  -3.273  -4.321  0.00  0.00     0.027 H 
ATOM     21  H   LIG d   1       6.185  -2.851  -2.669  0.00  0.00     0.027 H 
ATOM     22  H   LIG d   1       3.595  -1.922  -3.991  0.00  0.00     0.027 H 
ATOM     23  H   LIG d   1       3.723  -3.261  -2.824  0.00  0.00     0.027 H 
ATOM     24  H   LIG d   1       3.030  -1.077  -1.767  0.00  0.00     0.031 H 
ATOM     25  H   LIG d   1       4.545  -1.735  -1.095  0.00  0.00     0.031 H 
ATOM     26  H   LIG d   1       3.222   1.203  -1.884  0.00  0.00     0.053 H 
ATOM     27  H   LIG d   1       4.762   2.022  -2.560  0.00  0.00     0.053 H 
ATOM     28  H   LIG d   1       5.993   1.450  -4.308  0.00  0.00     0.028 H 
ATOM     29  H   LIG d   1       6.619   1.926  -2.714  0.00  0.00     0.028 H 
ATOM     30  H   LIG d   1       8.240  -1.766  -3.691  0.00  0.00     0.031 H 
ATOM     31  H   LIG d   1       7.658  -2.132  -5.329  0.00  0.00     0.031 H 
ENDROOT
BRANCH  18  32
ATOM     32  C   LIG d   1       9.732   2.765  -4.960  0.00  0.00    -0.018 C 
ATOM     33  H   LIG d   1      10.052   2.867  -3.923  0.00  0.00     0.082 H 
ATOM     34  H   LIG d   1      10.377   2.048  -5.470  0.00  0.00     0.082 H 
BRANCH  32  35
ATOM     35  N   LIG d   1       9.821   4.067  -5.632  0.00  0.00     0.240 N 
ATOM     36  C   LIG d   1      11.168   4.238  -6.191  0.00  0.00     0.003 C 
ATOM     37  C   LIG d   1      11.241   5.557  -6.961  0.00  0.00    -0.007 C 
ATOM     38  H   LIG d   1      11.898   4.248  -5.380  0.00  0.00     0.087 H 
ATOM     39  C   LIG d   1      10.932   6.717  -6.008  0.00  0.00    -0.043 C 
ATOM     40  H   LIG d   1      10.513   5.547  -7.771  0.00  0.00     0.032 H 
ATOM     41  H   LIG d   1      12.243   5.682  -7.373  0.00  0.00     0.032 H 
ATOM     42  C   LIG d   1       9.556   6.489  -5.375  0.00  0.00    -0.012 C 
ATOM     43  H   LIG d   1      10.928   7.654  -6.564  0.00  0.00     0.027 H 
ATOM     44  H   LIG d   1      11.691   6.757  -5.226  0.00  0.00     0.027 H 
ATOM     45  C   LIG d   1       9.545   5.135  -4.664  0.00  0.00    -0.032 C 
ATOM     46  H   LIG d   1       8.793   6.499  -6.151  0.00  0.00     0.032 H 
ATOM     47  H   LIG d   1       9.353   7.282  -4.654  0.00  0.00     0.032 H 
ATOM     48  H   LIG d   1       8.567   4.971  -4.211  0.00  0.00     0.081 H 
ATOM     49  H   LIG d   1      10.309   5.127  -3.886  0.00  0.00     0.081 H 
ATOM     50  H   LIG d   1       9.142   4.107  -6.376  0.00  0.00     0.204 HD
BRANCH  36  51
ATOM     51  C   LIG d   1      11.477   3.077  -7.138  0.00  0.00     0.087 C 
ATOM     52  H   LIG d   1      12.534   3.093  -7.401  0.00  0.00     0.061 H 
ATOM     53  H   LIG d   1      11.238   2.133  -6.646  0.00  0.00     0.061 H 
BRANCH  51  54
ATOM     54  O   LIG d   1      10.689   3.208  -8.324  0.00  0.00    -0.390 OA
ATOM     55  H   LIG d   1      10.118   2.448  -8.502  0.00  0.00     0.210 HD
ENDBRANCH  51  54
ENDBRANCH  36  51
ENDBRANCH  32  35
ENDBRANCH  18  32
BRANCH   1  56
ATOM     56  C   LIG d   1       5.346  -0.684  -5.214  0.00  0.00    -0.059 C 
ATOM     57  H   LIG d   1       5.769  -1.026  -6.159  0.00  0.00     0.024 H 
ATOM     58  H   LIG d   1       4.328  -1.061  -5.114  0.00  0.00     0.024 H 
ATOM     59  H   LIG d   1       5.334   0.406  -5.196  0.00  0.00     0.024 H 
ENDBRANCH   1  56
TORSDOF 5
ENDMDL
MODEL 3
REMARK VINA RESULT:      -6.8      4.084      5.625
REMARK  5 active torsions:
REMARK  status: ('A' for Active; 'I' for Inactive)
REMARK    1  A    between atoms: C_1  and  C_2 
REMARK    2  A    between atoms: C_19  and  C_21 
REMARK    3  A    between atoms: C_21  and  N_22 
REMARK    4  A    between atoms: C_27  and  C_29 
REMARK    5  A    between atoms: C_29  and  O_30 
ROOT
ATOM      1  C   LIG d   1       4.359  -1.493  -3.625  0.00  0.00    -0.022 C 
ATOM      2  C   LIG d   1       3.203  -1.075  -2.718  0.00  0.00    -0.047 C 
ATOM      3  C   LIG d   1       3.131   0.451  -2.646  0.00  0.00    -0.049 C 
ATOM      4  C   LIG d   1       4.411   0.998  -2.005  0.00  0.00    -0.032 C 
ATOM      5  C   LIG d   1       5.603   0.461  -2.768  0.00  0.00    -0.073 C 
ATOM      6  C   LIG d   1       6.537   1.265  -3.213  0.00  0.00    -0.099 C 
ATOM      7  C   LIG d   1       5.684  -1.030  -3.002  0.00  0.00    -0.014 C 
ATOM      8  H   LIG d   1       5.856  -1.554  -2.062  0.00  0.00     0.035 H 
ATOM      9  C   LIG d   1       6.806  -1.332  -3.992  0.00  0.00    -0.039 C 
ATOM     10  C   LIG d   1       6.920  -2.839  -4.231  0.00  0.00     0.015 C 
ATOM     11  H   LIG d   1       7.381  -3.360  -3.391  0.00  0.00     0.035 H 
ATOM     12  C   LIG d   1       5.559  -3.441  -4.632  0.00  0.00     0.107 C 
ATOM     13  H   LIG d   1       5.631  -4.528  -4.603  0.00  0.00     0.074 H 
ATOM     14  C   LIG d   1       4.415  -3.014  -3.768  0.00  0.00    -0.009 C 
ATOM     15  O   LIG d   1       5.389  -3.022  -5.992  0.00  0.00    -0.461 OA
ATOM     16  C   LIG d   1       6.585  -3.148  -6.608  0.00  0.00     0.316 C 
ATOM     17  O   LIG d   1       6.749  -3.338  -7.790  0.00  0.00    -0.250 OA
ATOM     18  C   LIG d   1       7.708  -3.016  -5.563  0.00  0.00     0.102 C 
ATOM     19  H   LIG d   1       8.329  -2.143  -5.761  0.00  0.00     0.047 H 
ATOM     20  H   LIG d   1       2.268  -1.464  -3.120  0.00  0.00     0.027 H 
ATOM     21  H   LIG d   1       3.364  -1.478  -1.717  0.00  0.00     0.027 H 
ATOM     22  H   LIG d   1       3.027   0.858  -3.653  0.00  0.00     0.027 H 
ATOM     23  H   LIG d   1       2.270   0.747  -2.045  0.00  0.00     0.027 H 
ATOM     24  H   LIG d   1       4.408   2.087  -2.053  0.00  0.00     0.031 H 
ATOM     25  H   LIG d   1       4.466   0.675  -0.967  0.00  0.00     0.031 H 
ATOM     26  H   LIG d   1       6.463   2.328  -3.037  0.00  0.00     0.053 H 
ATOM     27  H   LIG d   1       7.381   0.864  -3.755  0.00  0.00     0.053 H 
ATOM     28  H   LIG d   1       6.593  -0.833  -4.938  0.00  0.00     0.028 H 
ATOM     29  H   LIG d   1       7.748  -0.958  -3.592  0.00  0.00     0.028 H 
ATOM     30  H   LIG d   1       4.540  -3.461  -2.781  0.00  0.00     0.031 H 
ATOM     31  H   LIG d   1       3.480  -3.366  -4.203  0.00  0.00     0.031 H 
ENDROOT
BRANCH  18  32
ATOM     32  C   LIG d   1       8.564  -4.284  -5.518  0.00  0.00    -0.018 C 
ATOM     33  H   LIG d   1       8.222  -4.924  -4.704  0.00  0.00     0.082 H 
ATOM     34  H   LIG d   1       8.471  -4.819  -6.463  0.00  0.00     0.082 H 
BRANCH  32  35
ATOM     35  N   LIG d   1       9.969  -3.920  -5.298  0.00  0.00     0.240 N 
ATOM     36  C   LIG d   1      10.233  -3.838  -3.856  0.00  0.00     0.003 C 
ATOM     37  C   LIG d   1      11.714  -3.539  -3.621  0.00  0.00    -0.007 C 
ATOM     38  H   LIG d   1       9.627  -3.043  -3.421  0.00  0.00     0.087 H 
ATOM     39  C   LIG d   1      12.071  -2.204  -4.282  0.00  0.00    -0.043 C 
ATOM     40  H   LIG d   1      12.320  -4.334  -4.055  0.00  0.00     0.032 H 
ATOM     41  H   LIG d   1      11.907  -3.477  -2.550  0.00  0.00     0.032 H 
ATOM     42  C   LIG d   1      11.722  -2.275  -5.772  0.00  0.00    -0.012 C 
ATOM     43  H   LIG d   1      13.138  -2.013  -4.166  0.00  0.00     0.027 H 
ATOM     44  H   LIG d   1      11.502  -1.401  -3.813  0.00  0.00     0.027 H 
ATOM     45  C   LIG d   1      10.241  -2.622  -5.928  0.00  0.00    -0.032 C 
ATOM     46  H   LIG d   1      12.328  -3.043  -6.251  0.00  0.00     0.032 H 
ATOM     47  H   LIG d   1      11.922  -1.310  -6.238  0.00  0.00     0.032 H 
ATOM     48  H   LIG d   1       9.989  -2.673  -6.987  0.00  0.00     0.081 H 
ATOM     49  H   LIG d   1       9.635  -1.852  -5.449  0.00  0.00     0.081 H 
ATOM     50  H   LIG d   1      10.566  -4.622  -5.709  0.00  0.00     0.204 HD
BRANCH  36  51
ATOM     51  C   LIG d   1       9.871  -5.170  -3.196  0.00  0.00     0.087 C 
ATOM     52  H   LIG d   1       8.931  -5.065  -2.655  0.00  0.00     0.061 H 
ATOM     53  H   LIG d   1       9.767  -5.939  -3.962  0.00  0.00     0.061 H 
BRANCH  51  54
ATOM     54  O   LIG d   1      10.906  -5.545  -2.283  0.00  0.00    -0.390 OA
ATOM     55  H   LIG d   1      10.588  -6.018  -1.501  0.00  0.00     0.210 HD
ENDBRANCH  51  54
ENDBRANCH  36  51
ENDBRANCH  32  35
ENDBRANCH  18  32
BRANCH   1  56
ATOM     56  C   LIG d   1       4.188  -0.853  -5.005  0.00  0.00    -0.059 C 
ATOM     57  H   LIG d   1       4.474   0.198  -4.955  0.00  0.00     0.024 H 
ATOM     58  H   LIG d   1       4.822  -1.369  -5.725  0.00  0.00     0.024 H 
ATOM     59  H   LIG d   1       3.146  -0.931  -5.315  0.00  0.00     0.024 H 
ENDBRANCH   1  56
TORSDOF 5
ENDMDL
MODEL 4
REMARK VINA RESULT:      -6.7      4.906      7.541
REMARK  5 active torsions:
REMARK  status: ('A' for Active; 'I' for Inactive)
REMARK    1  A    between atoms: C_1  and  C_2 
REMARK    2  A    between atoms: C_19  and  C_21 
REMARK    3  A    between atoms: C_21  and  N_22 
REMARK    4  A    between atoms: C_27  and  C_29 
REMARK    5  A    between atoms: C_29  and  O_30 
ROOT
ATOM      1  C   LIG d   1       3.316  -0.911 -11.019  0.00  0.00    -0.022 C 
ATOM      2  C   LIG d   1       3.300  -0.961 -12.546  0.00  0.00    -0.047 C 
ATOM      3  C   LIG d   1       2.125  -1.818 -13.021  0.00  0.00    -0.049 C 
ATOM      4  C   LIG d   1       2.312  -3.260 -12.538  0.00  0.00    -0.032 C 
ATOM      5  C   LIG d   1       2.512  -3.247 -11.038  0.00  0.00    -0.073 C 
ATOM      6  C   LIG d   1       1.794  -4.013 -10.254  0.00  0.00    -0.099 C 
ATOM      7  C   LIG d   1       3.566  -2.324 -10.470  0.00  0.00    -0.014 C 
ATOM      8  H   LIG d   1       4.562  -2.663 -10.754  0.00  0.00     0.035 H 
ATOM      9  C   LIG d   1       3.435  -2.273  -8.950  0.00  0.00    -0.039 C 
ATOM     10  C   LIG d   1       4.505  -1.358  -8.350  0.00  0.00     0.015 C 
ATOM     11  H   LIG d   1       5.495  -1.816  -8.353  0.00  0.00     0.035 H 
ATOM     12  C   LIG d   1       4.488   0.029  -9.021  0.00  0.00     0.107 C 
ATOM     13  H   LIG d   1       5.375   0.582  -8.713  0.00  0.00     0.074 H 
ATOM     14  C   LIG d   1       4.442  -0.008 -10.516  0.00  0.00    -0.009 C 
ATOM     15  O   LIG d   1       3.329   0.662  -8.465  0.00  0.00    -0.461 OA
ATOM     16  C   LIG d   1       3.293   0.358  -7.149  0.00  0.00     0.316 C 
ATOM     17  O   LIG d   1       2.781   1.033  -6.286  0.00  0.00    -0.250 OA
ATOM     18  C   LIG d   1       4.013  -0.983  -6.920  0.00  0.00     0.102 C 
ATOM     19  H   LIG d   1       3.325  -1.739  -6.540  0.00  0.00     0.047 H 
ATOM     20  H   LIG d   1       3.195   0.050 -12.940  0.00  0.00     0.027 H 
ATOM     21  H   LIG d   1       4.234  -1.395 -12.904  0.00  0.00     0.027 H 
ATOM     22  H   LIG d   1       1.196  -1.417 -12.616  0.00  0.00     0.027 H 
ATOM     23  H   LIG d   1       2.082  -1.803 -14.110  0.00  0.00     0.027 H 
ATOM     24  H   LIG d   1       1.425  -3.845 -12.782  0.00  0.00     0.031 H 
ATOM     25  H   LIG d   1       3.185  -3.697 -13.020  0.00  0.00     0.031 H 
ATOM     26  H   LIG d   1       1.046  -4.667 -10.677  0.00  0.00     0.053 H 
ATOM     27  H   LIG d   1       1.951  -3.991  -9.186  0.00  0.00     0.053 H 
ATOM     28  H   LIG d   1       2.448  -1.893  -8.688  0.00  0.00     0.028 H 
ATOM     29  H   LIG d   1       3.553  -3.278  -8.546  0.00  0.00     0.028 H 
ATOM     30  H   LIG d   1       5.395  -0.388 -10.884  0.00  0.00     0.031 H 
ATOM     31  H   LIG d   1       4.288   1.000 -10.900  0.00  0.00     0.031 H 
ENDROOT
BRANCH  18  32
ATOM     32  C   LIG d   1       5.200  -0.811  -5.970  0.00  0.00    -0.018 C 
ATOM     33  H   LIG d   1       5.820  -1.707  -5.997  0.00  0.00     0.082 H 
ATOM     34  H   LIG d   1       5.793   0.050  -6.282  0.00  0.00     0.082 H 
BRANCH  32  35
ATOM     35  N   LIG d   1       4.708  -0.596  -4.603  0.00  0.00     0.240 N 
ATOM     36  C   LIG d   1       5.847  -0.515  -3.681  0.00  0.00     0.003 C 
ATOM     37  C   LIG d   1       5.344  -0.211  -2.269  0.00  0.00    -0.007 C 
ATOM     38  H   LIG d   1       6.381  -1.466  -3.680  0.00  0.00     0.087 H 
ATOM     39  C   LIG d   1       4.398  -1.328  -1.817  0.00  0.00    -0.043 C 
ATOM     40  H   LIG d   1       4.812   0.740  -2.269  0.00  0.00     0.032 H 
ATOM     41  H   LIG d   1       6.192  -0.154  -1.586  0.00  0.00     0.032 H 
ATOM     42  C   LIG d   1       3.254  -1.452  -2.827  0.00  0.00    -0.012 C 
ATOM     43  H   LIG d   1       3.994  -1.088  -0.834  0.00  0.00     0.027 H 
ATOM     44  H   LIG d   1       4.944  -2.270  -1.768  0.00  0.00     0.027 H 
ATOM     45  C   LIG d   1       3.834  -1.710  -4.219  0.00  0.00    -0.032 C 
ATOM     46  H   LIG d   1       2.677  -0.528  -2.839  0.00  0.00     0.032 H 
ATOM     47  H   LIG d   1       2.606  -2.282  -2.542  0.00  0.00     0.032 H 
ATOM     48  H   LIG d   1       3.021  -1.800  -4.940  0.00  0.00     0.081 H 
ATOM     49  H   LIG d   1       4.410  -2.636  -4.206  0.00  0.00     0.081 H 
ATOM     50  H   LIG d   1       4.186   0.267  -4.567  0.00  0.00     0.204 HD
BRANCH  36  51
ATOM     51  C   LIG d   1       6.793   0.597  -4.136  0.00  0.00     0.087 C 
ATOM     52  H   LIG d   1       7.825   0.291  -3.963  0.00  0.00     0.061 H 
ATOM     53  H   LIG d   1       6.644   0.790  -5.198  0.00  0.00     0.061 H 
BRANCH  51  54
ATOM     54  O   LIG d   1       6.520   1.788  -3.393  0.00  0.00    -0.390 OA
ATOM     55  H   LIG d   1       5.672   2.200  -3.609  0.00  0.00     0.210 HD
ENDBRANCH  51  54
ENDBRANCH  36  51
ENDBRANCH  32  35
ENDBRANCH  18  32
BRANCH   1  56
ATOM     56  C   LIG d   1       1.971  -0.391 -10.507  0.00  0.00    -0.059 C 
ATOM     57  H   LIG d   1       1.186  -0.657 -11.215  0.00  0.00     0.024 H 
ATOM     58  H   LIG d   1       1.753  -0.840  -9.538  0.00  0.00     0.024 H 
ATOM     59  H   LIG d   1       2.016   0.693 -10.404  0.00  0.00     0.024 H 
ENDBRANCH   1  56
TORSDOF 5
ENDMDL
MODEL 5
REMARK VINA RESULT:      -6.7      5.695      7.504
REMARK  5 active torsions:
REMARK  status: ('A' for Active; 'I' for Inactive)
REMARK    1  A    between atoms: C_1  and  C_2 
REMARK    2  A    between atoms: C_19  and  C_21 
REMARK    3  A    between atoms: C_21  and  N_22 
REMARK    4  A    between atoms: C_27  and  C_29 
REMARK    5  A    between atoms: C_29  and  O_30 
ROOT
ATOM      1  C   LIG d   1       9.278  -5.481  -5.319  0.00  0.00    -0.022 C 
ATOM      2  C   LIG d   1      10.716  -5.924  -5.580  0.00  0.00    -0.047 C 
ATOM      3  C   LIG d   1      11.394  -6.279  -4.256  0.00  0.00    -0.049 C 
ATOM      4  C   LIG d   1      11.474  -5.034  -3.367  0.00  0.00    -0.032 C 
ATOM      5  C   LIG d   1      10.085  -4.450  -3.224  0.00  0.00    -0.073 C 
ATOM      6  C   LIG d   1       9.586  -4.177  -2.044  0.00  0.00    -0.099 C 
ATOM      7  C   LIG d   1       9.289  -4.192  -4.484  0.00  0.00    -0.014 C 
ATOM      8  H   LIG d   1       9.738  -3.381  -5.057  0.00  0.00     0.035 H 
ATOM      9  C   LIG d   1       7.848  -3.851  -4.116  0.00  0.00    -0.039 C 
ATOM     10  C   LIG d   1       7.026  -3.567  -5.376  0.00  0.00     0.015 C 
ATOM     11  H   LIG d   1       7.254  -2.594  -5.812  0.00  0.00     0.035 H 
ATOM     12  C   LIG d   1       7.152  -4.719  -6.391  0.00  0.00     0.107 C 
ATOM     13  H   LIG d   1       6.722  -4.402  -7.341  0.00  0.00     0.074 H 
ATOM     14  C   LIG d   1       8.555  -5.180  -6.632  0.00  0.00    -0.009 C 
ATOM     15  O   LIG d   1       6.335  -5.756  -5.833  0.00  0.00    -0.461 OA
ATOM     16  C   LIG d   1       5.216  -5.173  -5.348  0.00  0.00     0.316 C 
ATOM     17  O   LIG d   1       4.140  -5.710  -5.232  0.00  0.00    -0.250 OA
ATOM     18  C   LIG d   1       5.529  -3.715  -4.969  0.00  0.00     0.102 C 
ATOM     19  H   LIG d   1       5.405  -3.551  -3.899  0.00  0.00     0.047 H 
ATOM     20  H   LIG d   1      10.714  -6.797  -6.233  0.00  0.00     0.027 H 
ATOM     21  H   LIG d   1      11.264  -5.112  -6.061  0.00  0.00     0.027 H 
ATOM     22  H   LIG d   1      10.815  -7.052  -3.748  0.00  0.00     0.027 H 
ATOM     23  H   LIG d   1      12.401  -6.651  -4.451  0.00  0.00     0.027 H 
ATOM     24  H   LIG d   1      11.857  -5.309  -2.384  0.00  0.00     0.031 H 
ATOM     25  H   LIG d   1      12.134  -4.299  -3.827  0.00  0.00     0.031 H 
ATOM     26  H   LIG d   1      10.168  -4.367  -1.155  0.00  0.00     0.053 H 
ATOM     27  H   LIG d   1       8.593  -3.760  -1.961  0.00  0.00     0.053 H 
ATOM     28  H   LIG d   1       7.406  -4.691  -3.580  0.00  0.00     0.028 H 
ATOM     29  H   LIG d   1       7.840  -2.970  -3.475  0.00  0.00     0.028 H 
ATOM     30  H   LIG d   1       9.092  -4.395  -7.164  0.00  0.00     0.031 H 
ATOM     31  H   LIG d   1       8.540  -6.082  -7.245  0.00  0.00     0.031 H 
ENDROOT
BRANCH  18  32
ATOM     32  C   LIG d   1       4.656  -2.743  -5.767  0.00  0.00    -0.018 C 
ATOM     33  H   LIG d   1       5.293  -2.082  -6.355  0.00  0.00     0.082 H 
ATOM     34  H   LIG d   1       4.003  -3.306  -6.434  0.00  0.00     0.082 H 
BRANCH  32  35
ATOM     35  N   LIG d   1       3.841  -1.945  -4.842  0.00  0.00     0.240 N 
ATOM     36  C   LIG d   1       4.068  -0.518  -5.098  0.00  0.00     0.003 C 
ATOM     37  C   LIG d   1       3.161   0.318  -4.193  0.00  0.00    -0.007 C 
ATOM     38  H   LIG d   1       5.111  -0.274  -4.892  0.00  0.00     0.087 H 
ATOM     39  C   LIG d   1       3.479   0.003  -2.728  0.00  0.00    -0.043 C 
ATOM     40  H   LIG d   1       2.118   0.075  -4.400  0.00  0.00     0.032 H 
ATOM     41  H   LIG d   1       3.333   1.377  -4.384  0.00  0.00     0.032 H 
ATOM     42  C   LIG d   1       3.310  -1.501  -2.492  0.00  0.00    -0.012 C 
ATOM     43  H   LIG d   1       2.798   0.554  -2.081  0.00  0.00     0.027 H 
ATOM     44  H   LIG d   1       4.507   0.293  -2.509  0.00  0.00     0.027 H 
ATOM     45  C   LIG d   1       4.212  -2.269  -3.460  0.00  0.00    -0.032 C 
ATOM     46  H   LIG d   1       2.271  -1.781  -2.662  0.00  0.00     0.032 H 
ATOM     47  H   LIG d   1       3.589  -1.740  -1.466  0.00  0.00     0.032 H 
ATOM     48  H   LIG d   1       4.095  -3.340  -3.294  0.00  0.00     0.081 H 
ATOM     49  H   LIG d   1       5.252  -1.988  -3.288  0.00  0.00     0.081 H 
ATOM     50  H   LIG d   1       2.865  -2.160  -4.986  0.00  0.00     0.204 HD
BRANCH  36  51
ATOM     51  C   LIG d   1       3.755  -0.206  -6.563  0.00  0.00     0.087 C 
ATOM     52  H   LIG d   1       4.161   0.771  -6.822  0.00  0.00     0.061 H 
ATOM     53  H   LIG d   1       4.203  -0.968  -7.201  0.00  0.00     0.061 H 
BRANCH  51  54
ATOM     54  O   LIG d   1       2.338  -0.198  -6.754  0.00  0.00    -0.390 OA
ATOM     55  H   LIG d   1       2.049   0.303  -7.529  0.00  0.00     0.210 HD
ENDBRANCH  51  54
ENDBRANCH  36  51
ENDBRANCH  32  35
ENDBRANCH  18  32
BRANCH   1  56
ATOM     56  C   LIG d   1       8.531  -6.580  -4.560  0.00  0.00    -0.059 C 
ATOM     57  H   LIG d   1       8.621  -6.405  -3.488  0.00  0.00     0.024 H 
ATOM     58  H   LIG d   1       7.479  -6.565  -4.843  0.00  0.00     0.024 H 
ATOM     59  H   LIG d   1       8.962  -7.549  -4.807  0.00  0.00     0.024 H 
ENDBRANCH   1  56
TORSDOF 5
ENDMDL
MODEL 6
REMARK VINA RESULT:      -6.7      5.426      8.529
REMARK  5 active torsions:
REMARK  status: ('A' for Active; 'I' for Inactive)
REMARK    1  A    between atoms: C_1  and  C_2 
REMARK    2  A    between atoms: C_19  and  C_21 
REMARK    3  A    between atoms: C_21  and  N_22 
REMARK    4  A    between atoms: C_27  and  C_29 
REMARK    5  A    between atoms: C_29  and  O_30 
ROOT
ATOM      1  C   LIG d   1       4.978  -1.154  -3.325  0.00  0.00    -0.022 C 
ATOM      2  C   LIG d   1       5.346  -0.164  -2.221  0.00  0.00    -0.047 C 
ATOM      3  C   LIG d   1       4.113   0.650  -1.828  0.00  0.00    -0.049 C 
ATOM      4  C   LIG d   1       3.643   1.484  -3.025  0.00  0.00    -0.032 C 
ATOM      5  C   LIG d   1       3.435   0.561  -4.207  0.00  0.00    -0.073 C 
ATOM      6  C   LIG d   1       2.314   0.574  -4.885  0.00  0.00    -0.099 C 
ATOM      7  C   LIG d   1       4.559  -0.378  -4.582  0.00  0.00    -0.014 C 
ATOM      8  H   LIG d   1       5.407   0.183  -4.973  0.00  0.00     0.035 H 
ATOM      9  C   LIG d   1       4.061  -1.383  -5.617  0.00  0.00    -0.039 C 
ATOM     10  C   LIG d   1       5.188  -2.333  -6.027  0.00  0.00     0.015 C 
ATOM     11  H   LIG d   1       5.916  -1.858  -6.686  0.00  0.00     0.035 H 
ATOM     12  C   LIG d   1       5.840  -2.985  -4.793  0.00  0.00     0.107 C 
ATOM     13  H   LIG d   1       6.751  -3.496  -5.102  0.00  0.00     0.074 H 
ATOM     14  C   LIG d   1       6.177  -2.028  -3.693  0.00  0.00    -0.009 C 
ATOM     15  O   LIG d   1       4.878  -3.962  -4.376  0.00  0.00    -0.461 OA
ATOM     16  C   LIG d   1       4.394  -4.555  -5.490  0.00  0.00     0.316 C 
ATOM     17  O   LIG d   1       3.946  -5.676  -5.550  0.00  0.00    -0.250 OA
ATOM     18  C   LIG d   1       4.505  -3.576  -6.672  0.00  0.00     0.102 C 
ATOM     19  H   LIG d   1       3.521  -3.314  -7.061  0.00  0.00     0.047 H 
ATOM     20  H   LIG d   1       5.712  -0.710  -1.352  0.00  0.00     0.027 H 
ATOM     21  H   LIG d   1       6.125   0.508  -2.583  0.00  0.00     0.027 H 
ATOM     22  H   LIG d   1       3.314  -0.025  -1.521  0.00  0.00     0.027 H 
ATOM     23  H   LIG d   1       4.364   1.315  -1.001  0.00  0.00     0.027 H 
ATOM     24  H   LIG d   1       2.703   1.979  -2.780  0.00  0.00     0.031 H 
ATOM     25  H   LIG d   1       4.398   2.228  -3.272  0.00  0.00     0.031 H 
ATOM     26  H   LIG d   1       1.521   1.252  -4.603  0.00  0.00     0.053 H 
ATOM     27  H   LIG d   1       2.183  -0.091  -5.725  0.00  0.00     0.053 H 
ATOM     28  H   LIG d   1       3.241  -1.960  -5.192  0.00  0.00     0.028 H 
ATOM     29  H   LIG d   1       3.706  -0.846  -6.496  0.00  0.00     0.028 H 
ATOM     30  H   LIG d   1       6.995  -1.389  -4.027  0.00  0.00     0.031 H 
ATOM     31  H   LIG d   1       6.496  -2.585  -2.812  0.00  0.00     0.031 H 
ENDROOT
BRANCH  18  32
ATOM     32  C   LIG d   1       5.383  -4.157  -7.782  0.00  0.00    -0.018 C 
ATOM     33  H   LIG d   1       5.476  -3.432  -8.591  0.00  0.00     0.082 H 
ATOM     34  H   LIG d   1       6.373  -4.382  -7.382  0.00  0.00     0.082 H 
BRANCH  32  35
ATOM     35  N   LIG d   1       4.772  -5.389  -8.297  0.00  0.00     0.240 N 
ATOM     36  C   LIG d   1       5.826  -6.304  -8.753  0.00  0.00     0.003 C 
ATOM     37  C   LIG d   1       5.199  -7.621  -9.214  0.00  0.00    -0.007 C 
ATOM     38  H   LIG d   1       6.367  -5.848  -9.583  0.00  0.00     0.087 H 
ATOM     39  C   LIG d   1       4.229  -7.343 -10.367  0.00  0.00    -0.043 C 
ATOM     40  H   LIG d   1       4.658  -8.077  -8.385  0.00  0.00     0.032 H 
ATOM     41  H   LIG d   1       5.983  -8.297  -9.555  0.00  0.00     0.032 H 
ATOM     42  C   LIG d   1       3.178  -6.330  -9.902  0.00  0.00    -0.012 C 
ATOM     43  H   LIG d   1       3.738  -8.269 -10.662  0.00  0.00     0.027 H 
ATOM     44  H   LIG d   1       4.778  -6.933 -11.215  0.00  0.00     0.027 H 
ATOM     45  C   LIG d   1       3.879  -5.061  -9.414  0.00  0.00    -0.032 C 
ATOM     46  H   LIG d   1       2.595  -6.759  -9.088  0.00  0.00     0.032 H 
ATOM     47  H   LIG d   1       2.517  -6.085 -10.733  0.00  0.00     0.032 H 
ATOM     48  H   LIG d   1       3.134  -4.338  -9.083  0.00  0.00     0.081 H 
ATOM     49  H   LIG d   1       4.462  -4.632 -10.230  0.00  0.00     0.081 H 
ATOM     50  H   LIG d   1       4.240  -5.831  -7.562  0.00  0.00     0.204 HD
BRANCH  36  51
ATOM     51  C   LIG d   1       6.796  -6.577  -7.603  0.00  0.00     0.087 C 
ATOM     52  H   LIG d   1       7.686  -7.075  -7.987  0.00  0.00     0.061 H 
ATOM     53  H   LIG d   1       7.080  -5.634  -7.134  0.00  0.00     0.061 H 
BRANCH  51  54
ATOM     54  O   LIG d   1       6.163  -7.418  -6.635  0.00  0.00    -0.390 OA
ATOM     55  H   LIG d   1       5.725  -8.192  -7.014  0.00  0.00     0.210 HD
ENDBRANCH  51  54
ENDBRANCH  36  51
ENDBRANCH  32  35
ENDBRANCH  18  32
BRANCH   1  56
ATOM     56  C   LIG d   1       3.821  -2.039  -2.857  0.00  0.00    -0.059 C 
ATOM     57  H   LIG d   1       3.064  -2.091  -3.640  0.00  0.00     0.024 H 
ATOM     58  H   LIG d   1       4.193  -3.042  -2.645  0.00  0.00     0.024 H 
ATOM     59  H   LIG d   1       3.381  -1.616  -1.954  0.00  0.00     0.024 H 
ENDBRANCH   1  56
TORSDOF 5
ENDMDL
MODEL 7
REMARK VINA RESULT:      -6.6      3.610      6.529
REMARK  5 active torsions:
REMARK  status: ('A' for Active; 'I' for Inactive)
REMARK    1  A    between atoms: C_1  and  C_2 
REMARK    2  A    between atoms: C_19  and  C_21 
REMARK    3  A    between atoms: C_21  and  N_22 
REMARK    4  A    between atoms: C_27  and  C_29 
REMARK    5  A    between atoms: C_29  and  O_30 
ROOT
ATOM      1  C   LIG d   1       5.637  -0.504  -9.792  0.00  0.00    -0.022 C 
ATOM      2  C   LIG d   1       5.279  -0.881 -11.228  0.00  0.00    -0.047 C 
ATOM      3  C   LIG d   1       4.305   0.149 -11.803  0.00  0.00    -0.049 C 
ATOM      4  C   LIG d   1       2.998   0.125 -11.004  0.00  0.00    -0.032 C 
ATOM      5  C   LIG d   1       3.321   0.317  -9.539  0.00  0.00    -0.073 C 
ATOM      6  C   LIG d   1       2.707   1.229  -8.826  0.00  0.00    -0.099 C 
ATOM      7  C   LIG d   1       4.374  -0.574  -8.920  0.00  0.00    -0.014 C 
ATOM      8  H   LIG d   1       4.017  -1.602  -8.864  0.00  0.00     0.035 H 
ATOM      9  C   LIG d   1       4.728  -0.056  -7.528  0.00  0.00    -0.039 C 
ATOM     10  C   LIG d   1       5.780  -0.954  -6.874  0.00  0.00     0.015 C 
ATOM     11  H   LIG d   1       5.364  -1.901  -6.529  0.00  0.00     0.035 H 
ATOM     12  C   LIG d   1       7.001  -1.141  -7.796  0.00  0.00     0.107 C 
ATOM     13  H   LIG d   1       7.633  -1.929  -7.390  0.00  0.00     0.074 H 
ATOM     14  C   LIG d   1       6.660  -1.481  -9.212  0.00  0.00    -0.009 C 
ATOM     15  O   LIG d   1       7.696   0.109  -7.698  0.00  0.00    -0.461 OA
ATOM     16  C   LIG d   1       7.664   0.490  -6.401  0.00  0.00     0.316 C 
ATOM     17  O   LIG d   1       8.482   1.193  -5.856  0.00  0.00    -0.250 OA
ATOM     18  C   LIG d   1       6.422  -0.118  -5.726  0.00  0.00     0.102 C 
ATOM     19  H   LIG d   1       5.737   0.660  -5.389  0.00  0.00     0.047 H 
ATOM     20  H   LIG d   1       6.185  -0.902 -11.834  0.00  0.00     0.027 H 
ATOM     21  H   LIG d   1       4.811  -1.866 -11.238  0.00  0.00     0.027 H 
ATOM     22  H   LIG d   1       4.750   1.143 -11.741  0.00  0.00     0.027 H 
ATOM     23  H   LIG d   1       4.097  -0.090 -12.846  0.00  0.00     0.027 H 
ATOM     24  H   LIG d   1       2.347   0.931 -11.343  0.00  0.00     0.031 H 
ATOM     25  H   LIG d   1       2.501  -0.834 -11.146  0.00  0.00     0.031 H 
ATOM     26  H   LIG d   1       1.957   1.857  -9.284  0.00  0.00     0.053 H 
ATOM     27  H   LIG d   1       2.950   1.353  -7.781  0.00  0.00     0.053 H 
ATOM     28  H   LIG d   1       5.121   0.957  -7.612  0.00  0.00     0.028 H 
ATOM     29  H   LIG d   1       3.831  -0.044  -6.911  0.00  0.00     0.028 H 
ATOM     30  H   LIG d   1       6.245  -2.488  -9.237  0.00  0.00     0.031 H 
ATOM     31  H   LIG d   1       7.564  -1.452  -9.820  0.00  0.00     0.031 H 
ENDROOT
BRANCH  18  32
ATOM     32  C   LIG d   1       6.821  -1.024  -4.559  0.00  0.00    -0.018 C 
ATOM     33  H   LIG d   1       6.747  -2.067  -4.867  0.00  0.00     0.082 H 
ATOM     34  H   LIG d   1       7.848  -0.804  -4.264  0.00  0.00     0.082 H 
BRANCH  32  35
ATOM     35  N   LIG d   1       5.924  -0.783  -3.422  0.00  0.00     0.240 N 
ATOM     36  C   LIG d   1       4.634  -1.438  -3.670  0.00  0.00     0.003 C 
ATOM     37  C   LIG d   1       3.724  -1.259  -2.454  0.00  0.00    -0.007 C 
ATOM     38  H   LIG d   1       4.163  -0.991  -4.546  0.00  0.00     0.087 H 
ATOM     39  C   LIG d   1       3.499   0.236  -2.206  0.00  0.00    -0.043 C 
ATOM     40  H   LIG d   1       4.194  -1.706  -1.578  0.00  0.00     0.032 H 
ATOM     41  H   LIG d   1       2.766  -1.744  -2.641  0.00  0.00     0.032 H 
ATOM     42  C   LIG d   1       4.856   0.922  -2.023  0.00  0.00    -0.012 C 
ATOM     43  H   LIG d   1       2.898   0.370  -1.308  0.00  0.00     0.027 H 
ATOM     44  H   LIG d   1       2.983   0.673  -3.061  0.00  0.00     0.027 H 
ATOM     45  C   LIG d   1       5.725   0.661  -3.255  0.00  0.00    -0.032 C 
ATOM     46  H   LIG d   1       5.350   0.520  -1.138  0.00  0.00     0.032 H 
ATOM     47  H   LIG d   1       4.708   1.995  -1.901  0.00  0.00     0.032 H 
ATOM     48  H   LIG d   1       6.692   1.149  -3.127  0.00  0.00     0.081 H 
ATOM     49  H   LIG d   1       5.231   1.065  -4.139  0.00  0.00     0.081 H 
ATOM     50  H   LIG d   1       6.337  -1.163  -2.583  0.00  0.00     0.204 HD
BRANCH  36  51
ATOM     51  C   LIG d   1       4.861  -2.930  -3.922  0.00  0.00     0.087 C 
ATOM     52  H   LIG d   1       5.900  -3.098  -4.204  0.00  0.00     0.061 H 
ATOM     53  H   LIG d   1       4.635  -3.491  -3.015  0.00  0.00     0.061 H 
BRANCH  51  54
ATOM     54  O   LIG d   1       4.004  -3.369  -4.979  0.00  0.00    -0.390 OA
ATOM     55  H   LIG d   1       3.207  -2.832  -5.088  0.00  0.00     0.210 HD
ENDBRANCH  51  54
ENDBRANCH  36  51
ENDBRANCH  32  35
ENDBRANCH  18  32
BRANCH   1  56
ATOM     56  C   LIG d   1       6.206   0.916  -9.760  0.00  0.00    -0.059 C 
ATOM     57  H   LIG d   1       7.124   0.927  -9.171  0.00  0.00     0.024 H 
ATOM     58  H   LIG d   1       6.424   1.243 -10.776  0.00  0.00     0.024 H 
ATOM     59  H   LIG d   1       5.478   1.590  -9.308  0.00  0.00     0.024 H 
ENDBRANCH   1  56
TORSDOF 5
ENDMDL
MODEL 8
REMARK VINA RESULT:      -6.6      4.717      7.002
REMARK  5 active torsions:
REMARK  status: ('A' for Active; 'I' for Inactive)
REMARK    1  A    between atoms: C_1  and  C_2 
REMARK    2  A    between atoms: C_19  and  C_21 
REMARK    3  A    between atoms: C_21  and  N_22 
REMARK    4  A    between atoms: C_27  and  C_29 
REMARK    5  A    between atoms: C_29  and  O_30 
ROOT
ATOM      1  C   LIG d   1       4.180  -1.612 -11.133  0.00  0.00    -0.022 C 
ATOM      2  C   LIG d   1       4.004  -2.318 -12.476  0.00  0.00    -0.047 C 
ATOM      3  C   LIG d   1       2.860  -1.667 -13.254  0.00  0.00    -0.049 C 
ATOM      4  C   LIG d   1       1.546  -1.851 -12.488  0.00  0.00    -0.032 C 
ATOM      5  C   LIG d   1       1.727  -1.325 -11.081  0.00  0.00    -0.073 C 
ATOM      6  C   LIG d   1       0.880  -0.468 -10.566  0.00  0.00    -0.099 C 
ATOM      7  C   LIG d   1       2.915  -1.816 -10.286  0.00  0.00    -0.014 C 
ATOM      8  H   LIG d   1       2.798  -2.871 -10.040  0.00  0.00     0.035 H 
ATOM      9  C   LIG d   1       3.057  -0.986  -9.013  0.00  0.00    -0.039 C 
ATOM     10  C   LIG d   1       4.243  -1.478  -8.181  0.00  0.00     0.015 C 
ATOM     11  H   LIG d   1       4.032  -2.417  -7.668  0.00  0.00     0.035 H 
ATOM     12  C   LIG d   1       5.528  -1.538  -9.029  0.00  0.00     0.107 C 
ATOM     13  H   LIG d   1       6.297  -2.070  -8.469  0.00  0.00     0.074 H 
ATOM     14  C   LIG d   1       5.360  -2.201 -10.360  0.00  0.00    -0.009 C 
ATOM     15  O   LIG d   1       5.914  -0.164  -9.160  0.00  0.00    -0.461 OA
ATOM     16  C   LIG d   1       5.718   0.428  -7.961  0.00  0.00     0.316 C 
ATOM     17  O   LIG d   1       6.320   1.390  -7.546  0.00  0.00    -0.250 OA
ATOM     18  C   LIG d   1       4.607  -0.320  -7.203  0.00  0.00     0.102 C 
ATOM     19  H   LIG d   1       3.744   0.323  -7.033  0.00  0.00     0.047 H 
ATOM     20  H   LIG d   1       4.927  -2.237 -13.052  0.00  0.00     0.027 H 
ATOM     21  H   LIG d   1       3.774  -3.370 -12.306  0.00  0.00     0.027 H 
ATOM     22  H   LIG d   1       3.063  -0.602 -13.376  0.00  0.00     0.027 H 
ATOM     23  H   LIG d   1       2.775  -2.134 -14.236  0.00  0.00     0.027 H 
ATOM     24  H   LIG d   1       0.751  -1.295 -12.986  0.00  0.00     0.031 H 
ATOM     25  H   LIG d   1       1.289  -2.909 -12.452  0.00  0.00     0.031 H 
ATOM     26  H   LIG d   1       0.036  -0.127 -11.149  0.00  0.00     0.053 H 
ATOM     27  H   LIG d   1       1.024  -0.103  -9.561  0.00  0.00     0.053 H 
ATOM     28  H   LIG d   1       3.214   0.058  -9.281  0.00  0.00     0.028 H 
ATOM     29  H   LIG d   1       2.144  -1.073  -8.425  0.00  0.00     0.028 H 
ATOM     30  H   LIG d   1       5.186  -3.265 -10.199  0.00  0.00     0.031 H 
ATOM     31  H   LIG d   1       6.270  -2.072 -10.947  0.00  0.00     0.031 H 
ENDROOT
BRANCH  18  32
ATOM     32  C   LIG d   1       5.129  -0.879  -5.878  0.00  0.00    -0.018 C 
ATOM     33  H   LIG d   1       4.653  -1.839  -5.675  0.00  0.00     0.082 H 
ATOM     34  H   LIG d   1       6.209  -1.017  -5.943  0.00  0.00     0.082 H 
BRANCH  32  35
ATOM     35  N   LIG d   1       4.820   0.061  -4.793  0.00  0.00     0.240 N 
ATOM     36  C   LIG d   1       5.882   0.005  -3.781  0.00  0.00     0.003 C 
ATOM     37  C   LIG d   1       5.606   1.040  -2.689  0.00  0.00    -0.007 C 
ATOM     38  H   LIG d   1       5.909  -0.991  -3.339  0.00  0.00     0.087 H 
ATOM     39  C   LIG d   1       4.256   0.735  -2.032  0.00  0.00    -0.043 C 
ATOM     40  H   LIG d   1       5.580   2.036  -3.131  0.00  0.00     0.032 H 
ATOM     41  H   LIG d   1       6.394   0.995  -1.938  0.00  0.00     0.032 H 
ATOM     42  C   LIG d   1       3.168   0.723  -3.110  0.00  0.00    -0.012 C 
ATOM     43  H   LIG d   1       4.029   1.502  -1.293  0.00  0.00     0.027 H 
ATOM     44  H   LIG d   1       4.300  -0.240  -1.547  0.00  0.00     0.027 H 
ATOM     45  C   LIG d   1       3.534  -0.301  -4.186  0.00  0.00    -0.032 C 
ATOM     46  H   LIG d   1       3.090   1.712  -3.559  0.00  0.00     0.032 H 
ATOM     47  H   LIG d   1       2.213   0.452  -2.658  0.00  0.00     0.032 H 
ATOM     48  H   LIG d   1       2.760  -0.313  -4.954  0.00  0.00     0.081 H 
ATOM     49  H   LIG d   1       3.611  -1.291  -3.735  0.00  0.00     0.081 H 
ATOM     50  H   LIG d   1       4.762   0.996  -5.167  0.00  0.00     0.204 HD
BRANCH  36  51
ATOM     51  C   LIG d   1       7.230   0.305  -4.440  0.00  0.00     0.087 C 
ATOM     52  H   LIG d   1       8.035   0.063  -3.747  0.00  0.00     0.061 H 
ATOM     53  H   LIG d   1       7.334  -0.295  -5.344  0.00  0.00     0.061 H 
BRANCH  51  54
ATOM     54  O   LIG d   1       7.295   1.693  -4.779  0.00  0.00    -0.390 OA
ATOM     55  H   LIG d   1       7.734   1.871  -5.622  0.00  0.00     0.210 HD
ENDBRANCH  51  54
ENDBRANCH  36  51
ENDBRANCH  32  35
ENDBRANCH  18  32
BRANCH   1  56
ATOM     56  C   LIG d   1       4.409  -0.117 -11.363  0.00  0.00    -0.059 C 
ATOM     57  H   LIG d   1       5.451   0.127 -11.155  0.00  0.00     0.024 H 
ATOM     58  H   LIG d   1       4.179   0.130 -12.400  0.00  0.00     0.024 H 
ATOM     59  H   LIG d   1       3.762   0.456 -10.700  0.00  0.00     0.024 H 
ENDBRANCH   1  56
TORSDOF 5
ENDMDL
MODEL 9
REMARK VINA RESULT:      -6.5      2.000      6.860
REMARK  5 active torsions:
REMARK  status: ('A' for Active; 'I' for Inactive)
REMARK    1  A    between atoms: C_1  and  C_2 
REMARK    2  A    between atoms: C_19  and  C_21 
REMARK    3  A    between atoms: C_21  and  N_22 
REMARK    4  A    between atoms: C_27  and  C_29 
REMARK    5  A    between atoms: C_29  and  O_30 
ROOT
ATOM      1  C   LIG d   1      10.749   4.642  -5.180  0.00  0.00    -0.022 C 
ATOM      2  C   LIG d   1      11.379   5.966  -5.607  0.00  0.00    -0.047 C 
ATOM      3  C   LIG d   1      12.283   6.491  -4.490  0.00  0.00    -0.049 C 
ATOM      4  C   LIG d   1      11.442   6.788  -3.244  0.00  0.00    -0.032 C 
ATOM      5  C   LIG d   1      10.654   5.547  -2.884  0.00  0.00    -0.073 C 
ATOM      6  C   LIG d   1      10.679   5.061  -1.667  0.00  0.00    -0.099 C 
ATOM      7  C   LIG d   1       9.836   4.884  -3.968  0.00  0.00    -0.014 C 
ATOM      8  H   LIG d   1       8.998   5.519  -4.255  0.00  0.00     0.035 H 
ATOM      9  C   LIG d   1       9.333   3.530  -3.474  0.00  0.00    -0.039 C 
ATOM     10  C   LIG d   1       8.486   2.848  -4.550  0.00  0.00     0.015 C 
ATOM     11  H   LIG d   1       7.497   3.295  -4.648  0.00  0.00     0.035 H 
ATOM     12  C   LIG d   1       9.244   2.777  -5.890  0.00  0.00     0.107 C 
ATOM     13  H   LIG d   1       8.551   2.468  -6.672  0.00  0.00     0.074 H 
ATOM     14  C   LIG d   1       9.890   4.061  -6.303  0.00  0.00    -0.009 C 
ATOM     15  O   LIG d   1      10.206   1.735  -5.683  0.00  0.00    -0.461 OA
ATOM     16  C   LIG d   1       9.588   0.742  -5.006  0.00  0.00     0.316 C 
ATOM     17  O   LIG d   1       9.889  -0.428  -5.046  0.00  0.00    -0.250 OA
ATOM     18  C   LIG d   1       8.435   1.335  -4.177  0.00  0.00     0.102 C 
ATOM     19  H   LIG d   1       8.605   1.198  -3.110  0.00  0.00     0.047 H 
ATOM     20  H   LIG d   1      11.971   5.812  -6.510  0.00  0.00     0.027 H 
ATOM     21  H   LIG d   1      10.592   6.694  -5.809  0.00  0.00     0.027 H 
ATOM     22  H   LIG d   1      13.036   5.739  -4.249  0.00  0.00     0.027 H 
ATOM     23  H   LIG d   1      12.776   7.405  -4.820  0.00  0.00     0.027 H 
ATOM     24  H   LIG d   1      12.097   7.057  -2.416  0.00  0.00     0.031 H 
ATOM     25  H   LIG d   1      10.756   7.608  -3.453  0.00  0.00     0.031 H 
ATOM     26  H   LIG d   1      11.269   5.548  -0.904  0.00  0.00     0.053 H 
ATOM     27  H   LIG d   1      10.111   4.175  -1.427  0.00  0.00     0.053 H 
ATOM     28  H   LIG d   1      10.187   2.897  -3.233  0.00  0.00     0.028 H 
ATOM     29  H   LIG d   1       8.729   3.677  -2.579  0.00  0.00     0.028 H 
ATOM     30  H   LIG d   1       9.109   4.776  -6.561  0.00  0.00     0.031 H 
ATOM     31  H   LIG d   1      10.518   3.887  -7.177  0.00  0.00     0.031 H 
ENDROOT
BRANCH  18  32
ATOM     32  C   LIG d   1       7.094   0.725  -4.591  0.00  0.00    -0.018 C 
ATOM     33  H   LIG d   1       6.481   1.486  -5.073  0.00  0.00     0.082 H 
ATOM     34  H   LIG d   1       7.268  -0.096  -5.287  0.00  0.00     0.082 H 
BRANCH  32  35
ATOM     35  N   LIG d   1       6.399   0.217  -3.401  0.00  0.00     0.240 N 
ATOM     36  C   LIG d   1       5.775  -1.074  -3.713  0.00  0.00     0.003 C 
ATOM     37  C   LIG d   1       5.119  -1.646  -2.455  0.00  0.00    -0.007 C 
ATOM     38  H   LIG d   1       5.019  -0.934  -4.486  0.00  0.00     0.087 H 
ATOM     39  C   LIG d   1       4.050  -0.669  -1.954  0.00  0.00    -0.043 C 
ATOM     40  H   LIG d   1       5.874  -1.787  -1.682  0.00  0.00     0.032 H 
ATOM     41  H   LIG d   1       4.655  -2.604  -2.690  0.00  0.00     0.032 H 
ATOM     42  C   LIG d   1       4.699   0.695  -1.703  0.00  0.00    -0.012 C 
ATOM     43  H   LIG d   1       3.619  -1.045  -1.027  0.00  0.00     0.027 H 
ATOM     44  H   LIG d   1       3.268  -0.568  -2.707  0.00  0.00     0.027 H 
ATOM     45  C   LIG d   1       5.371   1.180  -2.988  0.00  0.00    -0.032 C 
ATOM     46  H   LIG d   1       5.445   0.603  -0.914  0.00  0.00     0.032 H 
ATOM     47  H   LIG d   1       3.934   1.410  -1.399  0.00  0.00     0.032 H 
ATOM     48  H   LIG d   1       5.833   2.152  -2.813  0.00  0.00     0.081 H 
ATOM     49  H   LIG d   1       4.623   1.273  -3.777  0.00  0.00     0.081 H 
ATOM     50  H   LIG d   1       7.063   0.096  -2.651  0.00  0.00     0.204 HD
BRANCH  36  51
ATOM     51  C   LIG d   1       6.843  -2.047  -4.218  0.00  0.00     0.087 C 
ATOM     52  H   LIG d   1       6.393  -3.025  -4.386  0.00  0.00     0.061 H 
ATOM     53  H   LIG d   1       7.263  -1.673  -5.152  0.00  0.00     0.061 H 
BRANCH  51  54
ATOM     54  O   LIG d   1       7.881  -2.162  -3.241  0.00  0.00    -0.390 OA
ATOM     55  H   LIG d   1       7.696  -1.697  -2.414  0.00  0.00     0.210 HD
ENDBRANCH  51  54
ENDBRANCH  36  51
ENDBRANCH  32  35
ENDBRANCH  18  32
BRANCH   1  56
ATOM     56  C   LIG d   1      11.848   3.646  -4.804  0.00  0.00    -0.059 C 
ATOM     57  H   LIG d   1      12.019   3.682  -3.728  0.00  0.00     0.024 H 
ATOM     58  H   LIG d   1      11.540   2.640  -5.090  0.00  0.00     0.024 H 
ATOM     59  H   LIG d   1      12.768   3.907  -5.327  0.00  0.00     0.024 H 
ENDBRANCH   1  56
TORSDOF 5
ENDMDL
