MODEL 1
REMARK VINA RESULT:      -6.1      0.000      0.000
REMARK  5 active torsions:
REMARK  status: ('A' for Active; 'I' for Inactive)
REMARK    1  A    between atoms: C_1  and  C_2 
REMARK    2  A    between atoms: C_5  and  S_8 
REMARK    3  A    between atoms: S_8  and  N_11 
REMARK    4  A    between atoms: N_11  and  C_12 
REMARK    5  A    between atoms: C_12  and  C_13 
ROOT
ATOM      1  S   LIG d   1       3.524   0.314  -7.247  0.00  0.00     0.059 S 
ATOM      2  O   LIG d   1       4.935   0.193  -7.365  0.00  0.00    -0.153 OA
ATOM      3  O   LIG d   1       2.865   1.572  -7.259  0.00  0.00    -0.153 OA
ENDROOT
BRANCH   1   4
ATOM      4  C   LIG d   1       2.828  -0.634  -8.560  0.00  0.00     0.105 A 
ATOM      5  C   LIG d   1       3.167  -1.965  -8.706  0.00  0.00    -0.035 A 
ATOM      6  C   LIG d   1       2.620  -2.709  -9.735  0.00  0.00    -0.057 A 
ATOM      7  H   LIG d   1       3.859  -2.426  -8.016  0.00  0.00     0.064 H 
ATOM      8  C   LIG d   1       1.734  -2.120 -10.617  0.00  0.00    -0.050 A 
ATOM      9  H   LIG d   1       2.885  -3.749  -9.849  0.00  0.00     0.062 H 
ATOM     10  C   LIG d   1       1.399  -0.787 -10.474  0.00  0.00    -0.057 A 
ATOM     11  C   LIG d   1       1.942  -0.044  -9.443  0.00  0.00    -0.035 A 
ATOM     12  H   LIG d   1       0.710  -0.325 -11.167  0.00  0.00     0.062 H 
ATOM     13  H   LIG d   1       1.677   0.996  -9.328  0.00  0.00     0.064 H 
BRANCH   8  14
ATOM     14  C   LIG d   1       1.138  -2.931 -11.740  0.00  0.00    -0.040 C 
ATOM     15  H   LIG d   1       0.648  -2.265 -12.449  0.00  0.00     0.028 H 
ATOM     16  H   LIG d   1       1.927  -3.485 -12.247  0.00  0.00     0.028 H 
ATOM     17  H   LIG d   1       0.407  -3.631 -11.333  0.00  0.00     0.028 H 
ENDBRANCH   8  14
ENDBRANCH   1   4
BRANCH   1  18
ATOM     18  N   LIG d   1       3.102  -0.430  -5.829  0.00  0.00    -0.183 N 
ATOM     19  H   LIG d   1       3.230  -1.386  -5.727  0.00  0.00     0.148 HD
BRANCH  18  20
ATOM     20  C   LIG d   1       2.535   0.356  -4.730  0.00  0.00     0.075 C 
ATOM     21  H   LIG d   1       2.180   1.312  -5.114  0.00  0.00     0.052 H 
ATOM     22  H   LIG d   1       1.702  -0.189  -4.286  0.00  0.00     0.052 H 
BRANCH  20  23
ATOM     23  C   LIG d   1       3.594   0.595  -3.686  0.00  0.00     0.120 A 
ATOM     24  O   LIG d   1       4.908   0.741  -3.918  0.00  0.00    -0.467 OA
ATOM     25  C   LIG d   1       5.550   0.942  -2.755  0.00  0.00     0.092 A 
ATOM     26  C   LIG d   1       4.644   0.916  -1.761  0.00  0.00    -0.024 A 
ATOM     27  H   LIG d   1       6.612   1.094  -2.638  0.00  0.00     0.103 H 
ATOM     28  C   LIG d   1       3.383   0.692  -2.360  0.00  0.00    -0.019 A 
ATOM     29  H   LIG d   1       4.842   1.041  -0.706  0.00  0.00     0.065 H 
ATOM     30  H   LIG d   1       2.433   0.615  -1.852  0.00  0.00     0.065 H 
ENDBRANCH  20  23
ENDBRANCH  18  20
ENDBRANCH   1  18
TORSDOF 5
ENDMDL
MODEL 2
REMARK VINA RESULT:      -5.9      2.895      6.578
REMARK  5 active torsions:
REMARK  status: ('A' for Active; 'I' for Inactive)
REMARK    1  A    between atoms: C_1  and  C_2 
REMARK    2  A    between atoms: C_5  and  S_8 
REMARK    3  A    between atoms: S_8  and  N_11 
REMARK    4  A    between atoms: N_11  and  C_12 
REMARK    5  A    between atoms: C_12  and  C_13 
ROOT
ATOM      1  S   LIG d   1       5.002  -3.797  -5.258  0.00  0.00     0.059 S 
ATOM      2  O   LIG d   1       6.351  -3.869  -5.701  0.00  0.00    -0.153 OA
ATOM      3  O   LIG d   1       4.359  -4.879  -4.597  0.00  0.00    -0.153 OA
ENDROOT
BRANCH   1   4
ATOM      4  C   LIG d   1       4.903  -2.413  -4.172  0.00  0.00     0.105 A 
ATOM      5  C   LIG d   1       4.004  -2.422  -3.122  0.00  0.00    -0.035 A 
ATOM      6  C   LIG d   1       3.926  -1.337  -2.270  0.00  0.00    -0.057 A 
ATOM      7  H   LIG d   1       3.363  -3.278  -2.967  0.00  0.00     0.064 H 
ATOM      8  C   LIG d   1       4.747  -0.242  -2.467  0.00  0.00    -0.050 A 
ATOM      9  H   LIG d   1       3.224  -1.344  -1.449  0.00  0.00     0.062 H 
ATOM     10  C   LIG d   1       5.642  -0.232  -3.521  0.00  0.00    -0.057 A 
ATOM     11  C   LIG d   1       5.723  -1.319  -4.371  0.00  0.00    -0.035 A 
ATOM     12  H   LIG d   1       6.280   0.626  -3.679  0.00  0.00     0.062 H 
ATOM     13  H   LIG d   1       6.425  -1.312  -5.191  0.00  0.00     0.064 H 
BRANCH   8  14
ATOM     14  C   LIG d   1       4.662   0.941  -1.538  0.00  0.00    -0.040 C 
ATOM     15  H   LIG d   1       5.664   1.225  -1.218  0.00  0.00     0.028 H 
ATOM     16  H   LIG d   1       4.196   1.778  -2.058  0.00  0.00     0.028 H 
ATOM     17  H   LIG d   1       4.063   0.676  -0.667  0.00  0.00     0.028 H 
ENDBRANCH   8  14
ENDBRANCH   1   4
BRANCH   1  18
ATOM     18  N   LIG d   1       4.085  -3.442  -6.589  0.00  0.00    -0.183 N 
ATOM     19  H   LIG d   1       3.171  -3.762  -6.647  0.00  0.00     0.148 HD
BRANCH  18  20
ATOM     20  C   LIG d   1       4.653  -2.646  -7.680  0.00  0.00     0.075 C 
ATOM     21  H   LIG d   1       5.646  -2.300  -7.396  0.00  0.00     0.052 H 
ATOM     22  H   LIG d   1       4.726  -3.261  -8.578  0.00  0.00     0.052 H 
BRANCH  20  23
ATOM     23  C   LIG d   1       3.765  -1.461  -7.953  0.00  0.00     0.120 A 
ATOM     24  O   LIG d   1       3.012  -1.278  -9.050  0.00  0.00    -0.467 OA
ATOM     25  C   LIG d   1       2.350  -0.114  -8.951  0.00  0.00     0.092 A 
ATOM     26  C   LIG d   1       2.683   0.466  -7.784  0.00  0.00    -0.024 A 
ATOM     27  H   LIG d   1       1.668   0.289  -9.685  0.00  0.00     0.103 H 
ATOM     28  C   LIG d   1       3.595  -0.401  -7.141  0.00  0.00    -0.019 A 
ATOM     29  H   LIG d   1       2.323   1.413  -7.410  0.00  0.00     0.065 H 
ATOM     30  H   LIG d   1       4.065  -0.245  -6.180  0.00  0.00     0.065 H 
ENDBRANCH  20  23
ENDBRANCH  18  20
ENDBRANCH   1  18
TORSDOF 5
ENDMDL
MODEL 3
REMARK VINA RESULT:      -5.7      3.040      3.406
REMARK  5 active torsions:
REMARK  status: ('A' for Active; 'I' for Inactive)
REMARK    1  A    between atoms: C_1  and  C_2 
REMARK    2  A    between atoms: C_5  and  S_8 
REMARK    3  A    between atoms: S_8  and  N_11 
REMARK    4  A    between atoms: N_11  and  C_12 
REMARK    5  A    between atoms: C_12  and  C_13 
ROOT
ATOM      1  S   LIG d   1       4.805  -2.450  -5.914  0.00  0.00     0.059 S 
ATOM      2  O   LIG d   1       4.476  -3.613  -6.662  0.00  0.00    -0.153 OA
ATOM      3  O   LIG d   1       6.113  -2.212  -5.413  0.00  0.00    -0.153 OA
ENDROOT
BRANCH   1   4
ATOM      4  C   LIG d   1       4.393  -1.067  -6.926  0.00  0.00     0.105 A 
ATOM      5  C   LIG d   1       3.328  -0.256  -6.586  0.00  0.00    -0.035 A 
ATOM      6  C   LIG d   1       3.005   0.830  -7.379  0.00  0.00    -0.057 A 
ATOM      7  H   LIG d   1       2.747  -0.468  -5.700  0.00  0.00     0.064 H 
ATOM      8  C   LIG d   1       3.749   1.103  -8.513  0.00  0.00    -0.050 A 
ATOM      9  H   LIG d   1       2.173   1.464  -7.114  0.00  0.00     0.062 H 
ATOM     10  C   LIG d   1       4.810   0.287  -8.855  0.00  0.00    -0.057 A 
ATOM     11  C   LIG d   1       5.136  -0.795  -8.059  0.00  0.00    -0.035 A 
ATOM     12  H   LIG d   1       5.389   0.497  -9.744  0.00  0.00     0.062 H 
ATOM     13  H   LIG d   1       5.968  -1.430  -8.325  0.00  0.00     0.064 H 
BRANCH   8  14
ATOM     14  C   LIG d   1       3.396   2.286  -9.378  0.00  0.00    -0.040 C 
ATOM     15  H   LIG d   1       2.384   2.166  -9.761  0.00  0.00     0.028 H 
ATOM     16  H   LIG d   1       3.456   3.199  -8.786  0.00  0.00     0.028 H 
ATOM     17  H   LIG d   1       4.096   2.346 -10.212  0.00  0.00     0.028 H 
ENDBRANCH   8  14
ENDBRANCH   1   4
BRANCH   1  18
ATOM     18  N   LIG d   1       3.785  -2.423  -4.610  0.00  0.00    -0.183 N 
ATOM     19  H   LIG d   1       2.827  -2.494  -4.742  0.00  0.00     0.148 HD
BRANCH  18  20
ATOM     20  C   LIG d   1       4.330  -2.290  -3.256  0.00  0.00     0.075 C 
ATOM     21  H   LIG d   1       3.715  -2.862  -2.561  0.00  0.00     0.052 H 
ATOM     22  H   LIG d   1       5.351  -2.671  -3.236  0.00  0.00     0.052 H 
BRANCH  20  23
ATOM     23  C   LIG d   1       4.327  -0.839  -2.853  0.00  0.00     0.120 A 
ATOM     24  O   LIG d   1       5.413  -0.095  -2.586  0.00  0.00    -0.467 OA
ATOM     25  C   LIG d   1       5.035   1.152  -2.265  0.00  0.00     0.092 A 
ATOM     26  C   LIG d   1       3.692   1.216  -2.316  0.00  0.00    -0.024 A 
ATOM     27  H   LIG d   1       5.696   1.966  -2.005  0.00  0.00     0.103 H 
ATOM     28  C   LIG d   1       3.236  -0.067  -2.695  0.00  0.00    -0.019 A 
ATOM     29  H   LIG d   1       3.080   2.081  -2.107  0.00  0.00     0.065 H 
ATOM     30  H   LIG d   1       2.208  -0.371  -2.833  0.00  0.00     0.065 H 
ENDBRANCH  20  23
ENDBRANCH  18  20
ENDBRANCH   1  18
TORSDOF 5
ENDMDL
MODEL 4
REMARK VINA RESULT:      -5.4      2.882      3.915
REMARK  5 active torsions:
REMARK  status: ('A' for Active; 'I' for Inactive)
REMARK    1  A    between atoms: C_1  and  C_2 
REMARK    2  A    between atoms: C_5  and  S_8 
REMARK    3  A    between atoms: S_8  and  N_11 
REMARK    4  A    between atoms: N_11  and  C_12 
REMARK    5  A    between atoms: C_12  and  C_13 
ROOT
ATOM      1  S   LIG d   1       3.528  -0.794  -7.467  0.00  0.00     0.059 S 
ATOM      2  O   LIG d   1       2.357  -0.097  -7.871  0.00  0.00    -0.153 OA
ATOM      3  O   LIG d   1       3.842  -2.094  -7.947  0.00  0.00    -0.153 OA
ENDROOT
BRANCH   1   4
ATOM      4  C   LIG d   1       4.895   0.239  -7.876  0.00  0.00     0.105 A 
ATOM      5  C   LIG d   1       6.124   0.026  -7.280  0.00  0.00    -0.035 A 
ATOM      6  C   LIG d   1       7.197   0.835  -7.601  0.00  0.00    -0.057 A 
ATOM      7  H   LIG d   1       6.246  -0.775  -6.565  0.00  0.00     0.064 H 
ATOM      8  C   LIG d   1       7.042   1.858  -8.517  0.00  0.00    -0.050 A 
ATOM      9  H   LIG d   1       8.158   0.668  -7.136  0.00  0.00     0.062 H 
ATOM     10  C   LIG d   1       5.811   2.075  -9.108  0.00  0.00    -0.057 A 
ATOM     11  C   LIG d   1       4.739   1.263  -8.791  0.00  0.00    -0.035 A 
ATOM     12  H   LIG d   1       5.688   2.878  -9.821  0.00  0.00     0.062 H 
ATOM     13  H   LIG d   1       3.779   1.429  -9.256  0.00  0.00     0.064 H 
BRANCH   8  14
ATOM     14  C   LIG d   1       8.212   2.742  -8.867  0.00  0.00    -0.040 C 
ATOM     15  H   LIG d   1       8.254   3.581  -8.174  0.00  0.00     0.028 H 
ATOM     16  H   LIG d   1       9.135   2.166  -8.797  0.00  0.00     0.028 H 
ATOM     17  H   LIG d   1       8.093   3.116  -9.884  0.00  0.00     0.028 H 
ENDBRANCH   8  14
ENDBRANCH   1   4
BRANCH   1  18
ATOM     18  N   LIG d   1       3.469  -0.899  -5.816  0.00  0.00    -0.183 N 
ATOM     19  H   LIG d   1       3.836  -1.677  -5.367  0.00  0.00     0.148 HD
BRANCH  18  20
ATOM     20  C   LIG d   1       2.864   0.181  -5.033  0.00  0.00     0.075 C 
ATOM     21  H   LIG d   1       2.765   1.069  -5.658  0.00  0.00     0.052 H 
ATOM     22  H   LIG d   1       1.880  -0.130  -4.685  0.00  0.00     0.052 H 
BRANCH  20  23
ATOM     23  C   LIG d   1       3.741   0.495  -3.849  0.00  0.00     0.120 A 
ATOM     24  O   LIG d   1       5.051   0.786  -3.895  0.00  0.00    -0.467 OA
ATOM     25  C   LIG d   1       5.504   1.013  -2.652  0.00  0.00     0.092 A 
ATOM     26  C   LIG d   1       4.481   0.859  -1.792  0.00  0.00    -0.024 A 
ATOM     27  H   LIG d   1       6.519   1.271  -2.387  0.00  0.00     0.103 H 
ATOM     28  C   LIG d   1       3.345   0.525  -2.563  0.00  0.00    -0.019 A 
ATOM     29  H   LIG d   1       4.521   0.969  -0.718  0.00  0.00     0.065 H 
ATOM     30  H   LIG d   1       2.348   0.332  -2.192  0.00  0.00     0.065 H 
ENDBRANCH  20  23
ENDBRANCH  18  20
ENDBRANCH   1  18
TORSDOF 5
ENDMDL
MODEL 5
REMARK VINA RESULT:      -5.3      1.987      2.329
REMARK  5 active torsions:
REMARK  status: ('A' for Active; 'I' for Inactive)
REMARK    1  A    between atoms: C_1  and  C_2 
REMARK    2  A    between atoms: C_5  and  S_8 
REMARK    3  A    between atoms: S_8  and  N_11 
REMARK    4  A    between atoms: N_11  and  C_12 
REMARK    5  A    between atoms: C_12  and  C_13 
ROOT
ATOM      1  S   LIG d   1       5.153   0.224  -8.165  0.00  0.00     0.059 S 
ATOM      2  O   LIG d   1       6.206  -0.703  -8.393  0.00  0.00    -0.153 OA
ATOM      3  O   LIG d   1       5.337   1.628  -8.282  0.00  0.00    -0.153 OA
ENDROOT
BRANCH   1   4
ATOM      4  C   LIG d   1       3.853  -0.209  -9.274  0.00  0.00     0.105 A 
ATOM      5  C   LIG d   1       4.074  -0.189 -10.638  0.00  0.00    -0.035 A 
ATOM      6  C   LIG d   1       3.056  -0.529 -11.508  0.00  0.00    -0.057 A 
ATOM      7  H   LIG d   1       5.044   0.091 -11.025  0.00  0.00     0.064 H 
ATOM      8  C   LIG d   1       1.816  -0.889 -11.014  0.00  0.00    -0.050 A 
ATOM      9  H   LIG d   1       3.228  -0.515 -12.574  0.00  0.00     0.062 H 
ATOM     10  C   LIG d   1       1.594  -0.902  -9.650  0.00  0.00    -0.057 A 
ATOM     11  C   LIG d   1       2.613  -0.567  -8.779  0.00  0.00    -0.035 A 
ATOM     12  H   LIG d   1       0.623  -1.178  -9.263  0.00  0.00     0.062 H 
ATOM     13  H   LIG d   1       2.441  -0.581  -7.713  0.00  0.00     0.064 H 
BRANCH   8  14
ATOM     14  C   LIG d   1       0.705  -1.259 -11.963  0.00  0.00    -0.040 C 
ATOM     15  H   LIG d   1       0.111  -2.063 -11.530  0.00  0.00     0.028 H 
ATOM     16  H   LIG d   1       0.070  -0.390 -12.135  0.00  0.00     0.028 H 
ATOM     17  H   LIG d   1       1.132  -1.591 -12.909  0.00  0.00     0.028 H 
ENDBRANCH   8  14
ENDBRANCH   1   4
BRANCH   1  18
ATOM     18  N   LIG d   1       4.600  -0.056  -6.630  0.00  0.00    -0.183 N 
ATOM     19  H   LIG d   1       4.014   0.588  -6.201  0.00  0.00     0.148 HD
BRANCH  18  20
ATOM     20  C   LIG d   1       4.995  -1.274  -5.919  0.00  0.00     0.075 C 
ATOM     21  H   LIG d   1       4.730  -2.145  -6.517  0.00  0.00     0.052 H 
ATOM     22  H   LIG d   1       6.072  -1.263  -5.750  0.00  0.00     0.052 H 
BRANCH  20  23
ATOM     23  C   LIG d   1       4.280  -1.337  -4.594  0.00  0.00     0.120 A 
ATOM     24  O   LIG d   1       3.270  -0.541  -4.207  0.00  0.00    -0.467 OA
ATOM     25  C   LIG d   1       2.877  -0.883  -2.971  0.00  0.00     0.092 A 
ATOM     26  C   LIG d   1       3.643  -1.905  -2.549  0.00  0.00    -0.024 A 
ATOM     27  H   LIG d   1       2.082  -0.416  -2.408  0.00  0.00     0.103 H 
ATOM     28  C   LIG d   1       4.548  -2.197  -3.595  0.00  0.00    -0.019 A 
ATOM     29  H   LIG d   1       3.581  -2.406  -1.594  0.00  0.00     0.065 H 
ATOM     30  H   LIG d   1       5.308  -2.965  -3.594  0.00  0.00     0.065 H 
ENDBRANCH  20  23
ENDBRANCH  18  20
ENDBRANCH   1  18
TORSDOF 5
ENDMDL
MODEL 6
REMARK VINA RESULT:      -5.2      2.933      3.759
REMARK  5 active torsions:
REMARK  status: ('A' for Active; 'I' for Inactive)
REMARK    1  A    between atoms: C_1  and  C_2 
REMARK    2  A    between atoms: C_5  and  S_8 
REMARK    3  A    between atoms: S_8  and  N_11 
REMARK    4  A    between atoms: N_11  and  C_12 
REMARK    5  A    between atoms: C_12  and  C_13 
ROOT
ATOM      1  S   LIG d   1       3.645   0.135  -5.139  0.00  0.00     0.059 S 
ATOM      2  O   LIG d   1       5.050   0.256  -4.963  0.00  0.00    -0.153 OA
ATOM      3  O   LIG d   1       2.732   1.119  -4.674  0.00  0.00    -0.153 OA
ENDROOT
BRANCH   1   4
ATOM      4  C   LIG d   1       3.367  -0.034  -6.870  0.00  0.00     0.105 A 
ATOM      5  C   LIG d   1       2.861   1.028  -7.595  0.00  0.00    -0.035 A 
ATOM      6  C   LIG d   1       2.644   0.897  -8.954  0.00  0.00    -0.057 A 
ATOM      7  H   LIG d   1       2.636   1.962  -7.100  0.00  0.00     0.064 H 
ATOM      8  C   LIG d   1       2.933  -0.297  -9.588  0.00  0.00    -0.050 A 
ATOM      9  H   LIG d   1       2.249   1.727  -9.520  0.00  0.00     0.062 H 
ATOM     10  C   LIG d   1       3.434  -1.361  -8.861  0.00  0.00    -0.057 A 
ATOM     11  C   LIG d   1       3.656  -1.228  -7.503  0.00  0.00    -0.035 A 
ATOM     12  H   LIG d   1       3.655  -2.296  -9.355  0.00  0.00     0.062 H 
ATOM     13  H   LIG d   1       4.051  -2.058  -6.937  0.00  0.00     0.064 H 
BRANCH   8  14
ATOM     14  C   LIG d   1       2.696  -0.441 -11.069  0.00  0.00    -0.040 C 
ATOM     15  H   LIG d   1       1.646  -0.248 -11.289  0.00  0.00     0.028 H 
ATOM     16  H   LIG d   1       3.317   0.274 -11.608  0.00  0.00     0.028 H 
ATOM     17  H   LIG d   1       2.953  -1.453 -11.381  0.00  0.00     0.028 H 
ENDBRANCH   8  14
ENDBRANCH   1   4
BRANCH   1  18
ATOM     18  N   LIG d   1       3.202  -1.295  -4.430  0.00  0.00    -0.183 N 
ATOM     19  H   LIG d   1       2.318  -1.661  -4.590  0.00  0.00     0.148 HD
BRANCH  18  20
ATOM     20  C   LIG d   1       4.143  -2.006  -3.561  0.00  0.00     0.075 C 
ATOM     21  H   LIG d   1       4.878  -1.302  -3.171  0.00  0.00     0.052 H 
ATOM     22  H   LIG d   1       3.600  -2.461  -2.733  0.00  0.00     0.052 H 
BRANCH  20  23
ATOM     23  C   LIG d   1       4.845  -3.078  -4.352  0.00  0.00     0.120 A 
ATOM     24  O   LIG d   1       4.258  -4.135  -4.936  0.00  0.00    -0.467 OA
ATOM     25  C   LIG d   1       5.188  -4.879  -5.557  0.00  0.00     0.092 A 
ATOM     26  C   LIG d   1       6.389  -4.304  -5.366  0.00  0.00    -0.024 A 
ATOM     27  H   LIG d   1       5.004  -5.787  -6.112  0.00  0.00     0.103 H 
ATOM     28  C   LIG d   1       6.168  -3.143  -4.589  0.00  0.00    -0.019 A 
ATOM     29  H   LIG d   1       7.340  -4.660  -5.734  0.00  0.00     0.065 H 
ATOM     30  H   LIG d   1       6.917  -2.442  -4.252  0.00  0.00     0.065 H 
ENDBRANCH  20  23
ENDBRANCH  18  20
ENDBRANCH   1  18
TORSDOF 5
ENDMDL
MODEL 7
REMARK VINA RESULT:      -5.1      5.107      8.524
REMARK  5 active torsions:
REMARK  status: ('A' for Active; 'I' for Inactive)
REMARK    1  A    between atoms: C_1  and  C_2 
REMARK    2  A    between atoms: C_5  and  S_8 
REMARK    3  A    between atoms: S_8  and  N_11 
REMARK    4  A    between atoms: N_11  and  C_12 
REMARK    5  A    between atoms: C_12  and  C_13 
ROOT
ATOM      1  S   LIG d   1       8.772   1.933  -4.706  0.00  0.00     0.059 S 
ATOM      2  O   LIG d   1       7.978   2.070  -5.876  0.00  0.00    -0.153 OA
ATOM      3  O   LIG d   1       9.952   1.142  -4.675  0.00  0.00    -0.153 OA
ENDROOT
BRANCH   1   4
ATOM      4  C   LIG d   1       9.244   3.561  -4.224  0.00  0.00     0.105 A 
ATOM      5  C   LIG d   1       9.098   4.612  -5.110  0.00  0.00    -0.035 A 
ATOM      6  C   LIG d   1       9.467   5.890  -4.733  0.00  0.00    -0.057 A 
ATOM      7  H   LIG d   1       8.695   4.436  -6.097  0.00  0.00     0.064 H 
ATOM      8  C   LIG d   1       9.982   6.116  -3.469  0.00  0.00    -0.050 A 
ATOM      9  H   LIG d   1       9.353   6.711  -5.424  0.00  0.00     0.062 H 
ATOM     10  C   LIG d   1      10.133   5.063  -2.587  0.00  0.00    -0.057 A 
ATOM     11  C   LIG d   1       9.759   3.786  -2.962  0.00  0.00    -0.035 A 
ATOM     12  H   LIG d   1      10.540   5.239  -1.601  0.00  0.00     0.062 H 
ATOM     13  H   LIG d   1       9.873   2.965  -2.271  0.00  0.00     0.064 H 
BRANCH   8  14
ATOM     14  C   LIG d   1      10.385   7.509  -3.058  0.00  0.00    -0.040 C 
ATOM     15  H   LIG d   1      10.204   8.198  -3.882  0.00  0.00     0.028 H 
ATOM     16  H   LIG d   1       9.798   7.816  -2.192  0.00  0.00     0.028 H 
ATOM     17  H   LIG d   1      11.444   7.519  -2.802  0.00  0.00     0.028 H 
ENDBRANCH   8  14
ENDBRANCH   1   4
BRANCH   1  18
ATOM     18  N   LIG d   1       7.774   1.343  -3.523  0.00  0.00    -0.183 N 
ATOM     19  H   LIG d   1       7.755   1.765  -2.650  0.00  0.00     0.148 HD
BRANCH  18  20
ATOM     20  C   LIG d   1       6.922   0.182  -3.795  0.00  0.00     0.075 C 
ATOM     21  H   LIG d   1       6.972  -0.063  -4.856  0.00  0.00     0.052 H 
ATOM     22  H   LIG d   1       7.268  -0.668  -3.208  0.00  0.00     0.052 H 
BRANCH  20  23
ATOM     23  C   LIG d   1       5.499   0.506  -3.420  0.00  0.00     0.120 A 
ATOM     24  O   LIG d   1       4.436   0.436  -4.237  0.00  0.00    -0.467 OA
ATOM     25  C   LIG d   1       3.329   0.793  -3.565  0.00  0.00     0.092 A 
ATOM     26  C   LIG d   1       3.680   1.104  -2.304  0.00  0.00    -0.024 A 
ATOM     27  H   LIG d   1       2.328   0.827  -3.968  0.00  0.00     0.103 H 
ATOM     28  C   LIG d   1       5.079   0.920  -2.211  0.00  0.00    -0.019 A 
ATOM     29  H   LIG d   1       3.020   1.433  -1.515  0.00  0.00     0.065 H 
ATOM     30  H   LIG d   1       5.693   1.079  -1.336  0.00  0.00     0.065 H 
ENDBRANCH  20  23
ENDBRANCH  18  20
ENDBRANCH   1  18
TORSDOF 5
ENDMDL
MODEL 8
REMARK VINA RESULT:      -5.0      5.974      7.471
REMARK  5 active torsions:
REMARK  status: ('A' for Active; 'I' for Inactive)
REMARK    1  A    between atoms: C_1  and  C_2 
REMARK    2  A    between atoms: C_5  and  S_8 
REMARK    3  A    between atoms: S_8  and  N_11 
REMARK    4  A    between atoms: N_11  and  C_12 
REMARK    5  A    between atoms: C_12  and  C_13 
ROOT
ATOM      1  S   LIG d   1       8.426   1.339  -4.598  0.00  0.00     0.059 S 
ATOM      2  O   LIG d   1       9.058   0.481  -5.537  0.00  0.00    -0.153 OA
ATOM      3  O   LIG d   1       7.852   2.585  -4.970  0.00  0.00    -0.153 OA
ENDROOT
BRANCH   1   4
ATOM      4  C   LIG d   1       7.143   0.399  -3.841  0.00  0.00     0.105 A 
ATOM      5  C   LIG d   1       7.202  -0.982  -3.850  0.00  0.00    -0.035 A 
ATOM      6  C   LIG d   1       6.196  -1.720  -3.255  0.00  0.00    -0.057 A 
ATOM      7  H   LIG d   1       8.035  -1.485  -4.320  0.00  0.00     0.064 H 
ATOM      8  C   LIG d   1       5.130  -1.077  -2.652  0.00  0.00    -0.050 A 
ATOM      9  H   LIG d   1       6.241  -2.799  -3.262  0.00  0.00     0.062 H 
ATOM     10  C   LIG d   1       5.069   0.304  -2.649  0.00  0.00    -0.057 A 
ATOM     11  C   LIG d   1       6.078   1.042  -3.239  0.00  0.00    -0.035 A 
ATOM     12  H   LIG d   1       4.234   0.806  -2.183  0.00  0.00     0.062 H 
ATOM     13  H   LIG d   1       6.032   2.121  -3.233  0.00  0.00     0.064 H 
BRANCH   8  14
ATOM     14  C   LIG d   1       4.033  -1.882  -2.005  0.00  0.00    -0.040 C 
ATOM     15  H   LIG d   1       3.471  -1.247  -1.322  0.00  0.00     0.028 H 
ATOM     16  H   LIG d   1       3.365  -2.270  -2.774  0.00  0.00     0.028 H 
ATOM     17  H   LIG d   1       4.471  -2.714  -1.452  0.00  0.00     0.028 H 
ENDBRANCH   8  14
ENDBRANCH   1   4
BRANCH   1  18
ATOM     18  N   LIG d   1       9.549   1.667  -3.426  0.00  0.00    -0.183 N 
ATOM     19  H   LIG d   1       9.361   1.448  -2.500  0.00  0.00     0.148 HD
BRANCH  18  20
ATOM     20  C   LIG d   1      10.826   2.288  -3.787  0.00  0.00     0.075 C 
ATOM     21  H   LIG d   1      11.617   1.887  -3.153  0.00  0.00     0.052 H 
ATOM     22  H   LIG d   1      11.053   2.071  -4.831  0.00  0.00     0.052 H 
BRANCH  20  23
ATOM     23  C   LIG d   1      10.733   3.779  -3.593  0.00  0.00     0.120 A 
ATOM     24  O   LIG d   1      11.401   4.707  -4.296  0.00  0.00    -0.467 OA
ATOM     25  C   LIG d   1      11.070   5.930  -3.853  0.00  0.00     0.092 A 
ATOM     26  C   LIG d   1      10.186   5.794  -2.849  0.00  0.00    -0.024 A 
ATOM     27  H   LIG d   1      11.452   6.865  -4.236  0.00  0.00     0.103 H 
ATOM     28  C   LIG d   1       9.968   4.407  -2.681  0.00  0.00    -0.019 A 
ATOM     29  H   LIG d   1       9.730   6.590  -2.279  0.00  0.00     0.065 H 
ATOM     30  H   LIG d   1       9.313   3.940  -1.959  0.00  0.00     0.065 H 
ENDBRANCH  20  23
ENDBRANCH  18  20
ENDBRANCH   1  18
TORSDOF 5
ENDMDL
MODEL 9
REMARK VINA RESULT:      -5.0      2.628      6.411
REMARK  5 active torsions:
REMARK  status: ('A' for Active; 'I' for Inactive)
REMARK    1  A    between atoms: C_1  and  C_2 
REMARK    2  A    between atoms: C_5  and  S_8 
REMARK    3  A    between atoms: S_8  and  N_11 
REMARK    4  A    between atoms: N_11  and  C_12 
REMARK    5  A    between atoms: C_12  and  C_13 
ROOT
ATOM      1  S   LIG d   1       4.646  -2.906  -6.948  0.00  0.00     0.059 S 
ATOM      2  O   LIG d   1       5.952  -2.701  -7.469  0.00  0.00    -0.153 OA
ATOM      3  O   LIG d   1       4.112  -4.203  -6.722  0.00  0.00    -0.153 OA
ENDROOT
BRANCH   1   4
ATOM      4  C   LIG d   1       4.580  -2.058  -5.405  0.00  0.00     0.105 A 
ATOM      5  C   LIG d   1       4.365  -0.693  -5.376  0.00  0.00    -0.035 A 
ATOM      6  C   LIG d   1       4.313  -0.027  -4.166  0.00  0.00    -0.057 A 
ATOM      7  H   LIG d   1       4.237  -0.146  -6.299  0.00  0.00     0.064 H 
ATOM      8  C   LIG d   1       4.476  -0.727  -2.984  0.00  0.00    -0.050 A 
ATOM      9  H   LIG d   1       4.145   1.039  -4.143  0.00  0.00     0.062 H 
ATOM     10  C   LIG d   1       4.697  -2.091  -3.015  0.00  0.00    -0.057 A 
ATOM     11  C   LIG d   1       4.744  -2.757  -4.224  0.00  0.00    -0.035 A 
ATOM     12  H   LIG d   1       4.829  -2.637  -2.092  0.00  0.00     0.062 H 
ATOM     13  H   LIG d   1       4.912  -3.824  -4.248  0.00  0.00     0.064 H 
BRANCH   8  14
ATOM     14  C   LIG d   1       4.420  -0.001  -1.665  0.00  0.00    -0.040 C 
ATOM     15  H   LIG d   1       3.494  -0.255  -1.149  0.00  0.00     0.028 H 
ATOM     16  H   LIG d   1       5.271  -0.296  -1.051  0.00  0.00     0.028 H 
ATOM     17  H   LIG d   1       4.454   1.075  -1.841  0.00  0.00     0.028 H 
ENDBRANCH   8  14
ENDBRANCH   1   4
BRANCH   1  18
ATOM     18  N   LIG d   1       3.600  -2.135  -7.975  0.00  0.00    -0.183 N 
ATOM     19  H   LIG d   1       2.706  -1.909  -7.676  0.00  0.00     0.148 HD
BRANCH  18  20
ATOM     20  C   LIG d   1       4.025  -1.797  -9.336  0.00  0.00     0.075 C 
ATOM     21  H   LIG d   1       5.008  -2.227  -9.526  0.00  0.00     0.052 H 
ATOM     22  H   LIG d   1       3.308  -2.199 -10.051  0.00  0.00     0.052 H 
BRANCH  20  23
ATOM     23  C   LIG d   1       4.095  -0.299  -9.482  0.00  0.00     0.120 A 
ATOM     24  O   LIG d   1       4.791   0.536  -8.694  0.00  0.00    -0.467 OA
ATOM     25  C   LIG d   1       4.624   1.799  -9.120  0.00  0.00     0.092 A 
ATOM     26  C   LIG d   1       3.807   1.782 -10.188  0.00  0.00    -0.024 A 
ATOM     27  H   LIG d   1       5.069   2.678  -8.678  0.00  0.00     0.103 H 
ATOM     28  C   LIG d   1       3.465   0.430 -10.421  0.00  0.00    -0.019 A 
ATOM     29  H   LIG d   1       3.474   2.637 -10.758  0.00  0.00     0.065 H 
ATOM     30  H   LIG d   1       2.823   0.054 -11.204  0.00  0.00     0.065 H 
ENDBRANCH  20  23
ENDBRANCH  18  20
ENDBRANCH   1  18
TORSDOF 5
ENDMDL
MODEL 10
REMARK VINA RESULT:      -4.9      2.653      5.936
REMARK  5 active torsions:
REMARK  status: ('A' for Active; 'I' for Inactive)
REMARK    1  A    between atoms: C_1  and  C_2 
REMARK    2  A    between atoms: C_5  and  S_8 
REMARK    3  A    between atoms: S_8  and  N_11 
REMARK    4  A    between atoms: N_11  and  C_12 
REMARK    5  A    between atoms: C_12  and  C_13 
ROOT
ATOM      1  S   LIG d   1       3.108   0.642  -7.695  0.00  0.00     0.059 S 
ATOM      2  O   LIG d   1       2.205  -0.188  -8.413  0.00  0.00    -0.153 OA
ATOM      3  O   LIG d   1       2.852   2.021  -7.463  0.00  0.00    -0.153 OA
ENDROOT
BRANCH   1   4
ATOM      4  C   LIG d   1       3.329  -0.103  -6.114  0.00  0.00     0.105 A 
ATOM      5  C   LIG d   1       2.548   0.297  -5.047  0.00  0.00    -0.035 A 
ATOM      6  C   LIG d   1       2.720  -0.288  -3.806  0.00  0.00    -0.057 A 
ATOM      7  H   LIG d   1       1.801   1.066  -5.181  0.00  0.00     0.064 H 
ATOM      8  C   LIG d   1       3.674  -1.274  -3.634  0.00  0.00    -0.050 A 
ATOM      9  H   LIG d   1       2.110   0.024  -2.972  0.00  0.00     0.062 H 
ATOM     10  C   LIG d   1       4.460  -1.669  -4.701  0.00  0.00    -0.057 A 
ATOM     11  C   LIG d   1       4.284  -1.088  -5.942  0.00  0.00    -0.035 A 
ATOM     12  H   LIG d   1       5.209  -2.436  -4.565  0.00  0.00     0.062 H 
ATOM     13  H   LIG d   1       4.894  -1.400  -6.776  0.00  0.00     0.064 H 
BRANCH   8  14
ATOM     14  C   LIG d   1       3.863  -1.912  -2.281  0.00  0.00    -0.040 C 
ATOM     15  H   LIG d   1       2.944  -1.819  -1.704  0.00  0.00     0.028 H 
ATOM     16  H   LIG d   1       4.109  -2.966  -2.408  0.00  0.00     0.028 H 
ATOM     17  H   LIG d   1       4.675  -1.410  -1.754  0.00  0.00     0.028 H 
ENDBRANCH   8  14
ENDBRANCH   1   4
BRANCH   1  18
ATOM     18  N   LIG d   1       4.561   0.557  -8.485  0.00  0.00    -0.183 N 
ATOM     19  H   LIG d   1       5.333   1.024  -8.131  0.00  0.00     0.148 HD
BRANCH  18  20
ATOM     20  C   LIG d   1       4.679  -0.224  -9.719  0.00  0.00     0.075 C 
ATOM     21  H   LIG d   1       3.692  -0.357 -10.160  0.00  0.00     0.052 H 
ATOM     22  H   LIG d   1       5.324   0.303 -10.422  0.00  0.00     0.052 H 
BRANCH  20  23
ATOM     23  C   LIG d   1       5.275  -1.572  -9.405  0.00  0.00     0.120 A 
ATOM     24  O   LIG d   1       6.575  -1.824  -9.182  0.00  0.00    -0.467 OA
ATOM     25  C   LIG d   1       6.741  -3.133  -8.930  0.00  0.00     0.092 A 
ATOM     26  C   LIG d   1       5.540  -3.735  -9.000  0.00  0.00    -0.024 A 
ATOM     27  H   LIG d   1       7.680  -3.620  -8.713  0.00  0.00     0.103 H 
ATOM     28  C   LIG d   1       4.595  -2.729  -9.306  0.00  0.00    -0.019 A 
ATOM     29  H   LIG d   1       5.337  -4.785  -8.852  0.00  0.00     0.065 H 
ATOM     30  H   LIG d   1       3.531  -2.863  -9.435  0.00  0.00     0.065 H 
ENDBRANCH  20  23
ENDBRANCH  18  20
ENDBRANCH   1  18
TORSDOF 5
ENDMDL
