MODEL 1
REMARK VINA RESULT:      -6.7      0.000      0.000
REMARK  5 active torsions:
REMARK  status: ('A' for Active; 'I' for Inactive)
REMARK    1  A    between atoms: C_6  and  C_7 
REMARK       I    between atoms: C_7  and  N_9 
REMARK    2  A    between atoms: N_9  and  C_10 
REMARK    3  A    between atoms: C_21  and  O_28 
REMARK    4  A    between atoms: O_28  and  C_29 
REMARK    5  A    between atoms: C_29  and  C_30 
ROOT
ATOM      1  C   LIG d   1       3.331   0.126  -6.245  0.00  0.00     0.052 C 
ATOM      2  H   LIG d   1       3.535   1.113  -6.658  0.00  0.00     0.052 H 
ATOM      3  C   LIG d   1       2.298   0.205  -5.086  0.00  0.00    -0.016 C 
ATOM      4  C   LIG d   1       3.169   0.633  -3.884  0.00  0.00     0.017 C 
ATOM      5  N   LIG d   1       4.558   0.226  -4.185  0.00  0.00    -0.286 N 
ATOM      6  CA  LIG d   1       4.565  -0.436  -5.503  0.00  0.00     0.121 C 
ATOM      7  HA  LIG d   1       4.499  -1.519  -5.398  0.00  0.00     0.061 H 
ATOM      8  C   LIG d   1       5.825  -0.043  -6.235  0.00  0.00     0.239 C 
ATOM      9  O   LIG d   1       5.875  -0.065  -7.446  0.00  0.00    -0.274 OA
ATOM     10  N   LIG d   1       6.891   0.333  -5.507  0.00  0.00    -0.286 N 
ATOM     11  C   LIG d   1       8.138   0.961  -5.984  0.00  0.00     0.042 C 
ATOM     12  C   LIG d   1       8.405   2.046  -4.907  0.00  0.00     0.076 C 
ATOM     13  H   LIG d   1       7.788   2.927  -5.084  0.00  0.00     0.061 H 
ATOM     14  C   LIG d   1       7.985   1.335  -3.596  0.00  0.00     0.002 C 
ATOM     15  CA  LIG d   1       7.013   0.229  -4.042  0.00  0.00     0.105 C 
ATOM     16  HA  LIG d   1       7.393  -0.754  -3.764  0.00  0.00     0.060 H 
ATOM     17  C   LIG d   1       5.653   0.454  -3.430  0.00  0.00     0.237 C 
ATOM     18  O   LIG d   1       5.545   0.830  -2.281  0.00  0.00    -0.274 OA
ATOM     19  H   LIG d   1       1.536   0.956  -5.298  0.00  0.00     0.030 H 
ATOM     20  H   LIG d   1       1.840  -0.768  -4.909  0.00  0.00     0.030 H 
ATOM     21  H   LIG d   1       3.112   1.713  -3.750  0.00  0.00     0.046 H 
ATOM     22  H   LIG d   1       2.827   0.128  -2.980  0.00  0.00     0.046 H 
ATOM     23  H   LIG d   1       8.950   0.233  -6.011  0.00  0.00     0.049 H 
ATOM     24  H   LIG d   1       7.992   1.415  -6.963  0.00  0.00     0.049 H 
ATOM     25  H   LIG d   1       7.483   2.036  -2.930  0.00  0.00     0.031 H 
ATOM     26  H   LIG d   1       8.856   0.899  -3.105  0.00  0.00     0.031 H 
ENDROOT
BRANCH   1  27
ATOM     27  N   LIG d   1       2.879  -0.796  -7.292  0.00  0.00    -0.306 N 
ATOM     28  C   LIG d   1       2.583  -0.327  -8.521  0.00  0.00     0.244 C 
ATOM     29  O   LIG d   1       2.689   0.860  -8.760  0.00  0.00    -0.270 OA
ATOM     30  H   LIG d   1       2.795  -1.743  -7.101  0.00  0.00     0.149 HD
BRANCH  28  31
ATOM     31  C   LIG d   1       2.128  -1.256  -9.576  0.00  0.00     0.038 A 
ATOM     32  C   LIG d   1       1.397  -0.776 -10.663  0.00  0.00    -0.047 A 
ATOM     33  C   LIG d   1       0.979  -1.646 -11.648  0.00  0.00    -0.024 A 
ATOM     34  H   LIG d   1       1.164   0.276 -10.738  0.00  0.00     0.063 H 
ATOM     35  C   LIG d   1       1.272  -2.998 -11.553  0.00  0.00     0.142 A 
ATOM     36  H   LIG d   1       0.418  -1.275 -12.493  0.00  0.00     0.065 H 
ATOM     37  C   LIG d   1       1.993  -3.481 -10.470  0.00  0.00     0.077 A 
ATOM     38  F   LIG d   1       0.857  -3.847 -12.518  0.00  0.00    -0.204 F 
ATOM     39  C   LIG d   1       2.422  -2.618  -9.483  0.00  0.00    -0.029 A 
ATOM     40 CL   LIG d   1       2.357  -5.175 -10.358  0.00  0.00    -0.081 Cl
ATOM     41  H   LIG d   1       2.982  -2.996  -8.641  0.00  0.00     0.064 H 
ENDBRANCH  28  31
ENDBRANCH   1  27
BRANCH  12  42
ATOM     42  O   LIG d   1       9.791   2.395  -4.873  0.00  0.00    -0.375 OA
BRANCH  42  43
ATOM     43  C   LIG d   1      10.309   2.589  -3.555  0.00  0.00     0.051 C 
ATOM     44  H   LIG d   1       9.520   2.411  -2.824  0.00  0.00     0.056 H 
ATOM     45  H   LIG d   1      11.130   1.892  -3.380  0.00  0.00     0.056 H 
BRANCH  43  46
ATOM     46  C   LIG d   1      10.820   4.024  -3.414  0.00  0.00    -0.018 A 
ATOM     47  C   LIG d   1       9.821   5.157  -3.649  0.00  0.00    -0.048 A 
ATOM     48  C   LIG d   1      10.305   4.845  -2.230  0.00  0.00    -0.048 A 
ATOM     49  H   LIG d   1      10.193   6.067  -4.119  0.00  0.00     0.027 H 
ATOM     50  H   LIG d   1       8.798   4.881  -3.904  0.00  0.00     0.027 H 
ATOM     51  H   LIG d   1       9.600   4.363  -1.553  0.00  0.00     0.027 H 
ATOM     52  H   LIG d   1      10.994   5.550  -1.768  0.00  0.00     0.027 H 
ATOM     53  H   LIG d   1      11.851   4.188  -3.729  0.00  0.00     0.032 H 
ENDBRANCH  43  46
ENDBRANCH  42  43
ENDBRANCH  12  42
TORSDOF 5
ENDMDL
MODEL 2
REMARK VINA RESULT:      -6.7      6.445     10.601
REMARK  5 active torsions:
REMARK  status: ('A' for Active; 'I' for Inactive)
REMARK    1  A    between atoms: C_6  and  C_7 
REMARK       I    between atoms: C_7  and  N_9 
REMARK    2  A    between atoms: N_9  and  C_10 
REMARK    3  A    between atoms: C_21  and  O_28 
REMARK    4  A    between atoms: O_28  and  C_29 
REMARK    5  A    between atoms: C_29  and  C_30 
ROOT
ATOM      1  C   LIG d   1       9.728   3.797  -5.026  0.00  0.00     0.052 C 
ATOM      2  H   LIG d   1       8.726   4.082  -5.345  0.00  0.00     0.052 H 
ATOM      3  C   LIG d   1      10.746   3.928  -6.193  0.00  0.00    -0.016 C 
ATOM      4  C   LIG d   1      10.522   2.621  -6.987  0.00  0.00     0.017 C 
ATOM      5  N   LIG d   1       9.939   1.637  -6.051  0.00  0.00    -0.286 N 
ATOM      6  CA  LIG d   1       9.810   2.282  -4.730  0.00  0.00     0.121 C 
ATOM      7  HA  LIG d   1      10.667   2.053  -4.098  0.00  0.00     0.061 H 
ATOM      8  C   LIG d   1       8.527   1.815  -4.088  0.00  0.00     0.239 C 
ATOM      9  O   LIG d   1       7.966   2.492  -3.253  0.00  0.00    -0.274 OA
ATOM     10  N   LIG d   1       8.022   0.629  -4.466  0.00  0.00    -0.286 N 
ATOM     11  C   LIG d   1       6.694   0.068  -4.153  0.00  0.00     0.042 C 
ATOM     12  C   LIG d   1       6.264  -0.562  -5.505  0.00  0.00     0.076 C 
ATOM     13  H   LIG d   1       5.881   0.201  -6.184  0.00  0.00     0.061 H 
ATOM     14  C   LIG d   1       7.590  -1.158  -6.040  0.00  0.00     0.002 C 
ATOM     15  CA  LIG d   1       8.696  -0.358  -5.329  0.00  0.00     0.105 C 
ATOM     16  HA  LIG d   1       9.323  -1.017  -4.728  0.00  0.00     0.060 H 
ATOM     17  C   LIG d   1       9.536   0.382  -6.339  0.00  0.00     0.237 C 
ATOM     18  O   LIG d   1       9.846  -0.142  -7.389  0.00  0.00    -0.274 OA
ATOM     19  H   LIG d   1      10.517   4.798  -6.810  0.00  0.00     0.030 H 
ATOM     20  H   LIG d   1      11.765   3.983  -5.813  0.00  0.00     0.030 H 
ATOM     21  H   LIG d   1       9.841   2.803  -7.818  0.00  0.00     0.046 H 
ATOM     22  H   LIG d   1      11.475   2.248  -7.363  0.00  0.00     0.046 H 
ATOM     23  H   LIG d   1       6.770  -0.694  -3.377  0.00  0.00     0.049 H 
ATOM     24  H   LIG d   1       6.002   0.856  -3.856  0.00  0.00     0.049 H 
ATOM     25  H   LIG d   1       7.659  -1.022  -7.119  0.00  0.00     0.031 H 
ATOM     26  H   LIG d   1       7.662  -2.215  -5.783  0.00  0.00     0.031 H 
ENDROOT
BRANCH   1  27
ATOM     27  N   LIG d   1      10.152   4.585  -3.866  0.00  0.00    -0.306 N 
ATOM     28  C   LIG d   1       9.630   5.810  -3.656  0.00  0.00     0.244 C 
ATOM     29  O   LIG d   1       8.810   6.262  -4.431  0.00  0.00    -0.270 OA
ATOM     30  H   LIG d   1      10.807   4.225  -3.247  0.00  0.00     0.149 HD
BRANCH  28  31
ATOM     31  C   LIG d   1      10.058   6.605  -2.486  0.00  0.00     0.038 A 
ATOM     32  C   LIG d   1      10.219   7.987  -2.599  0.00  0.00    -0.047 A 
ATOM     33  C   LIG d   1      10.613   8.725  -1.503  0.00  0.00    -0.024 A 
ATOM     34  H   LIG d   1      10.029   8.479  -3.542  0.00  0.00     0.063 H 
ATOM     35  C   LIG d   1      10.862   8.096  -0.293  0.00  0.00     0.142 A 
ATOM     36  H   LIG d   1      10.732   9.795  -1.588  0.00  0.00     0.065 H 
ATOM     37  C   LIG d   1      10.711   6.721  -0.177  0.00  0.00     0.077 A 
ATOM     38  F   LIG d   1      11.253   8.822   0.776  0.00  0.00    -0.204 F 
ATOM     39  C   LIG d   1      10.310   5.974  -1.266  0.00  0.00    -0.029 A 
ATOM     40 CL   LIG d   1      11.024   5.939   1.341  0.00  0.00    -0.081 Cl
ATOM     41  H   LIG d   1      10.193   4.905  -1.175  0.00  0.00     0.064 H 
ENDBRANCH  28  31
ENDBRANCH   1  27
BRANCH  12  42
ATOM     42  O   LIG d   1       5.293  -1.591  -5.299  0.00  0.00    -0.375 OA
BRANCH  42  43
ATOM     43  C   LIG d   1       5.560  -2.424  -4.169  0.00  0.00     0.051 C 
ATOM     44  H   LIG d   1       5.885  -3.407  -4.510  0.00  0.00     0.056 H 
ATOM     45  H   LIG d   1       6.346  -1.972  -3.562  0.00  0.00     0.056 H 
BRANCH  43  46
ATOM     46  C   LIG d   1       4.290  -2.570  -3.330  0.00  0.00    -0.018 A 
ATOM     47  C   LIG d   1       4.175  -1.717  -2.066  0.00  0.00    -0.048 A 
ATOM     48  C   LIG d   1       3.325  -1.383  -3.295  0.00  0.00    -0.048 A 
ATOM     49  H   LIG d   1       3.667  -2.155  -1.207  0.00  0.00     0.027 H 
ATOM     50  H   LIG d   1       5.005  -1.050  -1.831  0.00  0.00     0.027 H 
ATOM     51  H   LIG d   1       3.597  -0.497  -3.868  0.00  0.00     0.027 H 
ATOM     52  H   LIG d   1       2.259  -1.601  -3.243  0.00  0.00     0.027 H 
ATOM     53  H   LIG d   1       3.857  -3.570  -3.303  0.00  0.00     0.032 H 
ENDBRANCH  43  46
ENDBRANCH  42  43
ENDBRANCH  12  42
TORSDOF 5
ENDMDL
MODEL 3
REMARK VINA RESULT:      -6.4      5.673      8.010
REMARK  5 active torsions:
REMARK  status: ('A' for Active; 'I' for Inactive)
REMARK    1  A    between atoms: C_6  and  C_7 
REMARK       I    between atoms: C_7  and  N_9 
REMARK    2  A    between atoms: N_9  and  C_10 
REMARK    3  A    between atoms: C_21  and  O_28 
REMARK    4  A    between atoms: O_28  and  C_29 
REMARK    5  A    between atoms: C_29  and  C_30 
ROOT
ATOM      1  C   LIG d   1       9.343   3.299  -5.130  0.00  0.00     0.052 C 
ATOM      2  H   LIG d   1      10.299   2.871  -4.830  0.00  0.00     0.052 H 
ATOM      3  C   LIG d   1       9.249   3.430  -6.675  0.00  0.00    -0.016 C 
ATOM      4  C   LIG d   1      10.029   4.735  -6.953  0.00  0.00     0.017 C 
ATOM      5  N   LIG d   1      10.002   5.533  -5.710  0.00  0.00    -0.286 N 
ATOM      6  CA  LIG d   1       9.235   4.780  -4.699  0.00  0.00     0.121 C 
ATOM      7  HA  LIG d   1       8.194   5.104  -4.676  0.00  0.00     0.061 H 
ATOM      8  C   LIG d   1       9.889   4.971  -3.354  0.00  0.00     0.239 C 
ATOM      9  O   LIG d   1       9.756   4.149  -2.473  0.00  0.00    -0.274 OA
ATOM     10  N   LIG d   1      10.625   6.079  -3.157  0.00  0.00    -0.286 N 
ATOM     11  C   LIG d   1      11.526   6.379  -2.028  0.00  0.00     0.042 C 
ATOM     12  C   LIG d   1      12.749   7.025  -2.732  0.00  0.00     0.076 C 
ATOM     13  H   LIG d   1      13.397   6.260  -3.162  0.00  0.00     0.061 H 
ATOM     14  C   LIG d   1      12.091   7.876  -3.846  0.00  0.00     0.002 C 
ATOM     15  CA  LIG d   1      10.714   7.227  -4.076  0.00  0.00     0.105 C 
ATOM     16  HA  LIG d   1       9.914   7.938  -3.871  0.00  0.00     0.060 H 
ATOM     17  C   LIG d   1      10.609   6.718  -5.492  0.00  0.00     0.237 C 
ATOM     18  O   LIG d   1      11.057   7.363  -6.417  0.00  0.00    -0.274 OA
ATOM     19  H   LIG d   1       9.727   2.582  -7.166  0.00  0.00     0.030 H 
ATOM     20  H   LIG d   1       8.210   3.523  -6.993  0.00  0.00     0.030 H 
ATOM     21  H   LIG d   1      11.057   4.501  -7.231  0.00  0.00     0.046 H 
ATOM     22  H   LIG d   1       9.546   5.292  -7.756  0.00  0.00     0.046 H 
ATOM     23  H   LIG d   1      11.059   7.084  -1.339  0.00  0.00     0.049 H 
ATOM     24  H   LIG d   1      11.815   5.465  -1.510  0.00  0.00     0.049 H 
ATOM     25  H   LIG d   1      12.686   7.834  -4.758  0.00  0.00     0.031 H 
ATOM     26  H   LIG d   1      11.973   8.908  -3.515  0.00  0.00     0.031 H 
ENDROOT
BRANCH   1  27
ATOM     27  N   LIG d   1       8.227   2.511  -4.598  0.00  0.00    -0.306 N 
ATOM     28  C   LIG d   1       8.399   1.204  -4.317  0.00  0.00     0.244 C 
ATOM     29  O   LIG d   1       9.478   0.678  -4.506  0.00  0.00    -0.270 OA
ATOM     30  H   LIG d   1       7.366   2.931  -4.447  0.00  0.00     0.149 HD
BRANCH  28  31
ATOM     31  C   LIG d   1       7.273   0.410  -3.781  0.00  0.00     0.038 A 
ATOM     32  C   LIG d   1       7.311  -0.984  -3.836  0.00  0.00    -0.047 A 
ATOM     33  C   LIG d   1       6.261  -1.721  -3.329  0.00  0.00    -0.024 A 
ATOM     34  H   LIG d   1       8.164  -1.486  -4.268  0.00  0.00     0.063 H 
ATOM     35  C   LIG d   1       5.163  -1.079  -2.778  0.00  0.00     0.142 A 
ATOM     36  H   LIG d   1       6.293  -2.799  -3.366  0.00  0.00     0.065 H 
ATOM     37  C   LIG d   1       5.117   0.307  -2.728  0.00  0.00     0.077 A 
ATOM     38  F   LIG d   1       4.135  -1.805  -2.288  0.00  0.00    -0.204 F 
ATOM     39  C   LIG d   1       6.166   1.053  -3.225  0.00  0.00    -0.029 A 
ATOM     40 CL   LIG d   1       3.739   1.104  -2.036  0.00  0.00    -0.081 Cl
ATOM     41  H   LIG d   1       6.128   2.132  -3.186  0.00  0.00     0.064 H 
ENDBRANCH  28  31
ENDBRANCH   1  27
BRANCH  12  42
ATOM     42  O   LIG d   1      13.477   7.854  -1.824  0.00  0.00    -0.375 OA
BRANCH  42  43
ATOM     43  C   LIG d   1      12.923   7.902  -0.508  0.00  0.00     0.051 C 
ATOM     44  H   LIG d   1      12.063   7.234  -0.452  0.00  0.00     0.056 H 
ATOM     45  H   LIG d   1      13.676   7.586   0.215  0.00  0.00     0.056 H 
BRANCH  43  46
ATOM     46  C   LIG d   1      12.480   9.331  -0.191  0.00  0.00    -0.018 A 
ATOM     47  C   LIG d   1      11.014   9.689  -0.442  0.00  0.00    -0.048 A 
ATOM     48  C   LIG d   1      11.530   9.531   0.991  0.00  0.00    -0.048 A 
ATOM     49  H   LIG d   1      10.795  10.698  -0.789  0.00  0.00     0.027 H 
ATOM     50  H   LIG d   1      10.365   8.906  -0.832  0.00  0.00     0.027 H 
ATOM     51  H   LIG d   1      11.219   8.644   1.542  0.00  0.00     0.027 H 
ATOM     52  H   LIG d   1      11.649  10.437   1.585  0.00  0.00     0.027 H 
ATOM     53  H   LIG d   1      13.226  10.105  -0.374  0.00  0.00     0.032 H 
ENDBRANCH  43  46
ENDBRANCH  42  43
ENDBRANCH  12  42
TORSDOF 5
ENDMDL
MODEL 4
REMARK VINA RESULT:      -6.3      4.686     10.020
REMARK  5 active torsions:
REMARK  status: ('A' for Active; 'I' for Inactive)
REMARK    1  A    between atoms: C_6  and  C_7 
REMARK       I    between atoms: C_7  and  N_9 
REMARK    2  A    between atoms: N_9  and  C_10 
REMARK    3  A    between atoms: C_21  and  O_28 
REMARK    4  A    between atoms: O_28  and  C_29 
REMARK    5  A    between atoms: C_29  and  C_30 
ROOT
ATOM      1  C   LIG d   1       3.295  -0.046  -9.102  0.00  0.00     0.052 C 
ATOM      2  H   LIG d   1       2.262   0.283  -9.205  0.00  0.00     0.052 H 
ATOM      3  C   LIG d   1       4.286   1.082  -9.501  0.00  0.00    -0.016 C 
ATOM      4  C   LIG d   1       4.307   0.985 -11.043  0.00  0.00     0.017 C 
ATOM      5  N   LIG d   1       3.899  -0.389 -11.400  0.00  0.00    -0.286 N 
ATOM      6  CA  LIG d   1       3.642  -1.129 -10.149  0.00  0.00     0.121 C 
ATOM      7  HA  LIG d   1       4.520  -1.700  -9.845  0.00  0.00     0.061 H 
ATOM      8  C   LIG d   1       2.456  -2.038 -10.359  0.00  0.00     0.239 C 
ATOM      9  O   LIG d   1       1.775  -2.399  -9.424  0.00  0.00    -0.274 OA
ATOM     10  N   LIG d   1       2.174  -2.436 -11.612  0.00  0.00    -0.286 N 
ATOM     11  C   LIG d   1       0.964  -3.129 -12.092  0.00  0.00     0.042 C 
ATOM     12  C   LIG d   1       0.668  -2.406 -13.433  0.00  0.00     0.076 C 
ATOM     13  H   LIG d   1       0.163  -1.456 -13.258  0.00  0.00     0.061 H 
ATOM     14  C   LIG d   1       2.085  -2.176 -14.016  0.00  0.00     0.002 C 
ATOM     15  CA  LIG d   1       3.023  -2.214 -12.797  0.00  0.00     0.105 C 
ATOM     16  HA  LIG d   1       3.751  -3.019 -12.895  0.00  0.00     0.060 H 
ATOM     17  C   LIG d   1       3.729  -0.890 -12.641  0.00  0.00     0.237 C 
ATOM     18  O   LIG d   1       4.138  -0.289 -13.613  0.00  0.00    -0.274 OA
ATOM     19  H   LIG d   1       3.913   2.056  -9.181  0.00  0.00     0.030 H 
ATOM     20  H   LIG d   1       5.275   0.893  -9.086  0.00  0.00     0.030 H 
ATOM     21  H   LIG d   1       3.614   1.709 -11.471  0.00  0.00     0.046 H 
ATOM     22  H   LIG d   1       5.316   1.174 -11.413  0.00  0.00     0.046 H 
ATOM     23  H   LIG d   1       1.166  -4.187 -12.258  0.00  0.00     0.049 H 
ATOM     24  H   LIG d   1       0.140  -2.997 -11.392  0.00  0.00     0.049 H 
ATOM     25  H   LIG d   1       2.140  -1.205 -14.506  0.00  0.00     0.031 H 
ATOM     26  H   LIG d   1       2.341  -2.972 -14.716  0.00  0.00     0.031 H 
ENDROOT
BRANCH   1  27
ATOM     27  N   LIG d   1       3.559  -0.523  -7.742  0.00  0.00    -0.306 N 
ATOM     28  C   LIG d   1       3.268   0.261  -6.684  0.00  0.00     0.244 C 
ATOM     29  O   LIG d   1       2.789   1.364  -6.859  0.00  0.00    -0.270 OA
ATOM     30  H   LIG d   1       3.941  -1.404  -7.602  0.00  0.00     0.149 HD
BRANCH  28  31
ATOM     31  C   LIG d   1       3.535  -0.221  -5.313  0.00  0.00     0.038 A 
ATOM     32  C   LIG d   1       2.552  -0.110  -4.328  0.00  0.00    -0.047 A 
ATOM     33  C   LIG d   1       2.803  -0.565  -3.051  0.00  0.00    -0.024 A 
ATOM     34  H   LIG d   1       1.593   0.326  -4.567  0.00  0.00     0.063 H 
ATOM     35  C   LIG d   1       4.034  -1.121  -2.740  0.00  0.00     0.142 A 
ATOM     36  H   LIG d   1       2.041  -0.485  -2.291  0.00  0.00     0.065 H 
ATOM     37  C   LIG d   1       5.018  -1.227  -3.714  0.00  0.00     0.077 A 
ATOM     38  F   LIG d   1       4.278  -1.561  -1.487  0.00  0.00    -0.204 F 
ATOM     39  C   LIG d   1       4.774  -0.781  -4.996  0.00  0.00    -0.029 A 
ATOM     40 CL   LIG d   1       6.558  -1.924  -3.318  0.00  0.00    -0.081 Cl
ATOM     41  H   LIG d   1       5.541  -0.863  -5.752  0.00  0.00     0.064 H 
ENDBRANCH  28  31
ENDBRANCH   1  27
BRANCH  12  42
ATOM     42  O   LIG d   1      -0.106  -3.241 -14.298  0.00  0.00    -0.375 OA
BRANCH  42  43
ATOM     43  C   LIG d   1      -1.301  -2.626 -14.783  0.00  0.00     0.051 C 
ATOM     44  H   LIG d   1      -1.141  -2.272 -15.802  0.00  0.00     0.056 H 
ATOM     45  H   LIG d   1      -2.114  -3.354 -14.774  0.00  0.00     0.056 H 
BRANCH  43  46
ATOM     46  C   LIG d   1      -1.668  -1.443 -13.884  0.00  0.00    -0.018 A 
ATOM     47  C   LIG d   1      -2.691  -0.440 -14.418  0.00  0.00    -0.048 A 
ATOM     48  C   LIG d   1      -3.081  -1.410 -13.301  0.00  0.00    -0.048 A 
ATOM     49  H   LIG d   1      -2.555   0.608 -14.151  0.00  0.00     0.027 H 
ATOM     50  H   LIG d   1      -3.103  -0.622 -15.411  0.00  0.00     0.027 H 
ATOM     51  H   LIG d   1      -3.751  -2.230 -13.559  0.00  0.00     0.027 H 
ATOM     52  H   LIG d   1      -3.203  -1.000 -12.299  0.00  0.00     0.027 H 
ATOM     53  H   LIG d   1      -0.859  -1.056 -13.264  0.00  0.00     0.032 H 
ENDBRANCH  43  46
ENDBRANCH  42  43
ENDBRANCH  12  42
TORSDOF 5
ENDMDL
MODEL 5
REMARK VINA RESULT:      -6.3      5.665      7.923
REMARK  5 active torsions:
REMARK  status: ('A' for Active; 'I' for Inactive)
REMARK    1  A    between atoms: C_6  and  C_7 
REMARK       I    between atoms: C_7  and  N_9 
REMARK    2  A    between atoms: N_9  and  C_10 
REMARK    3  A    between atoms: C_21  and  O_28 
REMARK    4  A    between atoms: O_28  and  C_29 
REMARK    5  A    between atoms: C_29  and  C_30 
ROOT
ATOM      1  C   LIG d   1       9.243   3.145  -5.211  0.00  0.00     0.052 C 
ATOM      2  H   LIG d   1      10.190   2.696  -4.915  0.00  0.00     0.052 H 
ATOM      3  C   LIG d   1       9.125   3.236  -6.758  0.00  0.00    -0.016 C 
ATOM      4  C   LIG d   1       9.941   4.507  -7.086  0.00  0.00     0.017 C 
ATOM      5  N   LIG d   1       9.961   5.340  -5.866  0.00  0.00    -0.286 N 
ATOM      6  CA  LIG d   1       9.188   4.640  -4.821  0.00  0.00     0.121 C 
ATOM      7  HA  LIG d   1       8.159   4.998  -4.790  0.00  0.00     0.061 H 
ATOM      8  C   LIG d   1       9.872   4.848  -3.493  0.00  0.00     0.239 C 
ATOM      9  O   LIG d   1       9.728   4.056  -2.587  0.00  0.00    -0.274 OA
ATOM     10  N   LIG d   1      10.645   5.937  -3.340  0.00  0.00    -0.286 N 
ATOM     11  C   LIG d   1      11.575   6.241  -2.236  0.00  0.00     0.042 C 
ATOM     12  C   LIG d   1      12.805   6.827  -2.978  0.00  0.00     0.076 C 
ATOM     13  H   LIG d   1      13.421   6.030  -3.397  0.00  0.00     0.061 H 
ATOM     14  C   LIG d   1      12.154   7.667  -4.105  0.00  0.00     0.002 C 
ATOM     15  CA  LIG d   1      10.754   7.056  -4.294  0.00  0.00     0.105 C 
ATOM     16  HA  LIG d   1       9.979   7.797  -4.095  0.00  0.00     0.060 H 
ATOM     17  C   LIG d   1      10.607   6.511  -5.692  0.00  0.00     0.237 C 
ATOM     18  O   LIG d   1      11.059   7.115  -6.643  0.00  0.00    -0.274 OA
ATOM     19  H   LIG d   1       9.569   2.359  -7.232  0.00  0.00     0.030 H 
ATOM     20  H   LIG d   1       8.085   3.352  -7.061  0.00  0.00     0.030 H 
ATOM     21  H   LIG d   1      10.956   4.232  -7.374  0.00  0.00     0.046 H 
ATOM     22  H   LIG d   1       9.461   5.056  -7.897  0.00  0.00     0.046 H 
ATOM     23  H   LIG d   1      11.142   6.979  -1.559  0.00  0.00     0.049 H 
ATOM     24  H   LIG d   1      11.844   5.333  -1.697  0.00  0.00     0.049 H 
ATOM     25  H   LIG d   1      12.732   7.581  -5.025  0.00  0.00     0.031 H 
ATOM     26  H   LIG d   1      12.074   8.711  -3.802  0.00  0.00     0.031 H 
ENDROOT
BRANCH   1  27
ATOM     27  N   LIG d   1       8.113   2.408  -4.639  0.00  0.00    -0.306 N 
ATOM     28  C   LIG d   1       8.251   1.107  -4.315  0.00  0.00     0.244 C 
ATOM     29  O   LIG d   1       9.312   0.544  -4.499  0.00  0.00    -0.270 OA
ATOM     30  H   LIG d   1       7.266   2.857  -4.491  0.00  0.00     0.149 HD
BRANCH  28  31
ATOM     31  C   LIG d   1       7.111   0.364  -3.738  0.00  0.00     0.038 A 
ATOM     32  C   LIG d   1       7.123  -1.031  -3.716  0.00  0.00    -0.047 A 
ATOM     33  C   LIG d   1       6.059  -1.720  -3.172  0.00  0.00    -0.024 A 
ATOM     34  H   LIG d   1       7.967  -1.572  -4.120  0.00  0.00     0.063 H 
ATOM     35  C   LIG d   1       4.973  -1.029  -2.658  0.00  0.00     0.142 A 
ATOM     36  H   LIG d   1       6.071  -2.799  -3.150  0.00  0.00     0.065 H 
ATOM     37  C   LIG d   1       4.953   0.358  -2.683  0.00  0.00     0.077 A 
ATOM     38  F   LIG d   1       3.932  -1.708  -2.130  0.00  0.00    -0.204 F 
ATOM     39  C   LIG d   1       6.015   1.057  -3.220  0.00  0.00    -0.029 A 
ATOM     40 CL   LIG d   1       3.589   1.218  -2.037  0.00  0.00    -0.081 Cl
ATOM     41  H   LIG d   1       5.997   2.137  -3.239  0.00  0.00     0.064 H 
ENDBRANCH  28  31
ENDBRANCH   1  27
BRANCH  12  42
ATOM     42  O   LIG d   1      13.574   7.659  -2.107  0.00  0.00    -0.375 OA
BRANCH  42  43
ATOM     43  C   LIG d   1      14.091   6.979  -0.961  0.00  0.00     0.051 C 
ATOM     44  H   LIG d   1      14.357   7.708  -0.195  0.00  0.00     0.056 H 
ATOM     45  H   LIG d   1      13.333   6.300  -0.568  0.00  0.00     0.056 H 
BRANCH  43  46
ATOM     46  C   LIG d   1      15.333   6.179  -1.358  0.00  0.00    -0.018 A 
ATOM     47  C   LIG d   1      16.131   5.509  -0.239  0.00  0.00    -0.048 A 
ATOM     48  C   LIG d   1      15.281   4.660  -1.187  0.00  0.00    -0.048 A 
ATOM     49  H   LIG d   1      17.214   5.460  -0.352  0.00  0.00     0.027 H 
ATOM     50  H   LIG d   1      15.770   5.637   0.782  0.00  0.00     0.027 H 
ATOM     51  H   LIG d   1      14.362   4.230  -0.790  0.00  0.00     0.027 H 
ATOM     52  H   LIG d   1      15.805   4.052  -1.924  0.00  0.00     0.027 H 
ATOM     53  H   LIG d   1      15.891   6.571  -2.209  0.00  0.00     0.032 H 
ENDBRANCH  43  46
ENDBRANCH  42  43
ENDBRANCH  12  42
TORSDOF 5
ENDMDL
MODEL 6
REMARK VINA RESULT:      -6.2      7.374      8.690
REMARK  5 active torsions:
REMARK  status: ('A' for Active; 'I' for Inactive)
REMARK    1  A    between atoms: C_6  and  C_7 
REMARK       I    between atoms: C_7  and  N_9 
REMARK    2  A    between atoms: N_9  and  C_10 
REMARK    3  A    between atoms: C_21  and  O_28 
REMARK    4  A    between atoms: O_28  and  C_29 
REMARK    5  A    between atoms: C_29  and  C_30 
ROOT
ATOM      1  C   LIG d   1       6.296  -8.642  -5.052  0.00  0.00     0.052 C 
ATOM      2  H   LIG d   1       5.609  -8.451  -4.229  0.00  0.00     0.052 H 
ATOM      3  C   LIG d   1       7.691  -9.083  -4.527  0.00  0.00    -0.016 C 
ATOM      4  C   LIG d   1       8.355  -7.737  -4.157  0.00  0.00     0.017 C 
ATOM      5  N   LIG d   1       7.685  -6.687  -4.952  0.00  0.00    -0.286 N 
ATOM      6  CA  LIG d   1       6.658  -7.333  -5.791  0.00  0.00     0.121 C 
ATOM      7  HA  LIG d   1       7.043  -7.542  -6.789  0.00  0.00     0.061 H 
ATOM      8  C   LIG d   1       5.450  -6.431  -5.857  0.00  0.00     0.239 C 
ATOM      9  O   LIG d   1       4.348  -6.882  -6.081  0.00  0.00    -0.274 OA
ATOM     10  N   LIG d   1       5.629  -5.114  -5.662  0.00  0.00    -0.286 N 
ATOM     11  C   LIG d   1       4.598  -4.079  -5.462  0.00  0.00     0.042 C 
ATOM     12  C   LIG d   1       5.204  -3.209  -4.328  0.00  0.00     0.076 C 
ATOM     13  H   LIG d   1       5.050  -3.678  -3.356  0.00  0.00     0.061 H 
ATOM     14  C   LIG d   1       6.710  -3.179  -4.691  0.00  0.00     0.002 C 
ATOM     15  CA  LIG d   1       6.930  -4.427  -5.562  0.00  0.00     0.105 C 
ATOM     16  HA  LIG d   1       7.286  -4.148  -6.554  0.00  0.00     0.060 H 
ATOM     17  C   LIG d   1       7.915  -5.358  -4.899  0.00  0.00     0.237 C 
ATOM     18  O   LIG d   1       8.895  -4.921  -4.333  0.00  0.00    -0.274 OA
ATOM     19  H   LIG d   1       7.589  -9.718  -3.647  0.00  0.00     0.030 H 
ATOM     20  H   LIG d   1       8.255  -9.593  -5.307  0.00  0.00     0.030 H 
ATOM     21  H   LIG d   1       8.231  -7.543  -3.091  0.00  0.00     0.046 H 
ATOM     22  H   LIG d   1       9.416  -7.766  -4.408  0.00  0.00     0.046 H 
ATOM     23  H   LIG d   1       4.460  -3.491  -6.370  0.00  0.00     0.049 H 
ATOM     24  H   LIG d   1       3.657  -4.527  -5.144  0.00  0.00     0.049 H 
ATOM     25  H   LIG d   1       7.318  -3.234  -3.789  0.00  0.00     0.031 H 
ATOM     26  H   LIG d   1       6.946  -2.276  -5.255  0.00  0.00     0.031 H 
ENDROOT
BRANCH   1  27
ATOM     27  N   LIG d   1       5.743  -9.635  -5.977  0.00  0.00    -0.306 N 
ATOM     28  C   LIG d   1       4.614 -10.298  -5.658  0.00  0.00     0.244 C 
ATOM     29  O   LIG d   1       4.055 -10.074  -4.602  0.00  0.00    -0.270 OA
ATOM     30  H   LIG d   1       6.188  -9.814  -6.820  0.00  0.00     0.149 HD
BRANCH  28  31
ATOM     31  C   LIG d   1       4.056 -11.299  -6.591  0.00  0.00     0.038 A 
ATOM     32  C   LIG d   1       4.421 -11.280  -7.938  0.00  0.00    -0.047 A 
ATOM     33  C   LIG d   1       3.903 -12.220  -8.804  0.00  0.00    -0.024 A 
ATOM     34  H   LIG d   1       5.112 -10.534  -8.302  0.00  0.00     0.063 H 
ATOM     35  C   LIG d   1       3.011 -13.175  -8.341  0.00  0.00     0.142 A 
ATOM     36  H   LIG d   1       4.188 -12.209  -9.845  0.00  0.00     0.065 H 
ATOM     37  C   LIG d   1       2.640 -13.195  -7.004  0.00  0.00     0.077 A 
ATOM     38  F   LIG d   1       2.502 -14.090  -9.194  0.00  0.00    -0.204 F 
ATOM     39  C   LIG d   1       3.158 -12.263  -6.128  0.00  0.00    -0.029 A 
ATOM     40 CL   LIG d   1       1.523 -14.394  -6.431  0.00  0.00    -0.081 Cl
ATOM     41  H   LIG d   1       2.868 -12.279  -5.088  0.00  0.00     0.064 H 
ENDBRANCH  28  31
ENDBRANCH   1  27
BRANCH  12  42
ATOM     42  O   LIG d   1       4.651  -1.891  -4.349  0.00  0.00    -0.375 OA
BRANCH  42  43
ATOM     43  C   LIG d   1       5.322  -0.965  -3.493  0.00  0.00     0.051 C 
ATOM     44  H   LIG d   1       6.237  -1.420  -3.111  0.00  0.00     0.056 H 
ATOM     45  H   LIG d   1       5.571  -0.064  -4.055  0.00  0.00     0.056 H 
BRANCH  43  46
ATOM     46  C   LIG d   1       4.409  -0.598  -2.322  0.00  0.00    -0.018 A 
ATOM     47  C   LIG d   1       4.593   0.780  -1.686  0.00  0.00    -0.048 A 
ATOM     48  C   LIG d   1       3.365   0.496  -2.554  0.00  0.00    -0.048 A 
ATOM     49  H   LIG d   1       4.440   0.863  -0.610  0.00  0.00     0.027 H 
ATOM     50  H   LIG d   1       5.366   1.427  -2.102  0.00  0.00     0.027 H 
ATOM     51  H   LIG d   1       3.331   0.956  -3.542  0.00  0.00     0.027 H 
ATOM     52  H   LIG d   1       2.405   0.393  -2.050  0.00  0.00     0.027 H 
ATOM     53  H   LIG d   1       4.133  -1.424  -1.664  0.00  0.00     0.032 H 
ENDBRANCH  43  46
ENDBRANCH  42  43
ENDBRANCH  12  42
TORSDOF 5
ENDMDL
MODEL 7
REMARK VINA RESULT:      -6.1      5.610     10.572
REMARK  5 active torsions:
REMARK  status: ('A' for Active; 'I' for Inactive)
REMARK    1  A    between atoms: C_6  and  C_7 
REMARK       I    between atoms: C_7  and  N_9 
REMARK    2  A    between atoms: N_9  and  C_10 
REMARK    3  A    between atoms: C_21  and  O_28 
REMARK    4  A    between atoms: O_28  and  C_29 
REMARK    5  A    between atoms: C_29  and  C_30 
ROOT
ATOM      1  C   LIG d   1       9.870   2.809  -4.668  0.00  0.00     0.052 C 
ATOM      2  H   LIG d   1       9.130   3.335  -5.269  0.00  0.00     0.052 H 
ATOM      3  C   LIG d   1      11.169   2.545  -5.480  0.00  0.00    -0.016 C 
ATOM      4  C   LIG d   1      10.804   1.290  -6.305  0.00  0.00     0.017 C 
ATOM      5  N   LIG d   1       9.716   0.596  -5.585  0.00  0.00    -0.286 N 
ATOM      6  CA  LIG d   1       9.414   1.363  -4.362  0.00  0.00     0.121 C 
ATOM      7  HA  LIG d   1       9.950   0.958  -3.503  0.00  0.00     0.061 H 
ATOM      8  C   LIG d   1       7.924   1.335  -4.129  0.00  0.00     0.239 C 
ATOM      9  O   LIG d   1       7.375   2.212  -3.497  0.00  0.00    -0.274 OA
ATOM     10  N   LIG d   1       7.220   0.311  -4.640  0.00  0.00    -0.286 N 
ATOM     11  C   LIG d   1       5.754   0.176  -4.735  0.00  0.00     0.042 C 
ATOM     12  C   LIG d   1       5.559  -0.422  -6.154  0.00  0.00     0.076 C 
ATOM     13  H   LIG d   1       5.628   0.356  -6.916  0.00  0.00     0.061 H 
ATOM     14  C   LIG d   1       6.745  -1.412  -6.272  0.00  0.00     0.002 C 
ATOM     15  CA  LIG d   1       7.789  -0.898  -5.264  0.00  0.00     0.105 C 
ATOM     16  HA  LIG d   1       7.997  -1.652  -4.505  0.00  0.00     0.060 H 
ATOM     17  C   LIG d   1       9.060  -0.515  -5.980  0.00  0.00     0.237 C 
ATOM     18  O   LIG d   1       9.486  -1.194  -6.891  0.00  0.00    -0.274 OA
ATOM     19  H   LIG d   1      11.392   3.387  -6.137  0.00  0.00     0.030 H 
ATOM     20  H   LIG d   1      12.008   2.343  -4.815  0.00  0.00     0.030 H 
ATOM     21  H   LIG d   1      10.472   1.583  -7.301  0.00  0.00     0.046 H 
ATOM     22  H   LIG d   1      11.670   0.632  -6.382  0.00  0.00     0.046 H 
ATOM     23  H   LIG d   1       5.379  -0.506  -3.972  0.00  0.00     0.049 H 
ATOM     24  H   LIG d   1       5.271   1.150  -4.657  0.00  0.00     0.049 H 
ATOM     25  H   LIG d   1       7.154  -1.395  -7.282  0.00  0.00     0.031 H 
ATOM     26  H   LIG d   1       6.426  -2.419  -6.006  0.00  0.00     0.031 H 
ENDROOT
BRANCH   1  27
ATOM     27  N   LIG d   1      10.161   3.543  -3.433  0.00  0.00    -0.306 N 
ATOM     28  C   LIG d   1       9.946   4.873  -3.374  0.00  0.00     0.244 C 
ATOM     29  O   LIG d   1       9.513   5.462  -4.345  0.00  0.00    -0.270 OA
ATOM     30  H   LIG d   1      10.506   3.073  -2.658  0.00  0.00     0.149 HD
BRANCH  28  31
ATOM     31  C   LIG d   1      10.239   5.613  -2.129  0.00  0.00     0.038 A 
ATOM     32  C   LIG d   1      11.051   5.041  -1.148  0.00  0.00    -0.047 A 
ATOM     33  C   LIG d   1      11.326   5.738   0.009  0.00  0.00    -0.024 A 
ATOM     34  H   LIG d   1      11.468   4.056  -1.298  0.00  0.00     0.063 H 
ATOM     35  C   LIG d   1      10.788   7.000   0.206  0.00  0.00     0.142 A 
ATOM     36  H   LIG d   1      11.959   5.298   0.765  0.00  0.00     0.065 H 
ATOM     37  C   LIG d   1       9.974   7.571  -0.762  0.00  0.00     0.077 A 
ATOM     38  F   LIG d   1      11.057   7.676   1.343  0.00  0.00    -0.204 F 
ATOM     39  C   LIG d   1       9.698   6.884  -1.927  0.00  0.00    -0.029 A 
ATOM     40 CL   LIG d   1       9.304   9.152  -0.510  0.00  0.00    -0.081 Cl
ATOM     41  H   LIG d   1       9.065   7.330  -2.680  0.00  0.00     0.064 H 
ENDBRANCH  28  31
ENDBRANCH   1  27
BRANCH  12  42
ATOM     42  O   LIG d   1       4.312  -1.114  -6.245  0.00  0.00    -0.375 OA
BRANCH  42  43
ATOM     43  C   LIG d   1       3.223  -0.295  -6.678  0.00  0.00     0.051 C 
ATOM     44  H   LIG d   1       2.344  -0.918  -6.846  0.00  0.00     0.056 H 
ATOM     45  H   LIG d   1       3.001   0.448  -5.912  0.00  0.00     0.056 H 
BRANCH  43  46
ATOM     46  C   LIG d   1       3.603   0.413  -7.980  0.00  0.00    -0.018 A 
ATOM     47  C   LIG d   1       2.537   0.503  -9.073  0.00  0.00    -0.048 A 
ATOM     48  C   LIG d   1       2.927   1.752  -8.279  0.00  0.00    -0.048 A 
ATOM     49  H   LIG d   1       2.871   0.439 -10.108  0.00  0.00     0.027 H 
ATOM     50  H   LIG d   1       1.564   0.057  -8.864  0.00  0.00     0.027 H 
ATOM     51  H   LIG d   1       2.211   2.128  -7.549  0.00  0.00     0.027 H 
ATOM     52  H   LIG d   1       3.517   2.511  -8.793  0.00  0.00     0.027 H 
ATOM     53  H   LIG d   1       4.639   0.291  -8.296  0.00  0.00     0.032 H 
ENDBRANCH  43  46
ENDBRANCH  42  43
ENDBRANCH  12  42
TORSDOF 5
ENDMDL
MODEL 8
REMARK VINA RESULT:      -6.1      5.040      7.287
REMARK  5 active torsions:
REMARK  status: ('A' for Active; 'I' for Inactive)
REMARK    1  A    between atoms: C_6  and  C_7 
REMARK       I    between atoms: C_7  and  N_9 
REMARK    2  A    between atoms: N_9  and  C_10 
REMARK    3  A    between atoms: C_21  and  O_28 
REMARK    4  A    between atoms: O_28  and  C_29 
REMARK    5  A    between atoms: C_29  and  C_30 
ROOT
ATOM      1  C   LIG d   1       8.925   2.573  -5.346  0.00  0.00     0.052 C 
ATOM      2  H   LIG d   1       9.818   2.032  -5.035  0.00  0.00     0.052 H 
ATOM      3  C   LIG d   1       8.864   2.710  -6.893  0.00  0.00    -0.016 C 
ATOM      4  C   LIG d   1       9.802   3.907  -7.165  0.00  0.00     0.017 C 
ATOM      5  N   LIG d   1       9.861   4.707  -5.924  0.00  0.00    -0.286 N 
ATOM      6  CA  LIG d   1       8.996   4.057  -4.920  0.00  0.00     0.121 C 
ATOM      7  HA  LIG d   1       8.004   4.508  -4.909  0.00  0.00     0.061 H 
ATOM      8  C   LIG d   1       9.655   4.171  -3.568  0.00  0.00     0.239 C 
ATOM      9  O   LIG d   1       9.412   3.375  -2.687  0.00  0.00    -0.274 OA
ATOM     10  N   LIG d   1      10.520   5.180  -3.366  0.00  0.00    -0.286 N 
ATOM     11  C   LIG d   1      11.439   5.371  -2.228  0.00  0.00     0.042 C 
ATOM     12  C   LIG d   1      12.740   5.858  -2.920  0.00  0.00     0.076 C 
ATOM     13  H   LIG d   1      13.293   5.018  -3.341  0.00  0.00     0.061 H 
ATOM     14  C   LIG d   1      12.203   6.780  -4.043  0.00  0.00     0.002 C 
ATOM     15  CA  LIG d   1      10.760   6.306  -4.287  0.00  0.00     0.105 C 
ATOM     16  HA  LIG d   1      10.051   7.110  -4.092  0.00  0.00     0.060 H 
ATOM     17  C   LIG d   1      10.607   5.809  -5.702  0.00  0.00     0.237 C 
ATOM     18  O   LIG d   1      11.141   6.390  -6.624  0.00  0.00    -0.274 OA
ATOM     19  H   LIG d   1       9.239   1.807  -7.376  0.00  0.00     0.030 H 
ATOM     20  H   LIG d   1       7.848   2.928  -7.222  0.00  0.00     0.030 H 
ATOM     21  H   LIG d   1      10.796   3.547  -7.431  0.00  0.00     0.046 H 
ATOM     22  H   LIG d   1       9.400   4.517  -7.975  0.00  0.00     0.046 H 
ATOM     23  H   LIG d   1      11.056   6.131  -1.546  0.00  0.00     0.049 H 
ATOM     24  H   LIG d   1      11.608   4.430  -1.705  0.00  0.00     0.049 H 
ATOM     25  H   LIG d   1      12.799   6.662  -4.948  0.00  0.00     0.031 H 
ATOM     26  H   LIG d   1      12.210   7.820  -3.716  0.00  0.00     0.031 H 
ENDROOT
BRANCH   1  27
ATOM     27  N   LIG d   1       7.715   1.931  -4.825  0.00  0.00    -0.306 N 
ATOM     28  C   LIG d   1       7.782   0.690  -4.304  0.00  0.00     0.244 C 
ATOM     29  O   LIG d   1       8.845   0.102  -4.268  0.00  0.00    -0.270 OA
ATOM     30  H   LIG d   1       6.867   2.400  -4.853  0.00  0.00     0.149 HD
BRANCH  28  31
ATOM     31  C   LIG d   1       6.562   0.043  -3.779  0.00  0.00     0.038 A 
ATOM     32  C   LIG d   1       5.744   0.721  -2.873  0.00  0.00    -0.047 A 
ATOM     33  C   LIG d   1       4.603   0.115  -2.390  0.00  0.00    -0.024 A 
ATOM     34  H   LIG d   1       6.001   1.721  -2.555  0.00  0.00     0.063 H 
ATOM     35  C   LIG d   1       4.274  -1.170  -2.792  0.00  0.00     0.142 A 
ATOM     36  H   LIG d   1       3.968   0.641  -1.693  0.00  0.00     0.065 H 
ATOM     37  C   LIG d   1       5.087  -1.851  -3.687  0.00  0.00     0.077 A 
ATOM     38  F   LIG d   1       3.158  -1.760  -2.312  0.00  0.00    -0.204 F 
ATOM     39  C   LIG d   1       6.227  -1.251  -4.182  0.00  0.00    -0.029 A 
ATOM     40 CL   LIG d   1       4.668  -3.460  -4.187  0.00  0.00    -0.081 Cl
ATOM     41  H   LIG d   1       6.859  -1.783  -4.878  0.00  0.00     0.064 H 
ENDBRANCH  28  31
ENDBRANCH   1  27
BRANCH  12  42
ATOM     42  O   LIG d   1      13.555   6.595  -2.006  0.00  0.00    -0.375 OA
BRANCH  42  43
ATOM     43  C   LIG d   1      13.047   7.892  -1.689  0.00  0.00     0.051 C 
ATOM     44  H   LIG d   1      13.699   8.653  -2.120  0.00  0.00     0.056 H 
ATOM     45  H   LIG d   1      12.042   7.999  -2.100  0.00  0.00     0.056 H 
BRANCH  43  46
ATOM     46  C   LIG d   1      12.997   8.065  -0.170  0.00  0.00    -0.018 A 
ATOM     47  C   LIG d   1      12.068   9.143   0.389  0.00  0.00    -0.048 A 
ATOM     48  C   LIG d   1      11.706   7.663   0.545  0.00  0.00    -0.048 A 
ATOM     49  H   LIG d   1      12.396   9.677   1.281  0.00  0.00     0.027 H 
ATOM     50  H   LIG d   1      11.491   9.730  -0.325  0.00  0.00     0.027 H 
ATOM     51  H   LIG d   1      10.891   7.279  -0.068  0.00  0.00     0.027 H 
ATOM     52  H   LIG d   1      11.795   7.226   1.539  0.00  0.00     0.027 H 
ATOM     53  H   LIG d   1      13.937   7.889   0.354  0.00  0.00     0.032 H 
ENDBRANCH  43  46
ENDBRANCH  42  43
ENDBRANCH  12  42
TORSDOF 5
ENDMDL
MODEL 9
REMARK VINA RESULT:      -6.0      5.673      7.958
REMARK  5 active torsions:
REMARK  status: ('A' for Active; 'I' for Inactive)
REMARK    1  A    between atoms: C_6  and  C_7 
REMARK       I    between atoms: C_7  and  N_9 
REMARK    2  A    between atoms: N_9  and  C_10 
REMARK    3  A    between atoms: C_21  and  O_28 
REMARK    4  A    between atoms: O_28  and  C_29 
REMARK    5  A    between atoms: C_29  and  C_30 
ROOT
ATOM      1  C   LIG d   1      10.360   2.319  -4.528  0.00  0.00     0.052 C 
ATOM      2  H   LIG d   1      11.217   2.465  -3.871  0.00  0.00     0.052 H 
ATOM      3  C   LIG d   1      10.802   1.760  -5.910  0.00  0.00    -0.016 C 
ATOM      4  C   LIG d   1      11.278   3.029  -6.653  0.00  0.00     0.017 C 
ATOM      5  N   LIG d   1      10.605   4.183  -6.022  0.00  0.00    -0.286 N 
ATOM      6  CA  LIG d   1       9.738   3.672  -4.942  0.00  0.00     0.121 C 
ATOM      7  HA  LIG d   1       8.714   3.541  -5.292  0.00  0.00     0.061 H 
ATOM      8  C   LIG d   1       9.791   4.636  -3.783  0.00  0.00     0.239 C 
ATOM      9  O   LIG d   1       9.557   4.265  -2.653  0.00  0.00    -0.274 OA
ATOM     10  N   LIG d   1      10.105   5.919  -4.036  0.00  0.00    -0.286 N 
ATOM     11  C   LIG d   1      10.430   6.981  -3.066  0.00  0.00     0.042 C 
ATOM     12  C   LIG d   1      11.623   7.706  -3.744  0.00  0.00     0.076 C 
ATOM     13  H   LIG d   1      12.551   7.155  -3.588  0.00  0.00     0.061 H 
ATOM     14  C   LIG d   1      11.222   7.695  -5.240  0.00  0.00     0.002 C 
ATOM     15  CA  LIG d   1      10.231   6.525  -5.374  0.00  0.00     0.105 C 
ATOM     16  HA  LIG d   1       9.260   6.880  -5.720  0.00  0.00     0.060 H 
ATOM     17  C   LIG d   1      10.775   5.487  -6.322  0.00  0.00     0.237 C 
ATOM     18  O   LIG d   1      11.352   5.818  -7.338  0.00  0.00    -0.274 OA
ATOM     19  H   LIG d   1      11.621   1.049  -5.795  0.00  0.00     0.030 H 
ATOM     20  H   LIG d   1       9.961   1.299  -6.427  0.00  0.00     0.030 H 
ATOM     21  H   LIG d   1      12.360   3.127  -6.564  0.00  0.00     0.046 H 
ATOM     22  H   LIG d   1      10.996   2.971  -7.704  0.00  0.00     0.046 H 
ATOM     23  H   LIG d   1       9.586   7.659  -2.938  0.00  0.00     0.049 H 
ATOM     24  H   LIG d   1      10.731   6.552  -2.110  0.00  0.00     0.049 H 
ATOM     25  H   LIG d   1      12.098   7.523  -5.866  0.00  0.00     0.031 H 
ATOM     26  H   LIG d   1      10.739   8.634  -5.510  0.00  0.00     0.031 H 
ENDROOT
BRANCH   1  27
ATOM     27  N   LIG d   1       9.362   1.448  -3.902  0.00  0.00    -0.306 N 
ATOM     28  C   LIG d   1       8.134   1.330  -4.446  0.00  0.00     0.244 C 
ATOM     29  O   LIG d   1       7.855   1.947  -5.455  0.00  0.00    -0.270 OA
ATOM     30  H   LIG d   1       9.585   0.955  -3.097  0.00  0.00     0.149 HD
BRANCH  28  31
ATOM     31  C   LIG d   1       7.128   0.452  -3.814  0.00  0.00     0.038 A 
ATOM     32  C   LIG d   1       7.312  -0.932  -3.806  0.00  0.00    -0.047 A 
ATOM     33  C   LIG d   1       6.373  -1.746  -3.210  0.00  0.00    -0.024 A 
ATOM     34  H   LIG d   1       8.192  -1.364  -4.260  0.00  0.00     0.063 H 
ATOM     35  C   LIG d   1       5.240  -1.195  -2.630  0.00  0.00     0.142 A 
ATOM     36  H   LIG d   1       6.517  -2.816  -3.198  0.00  0.00     0.065 H 
ATOM     37  C   LIG d   1       5.049   0.179  -2.642  0.00  0.00     0.077 A 
ATOM     38  F   LIG d   1       4.321  -1.998  -2.052  0.00  0.00    -0.204 F 
ATOM     39  C   LIG d   1       5.986   1.004  -3.230  0.00  0.00    -0.029 A 
ATOM     40 CL   LIG d   1       3.628   0.863  -1.914  0.00  0.00    -0.081 Cl
ATOM     41  H   LIG d   1       5.835   2.073  -3.238  0.00  0.00     0.064 H 
ENDBRANCH  28  31
ENDBRANCH   1  27
BRANCH  12  42
ATOM     42  O   LIG d   1      11.741   9.047  -3.261  0.00  0.00    -0.375 OA
BRANCH  42  43
ATOM     43  C   LIG d   1      10.510   9.612  -2.807  0.00  0.00     0.051 C 
ATOM     44  H   LIG d   1       9.701   8.900  -2.972  0.00  0.00     0.056 H 
ATOM     45  H   LIG d   1      10.584   9.838  -1.743  0.00  0.00     0.056 H 
BRANCH  43  46
ATOM     46  C   LIG d   1      10.223  10.899  -3.582  0.00  0.00    -0.018 A 
ATOM     47  C   LIG d   1       9.246  10.815  -4.756  0.00  0.00    -0.048 A 
ATOM     48  C   LIG d   1       8.823  11.503  -3.455  0.00  0.00    -0.048 A 
ATOM     49  H   LIG d   1       9.442  11.449  -5.620  0.00  0.00     0.027 H 
ATOM     50  H   LIG d   1       8.807   9.842  -4.976  0.00  0.00     0.027 H 
ATOM     51  H   LIG d   1       8.106  10.982  -2.821  0.00  0.00     0.027 H 
ATOM     52  H   LIG d   1       8.740  12.589  -3.465  0.00  0.00     0.027 H 
ATOM     53  H   LIG d   1      11.062  11.590  -3.674  0.00  0.00     0.032 H 
ENDBRANCH  43  46
ENDBRANCH  42  43
ENDBRANCH  12  42
TORSDOF 5
ENDMDL
