MODEL 1
REMARK VINA RESULT:      -6.9      0.000      0.000
REMARK  6 active torsions:
REMARK  status: ('A' for Active; 'I' for Inactive)
REMARK    1  A    between atoms: C_1  and  O_2 
REMARK    2  A    between atoms: O_2  and  C_3 
REMARK    3  A    between atoms: C_6  and  C_9 
REMARK    4  A    between atoms: N_21  and  C_24 
REMARK    5  A    between atoms: C_24  and  C_25 
REMARK    6  A    between atoms: C_25  and  C_26 
ROOT
ATOM      1  C   LIG d   1      10.359   7.753  -1.791  0.00  0.00     0.064 A 
ATOM      2  C   LIG d   1      10.026   6.510  -1.359  0.00  0.00     0.104 A 
ATOM      3  O   LIG d   1       9.777   5.500  -2.197  0.00  0.00    -0.462 OA
ATOM      4  C   LIG d   1       9.832   5.622  -3.538  0.00  0.00     0.146 A 
ATOM      5  C   LIG d   1      10.159   6.856  -4.126  0.00  0.00     0.065 A 
ATOM      6  C   LIG d   1      10.449   7.999  -3.241  0.00  0.00     0.200 A 
ATOM      7  O   LIG d   1      10.744   9.094  -3.687  0.00  0.00    -0.286 OA
ATOM      8  C   LIG d   1      10.223   6.981  -5.514  0.00  0.00    -0.044 A 
ATOM      9  C   LIG d   1       9.954   5.900  -6.303  0.00  0.00    -0.019 A 
ATOM     10  C   LIG d   1       9.622   4.670  -5.732  0.00  0.00     0.130 A 
ATOM     11  C   LIG d   1       9.562   4.531  -4.356  0.00  0.00     0.051 A 
ATOM     12  C   LIG d   1       9.210   3.207  -3.728  0.00  0.00     0.034 C 
ATOM     13  N   LIG d   1       8.577   2.337  -4.730  0.00  0.00    -0.266 N 
ATOM     14  C   LIG d   1       9.384   2.314  -5.961  0.00  0.00     0.144 C 
ATOM     15  O   LIG d   1       9.356   3.617  -6.549  0.00  0.00    -0.476 OA
ATOM     16  H   LIG d   1       9.961   6.331  -0.296  0.00  0.00     0.104 H 
ATOM     17  H   LIG d   1      10.479   7.929  -5.962  0.00  0.00     0.063 H 
ATOM     18  H   LIG d   1       9.999   5.997  -7.377  0.00  0.00     0.065 H 
ATOM     19  H   LIG d   1      10.125   2.725  -3.352  0.00  0.00     0.048 H 
ATOM     20  H   LIG d   1       8.512   3.370  -2.894  0.00  0.00     0.048 H 
ATOM     21  H   LIG d   1      10.419   2.034  -5.717  0.00  0.00     0.087 H 
ATOM     22  H   LIG d   1       8.960   1.578  -6.662  0.00  0.00     0.087 H 
ENDROOT
BRANCH   1  23
ATOM     23  C   LIG d   1      10.628   8.844  -0.822  0.00  0.00    -0.011 A 
ATOM     24  C   LIG d   1       9.629   9.763  -0.510  0.00  0.00    -0.050 A 
ATOM     25  C   LIG d   1       9.881  10.776   0.391  0.00  0.00    -0.019 A 
ATOM     26  H   LIG d   1       8.656   9.683  -0.974  0.00  0.00     0.062 H 
ATOM     27  C   LIG d   1      11.131  10.880   0.987  0.00  0.00     0.120 A 
ATOM     28  H   LIG d   1       9.107  11.489   0.633  0.00  0.00     0.065 H 
ATOM     29  C   LIG d   1      12.128   9.966   0.680  0.00  0.00    -0.019 A 
ATOM     30  C   LIG d   1      11.880   8.947  -0.216  0.00  0.00    -0.050 A 
ATOM     31  H   LIG d   1      13.100  10.050   1.146  0.00  0.00     0.065 H 
ATOM     32  H   LIG d   1      12.655   8.234  -0.453  0.00  0.00     0.062 H 
BRANCH  27  33
ATOM     33  O   LIG d   1      11.377  11.880   1.875  0.00  0.00    -0.495 OA
BRANCH  33  34
ATOM     34  C   LIG d   1      12.522  12.699   1.630  0.00  0.00     0.079 C 
ATOM     35  H   LIG d   1      12.539  13.531   2.347  0.00  0.00     0.066 H 
ATOM     36  H   LIG d   1      12.476  13.097   0.605  0.00  0.00     0.066 H 
ATOM     37  H   LIG d   1      13.435  12.096   1.747  0.00  0.00     0.066 H 
ENDBRANCH  33  34
ENDBRANCH  27  33
ENDBRANCH   1  23
BRANCH  13  38
ATOM     38  C   LIG d   1       8.383   0.981  -4.201  0.00  0.00     0.007 C 
ATOM     39  H   LIG d   1       9.232   0.347  -4.495  0.00  0.00     0.043 H 
ATOM     40  H   LIG d   1       8.319   1.021  -3.104  0.00  0.00     0.043 H 
BRANCH  38  41
ATOM     41  C   LIG d   1       7.088   0.393  -4.767  0.00  0.00    -0.009 C 
ATOM     42  H   LIG d   1       6.665   1.085  -5.509  0.00  0.00     0.033 H 
ATOM     43  H   LIG d   1       7.304  -0.573  -5.246  0.00  0.00     0.033 H 
BRANCH  41  44
ATOM     44  C   LIG d   1       6.098   0.190  -3.649  0.00  0.00    -0.009 A 
ATOM     45  S   LIG d   1       5.352  -1.325  -3.070  0.00  0.00    -0.102 SA
ATOM     46  C   LIG d   1       4.352  -0.630  -1.764  0.00  0.00    -0.024 A 
ATOM     47  C   LIG d   1       4.645   0.690  -1.860  0.00  0.00    -0.054 A 
ATOM     48  H   LIG d   1       3.685  -1.130  -1.078  0.00  0.00     0.069 H 
ATOM     49  C   LIG d   1       5.539   1.111  -2.825  0.00  0.00    -0.051 A 
ATOM     50  H   LIG d   1       4.185   1.404  -1.191  0.00  0.00     0.062 H 
ATOM     51  H   LIG d   1       5.790   2.157  -2.924  0.00  0.00     0.063 H 
ENDBRANCH  41  44
ENDBRANCH  38  41
ENDBRANCH  13  38
TORSDOF 6
ENDMDL
MODEL 2
REMARK VINA RESULT:      -6.6      1.045      1.417
REMARK  6 active torsions:
REMARK  status: ('A' for Active; 'I' for Inactive)
REMARK    1  A    between atoms: C_1  and  O_2 
REMARK    2  A    between atoms: O_2  and  C_3 
REMARK    3  A    between atoms: C_6  and  C_9 
REMARK    4  A    between atoms: N_21  and  C_24 
REMARK    5  A    between atoms: C_24  and  C_25 
REMARK    6  A    between atoms: C_25  and  C_26 
ROOT
ATOM      1  C   LIG d   1      10.469   6.986  -2.108  0.00  0.00     0.064 A 
ATOM      2  C   LIG d   1       9.894   5.801  -1.776  0.00  0.00     0.104 A 
ATOM      3  O   LIG d   1       9.567   4.880  -2.686  0.00  0.00    -0.462 OA
ATOM      4  C   LIG d   1       9.775   5.040  -4.007  0.00  0.00     0.146 A 
ATOM      5  C   LIG d   1      10.357   6.223  -4.496  0.00  0.00     0.065 A 
ATOM      6  C   LIG d   1      10.742   7.266  -3.529  0.00  0.00     0.200 A 
ATOM      7  O   LIG d   1      11.255   8.312  -3.887  0.00  0.00    -0.286 OA
ATOM      8  C   LIG d   1      10.578   6.386  -5.864  0.00  0.00    -0.044 A 
ATOM      9  C   LIG d   1      10.215   5.396  -6.731  0.00  0.00    -0.019 A 
ATOM     10  C   LIG d   1       9.630   4.220  -6.259  0.00  0.00     0.130 A 
ATOM     11  C   LIG d   1       9.412   4.042  -4.904  0.00  0.00     0.051 A 
ATOM     12  C   LIG d   1       8.787   2.773  -4.382  0.00  0.00     0.034 C 
ATOM     13  N   LIG d   1       8.122   2.061  -5.483  0.00  0.00    -0.266 N 
ATOM     14  C   LIG d   1       9.032   1.947  -6.635  0.00  0.00     0.144 C 
ATOM     15  O   LIG d   1       9.278   3.258  -7.152  0.00  0.00    -0.476 OA
ATOM     16  H   LIG d   1       9.696   5.596  -0.734  0.00  0.00     0.104 H 
ATOM     17  H   LIG d   1      11.031   7.294  -6.236  0.00  0.00     0.063 H 
ATOM     18  H   LIG d   1      10.382   5.524  -7.790  0.00  0.00     0.065 H 
ATOM     19  H   LIG d   1       9.568   2.131  -3.950  0.00  0.00     0.048 H 
ATOM     20  H   LIG d   1       8.046   3.021  -3.608  0.00  0.00     0.048 H 
ATOM     21  H   LIG d   1       9.978   1.488  -6.312  0.00  0.00     0.087 H 
ATOM     22  H   LIG d   1       8.565   1.321  -7.410  0.00  0.00     0.087 H 
ENDROOT
BRANCH   1  23
ATOM     23  C   LIG d   1      10.816   7.979  -1.062  0.00  0.00    -0.011 A 
ATOM     24  C   LIG d   1      12.026   7.878  -0.378  0.00  0.00    -0.050 A 
ATOM     25  C   LIG d   1      12.347   8.803   0.593  0.00  0.00    -0.019 A 
ATOM     26  H   LIG d   1      12.713   7.077  -0.610  0.00  0.00     0.062 H 
ATOM     27  C   LIG d   1      11.464   9.832   0.892  0.00  0.00     0.120 A 
ATOM     28  H   LIG d   1      13.285   8.725   1.123  0.00  0.00     0.065 H 
ATOM     29  C   LIG d   1      10.258   9.935   0.212  0.00  0.00    -0.019 A 
ATOM     30  C   LIG d   1       9.935   9.017  -0.765  0.00  0.00    -0.050 A 
ATOM     31  H   LIG d   1       9.574  10.738   0.447  0.00  0.00     0.065 H 
ATOM     32  H   LIG d   1       8.998   9.099  -1.296  0.00  0.00     0.062 H 
BRANCH  27  33
ATOM     33  O   LIG d   1      11.783  10.742   1.850  0.00  0.00    -0.495 OA
BRANCH  33  34
ATOM     34  C   LIG d   1      12.564  10.277   2.952  0.00  0.00     0.079 C 
ATOM     35  H   LIG d   1      13.630  10.308   2.685  0.00  0.00     0.066 H 
ATOM     36  H   LIG d   1      12.276   9.244   3.196  0.00  0.00     0.066 H 
ATOM     37  H   LIG d   1      12.386  10.922   3.826  0.00  0.00     0.066 H 
ENDBRANCH  33  34
ENDBRANCH  27  33
ENDBRANCH   1  23
BRANCH  13  38
ATOM     38  C   LIG d   1       7.656   0.738  -5.048  0.00  0.00     0.007 C 
ATOM     39  H   LIG d   1       6.748   0.467  -5.605  0.00  0.00     0.043 H 
ATOM     40  H   LIG d   1       8.441  -0.008  -5.241  0.00  0.00     0.043 H 
BRANCH  38  41
ATOM     41  C   LIG d   1       7.344   0.774  -3.550  0.00  0.00    -0.009 C 
ATOM     42  H   LIG d   1       7.873  -0.047  -3.046  0.00  0.00     0.033 H 
ATOM     43  H   LIG d   1       7.674   1.736  -3.131  0.00  0.00     0.033 H 
BRANCH  41  44
ATOM     44  C   LIG d   1       5.860   0.618  -3.342  0.00  0.00    -0.009 A 
ATOM     45  S   LIG d   1       4.684  -0.330  -4.294  0.00  0.00    -0.102 SA
ATOM     46  C   LIG d   1       3.221   0.061  -3.350  0.00  0.00    -0.024 A 
ATOM     47  C   LIG d   1       3.717   0.880  -2.391  0.00  0.00    -0.054 A 
ATOM     48  H   LIG d   1       2.204  -0.267  -3.504  0.00  0.00     0.069 H 
ATOM     49  C   LIG d   1       5.069   1.166  -2.387  0.00  0.00    -0.051 A 
ATOM     50  H   LIG d   1       3.065   1.304  -1.641  0.00  0.00     0.062 H 
ATOM     51  H   LIG d   1       5.490   1.817  -1.634  0.00  0.00     0.063 H 
ENDBRANCH  41  44
ENDBRANCH  38  41
ENDBRANCH  13  38
TORSDOF 6
ENDMDL
MODEL 3
REMARK VINA RESULT:      -6.5      2.438      4.649
REMARK  6 active torsions:
REMARK  status: ('A' for Active; 'I' for Inactive)
REMARK    1  A    between atoms: C_1  and  O_2 
REMARK    2  A    between atoms: O_2  and  C_3 
REMARK    3  A    between atoms: C_6  and  C_9 
REMARK    4  A    between atoms: N_21  and  C_24 
REMARK    5  A    between atoms: C_24  and  C_25 
REMARK    6  A    between atoms: C_25  and  C_26 
ROOT
ATOM      1  C   LIG d   1       9.706   3.860  -4.312  0.00  0.00     0.064 A 
ATOM      2  C   LIG d   1       9.264   2.893  -3.468  0.00  0.00     0.104 A 
ATOM      3  O   LIG d   1       8.643   1.791  -3.898  0.00  0.00    -0.462 OA
ATOM      4  C   LIG d   1       8.401   1.539  -5.200  0.00  0.00     0.146 A 
ATOM      5  C   LIG d   1       8.800   2.459  -6.186  0.00  0.00     0.065 A 
ATOM      6  C   LIG d   1       9.494   3.687  -5.760  0.00  0.00     0.200 A 
ATOM      7  O   LIG d   1       9.869   4.521  -6.566  0.00  0.00    -0.286 OA
ATOM      8  C   LIG d   1       8.555   2.196  -7.534  0.00  0.00    -0.044 A 
ATOM      9  C   LIG d   1       7.914   1.045  -7.893  0.00  0.00    -0.019 A 
ATOM     10  C   LIG d   1       7.508   0.127  -6.923  0.00  0.00     0.130 A 
ATOM     11  C   LIG d   1       7.751   0.372  -5.583  0.00  0.00     0.051 A 
ATOM     12  C   LIG d   1       7.323  -0.614  -4.527  0.00  0.00     0.034 C 
ATOM     13  N   LIG d   1       6.323  -1.535  -5.087  0.00  0.00    -0.266 N 
ATOM     14  C   LIG d   1       6.797  -2.076  -6.371  0.00  0.00     0.144 C 
ATOM     15  O   LIG d   1       6.870  -1.007  -7.317  0.00  0.00    -0.476 OA
ATOM     16  H   LIG d   1       9.420   3.020  -2.407  0.00  0.00     0.104 H 
ATOM     17  H   LIG d   1       8.866   2.901  -8.290  0.00  0.00     0.063 H 
ATOM     18  H   LIG d   1       7.721   0.842  -8.936  0.00  0.00     0.065 H 
ATOM     19  H   LIG d   1       8.197  -1.188  -4.185  0.00  0.00     0.048 H 
ATOM     20  H   LIG d   1       6.884  -0.073  -3.676  0.00  0.00     0.048 H 
ATOM     21  H   LIG d   1       7.792  -2.525  -6.236  0.00  0.00     0.087 H 
ATOM     22  H   LIG d   1       6.093  -2.843  -6.728  0.00  0.00     0.087 H 
ENDROOT
BRANCH   1  23
ATOM     23  C   LIG d   1      10.391   5.067  -3.788  0.00  0.00    -0.011 A 
ATOM     24  C   LIG d   1      11.776   5.073  -3.636  0.00  0.00    -0.050 A 
ATOM     25  C   LIG d   1      12.411   6.196  -3.149  0.00  0.00    -0.019 A 
ATOM     26  H   LIG d   1      12.353   4.198  -3.900  0.00  0.00     0.062 H 
ATOM     27  C   LIG d   1      11.670   7.321  -2.809  0.00  0.00     0.120 A 
ATOM     28  H   LIG d   1      13.484   6.201  -3.031  0.00  0.00     0.065 H 
ATOM     29  C   LIG d   1      10.290   7.318  -2.960  0.00  0.00    -0.019 A 
ATOM     30  C   LIG d   1       9.651   6.200  -3.453  0.00  0.00    -0.050 A 
ATOM     31  H   LIG d   1       9.717   8.195  -2.695  0.00  0.00     0.065 H 
ATOM     32  H   LIG d   1       8.578   6.199  -3.573  0.00  0.00     0.062 H 
BRANCH  27  33
ATOM     33  O   LIG d   1      12.298   8.427  -2.329  0.00  0.00    -0.495 OA
BRANCH  33  34
ATOM     34  C   LIG d   1      11.521   9.622  -2.229  0.00  0.00     0.079 C 
ATOM     35  H   LIG d   1      12.156  10.492  -2.453  0.00  0.00     0.066 H 
ATOM     36  H   LIG d   1      11.118   9.714  -1.210  0.00  0.00     0.066 H 
ATOM     37  H   LIG d   1      10.690   9.579  -2.949  0.00  0.00     0.066 H 
ENDBRANCH  33  34
ENDBRANCH  27  33
ENDBRANCH   1  23
BRANCH  13  38
ATOM     38  C   LIG d   1       6.016  -2.616  -4.142  0.00  0.00     0.007 C 
ATOM     39  H   LIG d   1       6.189  -3.588  -4.626  0.00  0.00     0.043 H 
ATOM     40  H   LIG d   1       6.666  -2.526  -3.258  0.00  0.00     0.043 H 
BRANCH  38  41
ATOM     41  C   LIG d   1       4.551  -2.515  -3.710  0.00  0.00    -0.009 C 
ATOM     42  H   LIG d   1       3.900  -2.698  -4.576  0.00  0.00     0.033 H 
ATOM     43  H   LIG d   1       4.347  -3.265  -2.932  0.00  0.00     0.033 H 
BRANCH  41  44
ATOM     44  C   LIG d   1       4.283  -1.137  -3.161  0.00  0.00    -0.009 A 
ATOM     45  S   LIG d   1       3.326   0.191  -3.875  0.00  0.00    -0.102 SA
ATOM     46  C   LIG d   1       3.554   1.393  -2.574  0.00  0.00    -0.024 A 
ATOM     47  C   LIG d   1       4.337   0.714  -1.700  0.00  0.00    -0.054 A 
ATOM     48  H   LIG d   1       3.170   2.399  -2.503  0.00  0.00     0.069 H 
ATOM     49  C   LIG d   1       4.711  -0.582  -2.000  0.00  0.00    -0.051 A 
ATOM     50  H   LIG d   1       4.664   1.180  -0.782  0.00  0.00     0.062 H 
ATOM     51  H   LIG d   1       5.335  -1.145  -1.322  0.00  0.00     0.063 H 
ENDBRANCH  41  44
ENDBRANCH  38  41
ENDBRANCH  13  38
TORSDOF 6
ENDMDL
MODEL 4
REMARK VINA RESULT:      -6.5      2.405      3.548
REMARK  6 active torsions:
REMARK  status: ('A' for Active; 'I' for Inactive)
REMARK    1  A    between atoms: C_1  and  O_2 
REMARK    2  A    between atoms: O_2  and  C_3 
REMARK    3  A    between atoms: C_6  and  C_9 
REMARK    4  A    between atoms: N_21  and  C_24 
REMARK    5  A    between atoms: C_24  and  C_25 
REMARK    6  A    between atoms: C_25  and  C_26 
ROOT
ATOM      1  C   LIG d   1      10.161   4.407  -3.412  0.00  0.00     0.064 A 
ATOM      2  C   LIG d   1       9.476   3.274  -3.111  0.00  0.00     0.104 A 
ATOM      3  O   LIG d   1       8.929   2.494  -4.048  0.00  0.00    -0.462 OA
ATOM      4  C   LIG d   1       9.004   2.759  -5.367  0.00  0.00     0.146 A 
ATOM      5  C   LIG d   1       9.678   3.905  -5.823  0.00  0.00     0.065 A 
ATOM      6  C   LIG d   1      10.305   4.793  -4.827  0.00  0.00     0.200 A 
ATOM      7  O   LIG d   1      10.908   5.799  -5.158  0.00  0.00    -0.286 OA
ATOM      8  C   LIG d   1       9.761   4.176  -7.189  0.00  0.00    -0.044 A 
ATOM      9  C   LIG d   1       9.174   3.329  -8.084  0.00  0.00    -0.019 A 
ATOM     10  C   LIG d   1       8.496   2.191  -7.643  0.00  0.00     0.130 A 
ATOM     11  C   LIG d   1       8.412   1.906  -6.291  0.00  0.00     0.051 A 
ATOM     12  C   LIG d   1       7.688   0.678  -5.804  0.00  0.00     0.034 C 
ATOM     13  N   LIG d   1       6.814   0.164  -6.868  0.00  0.00    -0.266 N 
ATOM     14  C   LIG d   1       7.563   0.056  -8.131  0.00  0.00     0.144 C 
ATOM     15  O   LIG d   1       7.920   1.372  -8.562  0.00  0.00    -0.476 OA
ATOM     16  H   LIG d   1       9.372   2.992  -2.074  0.00  0.00     0.104 H 
ATOM     17  H   LIG d   1      10.284   5.054  -7.537  0.00  0.00     0.063 H 
ATOM     18  H   LIG d   1       9.234   3.540  -9.141  0.00  0.00     0.065 H 
ATOM     19  H   LIG d   1       8.421  -0.095  -5.529  0.00  0.00     0.048 H 
ATOM     20  H   LIG d   1       7.079   0.935  -4.924  0.00  0.00     0.048 H 
ATOM     21  H   LIG d   1       8.470  -0.544  -7.969  0.00  0.00     0.087 H 
ATOM     22  H   LIG d   1       6.932  -0.429  -8.891  0.00  0.00     0.087 H 
ENDROOT
BRANCH   1  23
ATOM     23  C   LIG d   1      10.753   5.241  -2.338  0.00  0.00    -0.011 A 
ATOM     24  C   LIG d   1      10.023   6.292  -1.787  0.00  0.00    -0.050 A 
ATOM     25  C   LIG d   1      10.575   7.066  -0.788  0.00  0.00    -0.019 A 
ATOM     26  H   LIG d   1       9.024   6.500  -2.142  0.00  0.00     0.062 H 
ATOM     27  C   LIG d   1      11.860   6.799  -0.333  0.00  0.00     0.120 A 
ATOM     28  H   LIG d   1      10.009   7.880  -0.361  0.00  0.00     0.065 H 
ATOM     29  C   LIG d   1      12.589   5.753  -0.879  0.00  0.00    -0.019 A 
ATOM     30  C   LIG d   1      12.040   4.972  -1.874  0.00  0.00    -0.050 A 
ATOM     31  H   LIG d   1      13.589   5.548  -0.521  0.00  0.00     0.065 H 
ATOM     32  H   LIG d   1      12.607   4.155  -2.296  0.00  0.00     0.062 H 
BRANCH  27  33
ATOM     33  O   LIG d   1      12.402   7.564   0.652  0.00  0.00    -0.495 OA
BRANCH  33  34
ATOM     34  C   LIG d   1      11.512   8.410   1.381  0.00  0.00     0.079 C 
ATOM     35  H   LIG d   1      11.498   9.409   0.923  0.00  0.00     0.066 H 
ATOM     36  H   LIG d   1      11.852   8.489   2.424  0.00  0.00     0.066 H 
ATOM     37  H   LIG d   1      10.499   7.982   1.358  0.00  0.00     0.066 H 
ENDBRANCH  33  34
ENDBRANCH  27  33
ENDBRANCH   1  23
BRANCH  13  38
ATOM     38  C   LIG d   1       6.229  -1.129  -6.491  0.00  0.00     0.007 C 
ATOM     39  H   LIG d   1       5.142  -1.103  -6.655  0.00  0.00     0.043 H 
ATOM     40  H   LIG d   1       6.673  -1.925  -7.107  0.00  0.00     0.043 H 
BRANCH  38  41
ATOM     41  C   LIG d   1       6.516  -1.407  -5.013  0.00  0.00    -0.009 C 
ATOM     42  H   LIG d   1       6.952  -2.411  -4.907  0.00  0.00     0.033 H 
ATOM     43  H   LIG d   1       7.223  -0.657  -4.630  0.00  0.00     0.033 H 
BRANCH  41  44
ATOM     44  C   LIG d   1       5.231  -1.333  -4.229  0.00  0.00    -0.009 A 
ATOM     45  S   LIG d   1       3.811  -0.284  -4.495  0.00  0.00    -0.102 SA
ATOM     46  C   LIG d   1       2.810  -0.865  -3.136  0.00  0.00    -0.024 A 
ATOM     47  C   LIG d   1       3.615  -1.801  -2.576  0.00  0.00    -0.054 A 
ATOM     48  H   LIG d   1       1.821  -0.552  -2.836  0.00  0.00     0.069 H 
ATOM     49  C   LIG d   1       4.856  -2.040  -3.136  0.00  0.00    -0.051 A 
ATOM     50  H   LIG d   1       3.292  -2.351  -1.704  0.00  0.00     0.062 H 
ATOM     51  H   LIG d   1       5.517  -2.780  -2.708  0.00  0.00     0.063 H 
ENDBRANCH  41  44
ENDBRANCH  38  41
ENDBRANCH  13  38
TORSDOF 6
ENDMDL
MODEL 5
REMARK VINA RESULT:      -6.4      5.165      8.461
REMARK  6 active torsions:
REMARK  status: ('A' for Active; 'I' for Inactive)
REMARK    1  A    between atoms: C_1  and  O_2 
REMARK    2  A    between atoms: O_2  and  C_3 
REMARK    3  A    between atoms: C_6  and  C_9 
REMARK    4  A    between atoms: N_21  and  C_24 
REMARK    5  A    between atoms: C_24  and  C_25 
REMARK    6  A    between atoms: C_25  and  C_26 
ROOT
ATOM      1  C   LIG d   1       8.131   1.023  -4.341  0.00  0.00     0.064 A 
ATOM      2  C   LIG d   1       8.639  -0.018  -5.050  0.00  0.00     0.104 A 
ATOM      3  O   LIG d   1       7.994  -1.181  -5.182  0.00  0.00    -0.462 OA
ATOM      4  C   LIG d   1       6.790  -1.426  -4.629  0.00  0.00     0.146 A 
ATOM      5  C   LIG d   1       6.147  -0.438  -3.862  0.00  0.00     0.065 A 
ATOM      6  C   LIG d   1       6.817   0.864  -3.693  0.00  0.00     0.200 A 
ATOM      7  O   LIG d   1       6.311   1.763  -3.044  0.00  0.00    -0.286 OA
ATOM      8  C   LIG d   1       4.898  -0.689  -3.294  0.00  0.00    -0.044 A 
ATOM      9  C   LIG d   1       4.305  -1.905  -3.476  0.00  0.00    -0.019 A 
ATOM     10  C   LIG d   1       4.935  -2.896  -4.230  0.00  0.00     0.130 A 
ATOM     11  C   LIG d   1       6.171  -2.658  -4.805  0.00  0.00     0.051 A 
ATOM     12  C   LIG d   1       6.859  -3.718  -5.627  0.00  0.00     0.034 C 
ATOM     13  N   LIG d   1       6.255  -5.028  -5.347  0.00  0.00    -0.266 N 
ATOM     14  C   LIG d   1       4.788  -4.941  -5.439  0.00  0.00     0.144 C 
ATOM     15  O   LIG d   1       4.316  -4.096  -4.387  0.00  0.00    -0.476 OA
ATOM     16  H   LIG d   1       9.601   0.099  -5.525  0.00  0.00     0.104 H 
ATOM     17  H   LIG d   1       4.405   0.073  -2.710  0.00  0.00     0.063 H 
ATOM     18  H   LIG d   1       3.339  -2.101  -3.034  0.00  0.00     0.065 H 
ATOM     19  H   LIG d   1       6.745  -3.484  -6.695  0.00  0.00     0.048 H 
ATOM     20  H   LIG d   1       7.928  -3.746  -5.369  0.00  0.00     0.048 H 
ATOM     21  H   LIG d   1       4.507  -4.518  -6.415  0.00  0.00     0.087 H 
ATOM     22  H   LIG d   1       4.354  -5.946  -5.336  0.00  0.00     0.087 H 
ENDROOT
BRANCH   1  23
ATOM     23  C   LIG d   1       8.883   2.296  -4.223  0.00  0.00    -0.011 A 
ATOM     24  C   LIG d   1       9.719   2.514  -3.129  0.00  0.00    -0.050 A 
ATOM     25  C   LIG d   1      10.417   3.698  -3.021  0.00  0.00    -0.019 A 
ATOM     26  H   LIG d   1       9.820   1.755  -2.367  0.00  0.00     0.062 H 
ATOM     27  C   LIG d   1      10.287   4.673  -4.001  0.00  0.00     0.120 A 
ATOM     28  H   LIG d   1      11.065   3.866  -2.174  0.00  0.00     0.065 H 
ATOM     29  C   LIG d   1       9.456   4.459  -5.091  0.00  0.00    -0.019 A 
ATOM     30  C   LIG d   1       8.760   3.275  -5.208  0.00  0.00    -0.050 A 
ATOM     31  H   LIG d   1       9.357   5.221  -5.852  0.00  0.00     0.065 H 
ATOM     32  H   LIG d   1       8.115   3.107  -6.058  0.00  0.00     0.062 H 
BRANCH  27  33
ATOM     33  O   LIG d   1      10.977   5.840  -3.892  0.00  0.00    -0.495 OA
BRANCH  33  34
ATOM     34  C   LIG d   1      10.337   7.020  -4.382  0.00  0.00     0.079 C 
ATOM     35  H   LIG d   1       9.283   6.800  -4.605  0.00  0.00     0.066 H 
ATOM     36  H   LIG d   1      10.843   7.358  -5.298  0.00  0.00     0.066 H 
ATOM     37  H   LIG d   1      10.394   7.811  -3.619  0.00  0.00     0.066 H 
ENDBRANCH  33  34
ENDBRANCH  27  33
ENDBRANCH   1  23
BRANCH  13  38
ATOM     38  C   LIG d   1       6.780  -6.054  -6.257  0.00  0.00     0.007 C 
ATOM     39  H   LIG d   1       5.947  -6.519  -6.807  0.00  0.00     0.043 H 
ATOM     40  H   LIG d   1       7.475  -5.589  -6.972  0.00  0.00     0.043 H 
BRANCH  38  41
ATOM     41  C   LIG d   1       7.518  -7.124  -5.450  0.00  0.00    -0.009 C 
ATOM     42  H   LIG d   1       8.307  -7.572  -6.071  0.00  0.00     0.033 H 
ATOM     43  H   LIG d   1       7.969  -6.664  -4.559  0.00  0.00     0.033 H 
BRANCH  41  44
ATOM     44  C   LIG d   1       6.545  -8.194  -5.026  0.00  0.00    -0.009 A 
ATOM     45  S   LIG d   1       4.974  -8.636  -5.749  0.00  0.00    -0.102 SA
ATOM     46  C   LIG d   1       4.545  -9.960  -4.629  0.00  0.00    -0.024 A 
ATOM     47  C   LIG d   1       5.609  -9.971  -3.789  0.00  0.00    -0.054 A 
ATOM     48  H   LIG d   1       3.666 -10.586  -4.622  0.00  0.00     0.069 H 
ATOM     49  C   LIG d   1       6.634  -9.066  -3.992  0.00  0.00    -0.051 A 
ATOM     50  H   LIG d   1       5.654 -10.677  -2.972  0.00  0.00     0.062 H 
ATOM     51  H   LIG d   1       7.492  -9.054  -3.336  0.00  0.00     0.063 H 
ENDBRANCH  41  44
ENDBRANCH  38  41
ENDBRANCH  13  38
TORSDOF 6
ENDMDL
MODEL 6
REMARK VINA RESULT:      -6.4      3.582     10.177
REMARK  6 active torsions:
REMARK  status: ('A' for Active; 'I' for Inactive)
REMARK    1  A    between atoms: C_1  and  O_2 
REMARK    2  A    between atoms: O_2  and  C_3 
REMARK    3  A    between atoms: C_6  and  C_9 
REMARK    4  A    between atoms: N_21  and  C_24 
REMARK    5  A    between atoms: C_24  and  C_25 
REMARK    6  A    between atoms: C_25  and  C_26 
ROOT
ATOM      1  C   LIG d   1       7.305   0.409  -4.762  0.00  0.00     0.064 A 
ATOM      2  C   LIG d   1       7.524   1.053  -3.587  0.00  0.00     0.104 A 
ATOM      3  O   LIG d   1       8.232   2.182  -3.506  0.00  0.00    -0.462 OA
ATOM      4  C   LIG d   1       8.792   2.782  -4.575  0.00  0.00     0.146 A 
ATOM      5  C   LIG d   1       8.652   2.222  -5.857  0.00  0.00     0.065 A 
ATOM      6  C   LIG d   1       7.873   0.979  -5.997  0.00  0.00     0.200 A 
ATOM      7  O   LIG d   1       7.710   0.446  -7.081  0.00  0.00    -0.286 OA
ATOM      8  C   LIG d   1       9.226   2.846  -6.965  0.00  0.00    -0.044 A 
ATOM      9  C   LIG d   1       9.936   4.000  -6.798  0.00  0.00    -0.019 A 
ATOM     10  C   LIG d   1      10.088   4.563  -5.530  0.00  0.00     0.130 A 
ATOM     11  C   LIG d   1       9.518   3.958  -4.424  0.00  0.00     0.051 A 
ATOM     12  C   LIG d   1       9.670   4.560  -3.050  0.00  0.00     0.034 C 
ATOM     13  N   LIG d   1      10.778   5.525  -3.053  0.00  0.00    -0.266 N 
ATOM     14  C   LIG d   1      10.640   6.450  -4.190  0.00  0.00     0.144 C 
ATOM     15  O   LIG d   1      10.805   5.710  -5.402  0.00  0.00    -0.476 OA
ATOM     16  H   LIG d   1       7.107   0.636  -2.682  0.00  0.00     0.104 H 
ATOM     17  H   LIG d   1       9.112   2.416  -7.949  0.00  0.00     0.063 H 
ATOM     18  H   LIG d   1      10.384   4.481  -7.655  0.00  0.00     0.065 H 
ATOM     19  H   LIG d   1       8.738   5.074  -2.770  0.00  0.00     0.048 H 
ATOM     20  H   LIG d   1       9.882   3.763  -2.322  0.00  0.00     0.048 H 
ATOM     21  H   LIG d   1       9.643   6.914  -4.167  0.00  0.00     0.087 H 
ATOM     22  H   LIG d   1      11.411   7.232  -4.121  0.00  0.00     0.087 H 
ENDROOT
BRANCH   1  23
ATOM     23  C   LIG d   1       6.510  -0.843  -4.803  0.00  0.00    -0.011 A 
ATOM     24  C   LIG d   1       7.120  -2.066  -4.532  0.00  0.00    -0.050 A 
ATOM     25  C   LIG d   1       6.379  -3.228  -4.570  0.00  0.00    -0.019 A 
ATOM     26  H   LIG d   1       8.173  -2.103  -4.291  0.00  0.00     0.062 H 
ATOM     27  C   LIG d   1       5.026  -3.180  -4.880  0.00  0.00     0.120 A 
ATOM     28  H   LIG d   1       6.852  -4.176  -4.360  0.00  0.00     0.065 H 
ATOM     29  C   LIG d   1       4.416  -1.963  -5.150  0.00  0.00    -0.019 A 
ATOM     30  C   LIG d   1       5.151  -0.797  -5.107  0.00  0.00    -0.050 A 
ATOM     31  H   LIG d   1       3.363  -1.930  -5.390  0.00  0.00     0.065 H 
ATOM     32  H   LIG d   1       4.675   0.150  -5.314  0.00  0.00     0.062 H 
BRANCH  27  33
ATOM     33  O   LIG d   1       4.298  -4.328  -4.917  0.00  0.00    -0.495 OA
BRANCH  33  34
ATOM     34  C   LIG d   1       4.219  -5.005  -6.173  0.00  0.00     0.079 C 
ATOM     35  H   LIG d   1       4.656  -6.010  -6.076  0.00  0.00     0.066 H 
ATOM     36  H   LIG d   1       4.774  -4.435  -6.933  0.00  0.00     0.066 H 
ATOM     37  H   LIG d   1       3.165  -5.092  -6.476  0.00  0.00     0.066 H 
ENDBRANCH  33  34
ENDBRANCH  27  33
ENDBRANCH   1  23
BRANCH  13  38
ATOM     38  C   LIG d   1      10.840   6.258  -1.782  0.00  0.00     0.007 C 
ATOM     39  H   LIG d   1      10.990   5.548  -0.955  0.00  0.00     0.043 H 
ATOM     40  H   LIG d   1      11.680   6.969  -1.811  0.00  0.00     0.043 H 
BRANCH  38  41
ATOM     41  C   LIG d   1       9.532   7.022  -1.569  0.00  0.00    -0.009 C 
ATOM     42  H   LIG d   1       9.083   7.259  -2.544  0.00  0.00     0.033 H 
ATOM     43  H   LIG d   1       8.837   6.401  -0.985  0.00  0.00     0.033 H 
BRANCH  41  44
ATOM     44  C   LIG d   1       9.813   8.300  -0.821  0.00  0.00    -0.009 A 
ATOM     45  S   LIG d   1       8.882   9.823  -0.808  0.00  0.00    -0.102 SA
ATOM     46  C   LIG d   1       9.921  10.745   0.314  0.00  0.00    -0.024 A 
ATOM     47  C   LIG d   1      10.897   9.846   0.593  0.00  0.00    -0.054 A 
ATOM     48  H   LIG d   1       9.805  11.756   0.673  0.00  0.00     0.069 H 
ATOM     49  C   LIG d   1      10.841   8.593   0.013  0.00  0.00    -0.051 A 
ATOM     50  H   LIG d   1      11.706  10.105   1.261  0.00  0.00     0.062 H 
ATOM     51  H   LIG d   1      11.606   7.858   0.218  0.00  0.00     0.063 H 
ENDBRANCH  41  44
ENDBRANCH  38  41
ENDBRANCH  13  38
TORSDOF 6
ENDMDL
MODEL 7
REMARK VINA RESULT:      -6.4      1.993      2.229
REMARK  6 active torsions:
REMARK  status: ('A' for Active; 'I' for Inactive)
REMARK    1  A    between atoms: C_1  and  O_2 
REMARK    2  A    between atoms: O_2  and  C_3 
REMARK    3  A    between atoms: C_6  and  C_9 
REMARK    4  A    between atoms: N_21  and  C_24 
REMARK    5  A    between atoms: C_24  and  C_25 
REMARK    6  A    between atoms: C_25  and  C_26 
ROOT
ATOM      1  C   LIG d   1      11.281   6.703  -1.186  0.00  0.00     0.064 A 
ATOM      2  C   LIG d   1      10.099   6.054  -1.343  0.00  0.00     0.104 A 
ATOM      3  O   LIG d   1       9.982   4.937  -2.066  0.00  0.00    -0.462 OA
ATOM      4  C   LIG d   1      11.018   4.357  -2.702  0.00  0.00     0.146 A 
ATOM      5  C   LIG d   1      12.302   4.925  -2.632  0.00  0.00     0.065 A 
ATOM      6  C   LIG d   1      12.482   6.154  -1.840  0.00  0.00     0.200 A 
ATOM      7  O   LIG d   1      13.570   6.693  -1.735  0.00  0.00    -0.286 OA
ATOM      8  C   LIG d   1      13.377   4.320  -3.285  0.00  0.00    -0.044 A 
ATOM      9  C   LIG d   1      13.175   3.178  -4.005  0.00  0.00    -0.019 A 
ATOM     10  C   LIG d   1      11.903   2.608  -4.088  0.00  0.00     0.130 A 
ATOM     11  C   LIG d   1      10.830   3.193  -3.439  0.00  0.00     0.051 A 
ATOM     12  C   LIG d   1       9.454   2.583  -3.517  0.00  0.00     0.034 C 
ATOM     13  N   LIG d   1       9.395   1.638  -4.641  0.00  0.00    -0.266 N 
ATOM     14  C   LIG d   1      10.545   0.720  -4.591  0.00  0.00     0.144 C 
ATOM     15  O   LIG d   1      11.739   1.473  -4.817  0.00  0.00    -0.476 OA
ATOM     16  H   LIG d   1       9.219   6.457  -0.863  0.00  0.00     0.104 H 
ATOM     17  H   LIG d   1      14.363   4.756  -3.225  0.00  0.00     0.063 H 
ATOM     18  H   LIG d   1      14.005   2.712  -4.514  0.00  0.00     0.065 H 
ATOM     19  H   LIG d   1       9.237   2.050  -2.579  0.00  0.00     0.048 H 
ATOM     20  H   LIG d   1       8.709   3.378  -3.668  0.00  0.00     0.048 H 
ATOM     21  H   LIG d   1      10.587   0.237  -3.604  0.00  0.00     0.087 H 
ATOM     22  H   LIG d   1      10.433  -0.049  -5.371  0.00  0.00     0.087 H 
ENDROOT
BRANCH   1  23
ATOM     23  C   LIG d   1      11.363   7.941  -0.372  0.00  0.00    -0.011 A 
ATOM     24  C   LIG d   1      11.160   9.184  -0.969  0.00  0.00    -0.050 A 
ATOM     25  C   LIG d   1      11.236  10.333  -0.211  0.00  0.00    -0.019 A 
ATOM     26  H   LIG d   1      10.943   9.247  -2.026  0.00  0.00     0.062 H 
ATOM     27  C   LIG d   1      11.515  10.252   1.148  0.00  0.00     0.120 A 
ATOM     28  H   LIG d   1      11.079  11.296  -0.673  0.00  0.00     0.065 H 
ATOM     29  C   LIG d   1      11.717   9.016   1.745  0.00  0.00    -0.019 A 
ATOM     30  C   LIG d   1      11.636   7.863   0.992  0.00  0.00    -0.050 A 
ATOM     31  H   LIG d   1      11.934   8.956   2.802  0.00  0.00     0.065 H 
ATOM     32  H   LIG d   1      11.790   6.901   1.458  0.00  0.00     0.062 H 
BRANCH  27  33
ATOM     33  O   LIG d   1      11.590  11.386   1.893  0.00  0.00    -0.495 OA
BRANCH  33  34
ATOM     34  C   LIG d   1      12.744  11.544   2.721  0.00  0.00     0.079 C 
ATOM     35  H   LIG d   1      13.126  12.571   2.626  0.00  0.00     0.066 H 
ATOM     36  H   LIG d   1      13.521  10.832   2.406  0.00  0.00     0.066 H 
ATOM     37  H   LIG d   1      12.472  11.349   3.769  0.00  0.00     0.066 H 
ENDBRANCH  33  34
ENDBRANCH  27  33
ENDBRANCH   1  23
BRANCH  13  38
ATOM     38  C   LIG d   1       8.128   0.896  -4.638  0.00  0.00     0.007 C 
ATOM     39  H   LIG d   1       7.700   0.895  -5.651  0.00  0.00     0.043 H 
ATOM     40  H   LIG d   1       8.311  -0.141  -4.317  0.00  0.00     0.043 H 
BRANCH  38  41
ATOM     41  C   LIG d   1       7.148   1.563  -3.670  0.00  0.00    -0.009 C 
ATOM     42  H   LIG d   1       7.705   2.008  -2.834  0.00  0.00     0.033 H 
ATOM     43  H   LIG d   1       6.589   2.349  -4.199  0.00  0.00     0.033 H 
BRANCH  41  44
ATOM     44  C   LIG d   1       6.185   0.532  -3.141  0.00  0.00    -0.009 A 
ATOM     45  S   LIG d   1       6.164  -1.232  -3.413  0.00  0.00    -0.102 SA
ATOM     46  C   LIG d   1       4.723  -1.622  -2.432  0.00  0.00    -0.024 A 
ATOM     47  C   LIG d   1       4.357  -0.399  -1.976  0.00  0.00    -0.054 A 
ATOM     48  H   LIG d   1       4.262  -2.581  -2.252  0.00  0.00     0.069 H 
ATOM     49  C   LIG d   1       5.105   0.705  -2.338  0.00  0.00    -0.051 A 
ATOM     50  H   LIG d   1       3.492  -0.289  -1.338  0.00  0.00     0.062 H 
ATOM     51  H   LIG d   1       4.835   1.690  -1.989  0.00  0.00     0.063 H 
ENDBRANCH  41  44
ENDBRANCH  38  41
ENDBRANCH  13  38
TORSDOF 6
ENDMDL
MODEL 8
REMARK VINA RESULT:      -6.0      2.770      5.391
REMARK  6 active torsions:
REMARK  status: ('A' for Active; 'I' for Inactive)
REMARK    1  A    between atoms: C_1  and  O_2 
REMARK    2  A    between atoms: O_2  and  C_3 
REMARK    3  A    between atoms: C_6  and  C_9 
REMARK    4  A    between atoms: N_21  and  C_24 
REMARK    5  A    between atoms: C_24  and  C_25 
REMARK    6  A    between atoms: C_25  and  C_26 
ROOT
ATOM      1  C   LIG d   1       9.514   3.034  -4.235  0.00  0.00     0.064 A 
ATOM      2  C   LIG d   1       8.460   2.281  -3.828  0.00  0.00     0.104 A 
ATOM      3  O   LIG d   1       8.307   1.003  -4.187  0.00  0.00    -0.462 OA
ATOM      4  C   LIG d   1       9.177   0.349  -4.981  0.00  0.00     0.146 A 
ATOM      5  C   LIG d   1      10.314   1.008  -5.483  0.00  0.00     0.065 A 
ATOM      6  C   LIG d   1      10.529   2.417  -5.108  0.00  0.00     0.200 A 
ATOM      7  O   LIG d   1      11.496   3.043  -5.505  0.00  0.00    -0.286 OA
ATOM      8  C   LIG d   1      11.218   0.330  -6.300  0.00  0.00    -0.044 A 
ATOM      9  C   LIG d   1      10.990  -0.977  -6.622  0.00  0.00    -0.019 A 
ATOM     10  C   LIG d   1       9.863  -1.641  -6.135  0.00  0.00     0.130 A 
ATOM     11  C   LIG d   1       8.961  -0.982  -5.318  0.00  0.00     0.051 A 
ATOM     12  C   LIG d   1       7.743  -1.689  -4.782  0.00  0.00     0.034 C 
ATOM     13  N   LIG d   1       7.494  -2.907  -5.567  0.00  0.00    -0.266 N 
ATOM     14  C   LIG d   1       8.735  -3.689  -5.695  0.00  0.00     0.144 C 
ATOM     15  O   LIG d   1       9.666  -2.941  -6.480  0.00  0.00    -0.476 OA
ATOM     16  H   LIG d   1       7.718   2.733  -3.188  0.00  0.00     0.104 H 
ATOM     17  H   LIG d   1      12.093   0.837  -6.679  0.00  0.00     0.063 H 
ATOM     18  H   LIG d   1      11.688  -1.502  -7.257  0.00  0.00     0.065 H 
ATOM     19  H   LIG d   1       7.911  -1.961  -3.730  0.00  0.00     0.048 H 
ATOM     20  H   LIG d   1       6.870  -1.024  -4.855  0.00  0.00     0.048 H 
ATOM     21  H   LIG d   1       9.153  -3.880  -4.696  0.00  0.00     0.087 H 
ATOM     22  H   LIG d   1       8.514  -4.648  -6.189  0.00  0.00     0.087 H 
ENDROOT
BRANCH   1  23
ATOM     23  C   LIG d   1       9.643   4.449  -3.809  0.00  0.00    -0.011 A 
ATOM     24  C   LIG d   1      10.118   4.754  -2.536  0.00  0.00    -0.050 A 
ATOM     25  C   LIG d   1      10.238   6.070  -2.142  0.00  0.00    -0.019 A 
ATOM     26  H   LIG d   1      10.393   3.960  -1.857  0.00  0.00     0.062 H 
ATOM     27  C   LIG d   1       9.884   7.091  -3.014  0.00  0.00     0.120 A 
ATOM     28  H   LIG d   1      10.606   6.307  -1.155  0.00  0.00     0.065 H 
ATOM     29  C   LIG d   1       9.411   6.790  -4.284  0.00  0.00    -0.019 A 
ATOM     30  C   LIG d   1       9.295   5.476  -4.685  0.00  0.00    -0.050 A 
ATOM     31  H   LIG d   1       9.137   7.588  -4.960  0.00  0.00     0.065 H 
ATOM     32  H   LIG d   1       8.930   5.243  -5.674  0.00  0.00     0.062 H 
BRANCH  27  33
ATOM     33  O   LIG d   1      10.002   8.388  -2.624  0.00  0.00    -0.495 OA
BRANCH  33  34
ATOM     34  C   LIG d   1      10.502   8.626  -1.307  0.00  0.00     0.079 C 
ATOM     35  H   LIG d   1      11.125   7.777  -0.992  0.00  0.00     0.066 H 
ATOM     36  H   LIG d   1       9.659   8.742  -0.610  0.00  0.00     0.066 H 
ATOM     37  H   LIG d   1      11.106   9.546  -1.306  0.00  0.00     0.066 H 
ENDBRANCH  33  34
ENDBRANCH  27  33
ENDBRANCH   1  23
BRANCH  13  38
ATOM     38  C   LIG d   1       6.424  -3.712  -4.964  0.00  0.00     0.007 C 
ATOM     39  H   LIG d   1       6.549  -4.766  -5.252  0.00  0.00     0.043 H 
ATOM     40  H   LIG d   1       6.473  -3.624  -3.868  0.00  0.00     0.043 H 
BRANCH  38  41
ATOM     41  C   LIG d   1       5.066  -3.206  -5.455  0.00  0.00    -0.009 C 
ATOM     42  H   LIG d   1       5.202  -2.637  -6.386  0.00  0.00     0.033 H 
ATOM     43  H   LIG d   1       4.403  -4.064  -5.643  0.00  0.00     0.033 H 
BRANCH  41  44
ATOM     44  C   LIG d   1       4.451  -2.316  -4.406  0.00  0.00    -0.009 A 
ATOM     45  S   LIG d   1       3.836  -0.647  -4.568  0.00  0.00    -0.102 SA
ATOM     46  C   LIG d   1       3.315  -0.406  -2.877  0.00  0.00    -0.024 A 
ATOM     47  C   LIG d   1       3.645  -1.593  -2.311  0.00  0.00    -0.054 A 
ATOM     48  H   LIG d   1       2.858   0.460  -2.423  0.00  0.00     0.069 H 
ATOM     49  C   LIG d   1       4.228  -2.571  -3.094  0.00  0.00    -0.051 A 
ATOM     50  H   LIG d   1       3.456  -1.771  -1.262  0.00  0.00     0.062 H 
ATOM     51  H   LIG d   1       4.501  -3.525  -2.667  0.00  0.00     0.063 H 
ENDBRANCH  41  44
ENDBRANCH  38  41
ENDBRANCH  13  38
TORSDOF 6
ENDMDL
MODEL 9
REMARK VINA RESULT:      -5.8      9.252     14.972
REMARK  6 active torsions:
REMARK  status: ('A' for Active; 'I' for Inactive)
REMARK    1  A    between atoms: C_1  and  O_2 
REMARK    2  A    between atoms: O_2  and  C_3 
REMARK    3  A    between atoms: C_6  and  C_9 
REMARK    4  A    between atoms: N_21  and  C_24 
REMARK    5  A    between atoms: C_24  and  C_25 
REMARK    6  A    between atoms: C_25  and  C_26 
ROOT
ATOM      1  C   LIG d   1       5.111  -7.632  -6.205  0.00  0.00     0.064 A 
ATOM      2  C   LIG d   1       5.396  -6.475  -5.552  0.00  0.00     0.104 A 
ATOM      3  O   LIG d   1       5.053  -5.276  -6.032  0.00  0.00    -0.462 OA
ATOM      4  C   LIG d   1       4.400  -5.105  -7.197  0.00  0.00     0.146 A 
ATOM      5  C   LIG d   1       4.046  -6.217  -7.983  0.00  0.00     0.065 A 
ATOM      6  C   LIG d   1       4.397  -7.562  -7.492  0.00  0.00     0.200 A 
ATOM      7  O   LIG d   1       4.115  -8.565  -8.122  0.00  0.00    -0.286 OA
ATOM      8  C   LIG d   1       3.364  -6.040  -9.186  0.00  0.00    -0.044 A 
ATOM      9  C   LIG d   1       3.050  -4.780  -9.608  0.00  0.00    -0.019 A 
ATOM     10  C   LIG d   1       3.401  -3.668  -8.841  0.00  0.00     0.130 A 
ATOM     11  C   LIG d   1       4.071  -3.829  -7.641  0.00  0.00     0.051 A 
ATOM     12  C   LIG d   1       4.450  -2.637  -6.801  0.00  0.00     0.034 C 
ATOM     13  N   LIG d   1       4.388  -1.417  -7.619  0.00  0.00    -0.266 N 
ATOM     14  C   LIG d   1       3.109  -1.359  -8.345  0.00  0.00     0.144 C 
ATOM     15  O   LIG d   1       3.075  -2.429  -9.293  0.00  0.00    -0.476 OA
ATOM     16  H   LIG d   1       5.918  -6.528  -4.609  0.00  0.00     0.104 H 
ATOM     17  H   LIG d   1       3.089  -6.897  -9.785  0.00  0.00     0.063 H 
ATOM     18  H   LIG d   1       2.525  -4.643 -10.541  0.00  0.00     0.065 H 
ATOM     19  H   LIG d   1       3.751  -2.546  -5.956  0.00  0.00     0.048 H 
ATOM     20  H   LIG d   1       5.473  -2.767  -6.418  0.00  0.00     0.048 H 
ATOM     21  H   LIG d   1       2.277  -1.462  -7.633  0.00  0.00     0.087 H 
ATOM     22  H   LIG d   1       3.028  -0.394  -8.867  0.00  0.00     0.087 H 
ENDROOT
BRANCH   1  23
ATOM     23  C   LIG d   1       5.511  -8.941  -5.633  0.00  0.00    -0.011 A 
ATOM     24  C   LIG d   1       6.728  -9.517  -5.991  0.00  0.00    -0.050 A 
ATOM     25  C   LIG d   1       7.098 -10.734  -5.458  0.00  0.00    -0.019 A 
ATOM     26  H   LIG d   1       7.383  -9.010  -6.685  0.00  0.00     0.062 H 
ATOM     27  C   LIG d   1       6.257 -11.386  -4.565  0.00  0.00     0.120 A 
ATOM     28  H   LIG d   1       8.041 -11.180  -5.735  0.00  0.00     0.065 H 
ATOM     29  C   LIG d   1       5.044 -10.814  -4.206  0.00  0.00    -0.019 A 
ATOM     30  C   LIG d   1       4.672  -9.595  -4.731  0.00  0.00    -0.050 A 
ATOM     31  H   LIG d   1       4.392 -11.324  -3.511  0.00  0.00     0.065 H 
ATOM     32  H   LIG d   1       3.730  -9.149  -4.449  0.00  0.00     0.062 H 
BRANCH  27  33
ATOM     33  O   LIG d   1       6.623 -12.586  -4.041  0.00  0.00    -0.495 OA
BRANCH  33  34
ATOM     34  C   LIG d   1       7.975 -12.714  -3.597  0.00  0.00     0.079 C 
ATOM     35  H   LIG d   1       8.042 -12.425  -2.538  0.00  0.00     0.066 H 
ATOM     36  H   LIG d   1       8.623 -12.059  -4.198  0.00  0.00     0.066 H 
ATOM     37  H   LIG d   1       8.301 -13.758  -3.713  0.00  0.00     0.066 H 
ENDBRANCH  33  34
ENDBRANCH  27  33
ENDBRANCH   1  23
BRANCH  13  38
ATOM     38  C   LIG d   1       4.578  -0.219  -6.791  0.00  0.00     0.007 C 
ATOM     39  H   LIG d   1       5.003   0.589  -7.405  0.00  0.00     0.043 H 
ATOM     40  H   LIG d   1       3.608   0.103  -6.384  0.00  0.00     0.043 H 
BRANCH  38  41
ATOM     41  C   LIG d   1       5.533  -0.540  -5.639  0.00  0.00    -0.009 C 
ATOM     42  H   LIG d   1       5.703  -1.625  -5.596  0.00  0.00     0.033 H 
ATOM     43  H   LIG d   1       6.491  -0.025  -5.805  0.00  0.00     0.033 H 
BRANCH  41  44
ATOM     44  C   LIG d   1       4.929  -0.072  -4.340  0.00  0.00    -0.009 A 
ATOM     45  S   LIG d   1       5.712   0.769  -2.974  0.00  0.00    -0.102 SA
ATOM     46  C   LIG d   1       4.282   0.918  -1.917  0.00  0.00    -0.024 A 
ATOM     47  C   LIG d   1       3.320   0.320  -2.661  0.00  0.00    -0.054 A 
ATOM     48  H   LIG d   1       4.203   1.366  -0.937  0.00  0.00     0.069 H 
ATOM     49  C   LIG d   1       3.651  -0.188  -3.903  0.00  0.00    -0.051 A 
ATOM     50  H   LIG d   1       2.308   0.241  -2.289  0.00  0.00     0.062 H 
ATOM     51  H   LIG d   1       2.904  -0.670  -4.516  0.00  0.00     0.063 H 
ENDBRANCH  41  44
ENDBRANCH  38  41
ENDBRANCH  13  38
TORSDOF 6
ENDMDL
