MODEL 1
REMARK VINA RESULT:      -5.5      0.000      0.000
REMARK  4 active torsions:
REMARK  status: ('A' for Active; 'I' for Inactive)
REMARK    1  A    between atoms: C_3  and  C_6 
REMARK    2  A    between atoms: C_7  and  C_8 
REMARK       I    between atoms: C_8  and  N_10 
REMARK    3  A    between atoms: N_10  and  C_11 
REMARK    4  A    between atoms: C_11  and  C_12 
ROOT
ATOM      1  C   LIG d   1       3.072   0.088  -4.963  0.00  0.00    -0.015 C 
ATOM      2  C   LIG d   1       3.401  -0.451  -6.164  0.00  0.00     0.004 C 
ATOM      3  H   LIG d   1       2.493   0.999  -4.921  0.00  0.00     0.066 H 
ATOM      4  H   LIG d   1       3.981  -1.361  -6.207  0.00  0.00     0.067 H 
ENDROOT
BRANCH   2   5
ATOM      5  C   LIG d   1       2.986   0.181  -7.361  0.00  0.00     0.237 C 
ATOM      6  O   LIG d   1       2.355  -0.446  -8.193  0.00  0.00    -0.271 OA
ATOM      7  N   LIG d   1       3.289   1.476  -7.579  0.00  0.00    -0.307 N 
ATOM      8  H   LIG d   1       3.791   1.976  -6.916  0.00  0.00     0.149 HD
BRANCH   7   9
ATOM      9  C   LIG d   1       2.859   2.129  -8.818  0.00  0.00     0.051 C 
ATOM     10  H   LIG d   1       2.003   1.597  -9.232  0.00  0.00     0.052 H 
ATOM     11  H   LIG d   1       2.579   3.161  -8.607  0.00  0.00     0.052 H 
BRANCH   9  12
ATOM     12  C   LIG d   1       3.991   2.110  -9.814  0.00  0.00     0.059 C 
ATOM     13  O   LIG d   1       5.057   2.601  -9.526  0.00  0.00    -0.548 OA
ATOM     14  O   LIG d   1       3.815   1.546 -11.020  0.00  0.00    -0.548 OA
ENDBRANCH   9  12
ENDBRANCH   7   9
ENDBRANCH   2   5
BRANCH   1  15
ATOM     15  C   LIG d   1       3.492  -0.540  -3.767  0.00  0.00     0.128 A 
ATOM     16  C   LIG d   1       4.099   0.079  -2.693  0.00  0.00    -0.017 A 
ATOM     17  C   LIG d   1       4.337  -0.922  -1.738  0.00  0.00    -0.023 A 
ATOM     18  H   LIG d   1       4.343   1.127  -2.605  0.00  0.00     0.066 H 
ATOM     19  C   LIG d   1       3.884  -2.085  -2.256  0.00  0.00     0.092 A 
ATOM     20  H   LIG d   1       4.798  -0.787  -0.771  0.00  0.00     0.065 H 
ATOM     21  O   LIG d   1       3.378  -1.853  -3.475  0.00  0.00    -0.464 OA
ATOM     22  H   LIG d   1       3.923  -3.047  -1.766  0.00  0.00     0.103 H 
ENDBRANCH   1  15
TORSDOF 4
ENDMDL
MODEL 2
REMARK VINA RESULT:      -5.1      2.111      6.637
REMARK  4 active torsions:
REMARK  status: ('A' for Active; 'I' for Inactive)
REMARK    1  A    between atoms: C_3  and  C_6 
REMARK    2  A    between atoms: C_7  and  C_8 
REMARK       I    between atoms: C_8  and  N_10 
REMARK    3  A    between atoms: N_10  and  C_11 
REMARK    4  A    between atoms: C_11  and  C_12 
ROOT
ATOM      1  C   LIG d   1       2.847   1.010  -7.584  0.00  0.00    -0.015 C 
ATOM      2  C   LIG d   1       3.232   0.076  -6.679  0.00  0.00     0.004 C 
ATOM      3  H   LIG d   1       2.318   1.893  -7.256  0.00  0.00     0.066 H 
ATOM      4  H   LIG d   1       3.760  -0.807  -7.006  0.00  0.00     0.067 H 
ENDROOT
BRANCH   2   5
ATOM      5  C   LIG d   1       2.940   0.258  -5.306  0.00  0.00     0.237 C 
ATOM      6  O   LIG d   1       2.632   1.361  -4.890  0.00  0.00    -0.271 OA
ATOM      7  N   LIG d   1       3.003  -0.789  -4.459  0.00  0.00    -0.307 N 
ATOM      8  H   LIG d   1       3.248  -1.667  -4.791  0.00  0.00     0.149 HD
BRANCH   7   9
ATOM      9  C   LIG d   1       2.702  -0.600  -3.038  0.00  0.00     0.051 C 
ATOM     10  H   LIG d   1       2.228   0.371  -2.893  0.00  0.00     0.052 H 
ATOM     11  H   LIG d   1       2.028  -1.387  -2.701  0.00  0.00     0.052 H 
BRANCH   9  12
ATOM     12  C   LIG d   1       3.980  -0.659  -2.242  0.00  0.00     0.059 C 
ATOM     13  O   LIG d   1       4.465  -1.728  -1.956  0.00  0.00    -0.548 OA
ATOM     14  O   LIG d   1       4.582   0.476  -1.851  0.00  0.00    -0.548 OA
ENDBRANCH   9  12
ENDBRANCH   7   9
ENDBRANCH   2   5
BRANCH   1  15
ATOM     15  C   LIG d   1       3.133   0.826  -8.957  0.00  0.00     0.128 A 
ATOM     16  C   LIG d   1       2.557  -0.113  -9.789  0.00  0.00    -0.017 A 
ATOM     17  C   LIG d   1       3.136   0.066 -11.054  0.00  0.00    -0.023 A 
ATOM     18  H   LIG d   1       1.807  -0.841  -9.519  0.00  0.00     0.066 H 
ATOM     19  C   LIG d   1       4.027   1.077 -10.947  0.00  0.00     0.092 A 
ATOM     20  H   LIG d   1       2.913  -0.500 -11.947  0.00  0.00     0.065 H 
ATOM     21  O   LIG d   1       4.023   1.531  -9.686  0.00  0.00    -0.464 OA
ATOM     22  H   LIG d   1       4.642   1.458 -11.749  0.00  0.00     0.103 H 
ENDBRANCH   1  15
TORSDOF 4
ENDMDL
MODEL 3
REMARK VINA RESULT:      -5.1      1.332      1.452
REMARK  4 active torsions:
REMARK  status: ('A' for Active; 'I' for Inactive)
REMARK    1  A    between atoms: C_3  and  C_6 
REMARK    2  A    between atoms: C_7  and  C_8 
REMARK       I    between atoms: C_8  and  N_10 
REMARK    3  A    between atoms: N_10  and  C_11 
REMARK    4  A    between atoms: C_11  and  C_12 
ROOT
ATOM      1  C   LIG d   1       2.892   0.085  -5.026  0.00  0.00    -0.015 C 
ATOM      2  C   LIG d   1       3.532  -0.131  -6.202  0.00  0.00     0.004 C 
ATOM      3  H   LIG d   1       2.015   0.715  -4.997  0.00  0.00     0.066 H 
ATOM      4  H   LIG d   1       4.410  -0.760  -6.231  0.00  0.00     0.067 H 
ENDROOT
BRANCH   2   5
ATOM      5  C   LIG d   1       3.052   0.469  -7.391  0.00  0.00     0.237 C 
ATOM      6  O   LIG d   1       2.949   1.680  -7.463  0.00  0.00    -0.271 OA
ATOM      7  N   LIG d   1       2.707  -0.301  -8.442  0.00  0.00    -0.307 N 
ATOM      8  H   LIG d   1       2.789  -1.266  -8.385  0.00  0.00     0.149 HD
BRANCH   7   9
ATOM      9  C   LIG d   1       2.209   0.320  -9.672  0.00  0.00     0.051 C 
ATOM     10  H   LIG d   1       1.346  -0.236 -10.037  0.00  0.00     0.052 H 
ATOM     11  H   LIG d   1       1.917   1.350  -9.466  0.00  0.00     0.052 H 
BRANCH   9  12
ATOM     12  C   LIG d   1       3.295   0.306 -10.717  0.00  0.00     0.059 C 
ATOM     13  O   LIG d   1       3.973   1.290 -10.897  0.00  0.00    -0.548 OA
ATOM     14  O   LIG d   1       3.510  -0.801 -11.446  0.00  0.00    -0.548 OA
ENDBRANCH   9  12
ENDBRANCH   7   9
ENDBRANCH   2   5
BRANCH   1  15
ATOM     15  C   LIG d   1       3.377  -0.509  -3.836  0.00  0.00     0.128 A 
ATOM     16  C   LIG d   1       3.992   0.148  -2.791  0.00  0.00    -0.017 A 
ATOM     17  C   LIG d   1       4.302  -0.829  -1.832  0.00  0.00    -0.023 A 
ATOM     18  H   LIG d   1       4.195   1.206  -2.723  0.00  0.00     0.066 H 
ATOM     19  C   LIG d   1       3.880  -2.017  -2.321  0.00  0.00     0.092 A 
ATOM     20  H   LIG d   1       4.788  -0.663  -0.883  0.00  0.00     0.065 H 
ATOM     21  O   LIG d   1       3.325  -1.822  -3.525  0.00  0.00    -0.464 OA
ATOM     22  H   LIG d   1       3.975  -2.970  -1.821  0.00  0.00     0.103 H 
ENDBRANCH   1  15
TORSDOF 4
ENDMDL
MODEL 4
REMARK VINA RESULT:      -4.9      4.215      5.140
REMARK  4 active torsions:
REMARK  status: ('A' for Active; 'I' for Inactive)
REMARK    1  A    between atoms: C_3  and  C_6 
REMARK    2  A    between atoms: C_7  and  C_8 
REMARK       I    between atoms: C_8  and  N_10 
REMARK    3  A    between atoms: N_10  and  C_11 
REMARK    4  A    between atoms: C_11  and  C_12 
ROOT
ATOM      1  C   LIG d   1       4.313  -1.781  -4.187  0.00  0.00    -0.015 C 
ATOM      2  C   LIG d   1       5.354  -2.650  -4.235  0.00  0.00     0.004 C 
ATOM      3  H   LIG d   1       3.421  -1.975  -4.764  0.00  0.00     0.066 H 
ATOM      4  H   LIG d   1       6.247  -2.456  -3.659  0.00  0.00     0.067 H 
ENDROOT
BRANCH   2   5
ATOM      5  C   LIG d   1       5.270  -3.810  -5.042  0.00  0.00     0.237 C 
ATOM      6  O   LIG d   1       6.258  -4.501  -5.219  0.00  0.00    -0.271 OA
ATOM      7  N   LIG d   1       4.098  -4.150  -5.614  0.00  0.00    -0.307 N 
ATOM      8  H   LIG d   1       3.311  -3.600  -5.472  0.00  0.00     0.149 HD
BRANCH   7   9
ATOM      9  C   LIG d   1       4.012  -5.350  -6.449  0.00  0.00     0.051 C 
ATOM     10  H   LIG d   1       4.984  -5.843  -6.479  0.00  0.00     0.052 H 
ATOM     11  H   LIG d   1       3.272  -6.032  -6.031  0.00  0.00     0.052 H 
BRANCH   9  12
ATOM     12  C   LIG d   1       3.603  -4.961  -7.847  0.00  0.00     0.059 C 
ATOM     13  O   LIG d   1       3.892  -3.869  -8.278  0.00  0.00    -0.548 OA
ATOM     14  O   LIG d   1       2.920  -5.826  -8.612  0.00  0.00    -0.548 OA
ENDBRANCH   9  12
ENDBRANCH   7   9
ENDBRANCH   2   5
BRANCH   1  15
ATOM     15  C   LIG d   1       4.399  -0.618  -3.385  0.00  0.00     0.128 A 
ATOM     16  C   LIG d   1       4.372  -0.577  -2.006  0.00  0.00    -0.017 A 
ATOM     17  C   LIG d   1       4.486   0.774  -1.644  0.00  0.00    -0.023 A 
ATOM     18  H   LIG d   1       4.282  -1.420  -1.336  0.00  0.00     0.066 H 
ATOM     19  C   LIG d   1       4.568   1.489  -2.788  0.00  0.00     0.092 A 
ATOM     20  H   LIG d   1       4.502   1.168  -0.639  0.00  0.00     0.065 H 
ATOM     21  O   LIG d   1       4.516   0.650  -3.832  0.00  0.00    -0.464 OA
ATOM     22  H   LIG d   1       4.663   2.563  -2.851  0.00  0.00     0.103 H 
ENDBRANCH   1  15
TORSDOF 4
ENDMDL
MODEL 5
REMARK VINA RESULT:      -4.6      5.219      6.267
REMARK  4 active torsions:
REMARK  status: ('A' for Active; 'I' for Inactive)
REMARK    1  A    between atoms: C_3  and  C_6 
REMARK    2  A    between atoms: C_7  and  C_8 
REMARK       I    between atoms: C_8  and  N_10 
REMARK    3  A    between atoms: N_10  and  C_11 
REMARK    4  A    between atoms: C_11  and  C_12 
ROOT
ATOM      1  C   LIG d   1       6.163   0.012  -4.151  0.00  0.00    -0.015 C 
ATOM      2  C   LIG d   1       6.764   1.056  -3.526  0.00  0.00     0.004 C 
ATOM      3  H   LIG d   1       6.537  -0.333  -5.104  0.00  0.00     0.066 H 
ATOM      4  H   LIG d   1       6.391   1.402  -2.573  0.00  0.00     0.067 H 
ENDROOT
BRANCH   2   5
ATOM      5  C   LIG d   1       7.879   1.692  -4.123  0.00  0.00     0.237 C 
ATOM      6  O   LIG d   1       7.766   2.220  -5.215  0.00  0.00    -0.271 OA
ATOM      7  N   LIG d   1       9.065   1.713  -3.483  0.00  0.00    -0.307 N 
ATOM      8  H   LIG d   1       9.155   1.292  -2.614  0.00  0.00     0.149 HD
BRANCH   7   9
ATOM      9  C   LIG d   1      10.219   2.371  -4.102  0.00  0.00     0.051 C 
ATOM     10  H   LIG d   1      11.033   1.654  -4.208  0.00  0.00     0.052 H 
ATOM     11  H   LIG d   1       9.937   2.749  -5.085  0.00  0.00     0.052 H 
BRANCH   9  12
ATOM     12  C   LIG d   1      10.668   3.517  -3.233  0.00  0.00     0.059 C 
ATOM     13  O   LIG d   1       9.850   4.200  -2.663  0.00  0.00    -0.548 OA
ATOM     14  O   LIG d   1      11.977   3.779  -3.091  0.00  0.00    -0.548 OA
ENDBRANCH   9  12
ENDBRANCH   7   9
ENDBRANCH   2   5
BRANCH   1  15
ATOM     15  C   LIG d   1       5.045  -0.620  -3.556  0.00  0.00     0.128 A 
ATOM     16  C   LIG d   1       5.083  -1.701  -2.700  0.00  0.00    -0.017 A 
ATOM     17  C   LIG d   1       3.752  -1.988  -2.361  0.00  0.00    -0.023 A 
ATOM     18  H   LIG d   1       5.964  -2.223  -2.356  0.00  0.00     0.066 H 
ATOM     19  C   LIG d   1       2.972  -1.098  -3.014  0.00  0.00     0.092 A 
ATOM     20  H   LIG d   1       3.414  -2.775  -1.703  0.00  0.00     0.065 H 
ATOM     21  O   LIG d   1       3.752  -0.278  -3.732  0.00  0.00    -0.464 OA
ATOM     22  H   LIG d   1       1.894  -1.055  -2.965  0.00  0.00     0.103 H 
ENDBRANCH   1  15
TORSDOF 4
ENDMDL
MODEL 6
REMARK VINA RESULT:      -4.4      2.688      6.781
REMARK  4 active torsions:
REMARK  status: ('A' for Active; 'I' for Inactive)
REMARK    1  A    between atoms: C_3  and  C_6 
REMARK    2  A    between atoms: C_7  and  C_8 
REMARK       I    between atoms: C_8  and  N_10 
REMARK    3  A    between atoms: N_10  and  C_11 
REMARK    4  A    between atoms: C_11  and  C_12 
ROOT
ATOM      1  C   LIG d   1       2.961  -0.353  -8.398  0.00  0.00    -0.015 C 
ATOM      2  C   LIG d   1       3.810  -1.170  -7.725  0.00  0.00     0.004 C 
ATOM      3  H   LIG d   1       2.617   0.562  -7.940  0.00  0.00     0.066 H 
ATOM      4  H   LIG d   1       4.154  -2.086  -8.183  0.00  0.00     0.067 H 
ENDROOT
BRANCH   2   5
ATOM      5  C   LIG d   1       4.244  -0.824  -6.424  0.00  0.00     0.237 C 
ATOM      6  O   LIG d   1       4.654   0.301  -6.198  0.00  0.00    -0.271 OA
ATOM      7  N   LIG d   1       4.205  -1.738  -5.434  0.00  0.00    -0.307 N 
ATOM      8  H   LIG d   1       3.879  -2.634  -5.614  0.00  0.00     0.149 HD
BRANCH   7   9
ATOM      9  C   LIG d   1       4.655  -1.379  -4.087  0.00  0.00     0.051 C 
ATOM     10  H   LIG d   1       5.517  -1.989  -3.817  0.00  0.00     0.052 H 
ATOM     11  H   LIG d   1       4.934  -0.325  -4.066  0.00  0.00     0.052 H 
BRANCH   9  12
ATOM     12  C   LIG d   1       3.539  -1.623  -3.104  0.00  0.00     0.059 C 
ATOM     13  O   LIG d   1       3.590  -2.569  -2.355  0.00  0.00    -0.548 OA
ATOM     14  O   LIG d   1       2.489  -0.787  -3.060  0.00  0.00    -0.548 OA
ENDBRANCH   9  12
ENDBRANCH   7   9
ENDBRANCH   2   5
BRANCH   1  15
ATOM     15  C   LIG d   1       2.523  -0.703  -9.697  0.00  0.00     0.128 A 
ATOM     16  C   LIG d   1       1.214  -0.730 -10.134  0.00  0.00    -0.017 A 
ATOM     17  C   LIG d   1       1.250  -1.129 -11.479  0.00  0.00    -0.023 A 
ATOM     18  H   LIG d   1       0.335  -0.490  -9.555  0.00  0.00     0.066 H 
ATOM     19  C   LIG d   1       2.547  -1.333 -11.801  0.00  0.00     0.092 A 
ATOM     20  H   LIG d   1       0.400  -1.252 -12.133  0.00  0.00     0.065 H 
ATOM     21  O   LIG d   1       3.309  -1.076 -10.729  0.00  0.00    -0.464 OA
ATOM     22  H   LIG d   1       2.910  -1.650 -12.767  0.00  0.00     0.103 H 
ENDBRANCH   1  15
TORSDOF 4
ENDMDL
MODEL 7
REMARK VINA RESULT:      -4.3      2.779      6.527
REMARK  4 active torsions:
REMARK  status: ('A' for Active; 'I' for Inactive)
REMARK    1  A    between atoms: C_3  and  C_6 
REMARK    2  A    between atoms: C_7  and  C_8 
REMARK       I    between atoms: C_8  and  N_10 
REMARK    3  A    between atoms: N_10  and  C_11 
REMARK    4  A    between atoms: C_11  and  C_12 
ROOT
ATOM      1  C   LIG d   1       2.277   0.177  -9.024  0.00  0.00    -0.015 C 
ATOM      2  C   LIG d   1       2.851  -0.428  -7.954  0.00  0.00     0.004 C 
ATOM      3  H   LIG d   1       1.887   1.180  -8.932  0.00  0.00     0.066 H 
ATOM      4  H   LIG d   1       3.240  -1.431  -8.045  0.00  0.00     0.067 H 
ENDROOT
BRANCH   2   5
ATOM      5  C   LIG d   1       2.939   0.255  -6.717  0.00  0.00     0.237 C 
ATOM      6  O   LIG d   1       2.917   1.473  -6.692  0.00  0.00    -0.271 OA
ATOM      7  N   LIG d   1       3.048  -0.442  -5.569  0.00  0.00    -0.307 N 
ATOM      8  H   LIG d   1       3.065  -1.411  -5.589  0.00  0.00     0.149 HD
BRANCH   7   9
ATOM      9  C   LIG d   1       3.140   0.266  -4.289  0.00  0.00     0.051 C 
ATOM     10  H   LIG d   1       2.917   1.322  -4.441  0.00  0.00     0.052 H 
ATOM     11  H   LIG d   1       2.424  -0.159  -3.586  0.00  0.00     0.052 H 
BRANCH   9  12
ATOM     12  C   LIG d   1       4.534   0.122  -3.735  0.00  0.00     0.059 C 
ATOM     13  O   LIG d   1       5.474   0.587  -4.336  0.00  0.00    -0.548 OA
ATOM     14  O   LIG d   1       4.732  -0.522  -2.574  0.00  0.00    -0.548 OA
ENDBRANCH   9  12
ENDBRANCH   7   9
ENDBRANCH   2   5
BRANCH   1  15
ATOM     15  C   LIG d   1       2.183  -0.509 -10.258  0.00  0.00     0.128 A 
ATOM     16  C   LIG d   1       3.002  -0.325 -11.354  0.00  0.00    -0.017 A 
ATOM     17  C   LIG d   1       2.548  -1.210 -12.344  0.00  0.00    -0.023 A 
ATOM     18  H   LIG d   1       3.831   0.362 -11.434  0.00  0.00     0.066 H 
ATOM     19  C   LIG d   1       1.490  -1.876 -11.830  0.00  0.00     0.092 A 
ATOM     20  H   LIG d   1       2.964  -1.333 -13.333  0.00  0.00     0.065 H 
ATOM     21  O   LIG d   1       1.273  -1.453 -10.577  0.00  0.00    -0.464 OA
ATOM     22  H   LIG d   1       0.913  -2.630 -12.346  0.00  0.00     0.103 H 
ENDBRANCH   1  15
TORSDOF 4
ENDMDL
MODEL 8
REMARK VINA RESULT:      -4.3      5.068      6.673
REMARK  4 active torsions:
REMARK  status: ('A' for Active; 'I' for Inactive)
REMARK    1  A    between atoms: C_3  and  C_6 
REMARK    2  A    between atoms: C_7  and  C_8 
REMARK       I    between atoms: C_8  and  N_10 
REMARK    3  A    between atoms: N_10  and  C_11 
REMARK    4  A    between atoms: C_11  and  C_12 
ROOT
ATOM      1  C   LIG d   1       5.648  -2.438  -3.915  0.00  0.00    -0.015 C 
ATOM      2  C   LIG d   1       4.643  -3.256  -4.317  0.00  0.00     0.004 C 
ATOM      3  H   LIG d   1       6.674  -2.697  -4.132  0.00  0.00     0.066 H 
ATOM      4  H   LIG d   1       3.617  -2.997  -4.099  0.00  0.00     0.067 H 
ENDROOT
BRANCH   2   5
ATOM      5  C   LIG d   1       4.938  -4.449  -5.018  0.00  0.00     0.237 C 
ATOM      6  O   LIG d   1       4.074  -5.293  -5.174  0.00  0.00    -0.271 OA
ATOM      7  N   LIG d   1       6.176  -4.651  -5.512  0.00  0.00    -0.307 N 
ATOM      8  H   LIG d   1       6.864  -3.979  -5.387  0.00  0.00     0.149 HD
BRANCH   7   9
ATOM      9  C   LIG d   1       6.482  -5.887  -6.237  0.00  0.00     0.051 C 
ATOM     10  H   LIG d   1       5.554  -6.347  -6.578  0.00  0.00     0.052 H 
ATOM     11  H   LIG d   1       7.111  -5.658  -7.097  0.00  0.00     0.052 H 
BRANCH   9  12
ATOM     12  C   LIG d   1       7.208  -6.839  -5.322  0.00  0.00     0.059 C 
ATOM     13  O   LIG d   1       6.653  -7.834  -4.921  0.00  0.00    -0.548 OA
ATOM     14  O   LIG d   1       8.474  -6.582  -4.953  0.00  0.00    -0.548 OA
ENDBRANCH   9  12
ENDBRANCH   7   9
ENDBRANCH   2   5
BRANCH   1  15
ATOM     15  C   LIG d   1       5.353  -1.248  -3.209  0.00  0.00     0.128 A 
ATOM     16  C   LIG d   1       4.461  -1.123  -2.163  0.00  0.00    -0.017 A 
ATOM     17  C   LIG d   1       4.490   0.225  -1.773  0.00  0.00    -0.023 A 
ATOM     18  H   LIG d   1       3.859  -1.908  -1.730  0.00  0.00     0.066 H 
ATOM     19  C   LIG d   1       5.371   0.856  -2.580  0.00  0.00     0.092 A 
ATOM     20  H   LIG d   1       3.914   0.673  -0.977  0.00  0.00     0.065 H 
ATOM     21  O   LIG d   1       5.888  -0.030  -3.442  0.00  0.00    -0.464 OA
ATOM     22  H   LIG d   1       5.620   1.906  -2.536  0.00  0.00     0.103 H 
ENDBRANCH   1  15
TORSDOF 4
ENDMDL
MODEL 9
REMARK VINA RESULT:      -4.3      4.799      7.373
REMARK  4 active torsions:
REMARK  status: ('A' for Active; 'I' for Inactive)
REMARK    1  A    between atoms: C_3  and  C_6 
REMARK    2  A    between atoms: C_7  and  C_8 
REMARK       I    between atoms: C_8  and  N_10 
REMARK    3  A    between atoms: N_10  and  C_11 
REMARK    4  A    between atoms: C_11  and  C_12 
ROOT
ATOM      1  C   LIG d   1       2.394  -0.827 -10.670  0.00  0.00    -0.015 C 
ATOM      2  C   LIG d   1       1.834  -1.795  -9.902  0.00  0.00     0.004 C 
ATOM      3  H   LIG d   1       2.521  -0.985 -11.730  0.00  0.00     0.066 H 
ATOM      4  H   LIG d   1       1.707  -1.637  -8.841  0.00  0.00     0.067 H 
ENDROOT
BRANCH   2   5
ATOM      5  C   LIG d   1       1.418  -3.013 -10.491  0.00  0.00     0.237 C 
ATOM      6  O   LIG d   1       2.173  -3.622 -11.228  0.00  0.00    -0.271 OA
ATOM      7  N   LIG d   1       0.186  -3.498 -10.238  0.00  0.00    -0.307 N 
ATOM      8  H   LIG d   1      -0.415  -3.013  -9.651  0.00  0.00     0.149 HD
BRANCH   7   9
ATOM      9  C   LIG d   1      -0.244  -4.759 -10.848  0.00  0.00     0.051 C 
ATOM     10  H   LIG d   1      -0.648  -4.562 -11.841  0.00  0.00     0.052 H 
ATOM     11  H   LIG d   1       0.609  -5.433 -10.929  0.00  0.00     0.052 H 
BRANCH   9  12
ATOM     12  C   LIG d   1      -1.307  -5.395  -9.990  0.00  0.00     0.059 C 
ATOM     13  O   LIG d   1      -2.434  -4.960 -10.003  0.00  0.00    -0.548 OA
ATOM     14  O   LIG d   1      -1.002  -6.446  -9.212  0.00  0.00    -0.548 OA
ENDBRANCH   9  12
ENDBRANCH   7   9
ENDBRANCH   2   5
BRANCH   1  15
ATOM     15  C   LIG d   1       2.815   0.389 -10.079  0.00  0.00     0.128 A 
ATOM     16  C   LIG d   1       3.715   1.285 -10.618  0.00  0.00    -0.017 A 
ATOM     17  C   LIG d   1       3.830   2.338  -9.697  0.00  0.00    -0.023 A 
ATOM     18  H   LIG d   1       4.229   1.195 -11.564  0.00  0.00     0.066 H 
ATOM     19  C   LIG d   1       3.022   2.046  -8.654  0.00  0.00     0.092 A 
ATOM     20  H   LIG d   1       4.451   3.215  -9.802  0.00  0.00     0.065 H 
ATOM     21  O   LIG d   1       2.414   0.875  -8.886  0.00  0.00    -0.464 OA
ATOM     22  H   LIG d   1       2.887   2.660  -7.775  0.00  0.00     0.103 H 
ENDBRANCH   1  15
TORSDOF 4
ENDMDL
MODEL 10
REMARK VINA RESULT:      -4.3     15.700     16.923
REMARK  4 active torsions:
REMARK  status: ('A' for Active; 'I' for Inactive)
REMARK    1  A    between atoms: C_3  and  C_6 
REMARK    2  A    between atoms: C_7  and  C_8 
REMARK       I    between atoms: C_8  and  N_10 
REMARK    3  A    between atoms: N_10  and  C_11 
REMARK    4  A    between atoms: C_11  and  C_12 
ROOT
ATOM      1  C   LIG d   1      10.913   6.884   7.205  0.00  0.00    -0.015 C 
ATOM      2  C   LIG d   1      11.115   6.619   5.889  0.00  0.00     0.004 C 
ATOM      3  H   LIG d   1      11.100   7.876   7.590  0.00  0.00     0.066 H 
ATOM      4  H   LIG d   1      10.929   5.627   5.504  0.00  0.00     0.067 H 
ENDROOT
BRANCH   2   5
ATOM      5  C   LIG d   1      11.571   7.641   5.023  0.00  0.00     0.237 C 
ATOM      6  O   LIG d   1      11.528   7.481   3.816  0.00  0.00    -0.271 OA
ATOM      7  N   LIG d   1      12.053   8.792   5.534  0.00  0.00    -0.307 N 
ATOM      8  H   LIG d   1      12.087   8.920   6.495  0.00  0.00     0.149 HD
BRANCH   7   9
ATOM      9  C   LIG d   1      12.526   9.849   4.637  0.00  0.00     0.051 C 
ATOM     10  H   LIG d   1      13.480   9.556   4.200  0.00  0.00     0.052 H 
ATOM     11  H   LIG d   1      11.795  10.006   3.843  0.00  0.00     0.052 H 
BRANCH   9  12
ATOM     12  C   LIG d   1      12.701  11.127   5.416  0.00  0.00     0.059 C 
ATOM     13  O   LIG d   1      13.028  12.142   4.847  0.00  0.00    -0.548 OA
ATOM     14  O   LIG d   1      12.493  11.138   6.743  0.00  0.00    -0.548 OA
ENDBRANCH   9  12
ENDBRANCH   7   9
ENDBRANCH   2   5
BRANCH   1  15
ATOM     15  C   LIG d   1      10.463   5.861   8.072  0.00  0.00     0.128 A 
ATOM     16  C   LIG d   1       9.454   5.972   9.007  0.00  0.00    -0.017 A 
ATOM     17  C   LIG d   1       9.349   4.721   9.632  0.00  0.00    -0.023 A 
ATOM     18  H   LIG d   1       8.861   6.850   9.215  0.00  0.00     0.066 H 
ATOM     19  C   LIG d   1      10.280   3.915   9.074  0.00  0.00     0.092 A 
ATOM     20  H   LIG d   1       8.655   4.452  10.415  0.00  0.00     0.065 H 
ATOM     21  O   LIG d   1      10.948   4.603   8.138  0.00  0.00    -0.464 OA
ATOM     22  H   LIG d   1      10.457   2.883   9.340  0.00  0.00     0.103 H 
ENDBRANCH   1  15
TORSDOF 4
ENDMDL
