MODEL 1
REMARK VINA RESULT:      -7.2      0.000      0.000
REMARK  8 active torsions:
REMARK  status: ('A' for Active; 'I' for Inactive)
REMARK    1  A    between atoms: C_1  and  N_2 
REMARK    2  A    between atoms: N_2  and  C_3 
REMARK    3  A    between atoms: N_2  and  C_4 
REMARK    4  A    between atoms: C_7  and  C_10 
REMARK    5  A    between atoms: C_10  and  N_11 
REMARK    6  A    between atoms: C_20  and  C_22 
REMARK    7  A    between atoms: C_24  and  C_27 
REMARK    8  A    between atoms: C_31  and  N_33 
ROOT
ATOM      1  N   LIG d   1      11.022   3.367  -4.065  0.00  0.00    -0.279 N 
ATOM      2  C   LIG d   1      12.386   3.914  -4.154  0.00  0.00     0.066 C 
ATOM      3  C   LIG d   1      13.361   2.813  -3.815  0.00  0.00     0.159 A 
ATOM      4  C   LIG d   1      13.027   1.504  -3.809  0.00  0.00     0.148 A 
ATOM      5  N   LIG d   1      14.140   0.807  -3.459  0.00  0.00    -0.247 N 
ATOM      6  H   LIG d   1      14.215  -0.155  -3.368  0.00  0.00     0.310 HD
ATOM      7  C   LIG d   1      15.127   1.714  -3.263  0.00  0.00     0.243 A 
ATOM      8  N   LIG d   1      14.648   2.912  -3.480  0.00  0.00    -0.246 N 
ATOM      9  C   LIG d   1      11.649   0.994  -4.145  0.00  0.00     0.037 C 
ATOM     10  C   LIG d   1      10.886   2.129  -4.844  0.00  0.00     0.098 C 
ATOM     11  H   LIG d   1      11.298   2.280  -5.843  0.00  0.00     0.057 H 
ATOM     12  H   LIG d   1      12.574   4.272  -5.167  0.00  0.00     0.051 H 
ATOM     13  H   LIG d   1      12.500   4.736  -3.447  0.00  0.00     0.051 H 
ATOM     14  H   LIG d   1      16.143   1.485  -2.974  0.00  0.00     0.158 H 
ATOM     15  H   LIG d   1      11.725   0.135  -4.811  0.00  0.00     0.037 H 
ATOM     16  H   LIG d   1      11.128   0.708  -3.230  0.00  0.00     0.037 H 
ATOM     17  H   LIG d   1      15.149   3.739  -3.408  0.00  0.00     0.310 HD
ENDROOT
BRANCH   1  18
ATOM     18  C   LIG d   1      10.027   4.364  -4.484  0.00  0.00     0.025 C 
ATOM     19  H   LIG d   1       9.043   3.898  -4.525  0.00  0.00     0.048 H 
ATOM     20  H   LIG d   1      10.289   4.747  -5.470  0.00  0.00     0.048 H 
BRANCH  18  21
ATOM     21  C   LIG d   1      10.005   5.498  -3.491  0.00  0.00    -0.033 A 
ATOM     22  C   LIG d   1       9.933   6.805  -3.940  0.00  0.00    -0.056 A 
ATOM     23  C   LIG d   1       9.911   7.846  -3.034  0.00  0.00    -0.040 A 
ATOM     24  H   LIG d   1       9.891   7.010  -4.999  0.00  0.00     0.062 H 
ATOM     25  C   LIG d   1       9.963   7.582  -1.671  0.00  0.00     0.029 A 
ATOM     26  H   LIG d   1       9.854   8.867  -3.384  0.00  0.00     0.064 H 
ATOM     27  C   LIG d   1      10.042   6.269  -1.224  0.00  0.00    -0.040 A 
ATOM     28  C   LIG d   1      10.057   5.231  -2.136  0.00  0.00    -0.056 A 
ATOM     29  H   LIG d   1      10.087   6.059  -0.167  0.00  0.00     0.064 H 
ATOM     30  H   LIG d   1      10.113   4.209  -1.789  0.00  0.00     0.062 H 
BRANCH  25  31
ATOM     31  N   LIG d   1       9.942   8.633  -0.752  0.00  0.00    -0.336 N 
BRANCH  31  32
ATOM     32  C   LIG d   1      11.033   8.784   0.214  0.00  0.00     0.000 C 
ATOM     33  H   LIG d   1      10.921   9.730   0.744  0.00  0.00     0.043 H 
ATOM     34  H   LIG d   1      11.001   7.962   0.929  0.00  0.00     0.043 H 
ATOM     35  H   LIG d   1      11.987   8.772  -0.312  0.00  0.00     0.043 H 
ENDBRANCH  31  32
BRANCH  31  36
ATOM     36  C   LIG d   1       8.828   9.585  -0.754  0.00  0.00     0.000 C 
ATOM     37  H   LIG d   1       7.889   9.047  -0.881  0.00  0.00     0.043 H 
ATOM     38  H   LIG d   1       8.812  10.126   0.194  0.00  0.00     0.043 H 
ATOM     39  H   LIG d   1       8.956  10.293  -1.573  0.00  0.00     0.043 H 
ENDBRANCH  31  36
ENDBRANCH  25  31
ENDBRANCH  18  21
ENDBRANCH   1  18
BRANCH  10  40
ATOM     40  C   LIG d   1       9.429   1.761  -4.953  0.00  0.00     0.245 A 
ATOM     41  O   LIG d   1       8.690   1.810  -6.068  0.00  0.00    -0.336 OA
ATOM     42  N   LIG d   1       7.388   1.376  -5.706  0.00  0.00    -0.056 NA
ATOM     43  C   LIG d   1       7.429   1.109  -4.424  0.00  0.00     0.202 A 
ATOM     44  N   LIG d   1       8.674   1.346  -3.975  0.00  0.00    -0.190 NA
BRANCH  43  45
ATOM     45  C   LIG d   1       6.290   0.625  -3.604  0.00  0.00     0.029 A 
ATOM     46  C   LIG d   1       5.803  -0.667  -3.778  0.00  0.00     0.026 A 
ATOM     47  C   LIG d   1       4.747  -1.115  -3.007  0.00  0.00     0.274 A 
ATOM     48  H   LIG d   1       6.252  -1.321  -4.511  0.00  0.00     0.069 H 
ATOM     49  C   LIG d   1       4.167  -0.276  -2.073  0.00  0.00     0.016 A 
ATOM     50  C   LIG d   1       4.644   1.010  -1.899  0.00  0.00    -0.055 A 
ATOM     51  H   LIG d   1       3.339  -0.628  -1.475  0.00  0.00     0.069 H 
ATOM     52  C   LIG d   1       5.702   1.465  -2.659  0.00  0.00    -0.051 A 
ATOM     53  H   LIG d   1       4.187   1.661  -1.168  0.00  0.00     0.062 H 
ATOM     54  H   LIG d   1       6.075   2.470  -2.523  0.00  0.00     0.062 H 
BRANCH  47  55
ATOM     55  N   LIG d   1       4.232  -2.490  -3.186  0.00  0.00     0.080 N 
ATOM     56  O   LIG d   1       4.473  -3.098  -4.203  0.00  0.00     0.041 OA
ATOM     57  O   LIG d   1       3.572  -3.007  -2.315  0.00  0.00    -0.576 OA
ENDBRANCH  47  55
ENDBRANCH  43  45
ENDBRANCH  10  40
TORSDOF 8
ENDMDL
MODEL 2
REMARK VINA RESULT:      -7.1      3.471      6.508
REMARK  8 active torsions:
REMARK  status: ('A' for Active; 'I' for Inactive)
REMARK    1  A    between atoms: C_1  and  N_2 
REMARK    2  A    between atoms: N_2  and  C_3 
REMARK    3  A    between atoms: N_2  and  C_4 
REMARK    4  A    between atoms: C_7  and  C_10 
REMARK    5  A    between atoms: C_10  and  N_11 
REMARK    6  A    between atoms: C_20  and  C_22 
REMARK    7  A    between atoms: C_24  and  C_27 
REMARK    8  A    between atoms: C_31  and  N_33 
ROOT
ATOM      1  N   LIG d   1       9.141   3.297  -7.347  0.00  0.00    -0.279 N 
ATOM      2  C   LIG d   1       9.920   4.224  -8.185  0.00  0.00     0.066 C 
ATOM      3  C   LIG d   1      10.021   5.544  -7.463  0.00  0.00     0.159 A 
ATOM      4  C   LIG d   1       9.761   5.691  -6.144  0.00  0.00     0.148 A 
ATOM      5  N   LIG d   1       9.949   7.002  -5.841  0.00  0.00    -0.247 N 
ATOM      6  H   LIG d   1       9.838   7.415  -4.971  0.00  0.00     0.310 HD
ATOM      7  C   LIG d   1      10.321   7.621  -6.985  0.00  0.00     0.243 A 
ATOM      8  N   LIG d   1      10.362   6.739  -7.950  0.00  0.00    -0.246 N 
ATOM      9  C   LIG d   1       9.348   4.552  -5.246  0.00  0.00     0.037 C 
ATOM     10  C   LIG d   1       9.666   3.239  -5.975  0.00  0.00     0.098 C 
ATOM     11  H   LIG d   1      10.747   3.094  -6.006  0.00  0.00     0.057 H 
ATOM     12  H   LIG d   1      10.919   3.818  -8.350  0.00  0.00     0.051 H 
ATOM     13  H   LIG d   1       9.417   4.365  -9.142  0.00  0.00     0.051 H 
ATOM     14  H   LIG d   1      10.548   8.673  -7.086  0.00  0.00     0.158 H 
ATOM     15  H   LIG d   1       9.904   4.600  -4.310  0.00  0.00     0.037 H 
ATOM     16  H   LIG d   1       8.278   4.612  -5.044  0.00  0.00     0.037 H 
ATOM     17  H   LIG d   1      10.602   6.922  -8.871  0.00  0.00     0.310 HD
ENDROOT
BRANCH   1  18
ATOM     18  C   LIG d   1       9.092   1.957  -7.948  0.00  0.00     0.025 C 
ATOM     19  H   LIG d   1       9.547   1.238  -7.269  0.00  0.00     0.048 H 
ATOM     20  H   LIG d   1       9.639   1.962  -8.891  0.00  0.00     0.048 H 
BRANCH  18  21
ATOM     21  C   LIG d   1       7.657   1.573  -8.200  0.00  0.00    -0.033 A 
ATOM     22  C   LIG d   1       6.819   2.441  -8.876  0.00  0.00    -0.056 A 
ATOM     23  C   LIG d   1       5.504   2.092  -9.110  0.00  0.00    -0.040 A 
ATOM     24  H   LIG d   1       7.194   3.393  -9.223  0.00  0.00     0.062 H 
ATOM     25  C   LIG d   1       5.022   0.867  -8.666  0.00  0.00     0.029 A 
ATOM     26  H   LIG d   1       4.850   2.770  -9.639  0.00  0.00     0.064 H 
ATOM     27  C   LIG d   1       5.865  -0.000  -7.982  0.00  0.00    -0.040 A 
ATOM     28  C   LIG d   1       7.181   0.354  -7.756  0.00  0.00    -0.056 A 
ATOM     29  H   LIG d   1       5.493  -0.951  -7.630  0.00  0.00     0.064 H 
ATOM     30  H   LIG d   1       7.838  -0.323  -7.229  0.00  0.00     0.062 H 
BRANCH  25  31
ATOM     31  N   LIG d   1       3.692   0.511  -8.900  0.00  0.00    -0.336 N 
BRANCH  31  32
ATOM     32  C   LIG d   1       3.172   0.481 -10.269  0.00  0.00     0.000 C 
ATOM     33  H   LIG d   1       3.488  -0.441 -10.758  0.00  0.00     0.043 H 
ATOM     34  H   LIG d   1       2.083   0.524 -10.245  0.00  0.00     0.043 H 
ATOM     35  H   LIG d   1       3.558   1.336 -10.823  0.00  0.00     0.043 H 
ENDBRANCH  31  32
BRANCH  31  36
ATOM     36  C   LIG d   1       2.817   0.167  -7.776  0.00  0.00     0.000 C 
ATOM     37  H   LIG d   1       3.421  -0.188  -6.941  0.00  0.00     0.043 H 
ATOM     38  H   LIG d   1       2.256   1.050  -7.470  0.00  0.00     0.043 H 
ATOM     39  H   LIG d   1       2.124  -0.617  -8.082  0.00  0.00     0.043 H 
ENDBRANCH  31  36
ENDBRANCH  25  31
ENDBRANCH  18  21
ENDBRANCH   1  18
BRANCH  10  40
ATOM     40  C   LIG d   1       9.026   2.090  -5.241  0.00  0.00     0.245 A 
ATOM     41  O   LIG d   1       9.589   0.897  -5.010  0.00  0.00    -0.336 OA
ATOM     42  N   LIG d   1       8.633   0.135  -4.289  0.00  0.00    -0.056 NA
ATOM     43  C   LIG d   1       7.580   0.901  -4.145  0.00  0.00     0.202 A 
ATOM     44  N   LIG d   1       7.829   2.087  -4.727  0.00  0.00    -0.190 NA
BRANCH  43  45
ATOM     45  C   LIG d   1       6.322   0.522  -3.454  0.00  0.00     0.029 A 
ATOM     46  C   LIG d   1       5.818  -0.770  -3.579  0.00  0.00     0.026 A 
ATOM     47  C   LIG d   1       4.650  -1.119  -2.929  0.00  0.00     0.274 A 
ATOM     48  H   LIG d   1       6.341  -1.499  -4.179  0.00  0.00     0.069 H 
ATOM     49  C   LIG d   1       3.977  -0.184  -2.165  0.00  0.00     0.016 A 
ATOM     50  C   LIG d   1       4.469   1.102  -2.041  0.00  0.00    -0.055 A 
ATOM     51  H   LIG d   1       3.061  -0.459  -1.661  0.00  0.00     0.069 H 
ATOM     52  C   LIG d   1       5.639   1.459  -2.681  0.00  0.00    -0.051 A 
ATOM     53  H   LIG d   1       3.940   1.829  -1.443  0.00  0.00     0.062 H 
ATOM     54  H   LIG d   1       6.024   2.464  -2.584  0.00  0.00     0.062 H 
BRANCH  47  55
ATOM     55  N   LIG d   1       4.117  -2.493  -3.055  0.00  0.00     0.080 N 
ATOM     56  O   LIG d   1       4.315  -3.128  -4.064  0.00  0.00     0.041 OA
ATOM     57  O   LIG d   1       3.483  -2.981  -2.148  0.00  0.00    -0.576 OA
ENDBRANCH  47  55
ENDBRANCH  43  45
ENDBRANCH  10  40
TORSDOF 8
ENDMDL
MODEL 3
REMARK VINA RESULT:      -6.9      6.268      9.977
REMARK  8 active torsions:
REMARK  status: ('A' for Active; 'I' for Inactive)
REMARK    1  A    between atoms: C_1  and  N_2 
REMARK    2  A    between atoms: N_2  and  C_3 
REMARK    3  A    between atoms: N_2  and  C_4 
REMARK    4  A    between atoms: C_7  and  C_10 
REMARK    5  A    between atoms: C_10  and  N_11 
REMARK    6  A    between atoms: C_20  and  C_22 
REMARK    7  A    between atoms: C_24  and  C_27 
REMARK    8  A    between atoms: C_31  and  N_33 
ROOT
ATOM      1  N   LIG d   1       3.704  -0.387 -10.953  0.00  0.00    -0.279 N 
ATOM      2  C   LIG d   1       3.587  -0.556 -12.412  0.00  0.00     0.066 C 
ATOM      3  C   LIG d   1       2.431  -1.486 -12.689  0.00  0.00     0.159 A 
ATOM      4  C   LIG d   1       1.480  -1.780 -11.774  0.00  0.00     0.148 A 
ATOM      5  N   LIG d   1       0.609  -2.641 -12.363  0.00  0.00    -0.247 N 
ATOM      6  H   LIG d   1      -0.179  -3.032 -11.957  0.00  0.00     0.310 HD
ATOM      7  C   LIG d   1       1.052  -2.847 -13.626  0.00  0.00     0.243 A 
ATOM      8  N   LIG d   1       2.143  -2.149 -13.810  0.00  0.00    -0.246 N 
ATOM      9  C   LIG d   1       1.463  -1.211 -10.379  0.00  0.00     0.037 C 
ATOM     10  C   LIG d   1       2.419  -0.009 -10.349  0.00  0.00     0.098 C 
ATOM     11  H   LIG d   1       1.981   0.816 -10.913  0.00  0.00     0.057 H 
ATOM     12  H   LIG d   1       3.401   0.410 -12.880  0.00  0.00     0.051 H 
ATOM     13  H   LIG d   1       4.507  -0.987 -12.807  0.00  0.00     0.051 H 
ATOM     14  H   LIG d   1       0.581  -3.483 -14.361  0.00  0.00     0.158 H 
ATOM     15  H   LIG d   1       0.454  -0.886 -10.124  0.00  0.00     0.037 H 
ATOM     16  H   LIG d   1       1.799  -1.967  -9.667  0.00  0.00     0.037 H 
ATOM     17  H   LIG d   1       2.661  -2.119 -14.629  0.00  0.00     0.310 HD
ENDROOT
BRANCH   1  18
ATOM     18  C   LIG d   1       4.750   0.590 -10.619  0.00  0.00     0.025 C 
ATOM     19  H   LIG d   1       4.289   1.490 -10.215  0.00  0.00     0.048 H 
ATOM     20  H   LIG d   1       5.312   0.841 -11.518  0.00  0.00     0.048 H 
BRANCH  18  21
ATOM     21  C   LIG d   1       5.680  -0.004  -9.592  0.00  0.00    -0.033 A 
ATOM     22  C   LIG d   1       6.271   0.813  -8.644  0.00  0.00    -0.056 A 
ATOM     23  C   LIG d   1       7.122   0.272  -7.701  0.00  0.00    -0.040 A 
ATOM     24  H   LIG d   1       6.065   1.873  -8.641  0.00  0.00     0.062 H 
ATOM     25  C   LIG d   1       7.386  -1.091  -7.705  0.00  0.00     0.029 A 
ATOM     26  H   LIG d   1       7.583   0.910  -6.960  0.00  0.00     0.064 H 
ATOM     27  C   LIG d   1       6.795  -1.907  -8.662  0.00  0.00    -0.040 A 
ATOM     28  C   LIG d   1       5.940  -1.361  -9.599  0.00  0.00    -0.056 A 
ATOM     29  H   LIG d   1       7.001  -2.967  -8.671  0.00  0.00     0.064 H 
ATOM     30  H   LIG d   1       5.477  -1.996 -10.341  0.00  0.00     0.062 H 
BRANCH  25  31
ATOM     31  N   LIG d   1       8.247  -1.641  -6.752  0.00  0.00    -0.336 N 
BRANCH  31  32
ATOM     32  C   LIG d   1       8.750  -0.812  -5.654  0.00  0.00     0.000 C 
ATOM     33  H   LIG d   1       8.702  -1.376  -4.722  0.00  0.00     0.043 H 
ATOM     34  H   LIG d   1       9.783  -0.530  -5.855  0.00  0.00     0.043 H 
ATOM     35  H   LIG d   1       8.138   0.086  -5.567  0.00  0.00     0.043 H 
ENDBRANCH  31  32
BRANCH  31  36
ATOM     36  C   LIG d   1       8.648  -3.047  -6.852  0.00  0.00     0.000 C 
ATOM     37  H   LIG d   1       9.453  -3.145  -7.579  0.00  0.00     0.043 H 
ATOM     38  H   LIG d   1       8.993  -3.395  -5.877  0.00  0.00     0.043 H 
ATOM     39  H   LIG d   1       7.795  -3.646  -7.170  0.00  0.00     0.043 H 
ENDBRANCH  31  36
ENDBRANCH  25  31
ENDBRANCH  18  21
ENDBRANCH   1  18
BRANCH  10  40
ATOM     40  C   LIG d   1       2.641   0.420  -8.923  0.00  0.00     0.245 A 
ATOM     41  O   LIG d   1       2.629   1.681  -8.473  0.00  0.00    -0.336 OA
ATOM     42  N   LIG d   1       2.880   1.613  -7.078  0.00  0.00    -0.056 NA
ATOM     43  C   LIG d   1       3.030   0.343  -6.790  0.00  0.00     0.202 A 
ATOM     44  N   LIG d   1       2.883  -0.374  -7.918  0.00  0.00    -0.190 NA
BRANCH  43  45
ATOM     45  C   LIG d   1       3.314  -0.211  -5.442  0.00  0.00     0.029 A 
ATOM     46  C   LIG d   1       4.476  -0.945  -5.220  0.00  0.00     0.026 A 
ATOM     47  C   LIG d   1       4.739  -1.454  -3.963  0.00  0.00     0.274 A 
ATOM     48  H   LIG d   1       5.172  -1.114  -6.028  0.00  0.00     0.069 H 
ATOM     49  C   LIG d   1       3.845  -1.243  -2.929  0.00  0.00     0.016 A 
ATOM     50  C   LIG d   1       2.687  -0.519  -3.145  0.00  0.00    -0.055 A 
ATOM     51  H   LIG d   1       4.052  -1.646  -1.949  0.00  0.00     0.069 H 
ATOM     52  C   LIG d   1       2.418  -0.001  -4.396  0.00  0.00    -0.051 A 
ATOM     53  H   LIG d   1       1.992  -0.357  -2.334  0.00  0.00     0.062 H 
ATOM     54  H   LIG d   1       1.513   0.566  -4.564  0.00  0.00     0.062 H 
BRANCH  47  55
ATOM     55  N   LIG d   1       5.976  -2.229  -3.723  0.00  0.00     0.080 N 
ATOM     56  O   LIG d   1       6.788  -1.837  -2.918  0.00  0.00     0.041 OA
ATOM     57  O   LIG d   1       6.174  -3.255  -4.332  0.00  0.00    -0.576 OA
ENDBRANCH  47  55
ENDBRANCH  43  45
ENDBRANCH  10  40
TORSDOF 8
ENDMDL
MODEL 4
REMARK VINA RESULT:      -6.7      6.095      9.602
REMARK  8 active torsions:
REMARK  status: ('A' for Active; 'I' for Inactive)
REMARK    1  A    between atoms: C_1  and  N_2 
REMARK    2  A    between atoms: N_2  and  C_3 
REMARK    3  A    between atoms: N_2  and  C_4 
REMARK    4  A    between atoms: C_7  and  C_10 
REMARK    5  A    between atoms: C_10  and  N_11 
REMARK    6  A    between atoms: C_20  and  C_22 
REMARK    7  A    between atoms: C_24  and  C_27 
REMARK    8  A    between atoms: C_31  and  N_33 
ROOT
ATOM      1  N   LIG d   1      10.939   6.749  -2.771  0.00  0.00    -0.279 N 
ATOM      2  C   LIG d   1      11.427   5.401  -2.433  0.00  0.00     0.066 C 
ATOM      3  C   LIG d   1      12.805   5.534  -1.833  0.00  0.00     0.159 A 
ATOM      4  C   LIG d   1      13.301   6.701  -1.365  0.00  0.00     0.148 A 
ATOM      5  N   LIG d   1      14.555   6.449  -0.906  0.00  0.00    -0.247 N 
ATOM      6  H   LIG d   1      15.165   7.091  -0.511  0.00  0.00     0.310 HD
ATOM      7  C   LIG d   1      14.790   5.130  -1.105  0.00  0.00     0.243 A 
ATOM      8  N   LIG d   1      13.735   4.593  -1.660  0.00  0.00    -0.246 N 
ATOM      9  C   LIG d   1      12.534   7.998  -1.383  0.00  0.00     0.037 C 
ATOM     10  C   LIG d   1      11.054   7.666  -1.629  0.00  0.00     0.098 C 
ATOM     11  H   LIG d   1      10.637   7.193  -0.739  0.00  0.00     0.057 H 
ATOM     12  H   LIG d   1      10.755   4.937  -1.711  0.00  0.00     0.051 H 
ATOM     13  H   LIG d   1      11.476   4.791  -3.335  0.00  0.00     0.051 H 
ATOM     14  H   LIG d   1      15.700   4.608  -0.848  0.00  0.00     0.158 H 
ATOM     15  H   LIG d   1      12.644   8.506  -0.425  0.00  0.00     0.037 H 
ATOM     16  H   LIG d   1      12.907   8.636  -2.186  0.00  0.00     0.037 H 
ATOM     17  H   LIG d   1      13.642   3.659  -1.907  0.00  0.00     0.310 HD
ENDROOT
BRANCH   1  18
ATOM     18  C   LIG d   1       9.556   6.698  -3.267  0.00  0.00     0.025 C 
ATOM     19  H   LIG d   1       8.995   7.540  -2.861  0.00  0.00     0.048 H 
ATOM     20  H   LIG d   1       9.091   5.765  -2.952  0.00  0.00     0.048 H 
BRANCH  18  21
ATOM     21  C   LIG d   1       9.561   6.776  -4.772  0.00  0.00    -0.033 A 
ATOM     22  C   LIG d   1       9.843   5.647  -5.520  0.00  0.00    -0.056 A 
ATOM     23  C   LIG d   1       9.846   5.714  -6.899  0.00  0.00    -0.040 A 
ATOM     24  H   LIG d   1      10.059   4.712  -5.024  0.00  0.00     0.062 H 
ATOM     25  C   LIG d   1       9.566   6.916  -7.536  0.00  0.00     0.029 A 
ATOM     26  H   LIG d   1      10.066   4.831  -7.483  0.00  0.00     0.064 H 
ATOM     27  C   LIG d   1       9.290   8.050  -6.782  0.00  0.00    -0.040 A 
ATOM     28  C   LIG d   1       9.283   7.974  -5.402  0.00  0.00    -0.056 A 
ATOM     29  H   LIG d   1       9.077   8.988  -7.272  0.00  0.00     0.064 H 
ATOM     30  H   LIG d   1       9.062   8.855  -4.815  0.00  0.00     0.062 H 
BRANCH  25  31
ATOM     31  N   LIG d   1       9.570   6.988  -8.930  0.00  0.00    -0.336 N 
BRANCH  31  32
ATOM     32  C   LIG d   1      10.400   7.985  -9.611  0.00  0.00     0.000 C 
ATOM     33  H   LIG d   1      10.717   7.594 -10.578  0.00  0.00     0.043 H 
ATOM     34  H   LIG d   1       9.823   8.898  -9.760  0.00  0.00     0.043 H 
ATOM     35  H   LIG d   1      11.276   8.204  -9.002  0.00  0.00     0.043 H 
ENDBRANCH  31  32
BRANCH  31  36
ATOM     36  C   LIG d   1       8.743   6.066  -9.713  0.00  0.00     0.000 C 
ATOM     37  H   LIG d   1       7.886   5.750  -9.117  0.00  0.00     0.043 H 
ATOM     38  H   LIG d   1       8.393   6.569 -10.615  0.00  0.00     0.043 H 
ATOM     39  H   LIG d   1       9.335   5.193  -9.990  0.00  0.00     0.043 H 
ENDBRANCH  31  36
ENDBRANCH  25  31
ENDBRANCH  18  21
ENDBRANCH   1  18
BRANCH  10  40
ATOM     40  C   LIG d   1      10.298   8.935  -1.925  0.00  0.00     0.245 A 
ATOM     41  O   LIG d   1       9.236   9.390  -1.248  0.00  0.00    -0.336 OA
ATOM     42  N   LIG d   1       8.856  10.608  -1.869  0.00  0.00    -0.056 NA
ATOM     43  C   LIG d   1       9.691  10.795  -2.861  0.00  0.00     0.202 A 
ATOM     44  N   LIG d   1      10.564   9.773  -2.887  0.00  0.00    -0.190 NA
BRANCH  43  45
ATOM     45  C   LIG d   1       9.676  11.945  -3.801  0.00  0.00     0.029 A 
ATOM     46  C   LIG d   1       9.620  11.724  -5.174  0.00  0.00     0.026 A 
ATOM     47  C   LIG d   1       9.600  12.798  -6.043  0.00  0.00     0.274 A 
ATOM     48  H   LIG d   1       9.587  10.716  -5.559  0.00  0.00     0.069 H 
ATOM     49  C   LIG d   1       9.648  14.089  -5.551  0.00  0.00     0.016 A 
ATOM     50  C   LIG d   1       9.709  14.314  -4.188  0.00  0.00    -0.055 A 
ATOM     51  H   LIG d   1       9.636  14.925  -6.234  0.00  0.00     0.069 H 
ATOM     52  C   LIG d   1       9.723  13.248  -3.311  0.00  0.00    -0.051 A 
ATOM     53  H   LIG d   1       9.746  15.324  -3.809  0.00  0.00     0.062 H 
ATOM     54  H   LIG d   1       9.771  13.425  -2.245  0.00  0.00     0.062 H 
BRANCH  47  55
ATOM     55  N   LIG d   1       9.533  12.565  -7.503  0.00  0.00     0.080 N 
ATOM     56  O   LIG d   1       9.885  11.504  -7.962  0.00  0.00     0.041 OA
ATOM     57  O   LIG d   1       9.125  13.436  -8.236  0.00  0.00    -0.576 OA
ENDBRANCH  47  55
ENDBRANCH  43  45
ENDBRANCH  10  40
TORSDOF 8
ENDMDL
MODEL 5
REMARK VINA RESULT:      -6.7      2.075      2.771
REMARK  8 active torsions:
REMARK  status: ('A' for Active; 'I' for Inactive)
REMARK    1  A    between atoms: C_1  and  N_2 
REMARK    2  A    between atoms: N_2  and  C_3 
REMARK    3  A    between atoms: N_2  and  C_4 
REMARK    4  A    between atoms: C_7  and  C_10 
REMARK    5  A    between atoms: C_10  and  N_11 
REMARK    6  A    between atoms: C_20  and  C_22 
REMARK    7  A    between atoms: C_24  and  C_27 
REMARK    8  A    between atoms: C_31  and  N_33 
ROOT
ATOM      1  N   LIG d   1      10.687   4.288  -4.179  0.00  0.00    -0.279 N 
ATOM      2  C   LIG d   1      11.175   5.671  -4.314  0.00  0.00     0.066 C 
ATOM      3  C   LIG d   1      11.355   5.967  -5.783  0.00  0.00     0.159 A 
ATOM      4  C   LIG d   1      10.805   5.217  -6.763  0.00  0.00     0.148 A 
ATOM      5  N   LIG d   1      11.176   5.770  -7.948  0.00  0.00    -0.247 N 
ATOM      6  H   LIG d   1      10.937   5.455  -8.833  0.00  0.00     0.310 HD
ATOM      7  C   LIG d   1      11.943   6.848  -7.656  0.00  0.00     0.243 A 
ATOM      8  N   LIG d   1      12.042   6.956  -6.357  0.00  0.00    -0.246 N 
ATOM      9  C   LIG d   1       9.947   4.006  -6.503  0.00  0.00     0.037 C 
ATOM     10  C   LIG d   1       9.514   4.044  -5.030  0.00  0.00     0.098 C 
ATOM     11  H   LIG d   1       8.788   4.845  -4.886  0.00  0.00     0.057 H 
ATOM     12  H   LIG d   1      10.448   6.361  -3.887  0.00  0.00     0.051 H 
ATOM     13  H   LIG d   1      12.130   5.776  -3.798  0.00  0.00     0.051 H 
ATOM     14  H   LIG d   1      12.398   7.509  -8.379  0.00  0.00     0.158 H 
ATOM     15  H   LIG d   1       9.068   4.031  -7.146  0.00  0.00     0.037 H 
ATOM     16  H   LIG d   1      10.521   3.099  -6.696  0.00  0.00     0.037 H 
ATOM     17  H   LIG d   1      12.537   7.644  -5.885  0.00  0.00     0.310 HD
ENDROOT
BRANCH   1  18
ATOM     18  C   LIG d   1      10.394   3.969  -2.774  0.00  0.00     0.025 C 
ATOM     19  H   LIG d   1      11.112   3.234  -2.412  0.00  0.00     0.048 H 
ATOM     20  H   LIG d   1       9.386   3.561  -2.698  0.00  0.00     0.048 H 
BRANCH  18  21
ATOM     21  C   LIG d   1      10.494   5.222  -1.943  0.00  0.00    -0.033 A 
ATOM     22  C   LIG d   1       9.576   6.242  -2.120  0.00  0.00    -0.056 A 
ATOM     23  C   LIG d   1       9.664   7.390  -1.359  0.00  0.00    -0.040 A 
ATOM     24  H   LIG d   1       8.789   6.139  -2.852  0.00  0.00     0.062 H 
ATOM     25  C   LIG d   1      10.676   7.522  -0.416  0.00  0.00     0.029 A 
ATOM     26  H   LIG d   1       8.947   8.187  -1.496  0.00  0.00     0.064 H 
ATOM     27  C   LIG d   1      11.600   6.499  -0.246  0.00  0.00    -0.040 A 
ATOM     28  C   LIG d   1      11.503   5.350  -1.007  0.00  0.00    -0.056 A 
ATOM     29  H   LIG d   1      12.391   6.599   0.482  0.00  0.00     0.064 H 
ATOM     30  H   LIG d   1      12.218   4.551  -0.871  0.00  0.00     0.062 H 
BRANCH  25  31
ATOM     31  N   LIG d   1      10.769   8.683   0.355  0.00  0.00    -0.336 N 
BRANCH  31  32
ATOM     32  C   LIG d   1      11.640   8.713   1.532  0.00  0.00     0.000 C 
ATOM     33  H   LIG d   1      12.110   9.694   1.611  0.00  0.00     0.043 H 
ATOM     34  H   LIG d   1      11.049   8.521   2.427  0.00  0.00     0.043 H 
ATOM     35  H   LIG d   1      12.411   7.949   1.433  0.00  0.00     0.043 H 
ENDBRANCH  31  32
BRANCH  31  36
ATOM     36  C   LIG d   1       9.995   9.871  -0.014  0.00  0.00     0.000 C 
ATOM     37  H   LIG d   1       9.364  10.168   0.824  0.00  0.00     0.043 H 
ATOM     38  H   LIG d   1      10.676  10.686  -0.263  0.00  0.00     0.043 H 
ATOM     39  H   LIG d   1       9.370   9.644  -0.878  0.00  0.00     0.043 H 
ENDBRANCH  31  36
ENDBRANCH  25  31
ENDBRANCH  18  21
ENDBRANCH   1  18
BRANCH  10  40
ATOM     40  C   LIG d   1       8.888   2.726  -4.657  0.00  0.00     0.245 A 
ATOM     41  O   LIG d   1       9.455   1.521  -4.799  0.00  0.00    -0.336 OA
ATOM     42  N   LIG d   1       8.513   0.575  -4.319  0.00  0.00    -0.056 NA
ATOM     43  C   LIG d   1       7.463   1.258  -3.935  0.00  0.00     0.202 A 
ATOM     44  N   LIG d   1       7.701   2.565  -4.145  0.00  0.00    -0.190 NA
BRANCH  43  45
ATOM     45  C   LIG d   1       6.218   0.684  -3.365  0.00  0.00     0.029 A 
ATOM     46  C   LIG d   1       5.890  -0.648  -3.602  0.00  0.00     0.026 A 
ATOM     47  C   LIG d   1       4.734  -1.178  -3.064  0.00  0.00     0.274 A 
ATOM     48  H   LIG d   1       6.541  -1.267  -4.202  0.00  0.00     0.069 H 
ATOM     49  C   LIG d   1       3.897  -0.384  -2.301  0.00  0.00     0.016 A 
ATOM     50  C   LIG d   1       4.216   0.941  -2.066  0.00  0.00    -0.055 A 
ATOM     51  H   LIG d   1       2.992  -0.801  -1.885  0.00  0.00     0.069 H 
ATOM     52  C   LIG d   1       5.372   1.479  -2.594  0.00  0.00    -0.051 A 
ATOM     53  H   LIG d   1       3.559   1.557  -1.469  0.00  0.00     0.062 H 
ATOM     54  H   LIG d   1       5.621   2.514  -2.410  0.00  0.00     0.062 H 
BRANCH  47  55
ATOM     55  N   LIG d   1       4.387  -2.595  -3.309  0.00  0.00     0.080 N 
ATOM     56  O   LIG d   1       4.838  -3.170  -4.272  0.00  0.00     0.041 OA
ATOM     57  O   LIG d   1       3.652  -3.179  -2.546  0.00  0.00    -0.576 OA
ENDBRANCH  47  55
ENDBRANCH  43  45
ENDBRANCH  10  40
TORSDOF 8
ENDMDL
MODEL 6
REMARK VINA RESULT:      -6.6      3.493      6.461
REMARK  8 active torsions:
REMARK  status: ('A' for Active; 'I' for Inactive)
REMARK    1  A    between atoms: C_1  and  N_2 
REMARK    2  A    between atoms: N_2  and  C_3 
REMARK    3  A    between atoms: N_2  and  C_4 
REMARK    4  A    between atoms: C_7  and  C_10 
REMARK    5  A    between atoms: C_10  and  N_11 
REMARK    6  A    between atoms: C_20  and  C_22 
REMARK    7  A    between atoms: C_24  and  C_27 
REMARK    8  A    between atoms: C_31  and  N_33 
ROOT
ATOM      1  N   LIG d   1       9.472   1.898  -6.829  0.00  0.00    -0.279 N 
ATOM      2  C   LIG d   1      10.514   2.755  -7.419  0.00  0.00     0.066 C 
ATOM      3  C   LIG d   1      10.860   3.833  -6.423  0.00  0.00     0.159 A 
ATOM      4  C   LIG d   1      10.532   3.766  -5.113  0.00  0.00     0.148 A 
ATOM      5  N   LIG d   1      10.996   4.900  -4.524  0.00  0.00    -0.247 N 
ATOM      6  H   LIG d   1      10.912   5.140  -3.589  0.00  0.00     0.310 HD
ATOM      7  C   LIG d   1      11.599   5.628  -5.493  0.00  0.00     0.243 A 
ATOM      8  N   LIG d   1      11.512   4.979  -6.625  0.00  0.00    -0.246 N 
ATOM      9  C   LIG d   1       9.790   2.607  -4.500  0.00  0.00     0.037 C 
ATOM     10  C   LIG d   1       9.851   1.433  -5.488  0.00  0.00     0.098 C 
ATOM     11  H   LIG d   1      10.866   1.035  -5.515  0.00  0.00     0.057 H 
ATOM     12  H   LIG d   1      11.400   2.158  -7.638  0.00  0.00     0.051 H 
ATOM     13  H   LIG d   1      10.141   3.209  -8.337  0.00  0.00     0.051 H 
ATOM     14  H   LIG d   1      12.073   6.589  -5.354  0.00  0.00     0.158 H 
ATOM     15  H   LIG d   1      10.261   2.322  -3.559  0.00  0.00     0.037 H 
ATOM     16  H   LIG d   1       8.750   2.886  -4.323  0.00  0.00     0.037 H 
ATOM     17  H   LIG d   1      11.864   5.283  -7.476  0.00  0.00     0.310 HD
ENDROOT
BRANCH   1  18
ATOM     18  C   LIG d   1       9.160   0.765  -7.711  0.00  0.00     0.025 C 
ATOM     19  H   LIG d   1       9.328  -0.169  -7.174  0.00  0.00     0.048 H 
ATOM     20  H   LIG d   1       9.805   0.799  -8.589  0.00  0.00     0.048 H 
BRANCH  18  21
ATOM     21  C   LIG d   1       7.718   0.845  -8.141  0.00  0.00    -0.033 A 
ATOM     22  C   LIG d   1       6.905  -0.270  -8.040  0.00  0.00    -0.056 A 
ATOM     23  C   LIG d   1       5.583  -0.199  -8.432  0.00  0.00    -0.040 A 
ATOM     24  H   LIG d   1       7.305  -1.196  -7.653  0.00  0.00     0.062 H 
ATOM     25  C   LIG d   1       5.069   0.992  -8.928  0.00  0.00     0.029 A 
ATOM     26  H   LIG d   1       4.948  -1.070  -8.352  0.00  0.00     0.064 H 
ATOM     27  C   LIG d   1       5.890   2.108  -9.034  0.00  0.00    -0.040 A 
ATOM     28  C   LIG d   1       7.210   2.032  -8.635  0.00  0.00    -0.056 A 
ATOM     29  H   LIG d   1       5.496   3.034  -9.424  0.00  0.00     0.064 H 
ATOM     30  H   LIG d   1       7.848   2.901  -8.712  0.00  0.00     0.062 H 
BRANCH  25  31
ATOM     31  N   LIG d   1       3.733   1.067  -9.326  0.00  0.00    -0.336 N 
BRANCH  31  32
ATOM     32  C   LIG d   1       2.811   1.969  -8.631  0.00  0.00     0.000 C 
ATOM     33  H   LIG d   1       3.010   1.938  -7.560  0.00  0.00     0.043 H 
ATOM     34  H   LIG d   1       2.953   2.986  -8.998  0.00  0.00     0.043 H 
ATOM     35  H   LIG d   1       1.785   1.655  -8.820  0.00  0.00     0.043 H 
ENDBRANCH  31  32
BRANCH  31  36
ATOM     36  C   LIG d   1       3.252   0.243 -10.438  0.00  0.00     0.000 C 
ATOM     37  H   LIG d   1       4.023   0.186 -11.207  0.00  0.00     0.043 H 
ATOM     38  H   LIG d   1       3.026  -0.761 -10.075  0.00  0.00     0.043 H 
ATOM     39  H   LIG d   1       2.351   0.689 -10.858  0.00  0.00     0.043 H 
ENDBRANCH  31  36
ENDBRANCH  25  31
ENDBRANCH  18  21
ENDBRANCH   1  18
BRANCH  10  40
ATOM     40  C   LIG d   1       8.900   0.353  -5.043  0.00  0.00     0.245 A 
ATOM     41  O   LIG d   1       9.180  -0.954  -4.967  0.00  0.00    -0.336 OA
ATOM     42  N   LIG d   1       8.000  -1.591  -4.502  0.00  0.00    -0.056 NA
ATOM     43  C   LIG d   1       7.107  -0.646  -4.341  0.00  0.00     0.202 A 
ATOM     44  N   LIG d   1       7.663   0.532  -4.673  0.00  0.00    -0.190 NA
BRANCH  43  45
ATOM     45  C   LIG d   1       5.712  -0.843  -3.871  0.00  0.00     0.029 A 
ATOM     46  C   LIG d   1       4.669  -0.137  -4.463  0.00  0.00     0.026 A 
ATOM     47  C   LIG d   1       3.373  -0.329  -4.026  0.00  0.00     0.274 A 
ATOM     48  H   LIG d   1       4.872   0.556  -5.266  0.00  0.00     0.069 H 
ATOM     49  C   LIG d   1       3.113  -1.212  -2.994  0.00  0.00     0.016 A 
ATOM     50  C   LIG d   1       4.146  -1.913  -2.399  0.00  0.00    -0.055 A 
ATOM     51  H   LIG d   1       2.099  -1.356  -2.653  0.00  0.00     0.069 H 
ATOM     52  C   LIG d   1       5.444  -1.733  -2.832  0.00  0.00    -0.051 A 
ATOM     53  H   LIG d   1       3.937  -2.601  -1.594  0.00  0.00     0.062 H 
ATOM     54  H   LIG d   1       6.251  -2.281  -2.367  0.00  0.00     0.062 H 
BRANCH  47  55
ATOM     55  N   LIG d   1       2.262   0.416  -4.659  0.00  0.00     0.080 N 
ATOM     56  O   LIG d   1       2.441   1.542  -5.060  0.00  0.00     0.041 OA
ATOM     57  O   LIG d   1       1.175  -0.102  -4.775  0.00  0.00    -0.576 OA
ENDBRANCH  47  55
ENDBRANCH  43  45
ENDBRANCH  10  40
TORSDOF 8
ENDMDL
MODEL 7
REMARK VINA RESULT:      -6.6      8.807     11.873
REMARK  8 active torsions:
REMARK  status: ('A' for Active; 'I' for Inactive)
REMARK    1  A    between atoms: C_1  and  N_2 
REMARK    2  A    between atoms: N_2  and  C_3 
REMARK    3  A    between atoms: N_2  and  C_4 
REMARK    4  A    between atoms: C_7  and  C_10 
REMARK    5  A    between atoms: C_10  and  N_11 
REMARK    6  A    between atoms: C_20  and  C_22 
REMARK    7  A    between atoms: C_24  and  C_27 
REMARK    8  A    between atoms: C_31  and  N_33 
ROOT
ATOM      1  N   LIG d   1      11.226  -8.358  -0.864  0.00  0.00    -0.279 N 
ATOM      2  C   LIG d   1      12.385  -7.918  -0.070  0.00  0.00     0.066 C 
ATOM      3  C   LIG d   1      12.095  -8.194   1.385  0.00  0.00     0.159 A 
ATOM      4  C   LIG d   1      11.116  -9.028   1.800  0.00  0.00     0.148 A 
ATOM      5  N   LIG d   1      11.142  -9.033   3.159  0.00  0.00    -0.247 N 
ATOM      6  H   LIG d   1      10.557  -9.536   3.746  0.00  0.00     0.310 HD
ATOM      7  C   LIG d   1      12.141  -8.200   3.536  0.00  0.00     0.243 A 
ATOM      8  N   LIG d   1      12.705  -7.705   2.466  0.00  0.00    -0.246 N 
ATOM      9  C   LIG d   1      10.209  -9.780   0.860  0.00  0.00     0.037 C 
ATOM     10  C   LIG d   1      10.842  -9.739  -0.538  0.00  0.00     0.098 C 
ATOM     11  H   LIG d   1      11.727 -10.375  -0.554  0.00  0.00     0.057 H 
ATOM     12  H   LIG d   1      13.273  -8.471  -0.378  0.00  0.00     0.051 H 
ATOM     13  H   LIG d   1      12.547  -6.850  -0.216  0.00  0.00     0.051 H 
ATOM     14  H   LIG d   1      12.425  -7.981   4.556  0.00  0.00     0.158 H 
ATOM     15  H   LIG d   1      10.110 -10.814   1.190  0.00  0.00     0.037 H 
ATOM     16  H   LIG d   1       9.227  -9.305   0.836  0.00  0.00     0.037 H 
ATOM     17  H   LIG d   1      13.447  -7.081   2.458  0.00  0.00     0.310 HD
ENDROOT
BRANCH   1  18
ATOM     18  C   LIG d   1      11.486  -8.210  -2.302  0.00  0.00     0.025 C 
ATOM     19  H   LIG d   1      11.311  -9.162  -2.803  0.00  0.00     0.048 H 
ATOM     20  H   LIG d   1      12.521  -7.905  -2.455  0.00  0.00     0.048 H 
BRANCH  18  21
ATOM     21  C   LIG d   1      10.564  -7.164  -2.874  0.00  0.00    -0.033 A 
ATOM     22  C   LIG d   1      10.419  -5.947  -2.232  0.00  0.00    -0.056 A 
ATOM     23  C   LIG d   1       9.577  -4.986  -2.754  0.00  0.00    -0.040 A 
ATOM     24  H   LIG d   1      10.968  -5.748  -1.323  0.00  0.00     0.062 H 
ATOM     25  C   LIG d   1       8.872  -5.242  -3.924  0.00  0.00     0.029 A 
ATOM     26  H   LIG d   1       9.464  -4.036  -2.253  0.00  0.00     0.064 H 
ATOM     27  C   LIG d   1       9.015  -6.468  -4.563  0.00  0.00    -0.040 A 
ATOM     28  C   LIG d   1       9.864  -7.423  -4.038  0.00  0.00    -0.056 A 
ATOM     29  H   LIG d   1       8.466  -6.673  -5.469  0.00  0.00     0.064 H 
ATOM     30  H   LIG d   1       9.980  -8.374  -4.537  0.00  0.00     0.062 H 
BRANCH  25  31
ATOM     31  N   LIG d   1       8.018  -4.273  -4.454  0.00  0.00    -0.336 N 
BRANCH  31  32
ATOM     32  C   LIG d   1       7.125  -4.611  -5.565  0.00  0.00     0.000 C 
ATOM     33  H   LIG d   1       7.217  -3.858  -6.347  0.00  0.00     0.043 H 
ATOM     34  H   LIG d   1       7.398  -5.587  -5.966  0.00  0.00     0.043 H 
ATOM     35  H   LIG d   1       6.096  -4.640  -5.207  0.00  0.00     0.043 H 
ENDBRANCH  31  32
BRANCH  31  36
ATOM     36  C   LIG d   1       8.015  -2.917  -3.899  0.00  0.00     0.000 C 
ATOM     37  H   LIG d   1       6.991  -2.618  -3.674  0.00  0.00     0.043 H 
ATOM     38  H   LIG d   1       8.608  -2.898  -2.984  0.00  0.00     0.043 H 
ATOM     39  H   LIG d   1       8.445  -2.226  -4.625  0.00  0.00     0.043 H 
ENDBRANCH  31  36
ENDBRANCH  25  31
ENDBRANCH  18  21
ENDBRANCH   1  18
BRANCH  10  40
ATOM     40  C   LIG d   1       9.847 -10.236  -1.554  0.00  0.00     0.245 A 
ATOM     41  O   LIG d   1      10.087 -11.148  -2.505  0.00  0.00    -0.336 OA
ATOM     42  N   LIG d   1       8.874 -11.309  -3.223  0.00  0.00    -0.056 NA
ATOM     43  C   LIG d   1       8.006 -10.496  -2.672  0.00  0.00     0.202 A 
ATOM     44  N   LIG d   1       8.607  -9.848  -1.659  0.00  0.00    -0.190 NA
BRANCH  43  45
ATOM     45  C   LIG d   1       6.595 -10.320  -3.097  0.00  0.00     0.029 A 
ATOM     46  C   LIG d   1       6.278  -9.424  -4.115  0.00  0.00     0.026 A 
ATOM     47  C   LIG d   1       4.964  -9.268  -4.511  0.00  0.00     0.274 A 
ATOM     48  H   LIG d   1       7.059  -8.855  -4.598  0.00  0.00     0.069 H 
ATOM     49  C   LIG d   1       3.963  -9.992  -3.889  0.00  0.00     0.016 A 
ATOM     50  C   LIG d   1       4.270 -10.879  -2.874  0.00  0.00    -0.055 A 
ATOM     51  H   LIG d   1       2.936  -9.864  -4.198  0.00  0.00     0.069 H 
ATOM     52  C   LIG d   1       5.581 -11.047  -2.476  0.00  0.00    -0.051 A 
ATOM     53  H   LIG d   1       3.485 -11.442  -2.392  0.00  0.00     0.062 H 
ATOM     54  H   LIG d   1       5.821 -11.741  -1.683  0.00  0.00     0.062 H 
BRANCH  47  55
ATOM     55  N   LIG d   1       4.627  -8.322  -5.597  0.00  0.00     0.080 N 
ATOM     56  O   LIG d   1       4.620  -7.133  -5.382  0.00  0.00     0.041 OA
ATOM     57  O   LIG d   1       4.358  -8.739  -6.700  0.00  0.00    -0.576 OA
ENDBRANCH  47  55
ENDBRANCH  43  45
ENDBRANCH  10  40
TORSDOF 8
ENDMDL
MODEL 8
REMARK VINA RESULT:      -6.5      2.776      3.916
REMARK  8 active torsions:
REMARK  status: ('A' for Active; 'I' for Inactive)
REMARK    1  A    between atoms: C_1  and  N_2 
REMARK    2  A    between atoms: N_2  and  C_3 
REMARK    3  A    between atoms: N_2  and  C_4 
REMARK    4  A    between atoms: C_7  and  C_10 
REMARK    5  A    between atoms: C_10  and  N_11 
REMARK    6  A    between atoms: C_20  and  C_22 
REMARK    7  A    between atoms: C_24  and  C_27 
REMARK    8  A    between atoms: C_31  and  N_33 
ROOT
ATOM      1  N   LIG d   1       9.686   5.470  -3.593  0.00  0.00    -0.279 N 
ATOM      2  C   LIG d   1      10.725   6.506  -3.462  0.00  0.00     0.066 C 
ATOM      3  C   LIG d   1      11.712   6.056  -2.414  0.00  0.00     0.159 A 
ATOM      4  C   LIG d   1      11.802   4.779  -1.979  0.00  0.00     0.148 A 
ATOM      5  N   LIG d   1      12.787   4.742  -1.043  0.00  0.00    -0.247 N 
ATOM      6  H   LIG d   1      13.084   3.963  -0.549  0.00  0.00     0.310 HD
ATOM      7  C   LIG d   1      13.275   6.001  -0.935  0.00  0.00     0.243 A 
ATOM      8  N   LIG d   1      12.624   6.778  -1.761  0.00  0.00    -0.246 N 
ATOM      9  C   LIG d   1      10.932   3.662  -2.494  0.00  0.00     0.037 C 
ATOM     10  C   LIG d   1      10.275   4.139  -3.797  0.00  0.00     0.098 C 
ATOM     11  H   LIG d   1      11.028   4.192  -4.584  0.00  0.00     0.057 H 
ATOM     12  H   LIG d   1      11.236   6.637  -4.416  0.00  0.00     0.051 H 
ATOM     13  H   LIG d   1      10.268   7.448  -3.156  0.00  0.00     0.051 H 
ATOM     14  H   LIG d   1      14.071   6.311  -0.273  0.00  0.00     0.158 H 
ATOM     15  H   LIG d   1      11.541   2.779  -2.689  0.00  0.00     0.037 H 
ATOM     16  H   LIG d   1      10.162   3.425  -1.758  0.00  0.00     0.037 H 
ATOM     17  H   LIG d   1      12.779   7.728  -1.880  0.00  0.00     0.310 HD
ENDROOT
BRANCH   1  18
ATOM     18  C   LIG d   1       8.746   5.801  -4.673  0.00  0.00     0.025 C 
ATOM     19  H   LIG d   1       7.901   6.352  -4.262  0.00  0.00     0.048 H 
ATOM     20  H   LIG d   1       8.389   4.882  -5.137  0.00  0.00     0.048 H 
BRANCH  18  21
ATOM     21  C   LIG d   1       9.445   6.648  -5.705  0.00  0.00    -0.033 A 
ATOM     22  C   LIG d   1       9.252   8.017  -5.718  0.00  0.00    -0.056 A 
ATOM     23  C   LIG d   1       9.893   8.797  -6.660  0.00  0.00    -0.040 A 
ATOM     24  H   LIG d   1       8.602   8.478  -4.989  0.00  0.00     0.062 H 
ATOM     25  C   LIG d   1      10.731   8.205  -7.597  0.00  0.00     0.029 A 
ATOM     26  H   LIG d   1       9.742   9.867  -6.670  0.00  0.00     0.064 H 
ATOM     27  C   LIG d   1      10.918   6.828  -7.585  0.00  0.00    -0.040 A 
ATOM     28  C   LIG d   1      10.278   6.055  -6.635  0.00  0.00    -0.056 A 
ATOM     29  H   LIG d   1      11.564   6.363  -8.313  0.00  0.00     0.064 H 
ATOM     30  H   LIG d   1      10.428   4.985  -6.622  0.00  0.00     0.062 H 
BRANCH  25  31
ATOM     31  N   LIG d   1      11.379   8.990  -8.552  0.00  0.00    -0.336 N 
BRANCH  31  32
ATOM     32  C   LIG d   1      12.310  10.040  -8.129  0.00  0.00     0.000 C 
ATOM     33  H   LIG d   1      11.876  11.017  -8.343  0.00  0.00     0.043 H 
ATOM     34  H   LIG d   1      12.495   9.951  -7.059  0.00  0.00     0.043 H 
ATOM     35  H   LIG d   1      13.249   9.932  -8.671  0.00  0.00     0.043 H 
ENDBRANCH  31  32
BRANCH  31  36
ATOM     36  C   LIG d   1      11.130   8.764  -9.978  0.00  0.00     0.000 C 
ATOM     37  H   LIG d   1      10.152   8.299 -10.107  0.00  0.00     0.043 H 
ATOM     38  H   LIG d   1      11.151   9.718 -10.506  0.00  0.00     0.043 H 
ATOM     39  H   LIG d   1      11.901   8.108 -10.383  0.00  0.00     0.043 H 
ENDBRANCH  31  36
ENDBRANCH  25  31
ENDBRANCH  18  21
ENDBRANCH   1  18
BRANCH  10  40
ATOM     40  C   LIG d   1       9.195   3.169  -4.199  0.00  0.00     0.245 A 
ATOM     41  O   LIG d   1       8.889   2.813  -5.453  0.00  0.00    -0.336 OA
ATOM     42  N   LIG d   1       7.821   1.884  -5.358  0.00  0.00    -0.056 NA
ATOM     43  C   LIG d   1       7.556   1.752  -4.081  0.00  0.00     0.202 A 
ATOM     44  N   LIG d   1       8.397   2.537  -3.385  0.00  0.00    -0.190 NA
BRANCH  43  45
ATOM     45  C   LIG d   1       6.504   0.881  -3.501  0.00  0.00     0.029 A 
ATOM     46  C   LIG d   1       6.379  -0.440  -3.921  0.00  0.00     0.026 A 
ATOM     47  C   LIG d   1       5.402  -1.248  -3.373  0.00  0.00     0.274 A 
ATOM     48  H   LIG d   1       7.048  -0.834  -4.672  0.00  0.00     0.069 H 
ATOM     49  C   LIG d   1       4.541  -0.742  -2.416  0.00  0.00     0.016 A 
ATOM     50  C   LIG d   1       4.657   0.571  -1.998  0.00  0.00    -0.055 A 
ATOM     51  H   LIG d   1       3.775  -1.375  -1.993  0.00  0.00     0.069 H 
ATOM     52  C   LIG d   1       5.634   1.385  -2.535  0.00  0.00    -0.051 A 
ATOM     53  H   LIG d   1       3.982   0.961  -1.251  0.00  0.00     0.062 H 
ATOM     54  H   LIG d   1       5.725   2.410  -2.208  0.00  0.00     0.062 H 
BRANCH  47  55
ATOM     55  N   LIG d   1       5.272  -2.654  -3.814  0.00  0.00     0.080 N 
ATOM     56  O   LIG d   1       6.207  -3.210  -4.341  0.00  0.00     0.041 OA
ATOM     57  O   LIG d   1       4.231  -3.247  -3.647  0.00  0.00    -0.576 OA
ENDBRANCH  47  55
ENDBRANCH  43  45
ENDBRANCH  10  40
TORSDOF 8
ENDMDL
MODEL 9
REMARK VINA RESULT:      -6.4      3.975      7.176
REMARK  8 active torsions:
REMARK  status: ('A' for Active; 'I' for Inactive)
REMARK    1  A    between atoms: C_1  and  N_2 
REMARK    2  A    between atoms: N_2  and  C_3 
REMARK    3  A    between atoms: N_2  and  C_4 
REMARK    4  A    between atoms: C_7  and  C_10 
REMARK    5  A    between atoms: C_10  and  N_11 
REMARK    6  A    between atoms: C_20  and  C_22 
REMARK    7  A    between atoms: C_24  and  C_27 
REMARK    8  A    between atoms: C_31  and  N_33 
ROOT
ATOM      1  N   LIG d   1       9.247   3.014  -8.027  0.00  0.00    -0.279 N 
ATOM      2  C   LIG d   1       9.803   4.081  -8.876  0.00  0.00     0.066 C 
ATOM      3  C   LIG d   1       9.879   5.346  -8.056  0.00  0.00     0.159 A 
ATOM      4  C   LIG d   1       9.801   5.361  -6.707  0.00  0.00     0.148 A 
ATOM      5  N   LIG d   1       9.903   6.658  -6.314  0.00  0.00    -0.247 N 
ATOM      6  H   LIG d   1       9.881   6.988  -5.402  0.00  0.00     0.310 HD
ATOM      7  C   LIG d   1      10.044   7.400  -7.437  0.00  0.00     0.243 A 
ATOM      8  N   LIG d   1      10.029   6.604  -8.474  0.00  0.00    -0.246 N 
ATOM      9  C   LIG d   1       9.634   4.119  -5.869  0.00  0.00     0.037 C 
ATOM     10  C   LIG d   1       9.969   2.908  -6.751  0.00  0.00     0.098 C 
ATOM     11  H   LIG d   1      11.042   2.884  -6.942  0.00  0.00     0.057 H 
ATOM     12  H   LIG d   1      10.801   3.801  -9.212  0.00  0.00     0.051 H 
ATOM     13  H   LIG d   1       9.155   4.241  -9.738  0.00  0.00     0.051 H 
ATOM     14  H   LIG d   1      10.151   8.475  -7.471  0.00  0.00     0.158 H 
ATOM     15  H   LIG d   1      10.314   4.155  -5.017  0.00  0.00     0.037 H 
ATOM     16  H   LIG d   1       8.604   4.047  -5.517  0.00  0.00     0.037 H 
ATOM     17  H   LIG d   1      10.113   6.882  -9.399  0.00  0.00     0.310 HD
ENDROOT
BRANCH   1  18
ATOM     18  C   LIG d   1       9.240   1.727  -8.736  0.00  0.00     0.025 C 
ATOM     19  H   LIG d   1       9.606   0.945  -8.072  0.00  0.00     0.048 H 
ATOM     20  H   LIG d   1       9.886   1.791  -9.612  0.00  0.00     0.048 H 
BRANCH  18  21
ATOM     21  C   LIG d   1       7.834   1.401  -9.170  0.00  0.00    -0.033 A 
ATOM     22  C   LIG d   1       6.776   2.161  -8.706  0.00  0.00    -0.056 A 
ATOM     23  C   LIG d   1       5.487   1.866  -9.103  0.00  0.00    -0.040 A 
ATOM     24  H   LIG d   1       6.958   2.987  -8.034  0.00  0.00     0.062 H 
ATOM     25  C   LIG d   1       5.253   0.805  -9.968  0.00  0.00     0.029 A 
ATOM     26  H   LIG d   1       4.660   2.460  -8.741  0.00  0.00     0.064 H 
ATOM     27  C   LIG d   1       6.317   0.039 -10.428  0.00  0.00    -0.040 A 
ATOM     28  C   LIG d   1       7.605   0.344 -10.031  0.00  0.00    -0.056 A 
ATOM     29  H   LIG d   1       6.140  -0.789 -11.096  0.00  0.00     0.064 H 
ATOM     30  H   LIG d   1       8.435  -0.248 -10.392  0.00  0.00     0.062 H 
BRANCH  25  31
ATOM     31  N   LIG d   1       3.950   0.503 -10.371  0.00  0.00    -0.336 N 
BRANCH  31  32
ATOM     32  C   LIG d   1       2.827   0.744  -9.461  0.00  0.00     0.000 C 
ATOM     33  H   LIG d   1       1.932   0.969 -10.041  0.00  0.00     0.043 H 
ATOM     34  H   LIG d   1       2.654  -0.145  -8.855  0.00  0.00     0.043 H 
ATOM     35  H   LIG d   1       3.061   1.587  -8.811  0.00  0.00     0.043 H 
ENDBRANCH  31  32
BRANCH  31  36
ATOM     36  C   LIG d   1       3.706  -0.054 -11.704  0.00  0.00     0.000 C 
ATOM     37  H   LIG d   1       4.575   0.123 -12.337  0.00  0.00     0.043 H 
ATOM     38  H   LIG d   1       3.529  -1.127 -11.622  0.00  0.00     0.043 H 
ATOM     39  H   LIG d   1       2.831   0.426 -12.144  0.00  0.00     0.043 H 
ENDBRANCH  31  36
ENDBRANCH  25  31
ENDBRANCH  18  21
ENDBRANCH   1  18
BRANCH  10  40
ATOM     40  C   LIG d   1       9.556   1.643  -6.044  0.00  0.00     0.245 A 
ATOM     41  O   LIG d   1      10.304   0.541  -5.911  0.00  0.00    -0.336 OA
ATOM     42  N   LIG d   1       9.521  -0.389  -5.179  0.00  0.00    -0.056 NA
ATOM     43  C   LIG d   1       8.377   0.200  -4.933  0.00  0.00     0.202 A 
ATOM     44  N   LIG d   1       8.408   1.435  -5.464  0.00  0.00    -0.190 NA
BRANCH  43  45
ATOM     45  C   LIG d   1       7.237  -0.396  -4.193  0.00  0.00     0.029 A 
ATOM     46  C   LIG d   1       6.384   0.416  -3.451  0.00  0.00     0.026 A 
ATOM     47  C   LIG d   1       5.320  -0.143  -2.770  0.00  0.00     0.274 A 
ATOM     48  H   LIG d   1       6.550   1.483  -3.412  0.00  0.00     0.069 H 
ATOM     49  C   LIG d   1       5.111  -1.509  -2.815  0.00  0.00     0.016 A 
ATOM     50  C   LIG d   1       5.958  -2.322  -3.546  0.00  0.00    -0.055 A 
ATOM     51  H   LIG d   1       4.281  -1.944  -2.277  0.00  0.00     0.069 H 
ATOM     52  C   LIG d   1       7.019  -1.772  -4.235  0.00  0.00    -0.051 A 
ATOM     53  H   LIG d   1       5.789  -3.388  -3.577  0.00  0.00     0.062 H 
ATOM     54  H   LIG d   1       7.680  -2.407  -4.807  0.00  0.00     0.062 H 
BRANCH  47  55
ATOM     55  N   LIG d   1       4.409   0.719  -1.986  0.00  0.00     0.080 N 
ATOM     56  O   LIG d   1       4.852   1.441  -1.124  0.00  0.00     0.041 OA
ATOM     57  O   LIG d   1       3.220   0.703  -2.209  0.00  0.00    -0.576 OA
ENDBRANCH  47  55
ENDBRANCH  43  45
ENDBRANCH  10  40
TORSDOF 8
ENDMDL
MODEL 10
REMARK VINA RESULT:      -6.4      2.711      3.712
REMARK  8 active torsions:
REMARK  status: ('A' for Active; 'I' for Inactive)
REMARK    1  A    between atoms: C_1  and  N_2 
REMARK    2  A    between atoms: N_2  and  C_3 
REMARK    3  A    between atoms: N_2  and  C_4 
REMARK    4  A    between atoms: C_7  and  C_10 
REMARK    5  A    between atoms: C_10  and  N_11 
REMARK    6  A    between atoms: C_20  and  C_22 
REMARK    7  A    between atoms: C_24  and  C_27 
REMARK    8  A    between atoms: C_31  and  N_33 
ROOT
ATOM      1  N   LIG d   1       9.905   5.604  -5.613  0.00  0.00    -0.279 N 
ATOM      2  C   LIG d   1       9.937   6.715  -6.579  0.00  0.00     0.066 C 
ATOM      3  C   LIG d   1      10.768   6.288  -7.763  0.00  0.00     0.159 A 
ATOM      4  C   LIG d   1      11.086   5.000  -8.021  0.00  0.00     0.148 A 
ATOM      5  N   LIG d   1      11.838   4.990  -9.152  0.00  0.00    -0.247 N 
ATOM      6  H   LIG d   1      12.217   4.210  -9.587  0.00  0.00     0.310 HD
ATOM      7  C   LIG d   1      11.957   6.276  -9.558  0.00  0.00     0.243 A 
ATOM      8  N   LIG d   1      11.311   7.044  -8.719  0.00  0.00    -0.246 N 
ATOM      9  C   LIG d   1      10.643   3.845  -7.159  0.00  0.00     0.037 C 
ATOM     10  C   LIG d   1       9.507   4.343  -6.253  0.00  0.00     0.098 C 
ATOM     11  H   LIG d   1       8.611   4.507  -6.853  0.00  0.00     0.057 H 
ATOM     12  H   LIG d   1       8.923   6.947  -6.906  0.00  0.00     0.051 H 
ATOM     13  H   LIG d   1      10.384   7.594  -6.114  0.00  0.00     0.051 H 
ATOM     14  H   LIG d   1      12.496   6.613 -10.431  0.00  0.00     0.158 H 
ATOM     15  H   LIG d   1      10.284   3.031  -7.788  0.00  0.00     0.037 H 
ATOM     16  H   LIG d   1      11.477   3.499  -6.547  0.00  0.00     0.037 H 
ATOM     17  H   LIG d   1      11.239   8.009  -8.780  0.00  0.00     0.310 HD
ENDROOT
BRANCH   1  18
ATOM     18  C   LIG d   1       9.025   5.919  -4.478  0.00  0.00     0.025 C 
ATOM     19  H   LIG d   1       8.493   5.018  -4.172  0.00  0.00     0.048 H 
ATOM     20  H   LIG d   1       8.306   6.682  -4.776  0.00  0.00     0.048 H 
BRANCH  18  21
ATOM     21  C   LIG d   1       9.854   6.429  -3.328  0.00  0.00    -0.033 A 
ATOM     22  C   LIG d   1       9.231   6.968  -2.216  0.00  0.00    -0.056 A 
ATOM     23  C   LIG d   1       9.987   7.435  -1.159  0.00  0.00    -0.040 A 
ATOM     24  H   LIG d   1       8.154   7.023  -2.174  0.00  0.00     0.062 H 
ATOM     25  C   LIG d   1      11.373   7.364  -1.213  0.00  0.00     0.029 A 
ATOM     26  H   LIG d   1       9.501   7.856  -0.291  0.00  0.00     0.064 H 
ATOM     27  C   LIG d   1      11.996   6.827  -2.333  0.00  0.00    -0.040 A 
ATOM     28  C   LIG d   1      11.233   6.357  -3.384  0.00  0.00    -0.056 A 
ATOM     29  H   LIG d   1      13.072   6.774  -2.381  0.00  0.00     0.064 H 
ATOM     30  H   LIG d   1      11.716   5.934  -4.254  0.00  0.00     0.062 H 
BRANCH  25  31
ATOM     31  N   LIG d   1      12.141   7.836  -0.146  0.00  0.00    -0.336 N 
BRANCH  31  32
ATOM     32  C   LIG d   1      13.588   8.007  -0.303  0.00  0.00     0.000 C 
ATOM     33  H   LIG d   1      14.107   7.421   0.456  0.00  0.00     0.043 H 
ATOM     34  H   LIG d   1      13.888   7.666  -1.293  0.00  0.00     0.043 H 
ATOM     35  H   LIG d   1      13.843   9.060  -0.187  0.00  0.00     0.043 H 
ENDBRANCH  31  32
BRANCH  31  36
ATOM     36  C   LIG d   1      11.500   8.161   1.131  0.00  0.00     0.000 C 
ATOM     37  H   LIG d   1      11.815   9.153   1.454  0.00  0.00     0.043 H 
ATOM     38  H   LIG d   1      10.416   8.146   1.007  0.00  0.00     0.043 H 
ATOM     39  H   LIG d   1      11.789   7.425   1.881  0.00  0.00     0.043 H 
ENDBRANCH  31  36
ENDBRANCH  25  31
ENDBRANCH  18  21
ENDBRANCH   1  18
BRANCH  10  40
ATOM     40  C   LIG d   1       9.220   3.310  -5.195  0.00  0.00     0.245 A 
ATOM     41  O   LIG d   1       9.984   3.052  -4.126  0.00  0.00    -0.336 OA
ATOM     42  N   LIG d   1       9.333   2.016  -3.408  0.00  0.00    -0.056 NA
ATOM     43  C   LIG d   1       8.248   1.722  -4.082  0.00  0.00     0.202 A 
ATOM     44  N   LIG d   1       8.189   2.514  -5.167  0.00  0.00    -0.190 NA
BRANCH  43  45
ATOM     45  C   LIG d   1       7.252   0.686  -3.711  0.00  0.00     0.029 A 
ATOM     46  C   LIG d   1       5.982   1.061  -3.280  0.00  0.00     0.026 A 
ATOM     47  C   LIG d   1       5.056   0.093  -2.942  0.00  0.00     0.274 A 
ATOM     48  H   LIG d   1       5.719   2.106  -3.215  0.00  0.00     0.069 H 
ATOM     49  C   LIG d   1       5.394  -1.246  -3.020  0.00  0.00     0.016 A 
ATOM     50  C   LIG d   1       6.655  -1.624  -3.442  0.00  0.00    -0.055 A 
ATOM     51  H   LIG d   1       4.669  -2.000  -2.751  0.00  0.00     0.069 H 
ATOM     52  C   LIG d   1       7.585  -0.665  -3.788  0.00  0.00    -0.051 A 
ATOM     53  H   LIG d   1       6.913  -2.671  -3.501  0.00  0.00     0.062 H 
ATOM     54  H   LIG d   1       8.571  -0.961  -4.119  0.00  0.00     0.062 H 
BRANCH  47  55
ATOM     55  N   LIG d   1       3.704   0.489  -2.491  0.00  0.00     0.080 N 
ATOM     56  O   LIG d   1       3.542   1.544  -1.924  0.00  0.00     0.041 OA
ATOM     57  O   LIG d   1       2.762  -0.242  -2.689  0.00  0.00    -0.576 OA
ENDBRANCH  47  55
ENDBRANCH  43  45
ENDBRANCH  10  40
TORSDOF 8
ENDMDL
