MODEL 1
REMARK VINA RESULT:      -6.2      0.000      0.000
REMARK  6 active torsions:
REMARK  status: ('A' for Active; 'I' for Inactive)
REMARK    1  A    between atoms: C_1  and  C_2 
REMARK    2  A    between atoms: C_17  and  C_29 
REMARK    3  A    between atoms: C_22  and  C_23 
REMARK    4  A    between atoms: C_22  and  O_28 
REMARK    5  A    between atoms: C_23  and  C_24 
REMARK    6  A    between atoms: C_24  and  C_25 
ROOT
ATOM      1  C   LIG d   1       4.682  -0.988  -5.332  0.00  0.00    -0.003 C 
ATOM      2  C   LIG d   1       5.997  -0.804  -4.557  0.00  0.00    -0.036 C 
ATOM      3  C   LIG d   1       5.932  -1.561  -3.230  0.00  0.00     0.011 C 
ATOM      4  C   LIG d   1       4.709  -1.135  -2.463  0.00  0.00     0.156 C 
ATOM      5  O   LIG d   1       4.680  -1.277  -1.256  0.00  0.00    -0.293 OA
ATOM      6  C   LIG d   1       3.605  -0.578  -3.122  0.00  0.00    -0.015 C 
ATOM      7  C   LIG d   1       3.551  -0.471  -4.472  0.00  0.00    -0.038 C 
ATOM      8  C   LIG d   1       2.392   0.157  -5.095  0.00  0.00    -0.062 C 
ATOM      9  C   LIG d   1       2.321   0.362  -6.405  0.00  0.00    -0.080 C 
ATOM     10  C   LIG d   1       3.428  -0.040  -7.343  0.00  0.00    -0.016 C 
ATOM     11  H   LIG d   1       3.537   0.786  -8.075  0.00  0.00     0.035 H 
ATOM     12  C   LIG d   1       4.748  -0.178  -6.615  0.00  0.00    -0.025 C 
ATOM     13  H   LIG d   1       5.022   0.864  -6.293  0.00  0.00     0.032 H 
ATOM     14  C   LIG d   1       5.861  -0.611  -7.554  0.00  0.00    -0.048 C 
ATOM     15  C   LIG d   1       5.505  -1.785  -8.440  0.00  0.00    -0.044 C 
ATOM     16  C   LIG d   1       4.135  -1.768  -9.059  0.00  0.00     0.000 C 
ATOM     17  C   LIG d   1       3.022  -1.285  -8.120  0.00  0.00    -0.026 C 
ATOM     18  H   LIG d   1       2.678  -2.089  -7.456  0.00  0.00     0.031 H 
ATOM     19  C   LIG d   1       1.885  -0.865  -9.095  0.00  0.00    -0.046 C 
ATOM     20  C   LIG d   1       2.609  -0.323 -10.341  0.00  0.00    -0.023 C 
ATOM     21  C   LIG d   1       4.007  -0.977 -10.360  0.00  0.00     0.072 C 
ATOM     22  H   LIG d   1       6.824  -1.186  -5.154  0.00  0.00     0.028 H 
ATOM     23  H   LIG d   1       6.150   0.260  -4.365  0.00  0.00     0.028 H 
ATOM     24  H   LIG d   1       5.919  -2.635  -3.394  0.00  0.00     0.035 H 
ATOM     25  H   LIG d   1       6.822  -1.315  -2.638  0.00  0.00     0.035 H 
ATOM     26  H   LIG d   1       2.768  -0.224  -2.537  0.00  0.00     0.066 H 
ATOM     27  H   LIG d   1       1.563   0.466  -4.470  0.00  0.00     0.062 H 
ATOM     28  H   LIG d   1       1.436   0.841  -6.811  0.00  0.00     0.058 H 
ATOM     29  H   LIG d   1       6.171   0.249  -8.161  0.00  0.00     0.027 H 
ATOM     30  H   LIG d   1       6.747  -0.879  -6.953  0.00  0.00     0.027 H 
ATOM     31  H   LIG d   1       6.254  -1.861  -9.246  0.00  0.00     0.027 H 
ATOM     32  H   LIG d   1       5.623  -2.722  -7.877  0.00  0.00     0.027 H 
ATOM     33  H   LIG d   1       1.260  -1.723  -9.353  0.00  0.00     0.027 H 
ATOM     34  H   LIG d   1       1.265  -0.085  -8.646  0.00  0.00     0.027 H 
ATOM     35  H   LIG d   1       2.061  -0.599 -11.244  0.00  0.00     0.029 H 
ATOM     36  H   LIG d   1       2.705   0.761 -10.284  0.00  0.00     0.029 H 
ENDROOT
BRANCH  21  37
ATOM     37  C   LIG d   1       5.077   0.102 -10.514  0.00  0.00    -0.018 C 
ATOM     38  H   LIG d   1       5.742   0.080  -9.651  0.00  0.00     0.030 H 
ATOM     39  H   LIG d   1       5.654  -0.087 -11.420  0.00  0.00     0.030 H 
BRANCH  37  40
ATOM     40  C   LIG d   1       4.409   1.474 -10.610  0.00  0.00    -0.011 C 
ATOM     41  H   LIG d   1       4.674   1.941 -11.558  0.00  0.00     0.033 H 
ATOM     42  H   LIG d   1       3.327   1.355 -10.553  0.00  0.00     0.033 H 
BRANCH  40  43
ATOM     43  C   LIG d   1       4.880   2.342  -9.473  0.00  0.00     0.042 C 
ATOM     44  O   LIG d   1       6.072   2.447  -9.238  0.00  0.00    -0.550 OA
ATOM     45  O   LIG d   1       4.069   2.942  -8.787  0.00  0.00    -0.550 OA
ENDBRANCH  40  43
ENDBRANCH  37  40
ENDBRANCH  21  37
BRANCH  21  46
ATOM     46  O   LIG d   1       4.085  -1.880 -11.475  0.00  0.00    -0.388 OA
ATOM     47  H   LIG d   1       4.515  -2.722 -11.270  0.00  0.00     0.210 HD
ENDBRANCH  21  46
BRANCH  16  48
ATOM     48  C   LIG d   1       3.802  -3.242  -9.412  0.00  0.00    -0.057 C 
ATOM     49  H   LIG d   1       2.796  -3.299  -9.825  0.00  0.00     0.024 H 
ATOM     50  H   LIG d   1       4.519  -3.610 -10.146  0.00  0.00     0.024 H 
ATOM     51  H   LIG d   1       3.860  -3.853  -8.510  0.00  0.00     0.024 H 
ENDBRANCH  16  48
BRANCH   1  52
ATOM     52  C   LIG d   1       4.463  -2.478  -5.589  0.00  0.00    -0.055 C 
ATOM     53  H   LIG d   1       5.386  -2.921  -5.965  0.00  0.00     0.024 H 
ATOM     54  H   LIG d   1       4.176  -2.969  -4.660  0.00  0.00     0.024 H 
ATOM     55  H   LIG d   1       3.671  -2.606  -6.328  0.00  0.00     0.024 H 
ENDBRANCH   1  52
TORSDOF 6
ENDMDL
MODEL 2
REMARK VINA RESULT:      -6.2      2.959      5.706
REMARK  6 active torsions:
REMARK  status: ('A' for Active; 'I' for Inactive)
REMARK    1  A    between atoms: C_1  and  C_2 
REMARK    2  A    between atoms: C_17  and  C_29 
REMARK    3  A    between atoms: C_22  and  C_23 
REMARK    4  A    between atoms: C_22  and  O_28 
REMARK    5  A    between atoms: C_23  and  C_24 
REMARK    6  A    between atoms: C_24  and  C_25 
ROOT
ATOM      1  C   LIG d   1       7.757  -2.007  -5.089  0.00  0.00    -0.003 C 
ATOM      2  C   LIG d   1       8.040  -3.115  -6.116  0.00  0.00    -0.036 C 
ATOM      3  C   LIG d   1       9.369  -3.798  -5.794  0.00  0.00     0.011 C 
ATOM      4  C   LIG d   1      10.460  -2.764  -5.700  0.00  0.00     0.156 C 
ATOM      5  O   LIG d   1      11.617  -3.096  -5.871  0.00  0.00    -0.293 OA
ATOM      6  C   LIG d   1      10.158  -1.425  -5.417  0.00  0.00    -0.015 C 
ATOM      7  C   LIG d   1       8.897  -1.014  -5.139  0.00  0.00    -0.038 C 
ATOM      8  C   LIG d   1       8.642   0.400  -4.895  0.00  0.00    -0.062 C 
ATOM      9  C   LIG d   1       7.416   0.871  -4.699  0.00  0.00    -0.080 C 
ATOM     10  C   LIG d   1       6.201  -0.018  -4.710  0.00  0.00    -0.016 C 
ATOM     11  H   LIG d   1       5.411   0.534  -5.259  0.00  0.00     0.035 H 
ATOM     12  C   LIG d   1       6.463  -1.304  -5.464  0.00  0.00    -0.025 C 
ATOM     13  H   LIG d   1       6.594  -0.999  -6.539  0.00  0.00     0.032 H 
ATOM     14  C   LIG d   1       5.248  -2.216  -5.453  0.00  0.00    -0.048 C 
ATOM     15  C   LIG d   1       4.625  -2.404  -4.087  0.00  0.00    -0.044 C 
ATOM     16  C   LIG d   1       4.491  -1.172  -3.235  0.00  0.00     0.000 C 
ATOM     17  C   LIG d   1       5.702  -0.232  -3.287  0.00  0.00    -0.026 C 
ATOM     18  H   LIG d   1       6.504  -0.570  -2.618  0.00  0.00     0.031 H 
ATOM     19  C   LIG d   1       5.125   1.127  -2.796  0.00  0.00    -0.046 C 
ATOM     20  C   LIG d   1       3.671   1.148  -3.304  0.00  0.00    -0.023 C 
ATOM     21  C   LIG d   1       3.246  -0.324  -3.491  0.00  0.00     0.072 C 
ATOM     22  H   LIG d   1       7.236  -3.850  -6.083  0.00  0.00     0.028 H 
ATOM     23  H   LIG d   1       8.086  -2.672  -7.112  0.00  0.00     0.028 H 
ATOM     24  H   LIG d   1       9.304  -4.363  -4.869  0.00  0.00     0.035 H 
ATOM     25  H   LIG d   1       9.615  -4.495  -6.606  0.00  0.00     0.035 H 
ATOM     26  H   LIG d   1      10.956  -0.696  -5.418  0.00  0.00     0.066 H 
ATOM     27  H   LIG d   1       9.478   1.089  -4.874  0.00  0.00     0.062 H 
ATOM     28  H   LIG d   1       7.287   1.934  -4.529  0.00  0.00     0.058 H 
ATOM     29  H   LIG d   1       4.507  -1.832  -6.165  0.00  0.00     0.027 H 
ATOM     30  H   LIG d   1       5.545  -3.205  -5.845  0.00  0.00     0.027 H 
ATOM     31  H   LIG d   1       3.626  -2.855  -4.213  0.00  0.00     0.027 H 
ATOM     32  H   LIG d   1       5.190  -3.160  -3.524  0.00  0.00     0.027 H 
ATOM     33  H   LIG d   1       5.156   1.189  -1.706  0.00  0.00     0.027 H 
ATOM     34  H   LIG d   1       5.690   1.959  -3.225  0.00  0.00     0.027 H 
ATOM     35  H   LIG d   1       3.023   1.629  -2.568  0.00  0.00     0.029 H 
ATOM     36  H   LIG d   1       3.607   1.678  -4.254  0.00  0.00     0.029 H 
ENDROOT
BRANCH  21  37
ATOM     37  C   LIG d   1       2.664  -0.517  -4.889  0.00  0.00    -0.018 C 
ATOM     38  H   LIG d   1       3.213  -1.305  -5.406  0.00  0.00     0.030 H 
ATOM     39  H   LIG d   1       1.614  -0.801  -4.808  0.00  0.00     0.030 H 
BRANCH  37  40
ATOM     40  C   LIG d   1       2.781   0.788  -5.676  0.00  0.00    -0.011 C 
ATOM     41  H   LIG d   1       1.834   1.326  -5.632  0.00  0.00     0.033 H 
ATOM     42  H   LIG d   1       3.569   1.404  -5.242  0.00  0.00     0.033 H 
BRANCH  40  43
ATOM     43  C   LIG d   1       3.118   0.480  -7.112  0.00  0.00     0.042 C 
ATOM     44  O   LIG d   1       2.373  -0.219  -7.777  0.00  0.00    -0.550 OA
ATOM     45  O   LIG d   1       4.136   0.931  -7.610  0.00  0.00    -0.550 OA
ENDBRANCH  40  43
ENDBRANCH  37  40
ENDBRANCH  21  37
BRANCH  21  46
ATOM     46  O   LIG d   1       2.242  -0.647  -2.514  0.00  0.00    -0.388 OA
ATOM     47  H   LIG d   1       2.241  -1.576  -2.243  0.00  0.00     0.210 HD
ENDBRANCH  21  46
BRANCH  16  48
ATOM     48  C   LIG d   1       4.385  -1.670  -1.770  0.00  0.00    -0.057 C 
ATOM     49  H   LIG d   1       3.592  -2.414  -1.696  0.00  0.00     0.024 H 
ATOM     50  H   LIG d   1       5.332  -2.117  -1.469  0.00  0.00     0.024 H 
ATOM     51  H   LIG d   1       4.157  -0.829  -1.115  0.00  0.00     0.024 H 
ENDBRANCH  16  48
BRANCH   1  52
ATOM     52  C   LIG d   1       7.705  -2.625  -3.694  0.00  0.00    -0.055 C 
ATOM     53  H   LIG d   1       7.461  -3.685  -3.775  0.00  0.00     0.024 H 
ATOM     54  H   LIG d   1       8.673  -2.511  -3.208  0.00  0.00     0.024 H 
ATOM     55  H   LIG d   1       6.940  -2.121  -3.101  0.00  0.00     0.024 H 
ENDBRANCH   1  52
TORSDOF 6
ENDMDL
MODEL 3
REMARK VINA RESULT:      -6.2      3.638      5.944
REMARK  6 active torsions:
REMARK  status: ('A' for Active; 'I' for Inactive)
REMARK    1  A    between atoms: C_1  and  C_2 
REMARK    2  A    between atoms: C_17  and  C_29 
REMARK    3  A    between atoms: C_22  and  C_23 
REMARK    4  A    between atoms: C_22  and  O_28 
REMARK    5  A    between atoms: C_23  and  C_24 
REMARK    6  A    between atoms: C_24  and  C_25 
ROOT
ATOM      1  C   LIG d   1       4.757  -1.586  -3.974  0.00  0.00    -0.003 C 
ATOM      2  C   LIG d   1       3.560  -1.744  -3.023  0.00  0.00    -0.036 C 
ATOM      3  C   LIG d   1       2.829  -0.409  -2.878  0.00  0.00     0.011 C 
ATOM      4  C   LIG d   1       3.804   0.658  -2.456  0.00  0.00     0.156 C 
ATOM      5  O   LIG d   1       3.396   1.654  -1.891  0.00  0.00    -0.293 OA
ATOM      6  C   LIG d   1       5.176   0.519  -2.708  0.00  0.00    -0.015 C 
ATOM      7  C   LIG d   1       5.677  -0.530  -3.404  0.00  0.00    -0.038 C 
ATOM      8  C   LIG d   1       7.118  -0.640  -3.596  0.00  0.00    -0.062 C 
ATOM      9  C   LIG d   1       7.671  -1.686  -4.198  0.00  0.00    -0.080 C 
ATOM     10  C   LIG d   1       6.853  -2.833  -4.731  0.00  0.00    -0.016 C 
ATOM     11  H   LIG d   1       7.405  -3.760  -4.475  0.00  0.00     0.035 H 
ATOM     12  C   LIG d   1       5.501  -2.909  -4.055  0.00  0.00    -0.025 C 
ATOM     13  H   LIG d   1       5.715  -3.193  -2.988  0.00  0.00     0.032 H 
ATOM     14  C   LIG d   1       4.663  -4.048  -4.609  0.00  0.00    -0.048 C 
ATOM     15  C   LIG d   1       4.614  -4.105  -6.121  0.00  0.00    -0.044 C 
ATOM     16  C   LIG d   1       5.913  -3.875  -6.843  0.00  0.00     0.000 C 
ATOM     17  C   LIG d   1       6.777  -2.754  -6.249  0.00  0.00    -0.026 C 
ATOM     18  H   LIG d   1       6.446  -1.765  -6.593  0.00  0.00     0.031 H 
ATOM     19  C   LIG d   1       8.199  -3.068  -6.796  0.00  0.00    -0.046 C 
ATOM     20  C   LIG d   1       8.263  -4.604  -6.878  0.00  0.00    -0.023 C 
ATOM     21  C   LIG d   1       6.808  -5.102  -7.002  0.00  0.00     0.072 C 
ATOM     22  H   LIG d   1       2.875  -2.491  -3.426  0.00  0.00     0.028 H 
ATOM     23  H   LIG d   1       3.922  -2.072  -2.048  0.00  0.00     0.028 H 
ATOM     24  H   LIG d   1       2.341  -0.127  -3.806  0.00  0.00     0.035 H 
ATOM     25  H   LIG d   1       2.060  -0.509  -2.101  0.00  0.00     0.035 H 
ATOM     26  H   LIG d   1       5.856   1.272  -2.337  0.00  0.00     0.066 H 
ATOM     27  H   LIG d   1       7.758   0.156  -3.235  0.00  0.00     0.062 H 
ATOM     28  H   LIG d   1       8.750  -1.716  -4.306  0.00  0.00     0.058 H 
ATOM     29  H   LIG d   1       5.032  -4.996  -4.200  0.00  0.00     0.027 H 
ATOM     30  H   LIG d   1       3.632  -3.947  -4.228  0.00  0.00     0.027 H 
ATOM     31  H   LIG d   1       4.212  -5.086  -6.425  0.00  0.00     0.027 H 
ATOM     32  H   LIG d   1       3.873  -3.385  -6.495  0.00  0.00     0.027 H 
ATOM     33  H   LIG d   1       8.342  -2.621  -7.782  0.00  0.00     0.027 H 
ATOM     34  H   LIG d   1       8.963  -2.691  -6.111  0.00  0.00     0.027 H 
ATOM     35  H   LIG d   1       8.835  -4.910  -7.757  0.00  0.00     0.029 H 
ATOM     36  H   LIG d   1       8.723  -5.015  -5.978  0.00  0.00     0.029 H 
ENDROOT
BRANCH  21  37
ATOM     37  C   LIG d   1       6.542  -6.180  -5.953  0.00  0.00    -0.018 C 
ATOM     38  H   LIG d   1       7.418  -6.289  -5.314  0.00  0.00     0.030 H 
ATOM     39  H   LIG d   1       5.684  -5.890  -5.346  0.00  0.00     0.030 H 
BRANCH  37  40
ATOM     40  C   LIG d   1       6.249  -7.509  -6.650  0.00  0.00    -0.011 C 
ATOM     41  H   LIG d   1       6.560  -7.449  -7.693  0.00  0.00     0.033 H 
ATOM     42  H   LIG d   1       6.797  -8.309  -6.152  0.00  0.00     0.033 H 
BRANCH  40  43
ATOM     43  C   LIG d   1       4.771  -7.796  -6.583  0.00  0.00     0.042 C 
ATOM     44  O   LIG d   1       4.020  -7.329  -7.422  0.00  0.00    -0.550 OA
ATOM     45  O   LIG d   1       4.326  -8.497  -5.690  0.00  0.00    -0.550 OA
ENDBRANCH  40  43
ENDBRANCH  37  40
ENDBRANCH  21  37
BRANCH  21  46
ATOM     46  O   LIG d   1       6.617  -5.663  -8.312  0.00  0.00    -0.388 OA
ATOM     47  H   LIG d   1       7.257  -6.353  -8.541  0.00  0.00     0.210 HD
ENDBRANCH  21  46
BRANCH  16  48
ATOM     48  C   LIG d   1       5.534  -3.423  -8.278  0.00  0.00    -0.057 C 
ATOM     49  H   LIG d   1       4.620  -3.928  -8.588  0.00  0.00     0.024 H 
ATOM     50  H   LIG d   1       5.377  -2.345  -8.290  0.00  0.00     0.024 H 
ATOM     51  H   LIG d   1       6.342  -3.679  -8.965  0.00  0.00     0.024 H 
ENDBRANCH  16  48
BRANCH   1  52
ATOM     52  C   LIG d   1       4.250  -1.115  -5.336  0.00  0.00    -0.055 C 
ATOM     53  H   LIG d   1       4.796  -0.219  -5.636  0.00  0.00     0.024 H 
ATOM     54  H   LIG d   1       4.406  -1.901  -6.074  0.00  0.00     0.024 H 
ATOM     55  H   LIG d   1       3.186  -0.887  -5.268  0.00  0.00     0.024 H 
ENDBRANCH   1  52
TORSDOF 6
ENDMDL
MODEL 4
REMARK VINA RESULT:      -5.6      3.227      6.156
REMARK  6 active torsions:
REMARK  status: ('A' for Active; 'I' for Inactive)
REMARK    1  A    between atoms: C_1  and  C_2 
REMARK    2  A    between atoms: C_17  and  C_29 
REMARK    3  A    between atoms: C_22  and  C_23 
REMARK    4  A    between atoms: C_22  and  O_28 
REMARK    5  A    between atoms: C_23  and  C_24 
REMARK    6  A    between atoms: C_24  and  C_25 
ROOT
ATOM      1  C   LIG d   1       7.869   0.669  -6.699  0.00  0.00    -0.003 C 
ATOM      2  C   LIG d   1       7.632   1.312  -8.075  0.00  0.00    -0.036 C 
ATOM      3  C   LIG d   1       8.958   1.448  -8.824  0.00  0.00     0.011 C 
ATOM      4  C   LIG d   1       9.949   2.192  -7.968  0.00  0.00     0.156 C 
ATOM      5  O   LIG d   1      10.883   2.765  -8.493  0.00  0.00    -0.293 OA
ATOM      6  C   LIG d   1       9.808   2.230  -6.574  0.00  0.00    -0.015 C 
ATOM      7  C   LIG d   1       8.833   1.543  -5.930  0.00  0.00    -0.038 C 
ATOM      8  C   LIG d   1       8.713   1.658  -4.481  0.00  0.00    -0.062 C 
ATOM      9  C   LIG d   1       7.731   1.074  -3.807  0.00  0.00    -0.080 C 
ATOM     10  C   LIG d   1       6.670   0.248  -4.485  0.00  0.00    -0.016 C 
ATOM     11  H   LIG d   1       5.707   0.509  -4.000  0.00  0.00     0.035 H 
ATOM     12  C   LIG d   1       6.548   0.600  -5.952  0.00  0.00    -0.025 C 
ATOM     13  H   LIG d   1       6.141   1.648  -5.976  0.00  0.00     0.032 H 
ATOM     14  C   LIG d   1       5.498  -0.251  -6.646  0.00  0.00    -0.048 C 
ATOM     15  C   LIG d   1       5.613  -1.733  -6.362  0.00  0.00    -0.044 C 
ATOM     16  C   LIG d   1       5.895  -2.124  -4.937  0.00  0.00     0.000 C 
ATOM     17  C   LIG d   1       6.921  -1.232  -4.228  0.00  0.00    -0.026 C 
ATOM     18  H   LIG d   1       7.950  -1.523  -4.478  0.00  0.00     0.031 H 
ATOM     19  C   LIG d   1       6.639  -1.488  -2.719  0.00  0.00    -0.046 C 
ATOM     20  C   LIG d   1       5.121  -1.730  -2.634  0.00  0.00    -0.023 C 
ATOM     21  C   LIG d   1       4.673  -2.225  -4.026  0.00  0.00     0.072 C 
ATOM     22  H   LIG d   1       6.951   0.687  -8.653  0.00  0.00     0.028 H 
ATOM     23  H   LIG d   1       7.187   2.298  -7.934  0.00  0.00     0.028 H 
ATOM     24  H   LIG d   1       9.354   0.474  -9.098  0.00  0.00     0.035 H 
ATOM     25  H   LIG d   1       8.788   2.022  -9.744  0.00  0.00     0.035 H 
ATOM     26  H   LIG d   1      10.499   2.824  -5.993  0.00  0.00     0.066 H 
ATOM     27  H   LIG d   1       9.450   2.238  -3.938  0.00  0.00     0.062 H 
ATOM     28  H   LIG d   1       7.689   1.200  -2.730  0.00  0.00     0.058 H 
ATOM     29  H   LIG d   1       4.501   0.117  -6.372  0.00  0.00     0.027 H 
ATOM     30  H   LIG d   1       5.579  -0.094  -7.736  0.00  0.00     0.027 H 
ATOM     31  H   LIG d   1       4.682  -2.229  -6.685  0.00  0.00     0.027 H 
ATOM     32  H   LIG d   1       6.388  -2.174  -7.006  0.00  0.00     0.027 H 
ATOM     33  H   LIG d   1       7.192  -2.361  -2.366  0.00  0.00     0.027 H 
ATOM     34  H   LIG d   1       6.919  -0.614  -2.125  0.00  0.00     0.027 H 
ATOM     35  H   LIG d   1       4.904  -2.493  -1.884  0.00  0.00     0.029 H 
ATOM     36  H   LIG d   1       4.601  -0.806  -2.382  0.00  0.00     0.029 H 
ENDROOT
BRANCH  21  37
ATOM     37  C   LIG d   1       3.490  -1.391  -4.512  0.00  0.00    -0.018 C 
ATOM     38  H   LIG d   1       3.778  -0.838  -5.406  0.00  0.00     0.030 H 
ATOM     39  H   LIG d   1       2.654  -2.050  -4.747  0.00  0.00     0.030 H 
BRANCH  37  40
ATOM     40  C   LIG d   1       3.074  -0.408  -3.416  0.00  0.00    -0.011 C 
ATOM     41  H   LIG d   1       2.060  -0.638  -3.089  0.00  0.00     0.033 H 
ATOM     42  H   LIG d   1       3.757  -0.496  -2.572  0.00  0.00     0.033 H 
BRANCH  40  43
ATOM     43  C   LIG d   1       3.121   0.997  -3.958  0.00  0.00     0.042 C 
ATOM     44  O   LIG d   1       3.660   1.881  -3.314  0.00  0.00    -0.550 OA
ATOM     45  O   LIG d   1       2.620   1.250  -5.040  0.00  0.00    -0.550 OA
ENDBRANCH  40  43
ENDBRANCH  37  40
ENDBRANCH  21  37
BRANCH  21  46
ATOM     46  O   LIG d   1       4.268  -3.601  -3.924  0.00  0.00    -0.388 OA
ATOM     47  H   LIG d   1       4.333  -4.092  -4.755  0.00  0.00     0.210 HD
ENDBRANCH  21  46
BRANCH  16  48
ATOM     48  C   LIG d   1       6.514  -3.545  -4.995  0.00  0.00    -0.057 C 
ATOM     49  H   LIG d   1       6.540  -3.889  -6.028  0.00  0.00     0.024 H 
ATOM     50  H   LIG d   1       7.527  -3.516  -4.595  0.00  0.00     0.024 H 
ATOM     51  H   LIG d   1       5.909  -4.230  -4.399  0.00  0.00     0.024 H 
ENDBRANCH  16  48
BRANCH   1  52
ATOM     52  C   LIG d   1       8.503  -0.707  -6.898  0.00  0.00    -0.055 C 
ATOM     53  H   LIG d   1       9.062  -0.718  -7.834  0.00  0.00     0.024 H 
ATOM     54  H   LIG d   1       9.177  -0.919  -6.069  0.00  0.00     0.024 H 
ATOM     55  H   LIG d   1       7.720  -1.465  -6.933  0.00  0.00     0.024 H 
ENDBRANCH   1  52
TORSDOF 6
ENDMDL
MODEL 5
REMARK VINA RESULT:      -5.5      8.971     10.961
REMARK  6 active torsions:
REMARK  status: ('A' for Active; 'I' for Inactive)
REMARK    1  A    between atoms: C_1  and  C_2 
REMARK    2  A    between atoms: C_17  and  C_29 
REMARK    3  A    between atoms: C_22  and  C_23 
REMARK    4  A    between atoms: C_22  and  O_28 
REMARK    5  A    between atoms: C_23  and  C_24 
REMARK    6  A    between atoms: C_24  and  C_25 
ROOT
ATOM      1  C   LIG d   1      10.568   7.761  -1.324  0.00  0.00    -0.003 C 
ATOM      2  C   LIG d   1       9.447   8.778  -1.058  0.00  0.00    -0.036 C 
ATOM      3  C   LIG d   1      10.042  10.086  -0.535  0.00  0.00     0.011 C 
ATOM      4  C   LIG d   1      10.906   9.805   0.666  0.00  0.00     0.156 C 
ATOM      5  O   LIG d   1      11.125  10.693   1.466  0.00  0.00    -0.293 OA
ATOM      6  C   LIG d   1      11.460   8.534   0.871  0.00  0.00    -0.015 C 
ATOM      7  C   LIG d   1      11.315   7.532  -0.029  0.00  0.00    -0.038 C 
ATOM      8  C   LIG d   1      11.879   6.219   0.263  0.00  0.00    -0.062 C 
ATOM      9  C   LIG d   1      11.699   5.180  -0.542  0.00  0.00    -0.080 C 
ATOM     10  C   LIG d   1      10.903   5.278  -1.816  0.00  0.00    -0.016 C 
ATOM     11  H   LIG d   1      10.292   4.354  -1.879  0.00  0.00     0.035 H 
ATOM     12  C   LIG d   1       9.948   6.452  -1.783  0.00  0.00    -0.025 C 
ATOM     13  H   LIG d   1       9.185   6.195  -0.998  0.00  0.00     0.032 H 
ATOM     14  C   LIG d   1       9.163   6.570  -3.078  0.00  0.00    -0.048 C 
ATOM     15  C   LIG d   1      10.010   6.483  -4.329  0.00  0.00    -0.044 C 
ATOM     16  C   LIG d   1      11.084   5.430  -4.341  0.00  0.00     0.000 C 
ATOM     17  C   LIG d   1      11.841   5.283  -3.015  0.00  0.00    -0.026 C 
ATOM     18  H   LIG d   1      12.630   6.041  -2.916  0.00  0.00     0.031 H 
ATOM     19  C   LIG d   1      12.466   3.862  -3.113  0.00  0.00    -0.046 C 
ATOM     20  C   LIG d   1      11.446   3.033  -3.915  0.00  0.00    -0.023 C 
ATOM     21  C   LIG d   1      10.633   4.033  -4.764  0.00  0.00     0.072 C 
ATOM     22  H   LIG d   1       8.906   8.969  -1.985  0.00  0.00     0.028 H 
ATOM     23  H   LIG d   1       8.761   8.365  -0.316  0.00  0.00     0.028 H 
ATOM     24  H   LIG d   1      10.620  10.588  -1.307  0.00  0.00     0.035 H 
ATOM     25  H   LIG d   1       9.224  10.751  -0.232  0.00  0.00     0.035 H 
ATOM     26  H   LIG d   1      12.023   8.348   1.774  0.00  0.00     0.066 H 
ATOM     27  H   LIG d   1      12.465   6.089   1.166  0.00  0.00     0.062 H 
ATOM     28  H   LIG d   1      12.138   4.226  -0.269  0.00  0.00     0.058 H 
ATOM     29  H   LIG d   1       8.378   5.804  -3.092  0.00  0.00     0.027 H 
ATOM     30  H   LIG d   1       8.628   7.536  -3.081  0.00  0.00     0.027 H 
ATOM     31  H   LIG d   1       9.348   6.321  -5.196  0.00  0.00     0.027 H 
ATOM     32  H   LIG d   1      10.476   7.459  -4.528  0.00  0.00     0.027 H 
ATOM     33  H   LIG d   1      13.428   3.898  -3.630  0.00  0.00     0.027 H 
ATOM     34  H   LIG d   1      12.604   3.436  -2.116  0.00  0.00     0.027 H 
ATOM     35  H   LIG d   1      11.965   2.329  -4.569  0.00  0.00     0.029 H 
ATOM     36  H   LIG d   1      10.783   2.490  -3.241  0.00  0.00     0.029 H 
ENDROOT
BRANCH  21  37
ATOM     37  C   LIG d   1       9.140   3.793  -4.552  0.00  0.00    -0.018 C 
ATOM     38  H   LIG d   1       8.707   4.641  -4.021  0.00  0.00     0.030 H 
ATOM     39  H   LIG d   1       8.649   3.683  -5.520  0.00  0.00     0.030 H 
BRANCH  37  40
ATOM     40  C   LIG d   1       8.939   2.519  -3.730  0.00  0.00    -0.011 C 
ATOM     41  H   LIG d   1       9.774   1.840  -3.902  0.00  0.00     0.033 H 
ATOM     42  H   LIG d   1       8.892   2.775  -2.671  0.00  0.00     0.033 H 
BRANCH  40  43
ATOM     43  C   LIG d   1       7.654   1.851  -4.144  0.00  0.00     0.042 C 
ATOM     44  O   LIG d   1       6.745   1.726  -3.341  0.00  0.00    -0.550 OA
ATOM     45  O   LIG d   1       7.522   1.437  -5.283  0.00  0.00    -0.550 OA
ENDBRANCH  40  43
ENDBRANCH  37  40
ENDBRANCH  21  37
BRANCH  21  46
ATOM     46  O   LIG d   1      10.950   3.831  -6.152  0.00  0.00    -0.388 OA
ATOM     47  H   LIG d   1      11.856   3.531  -6.309  0.00  0.00     0.210 HD
ENDBRANCH  21  46
BRANCH  16  48
ATOM     48  C   LIG d   1      12.126   5.889  -5.394  0.00  0.00    -0.057 C 
ATOM     49  H   LIG d   1      13.023   6.244  -4.887  0.00  0.00     0.024 H 
ATOM     50  H   LIG d   1      12.382   5.050  -6.041  0.00  0.00     0.024 H 
ATOM     51  H   LIG d   1      11.705   6.695  -5.995  0.00  0.00     0.024 H 
ENDBRANCH  16  48
BRANCH   1  52
ATOM     52  C   LIG d   1      11.534   8.344  -2.352  0.00  0.00    -0.055 C 
ATOM     53  H   LIG d   1      11.089   8.280  -3.346  0.00  0.00     0.024 H 
ATOM     54  H   LIG d   1      11.735   9.387  -2.111  0.00  0.00     0.024 H 
ATOM     55  H   LIG d   1      12.468   7.781  -2.335  0.00  0.00     0.024 H 
ENDBRANCH   1  52
TORSDOF 6
ENDMDL
MODEL 6
REMARK VINA RESULT:      -5.5      9.684     13.348
REMARK  6 active torsions:
REMARK  status: ('A' for Active; 'I' for Inactive)
REMARK    1  A    between atoms: C_1  and  C_2 
REMARK    2  A    between atoms: C_17  and  C_29 
REMARK    3  A    between atoms: C_22  and  C_23 
REMARK    4  A    between atoms: C_22  and  O_28 
REMARK    5  A    between atoms: C_23  and  C_24 
REMARK    6  A    between atoms: C_24  and  C_25 
ROOT
ATOM      1  C   LIG d   1       7.061 -10.105  -2.825  0.00  0.00    -0.003 C 
ATOM      2  C   LIG d   1       5.649 -10.505  -2.369  0.00  0.00    -0.036 C 
ATOM      3  C   LIG d   1       4.862 -11.077  -3.548  0.00  0.00     0.011 C 
ATOM      4  C   LIG d   1       4.876 -10.095  -4.690  0.00  0.00     0.156 C 
ATOM      5  O   LIG d   1       4.002 -10.143  -5.532  0.00  0.00    -0.293 OA
ATOM      6  C   LIG d   1       5.886  -9.128  -4.793  0.00  0.00    -0.015 C 
ATOM      7  C   LIG d   1       6.928  -9.080  -3.928  0.00  0.00    -0.038 C 
ATOM      8  C   LIG d   1       7.923  -8.023  -4.064  0.00  0.00    -0.062 C 
ATOM      9  C   LIG d   1       8.919  -7.878  -3.199  0.00  0.00    -0.080 C 
ATOM     10  C   LIG d   1       9.098  -8.794  -2.016  0.00  0.00    -0.016 C 
ATOM     11  H   LIG d   1       9.384  -8.151  -1.159  0.00  0.00     0.035 H 
ATOM     12  C   LIG d   1       7.801  -9.485  -1.651  0.00  0.00    -0.025 C 
ATOM     13  H   LIG d   1       7.125  -8.671  -1.272  0.00  0.00     0.032 H 
ATOM     14  C   LIG d   1       7.984 -10.431  -0.477  0.00  0.00    -0.048 C 
ATOM     15  C   LIG d   1       9.176 -11.355  -0.602  0.00  0.00    -0.044 C 
ATOM     16  C   LIG d   1      10.450 -10.742  -1.117  0.00  0.00     0.000 C 
ATOM     17  C   LIG d   1      10.253  -9.751  -2.272  0.00  0.00    -0.026 C 
ATOM     18  H   LIG d   1      10.151 -10.270  -3.235  0.00  0.00     0.031 H 
ATOM     19  C   LIG d   1      11.560  -8.908  -2.249  0.00  0.00    -0.046 C 
ATOM     20  C   LIG d   1      11.955  -8.827  -0.764  0.00  0.00    -0.023 C 
ATOM     21  C   LIG d   1      11.321 -10.050  -0.069  0.00  0.00     0.072 C 
ATOM     22  H   LIG d   1       5.723 -11.257  -1.582  0.00  0.00     0.028 H 
ATOM     23  H   LIG d   1       5.138  -9.623  -1.979  0.00  0.00     0.028 H 
ATOM     24  H   LIG d   1       5.272 -12.031  -3.866  0.00  0.00     0.035 H 
ATOM     25  H   LIG d   1       3.822 -11.237  -3.236  0.00  0.00     0.035 H 
ATOM     26  H   LIG d   1       5.834  -8.399  -5.588  0.00  0.00     0.066 H 
ATOM     27  H   LIG d   1       7.847  -7.335  -4.897  0.00  0.00     0.062 H 
ATOM     28  H   LIG d   1       9.626  -7.069  -3.347  0.00  0.00     0.058 H 
ATOM     29  H   LIG d   1       8.048  -9.844   0.448  0.00  0.00     0.027 H 
ATOM     30  H   LIG d   1       7.073 -11.044  -0.371  0.00  0.00     0.027 H 
ATOM     31  H   LIG d   1       9.378 -11.809   0.382  0.00  0.00     0.027 H 
ATOM     32  H   LIG d   1       8.916 -12.209  -1.243  0.00  0.00     0.027 H 
ATOM     33  H   LIG d   1      12.344  -9.394  -2.833  0.00  0.00     0.027 H 
ATOM     34  H   LIG d   1      11.376  -7.907  -2.649  0.00  0.00     0.027 H 
ATOM     35  H   LIG d   1      13.042  -8.866  -0.661  0.00  0.00     0.029 H 
ATOM     36  H   LIG d   1      11.576  -7.907  -0.318  0.00  0.00     0.029 H 
ENDROOT
BRANCH  21  37
ATOM     37  C   LIG d   1      10.536  -9.595   1.159  0.00  0.00    -0.018 C 
ATOM     38  H   LIG d   1       9.527  -9.310   0.861  0.00  0.00     0.030 H 
ATOM     39  H   LIG d   1      10.483 -10.413   1.879  0.00  0.00     0.030 H 
BRANCH  37  40
ATOM     40  C   LIG d   1      11.239  -8.397   1.798  0.00  0.00    -0.011 C 
ATOM     41  H   LIG d   1      12.071  -8.084   1.168  0.00  0.00     0.033 H 
ATOM     42  H   LIG d   1      10.531  -7.574   1.902  0.00  0.00     0.033 H 
BRANCH  40  43
ATOM     43  C   LIG d   1      11.758  -8.787   3.158  0.00  0.00     0.042 C 
ATOM     44  O   LIG d   1      11.659  -8.012   4.094  0.00  0.00    -0.550 OA
ATOM     45  O   LIG d   1      12.278  -9.878   3.322  0.00  0.00    -0.550 OA
ENDBRANCH  40  43
ENDBRANCH  37  40
ENDBRANCH  21  37
BRANCH  21  46
ATOM     46  O   LIG d   1      12.366 -10.946   0.345  0.00  0.00    -0.388 OA
ATOM     47  H   LIG d   1      12.674 -11.541  -0.353  0.00  0.00     0.210 HD
ENDBRANCH  21  46
BRANCH  16  48
ATOM     48  C   LIG d   1      11.295 -11.913  -1.682  0.00  0.00    -0.057 C 
ATOM     49  H   LIG d   1      11.783 -12.438  -0.861  0.00  0.00     0.024 H 
ATOM     50  H   LIG d   1      10.645 -12.603  -2.220  0.00  0.00     0.024 H 
ATOM     51  H   LIG d   1      12.051 -11.520  -2.363  0.00  0.00     0.024 H 
ENDBRANCH  16  48
BRANCH   1  52
ATOM     52  C   LIG d   1       7.771 -11.338  -3.380  0.00  0.00    -0.055 C 
ATOM     53  H   LIG d   1       7.256 -11.679  -4.279  0.00  0.00     0.024 H 
ATOM     54  H   LIG d   1       8.801 -11.084  -3.626  0.00  0.00     0.024 H 
ATOM     55  H   LIG d   1       7.760 -12.131  -2.632  0.00  0.00     0.024 H 
ENDBRANCH   1  52
TORSDOF 6
ENDMDL
MODEL 7
REMARK VINA RESULT:      -5.5      8.975     12.275
REMARK  6 active torsions:
REMARK  status: ('A' for Active; 'I' for Inactive)
REMARK    1  A    between atoms: C_1  and  C_2 
REMARK    2  A    between atoms: C_17  and  C_29 
REMARK    3  A    between atoms: C_22  and  C_23 
REMARK    4  A    between atoms: C_22  and  O_28 
REMARK    5  A    between atoms: C_23  and  C_24 
REMARK    6  A    between atoms: C_24  and  C_25 
ROOT
ATOM      1  C   LIG d   1      10.396   7.483  -6.335  0.00  0.00    -0.003 C 
ATOM      2  C   LIG d   1       9.168   8.319  -6.728  0.00  0.00    -0.036 C 
ATOM      3  C   LIG d   1       8.903   8.186  -8.228  0.00  0.00     0.011 C 
ATOM      4  C   LIG d   1      10.150   8.540  -8.995  0.00  0.00     0.156 C 
ATOM      5  O   LIG d   1      10.059   8.904 -10.151  0.00  0.00    -0.293 OA
ATOM      6  C   LIG d   1      11.413   8.454  -8.393  0.00  0.00    -0.015 C 
ATOM      7  C   LIG d   1      11.580   7.978  -7.135  0.00  0.00    -0.038 C 
ATOM      8  C   LIG d   1      12.915   7.954  -6.550  0.00  0.00    -0.062 C 
ATOM      9  C   LIG d   1      13.128   7.576  -5.296  0.00  0.00    -0.080 C 
ATOM     10  C   LIG d   1      12.009   7.141  -4.386  0.00  0.00    -0.016 C 
ATOM     11  H   LIG d   1      12.218   7.589  -3.393  0.00  0.00     0.035 H 
ATOM     12  C   LIG d   1      10.674   7.679  -4.854  0.00  0.00    -0.025 C 
ATOM     13  H   LIG d   1      10.732   8.792  -4.710  0.00  0.00     0.032 H 
ATOM     14  C   LIG d   1       9.540   7.219  -3.955  0.00  0.00    -0.048 C 
ATOM     15  C   LIG d   1       9.549   5.737  -3.651  0.00  0.00    -0.044 C 
ATOM     16  C   LIG d   1      10.886   5.125  -3.335  0.00  0.00     0.000 C 
ATOM     17  C   LIG d   1      12.036   5.628  -4.216  0.00  0.00    -0.026 C 
ATOM     18  H   LIG d   1      12.061   5.107  -5.183  0.00  0.00     0.031 H 
ATOM     19  C   LIG d   1      13.305   5.284  -3.384  0.00  0.00    -0.046 C 
ATOM     20  C   LIG d   1      12.872   5.441  -1.915  0.00  0.00    -0.023 C 
ATOM     21  C   LIG d   1      11.341   5.245  -1.881  0.00  0.00     0.072 C 
ATOM     22  H   LIG d   1       8.298   7.966  -6.173  0.00  0.00     0.028 H 
ATOM     23  H   LIG d   1       9.356   9.365  -6.480  0.00  0.00     0.028 H 
ATOM     24  H   LIG d   1       8.578   7.181  -8.480  0.00  0.00     0.035 H 
ATOM     25  H   LIG d   1       8.107   8.886  -8.511  0.00  0.00     0.035 H 
ATOM     26  H   LIG d   1      12.282   8.774  -8.950  0.00  0.00     0.066 H 
ATOM     27  H   LIG d   1      13.760   8.254  -7.158  0.00  0.00     0.062 H 
ATOM     28  H   LIG d   1      14.142   7.584  -4.912  0.00  0.00     0.058 H 
ATOM     29  H   LIG d   1       9.561   7.803  -3.026  0.00  0.00     0.027 H 
ATOM     30  H   LIG d   1       8.580   7.474  -4.437  0.00  0.00     0.027 H 
ATOM     31  H   LIG d   1       8.866   5.544  -2.806  0.00  0.00     0.027 H 
ATOM     32  H   LIG d   1       9.100   5.185  -4.489  0.00  0.00     0.027 H 
ATOM     33  H   LIG d   1      13.632   4.261  -3.584  0.00  0.00     0.027 H 
ATOM     34  H   LIG d   1      14.116   5.979  -3.619  0.00  0.00     0.027 H 
ATOM     35  H   LIG d   1      13.355   4.682  -1.297  0.00  0.00     0.029 H 
ATOM     36  H   LIG d   1      13.128   6.435  -1.547  0.00  0.00     0.029 H 
ENDROOT
BRANCH  21  37
ATOM     37  C   LIG d   1      10.689   6.411  -1.142  0.00  0.00    -0.018 C 
ATOM     38  H   LIG d   1      10.416   7.188  -1.857  0.00  0.00     0.030 H 
ATOM     39  H   LIG d   1       9.793   6.060  -0.630  0.00  0.00     0.030 H 
BRANCH  37  40
ATOM     40  C   LIG d   1      11.673   6.981  -0.119  0.00  0.00    -0.011 C 
ATOM     41  H   LIG d   1      12.666   6.572  -0.303  0.00  0.00     0.033 H 
ATOM     42  H   LIG d   1      11.704   8.067  -0.211  0.00  0.00     0.033 H 
BRANCH  40  43
ATOM     43  C   LIG d   1      11.225   6.607   1.270  0.00  0.00     0.042 C 
ATOM     44  O   LIG d   1      11.418   7.372   2.200  0.00  0.00    -0.550 OA
ATOM     45  O   LIG d   1      10.668   5.540   1.464  0.00  0.00    -0.550 OA
ENDBRANCH  40  43
ENDBRANCH  37  40
ENDBRANCH  21  37
BRANCH  21  46
ATOM     46  O   LIG d   1      11.043   4.022  -1.187  0.00  0.00    -0.388 OA
ATOM     47  H   LIG d   1      10.096   3.847  -1.088  0.00  0.00     0.210 HD
ENDBRANCH  21  46
BRANCH  16  48
ATOM     48  C   LIG d   1      10.744   3.607  -3.623  0.00  0.00    -0.057 C 
ATOM     49  H   LIG d   1      11.375   3.337  -4.469  0.00  0.00     0.024 H 
ATOM     50  H   LIG d   1      11.052   3.041  -2.744  0.00  0.00     0.024 H 
ATOM     51  H   LIG d   1       9.704   3.377  -3.856  0.00  0.00     0.024 H 
ENDBRANCH  16  48
BRANCH   1  52
ATOM     52  C   LIG d   1      10.136   6.021  -6.694  0.00  0.00    -0.055 C 
ATOM     53  H   LIG d   1      10.198   5.409  -5.794  0.00  0.00     0.024 H 
ATOM     54  H   LIG d   1       9.144   5.925  -7.132  0.00  0.00     0.024 H 
ATOM     55  H   LIG d   1      10.884   5.685  -7.414  0.00  0.00     0.024 H 
ENDBRANCH   1  52
TORSDOF 6
ENDMDL
MODEL 8
REMARK VINA RESULT:      -5.4      3.640      5.916
REMARK  6 active torsions:
REMARK  status: ('A' for Active; 'I' for Inactive)
REMARK    1  A    between atoms: C_1  and  C_2 
REMARK    2  A    between atoms: C_17  and  C_29 
REMARK    3  A    between atoms: C_22  and  C_23 
REMARK    4  A    between atoms: C_22  and  O_28 
REMARK    5  A    between atoms: C_23  and  C_24 
REMARK    6  A    between atoms: C_24  and  C_25 
ROOT
ATOM      1  C   LIG d   1       8.594  -3.697  -4.242  0.00  0.00    -0.003 C 
ATOM      2  C   LIG d   1       9.171  -3.771  -2.820  0.00  0.00    -0.036 C 
ATOM      3  C   LIG d   1      10.665  -4.090  -2.879  0.00  0.00     0.011 C 
ATOM      4  C   LIG d   1      10.883  -5.340  -3.689  0.00  0.00     0.156 C 
ATOM      5  O   LIG d   1      11.895  -5.994  -3.522  0.00  0.00    -0.293 OA
ATOM      6  C   LIG d   1       9.936  -5.759  -4.634  0.00  0.00    -0.015 C 
ATOM      7  C   LIG d   1       8.831  -5.028  -4.918  0.00  0.00    -0.038 C 
ATOM      8  C   LIG d   1       7.862  -5.539  -5.880  0.00  0.00    -0.062 C 
ATOM      9  C   LIG d   1       6.724  -4.907  -6.137  0.00  0.00    -0.080 C 
ATOM     10  C   LIG d   1       6.350  -3.615  -5.459  0.00  0.00    -0.016 C 
ATOM     11  H   LIG d   1       5.271  -3.687  -5.215  0.00  0.00     0.035 H 
ATOM     12  C   LIG d   1       7.099  -3.438  -4.155  0.00  0.00    -0.025 C 
ATOM     13  H   LIG d   1       6.700  -4.236  -3.471  0.00  0.00     0.032 H 
ATOM     14  C   LIG d   1       6.745  -2.123  -3.482  0.00  0.00    -0.048 C 
ATOM     15  C   LIG d   1       6.791  -0.922  -4.402  0.00  0.00    -0.044 C 
ATOM     16  C   LIG d   1       6.199  -1.103  -5.773  0.00  0.00     0.000 C 
ATOM     17  C   LIG d   1       6.521  -2.453  -6.428  0.00  0.00    -0.026 C 
ATOM     18  H   LIG d   1       7.516  -2.448  -6.892  0.00  0.00     0.031 H 
ATOM     19  C   LIG d   1       5.417  -2.598  -7.515  0.00  0.00    -0.046 C 
ATOM     20  C   LIG d   1       4.175  -1.916  -6.914  0.00  0.00    -0.023 C 
ATOM     21  C   LIG d   1       4.688  -0.899  -5.872  0.00  0.00     0.072 C 
ATOM     22  H   LIG d   1       9.024  -2.813  -2.320  0.00  0.00     0.028 H 
ATOM     23  H   LIG d   1       8.650  -4.552  -2.265  0.00  0.00     0.028 H 
ATOM     24  H   LIG d   1      11.225  -3.263  -3.304  0.00  0.00     0.035 H 
ATOM     25  H   LIG d   1      11.030  -4.265  -1.859  0.00  0.00     0.035 H 
ATOM     26  H   LIG d   1      10.092  -6.693  -5.154  0.00  0.00     0.066 H 
ATOM     27  H   LIG d   1       8.078  -6.464  -6.401  0.00  0.00     0.062 H 
ATOM     28  H   LIG d   1       6.038  -5.338  -6.858  0.00  0.00     0.058 H 
ATOM     29  H   LIG d   1       5.755  -2.214  -3.017  0.00  0.00     0.027 H 
ATOM     30  H   LIG d   1       7.446  -1.953  -2.647  0.00  0.00     0.027 H 
ATOM     31  H   LIG d   1       6.282  -0.078  -3.908  0.00  0.00     0.027 H 
ATOM     32  H   LIG d   1       7.830  -0.580  -4.512  0.00  0.00     0.027 H 
ATOM     33  H   LIG d   1       5.720  -2.105  -8.441  0.00  0.00     0.027 H 
ATOM     34  H   LIG d   1       5.213  -3.653  -7.714  0.00  0.00     0.027 H 
ATOM     35  H   LIG d   1       3.617  -1.395  -7.695  0.00  0.00     0.029 H 
ATOM     36  H   LIG d   1       3.532  -2.652  -6.431  0.00  0.00     0.029 H 
ENDROOT
BRANCH  21  37
ATOM     37  C   LIG d   1       3.964  -1.112  -4.545  0.00  0.00    -0.018 C 
ATOM     38  H   LIG d   1       3.449  -2.072  -4.562  0.00  0.00     0.030 H 
ATOM     39  H   LIG d   1       4.690  -1.105  -3.731  0.00  0.00     0.030 H 
BRANCH  37  40
ATOM     40  C   LIG d   1       2.947   0.010  -4.332  0.00  0.00    -0.011 C 
ATOM     41  H   LIG d   1       2.841   0.583  -5.253  0.00  0.00     0.033 H 
ATOM     42  H   LIG d   1       1.984  -0.421  -4.059  0.00  0.00     0.033 H 
BRANCH  40  43
ATOM     43  C   LIG d   1       3.423   0.917  -3.227  0.00  0.00     0.042 C 
ATOM     44  O   LIG d   1       3.851   2.027  -3.491  0.00  0.00    -0.550 OA
ATOM     45  O   LIG d   1       3.381   0.539  -2.068  0.00  0.00    -0.550 OA
ENDBRANCH  40  43
ENDBRANCH  37  40
ENDBRANCH  21  37
BRANCH  21  46
ATOM     46  O   LIG d   1       4.418   0.431  -6.347  0.00  0.00    -0.388 OA
ATOM     47  H   LIG d   1       3.687   0.871  -5.891  0.00  0.00     0.210 HD
ENDBRANCH  21  46
BRANCH  16  48
ATOM     48  C   LIG d   1       6.845  -0.015  -6.669  0.00  0.00    -0.057 C 
ATOM     49  H   LIG d   1       6.076   0.458  -7.279  0.00  0.00     0.024 H 
ATOM     50  H   LIG d   1       7.325   0.735  -6.041  0.00  0.00     0.024 H 
ATOM     51  H   LIG d   1       7.591  -0.475  -7.318  0.00  0.00     0.024 H 
ENDBRANCH  16  48
BRANCH   1  52
ATOM     52  C   LIG d   1       9.332  -2.610  -5.022  0.00  0.00    -0.055 C 
ATOM     53  H   LIG d   1       9.466  -1.735  -4.385  0.00  0.00     0.024 H 
ATOM     54  H   LIG d   1      10.305  -2.985  -5.335  0.00  0.00     0.024 H 
ATOM     55  H   LIG d   1       8.749  -2.334  -5.901  0.00  0.00     0.024 H 
ENDBRANCH   1  52
TORSDOF 6
ENDMDL
MODEL 9
REMARK VINA RESULT:      -5.3      6.790     10.093
REMARK  6 active torsions:
REMARK  status: ('A' for Active; 'I' for Inactive)
REMARK    1  A    between atoms: C_1  and  C_2 
REMARK    2  A    between atoms: C_17  and  C_29 
REMARK    3  A    between atoms: C_22  and  C_23 
REMARK    4  A    between atoms: C_22  and  O_28 
REMARK    5  A    between atoms: C_23  and  C_24 
REMARK    6  A    between atoms: C_24  and  C_25 
ROOT
ATOM      1  C   LIG d   1      10.302   5.962  -7.577  0.00  0.00    -0.003 C 
ATOM      2  C   LIG d   1       9.934   5.608  -9.027  0.00  0.00    -0.036 C 
ATOM      3  C   LIG d   1      10.522   6.644  -9.984  0.00  0.00     0.011 C 
ATOM      4  C   LIG d   1      10.087   8.024  -9.567  0.00  0.00     0.156 C 
ATOM      5  O   LIG d   1      10.078   8.923 -10.384  0.00  0.00    -0.293 OA
ATOM      6  C   LIG d   1       9.692   8.284  -8.247  0.00  0.00    -0.015 C 
ATOM      7  C   LIG d   1       9.759   7.341  -7.276  0.00  0.00    -0.038 C 
ATOM      8  C   LIG d   1       9.293   7.662  -5.932  0.00  0.00    -0.062 C 
ATOM      9  C   LIG d   1       9.259   6.755  -4.963  0.00  0.00    -0.080 C 
ATOM     10  C   LIG d   1       9.700   5.331  -5.178  0.00  0.00    -0.016 C 
ATOM     11  H   LIG d   1       8.966   4.690  -4.647  0.00  0.00     0.035 H 
ATOM     12  C   LIG d   1       9.656   4.953  -6.643  0.00  0.00    -0.025 C 
ATOM     13  H   LIG d   1       8.566   4.950  -6.919  0.00  0.00     0.032 H 
ATOM     14  C   LIG d   1      10.127   3.526  -6.866  0.00  0.00    -0.048 C 
ATOM     15  C   LIG d   1      11.425   3.184  -6.166  0.00  0.00    -0.044 C 
ATOM     16  C   LIG d   1      11.578   3.680  -4.754  0.00  0.00     0.000 C 
ATOM     17  C   LIG d   1      11.057   5.105  -4.525  0.00  0.00    -0.026 C 
ATOM     18  H   LIG d   1      11.793   5.858  -4.837  0.00  0.00     0.031 H 
ATOM     19  C   LIG d   1      10.840   5.166  -2.986  0.00  0.00    -0.046 C 
ATOM     20  C   LIG d   1      10.411   3.742  -2.589  0.00  0.00    -0.023 C 
ATOM     21  C   LIG d   1      10.965   2.793  -3.672  0.00  0.00     0.072 C 
ATOM     22  H   LIG d   1      10.332   4.622  -9.269  0.00  0.00     0.028 H 
ATOM     23  H   LIG d   1       8.847   5.594  -9.124  0.00  0.00     0.028 H 
ATOM     24  H   LIG d   1      11.607   6.583 -10.008  0.00  0.00     0.035 H 
ATOM     25  H   LIG d   1      10.144   6.448 -10.995  0.00  0.00     0.035 H 
ATOM     26  H   LIG d   1       9.325   9.268  -7.994  0.00  0.00     0.066 H 
ATOM     27  H   LIG d   1       8.965   8.672  -5.718  0.00  0.00     0.062 H 
ATOM     28  H   LIG d   1       8.896   7.050  -3.985  0.00  0.00     0.058 H 
ATOM     29  H   LIG d   1       9.331   2.835  -6.561  0.00  0.00     0.027 H 
ATOM     30  H   LIG d   1      10.258   3.362  -7.950  0.00  0.00     0.027 H 
ATOM     31  H   LIG d   1      11.550   2.088  -6.169  0.00  0.00     0.027 H 
ATOM     32  H   LIG d   1      12.274   3.551  -6.760  0.00  0.00     0.027 H 
ATOM     33  H   LIG d   1      11.764   5.449  -2.477  0.00  0.00     0.027 H 
ATOM     34  H   LIG d   1      10.053   5.884  -2.739  0.00  0.00     0.027 H 
ATOM     35  H   LIG d   1      10.833   3.479  -1.616  0.00  0.00     0.029 H 
ATOM     36  H   LIG d   1       9.324   3.668  -2.550  0.00  0.00     0.029 H 
ENDROOT
BRANCH  21  37
ATOM     37  C   LIG d   1       9.845   1.896  -4.193  0.00  0.00    -0.018 C 
ATOM     38  H   LIG d   1       9.861   1.890  -5.283  0.00  0.00     0.030 H 
ATOM     39  H   LIG d   1       9.993   0.880  -3.823  0.00  0.00     0.030 H 
BRANCH  37  40
ATOM     40  C   LIG d   1       8.497   2.426  -3.704  0.00  0.00    -0.011 C 
ATOM     41  H   LIG d   1       8.589   2.755  -2.669  0.00  0.00     0.033 H 
ATOM     42  H   LIG d   1       8.190   3.267  -4.327  0.00  0.00     0.033 H 
BRANCH  40  43
ATOM     43  C   LIG d   1       7.465   1.332  -3.793  0.00  0.00     0.042 C 
ATOM     44  O   LIG d   1       6.487   1.355  -3.065  0.00  0.00    -0.550 OA
ATOM     45  O   LIG d   1       7.607   0.423  -4.594  0.00  0.00    -0.550 OA
ENDBRANCH  40  43
ENDBRANCH  37  40
ENDBRANCH  21  37
BRANCH  21  46
ATOM     46  O   LIG d   1      11.994   1.973  -3.091  0.00  0.00    -0.388 OA
ATOM     47  H   LIG d   1      12.743   2.474  -2.738  0.00  0.00     0.210 HD
ENDBRANCH  21  46
BRANCH  16  48
ATOM     48  C   LIG d   1      13.103   3.720  -4.474  0.00  0.00    -0.057 C 
ATOM     49  H   LIG d   1      13.520   2.721  -4.593  0.00  0.00     0.024 H 
ATOM     50  H   LIG d   1      13.583   4.401  -5.176  0.00  0.00     0.024 H 
ATOM     51  H   LIG d   1      13.276   4.068  -3.455  0.00  0.00     0.024 H 
ENDBRANCH  16  48
BRANCH   1  52
ATOM     52  C   LIG d   1      11.823   5.993  -7.446  0.00  0.00    -0.055 C 
ATOM     53  H   LIG d   1      12.098   6.505  -6.523  0.00  0.00     0.024 H 
ATOM     54  H   LIG d   1      12.207   4.974  -7.424  0.00  0.00     0.024 H 
ATOM     55  H   LIG d   1      12.251   6.525  -8.297  0.00  0.00     0.024 H 
ENDBRANCH   1  52
TORSDOF 6
ENDMDL
MODEL 10
REMARK VINA RESULT:      -5.2      2.771      6.059
REMARK  6 active torsions:
REMARK  status: ('A' for Active; 'I' for Inactive)
REMARK    1  A    between atoms: C_1  and  C_2 
REMARK    2  A    between atoms: C_17  and  C_29 
REMARK    3  A    between atoms: C_22  and  C_23 
REMARK    4  A    between atoms: C_22  and  O_28 
REMARK    5  A    between atoms: C_23  and  C_24 
REMARK    6  A    between atoms: C_24  and  C_25 
ROOT
ATOM      1  C   LIG d   1       5.207  -3.219  -7.264  0.00  0.00    -0.003 C 
ATOM      2  C   LIG d   1       6.128  -3.175  -8.493  0.00  0.00    -0.036 C 
ATOM      3  C   LIG d   1       5.427  -3.807  -9.695  0.00  0.00     0.011 C 
ATOM      4  C   LIG d   1       4.959  -5.193  -9.337  0.00  0.00     0.156 C 
ATOM      5  O   LIG d   1       4.766  -6.007 -10.218  0.00  0.00    -0.293 OA
ATOM      6  C   LIG d   1       4.741  -5.554  -8.000  0.00  0.00    -0.015 C 
ATOM      7  C   LIG d   1       4.862  -4.665  -6.985  0.00  0.00    -0.038 C 
ATOM      8  C   LIG d   1       4.664  -5.114  -5.611  0.00  0.00    -0.062 C 
ATOM      9  C   LIG d   1       4.848  -4.308  -4.573  0.00  0.00    -0.080 C 
ATOM     10  C   LIG d   1       5.272  -2.872  -4.735  0.00  0.00    -0.016 C 
ATOM     11  H   LIG d   1       6.023  -2.673  -3.943  0.00  0.00     0.035 H 
ATOM     12  C   LIG d   1       5.948  -2.641  -6.070  0.00  0.00    -0.025 C 
ATOM     13  H   LIG d   1       6.915  -3.212  -6.018  0.00  0.00     0.032 H 
ATOM     14  C   LIG d   1       6.351  -1.188  -6.248  0.00  0.00    -0.048 C 
ATOM     15  C   LIG d   1       5.259  -0.194  -5.915  0.00  0.00    -0.044 C 
ATOM     16  C   LIG d   1       4.452  -0.472  -4.677  0.00  0.00     0.000 C 
ATOM     17  C   LIG d   1       4.088  -1.950  -4.479  0.00  0.00    -0.026 C 
ATOM     18  H   LIG d   1       3.211  -2.232  -5.076  0.00  0.00     0.031 H 
ATOM     19  C   LIG d   1       3.759  -2.038  -2.961  0.00  0.00    -0.046 C 
ATOM     20  C   LIG d   1       4.698  -1.020  -2.290  0.00  0.00    -0.023 C 
ATOM     21  C   LIG d   1       5.059   0.026  -3.367  0.00  0.00     0.072 C 
ATOM     22  H   LIG d   1       6.376  -2.138  -8.720  0.00  0.00     0.028 H 
ATOM     23  H   LIG d   1       7.044  -3.725  -8.271  0.00  0.00     0.028 H 
ATOM     24  H   LIG d   1       4.589  -3.199 -10.023  0.00  0.00     0.035 H 
ATOM     25  H   LIG d   1       6.142  -3.882 -10.524  0.00  0.00     0.035 H 
ATOM     26  H   LIG d   1       4.466  -6.573  -7.771  0.00  0.00     0.066 H 
ATOM     27  H   LIG d   1       4.356  -6.137  -5.433  0.00  0.00     0.062 H 
ATOM     28  H   LIG d   1       4.692  -4.699  -3.574  0.00  0.00     0.058 H 
ATOM     29  H   LIG d   1       7.248  -0.989  -5.647  0.00  0.00     0.027 H 
ATOM     30  H   LIG d   1       6.662  -1.032  -7.296  0.00  0.00     0.027 H 
ATOM     31  H   LIG d   1       5.709   0.809  -5.824  0.00  0.00     0.027 H 
ATOM     32  H   LIG d   1       4.571  -0.102  -6.768  0.00  0.00     0.027 H 
ATOM     33  H   LIG d   1       2.713  -1.782  -2.776  0.00  0.00     0.027 H 
ATOM     34  H   LIG d   1       3.959  -3.045  -2.585  0.00  0.00     0.027 H 
ATOM     35  H   LIG d   1       4.189  -0.531  -1.457  0.00  0.00     0.029 H 
ATOM     36  H   LIG d   1       5.602  -1.513  -1.932  0.00  0.00     0.029 H 
ENDROOT
BRANCH  21  37
ATOM     37  C   LIG d   1       6.575   0.194  -3.433  0.00  0.00    -0.018 C 
ATOM     38  H   LIG d   1       7.032  -0.284  -2.566  0.00  0.00     0.030 H 
ATOM     39  H   LIG d   1       6.953  -0.271  -4.344  0.00  0.00     0.030 H 
BRANCH  37  40
ATOM     40  C   LIG d   1       6.923   1.683  -3.437  0.00  0.00    -0.011 C 
ATOM     41  H   LIG d   1       6.083   2.252  -3.835  0.00  0.00     0.033 H 
ATOM     42  H   LIG d   1       7.134   2.010  -2.418  0.00  0.00     0.033 H 
BRANCH  40  43
ATOM     43  C   LIG d   1       8.138   1.912  -4.299  0.00  0.00     0.042 C 
ATOM     44  O   LIG d   1       9.253   1.845  -3.812  0.00  0.00    -0.550 OA
ATOM     45  O   LIG d   1       8.005   2.165  -5.485  0.00  0.00    -0.550 OA
ENDBRANCH  40  43
ENDBRANCH  37  40
ENDBRANCH  21  37
BRANCH  21  46
ATOM     46  O   LIG d   1       4.460   1.284  -3.014  0.00  0.00    -0.388 OA
ATOM     47  H   LIG d   1       5.016   2.052  -3.209  0.00  0.00     0.210 HD
ENDBRANCH  21  46
BRANCH  16  48
ATOM     48  C   LIG d   1       3.113   0.290  -4.855  0.00  0.00    -0.057 C 
ATOM     49  H   LIG d   1       3.316   1.348  -5.017  0.00  0.00     0.024 H 
ATOM     50  H   LIG d   1       2.577  -0.114  -5.713  0.00  0.00     0.024 H 
ATOM     51  H   LIG d   1       2.505   0.169  -3.958  0.00  0.00     0.024 H 
ENDBRANCH  16  48
BRANCH   1  52
ATOM     52  C   LIG d   1       3.921  -2.459  -7.580  0.00  0.00    -0.055 C 
ATOM     53  H   LIG d   1       3.092  -2.901  -7.027  0.00  0.00     0.024 H 
ATOM     54  H   LIG d   1       4.035  -1.415  -7.291  0.00  0.00     0.024 H 
ATOM     55  H   LIG d   1       3.717  -2.519  -8.650  0.00  0.00     0.024 H 
ENDBRANCH   1  52
TORSDOF 6
ENDMDL
