MODEL 1
REMARK VINA RESULT:      -6.9      0.000      0.000
REMARK  1 active torsions:
REMARK  status: ('A' for Active; 'I' for Inactive)
REMARK    1  A    between atoms: C_15  and  N_17 
REMARK       I    between atoms: N_17  and  C_18 
ROOT
ATOM      1  C   LIG d   1       2.808   0.398  -6.983  0.00  0.00    -0.049 C 
ATOM      2  C   LIG d   1       3.533  -0.924  -7.272  0.00  0.00    -0.049 C 
ATOM      3  C   LIG d   1       4.887  -0.867  -6.576  0.00  0.00    -0.031 C 
ATOM      4  C   LIG d   1       4.746  -0.470  -5.122  0.00  0.00    -0.065 C 
ATOM      5  C   LIG d   1       3.697   0.131  -4.649  0.00  0.00    -0.070 C 
ATOM      6  C   LIG d   1       2.475   0.429  -5.497  0.00  0.00    -0.032 C 
ATOM      7  C   LIG d   1       3.590   0.601  -3.214  0.00  0.00    -0.027 C 
ATOM      8  C   LIG d   1       4.647  -0.005  -2.314  0.00  0.00    -0.018 C 
ATOM      9  H   LIG d   1       4.708   0.608  -1.415  0.00  0.00     0.032 H 
ATOM     10  C   LIG d   1       4.301  -1.426  -1.897  0.00  0.00    -0.048 C 
ATOM     11  C   LIG d   1       4.315  -2.367  -3.101  0.00  0.00    -0.052 C 
ATOM     12  C   LIG d   1       5.696  -2.307  -3.788  0.00  0.00    -0.045 C 
ATOM     13  C   LIG d   1       5.924  -0.859  -4.246  0.00  0.00    -0.001 C 
ATOM     14  H   LIG d   1       6.849  -0.791  -4.818  0.00  0.00     0.036 H 
ATOM     15  C   LIG d   1       6.003   0.047  -3.021  0.00  0.00     0.033 C 
ATOM     16  H   LIG d   1       6.784  -0.307  -2.349  0.00  0.00     0.051 H 
ATOM     17  H   LIG d   1       3.456   1.237  -7.235  0.00  0.00     0.027 H 
ATOM     18  H   LIG d   1       1.890   0.452  -7.569  0.00  0.00     0.027 H 
ATOM     19  H   LIG d   1       2.951  -1.758  -6.881  0.00  0.00     0.027 H 
ATOM     20  H   LIG d   1       3.673  -1.042  -8.347  0.00  0.00     0.027 H 
ATOM     21  H   LIG d   1       5.359  -1.848  -6.633  0.00  0.00     0.031 H 
ATOM     22  H   LIG d   1       5.519  -0.138  -7.084  0.00  0.00     0.031 H 
ATOM     23  H   LIG d   1       2.092   1.416  -5.238  0.00  0.00     0.031 H 
ATOM     24  H   LIG d   1       1.707  -0.316  -5.288  0.00  0.00     0.031 H 
ATOM     25  H   LIG d   1       2.606   0.327  -2.834  0.00  0.00     0.031 H 
ATOM     26  H   LIG d   1       3.686   1.687  -3.184  0.00  0.00     0.031 H 
ATOM     27  H   LIG d   1       5.029  -1.772  -1.163  0.00  0.00     0.027 H 
ATOM     28  H   LIG d   1       3.307  -1.436  -1.448  0.00  0.00     0.027 H 
ATOM     29  H   LIG d   1       4.120  -3.386  -2.770  0.00  0.00     0.027 H 
ATOM     30  H   LIG d   1       3.546  -2.061  -3.811  0.00  0.00     0.027 H 
ATOM     31  H   LIG d   1       5.722  -2.976  -4.649  0.00  0.00     0.027 H 
ATOM     32  H   LIG d   1       6.470  -2.594  -3.075  0.00  0.00     0.027 H 
ENDROOT
BRANCH  15  33
ATOM     33  N   LIG d   1       6.292   1.421  -3.437  0.00  0.00    -0.314 N 
ATOM     34  C   LIG d   1       7.539   1.763  -3.816  0.00  0.00     0.200 C 
ATOM     35  O   LIG d   1       8.422   0.931  -3.812  0.00  0.00    -0.280 OA
ATOM     36  H   LIG d   1       7.752   2.775  -4.124  0.00  0.00     0.125 H 
ATOM     37  H   LIG d   1       5.584   2.086  -3.441  0.00  0.00     0.149 HD
ENDBRANCH  15  33
TORSDOF 1
ENDMDL
MODEL 2
REMARK VINA RESULT:      -6.2      2.157      4.073
REMARK  1 active torsions:
REMARK  status: ('A' for Active; 'I' for Inactive)
REMARK    1  A    between atoms: C_15  and  N_17 
REMARK       I    between atoms: N_17  and  C_18 
ROOT
ATOM      1  C   LIG d   1       8.419  -0.157  -4.770  0.00  0.00    -0.049 C 
ATOM      2  C   LIG d   1       8.106   0.935  -3.737  0.00  0.00    -0.049 C 
ATOM      3  C   LIG d   1       6.643   1.326  -3.912  0.00  0.00    -0.031 C 
ATOM      4  C   LIG d   1       5.742   0.111  -3.915  0.00  0.00    -0.065 C 
ATOM      5  C   LIG d   1       6.171  -1.091  -4.152  0.00  0.00    -0.070 C 
ATOM      6  C   LIG d   1       7.638  -1.405  -4.377  0.00  0.00    -0.032 C 
ATOM      7  C   LIG d   1       5.257  -2.295  -4.235  0.00  0.00    -0.027 C 
ATOM      8  C   LIG d   1       3.877  -2.029  -3.669  0.00  0.00    -0.018 C 
ATOM      9  H   LIG d   1       3.208  -2.799  -4.052  0.00  0.00     0.032 H 
ATOM     10  C   LIG d   1       3.856  -2.091  -2.150  0.00  0.00    -0.048 C 
ATOM     11  C   LIG d   1       4.685  -0.958  -1.546  0.00  0.00    -0.052 C 
ATOM     12  C   LIG d   1       4.154   0.399  -2.056  0.00  0.00    -0.045 C 
ATOM     13  C   LIG d   1       4.289   0.404  -3.586  0.00  0.00    -0.001 C 
ATOM     14  H   LIG d   1       4.010   1.381  -3.981  0.00  0.00     0.036 H 
ATOM     15  C   LIG d   1       3.379  -0.672  -4.172  0.00  0.00     0.033 C 
ATOM     16  H   LIG d   1       2.353  -0.509  -3.842  0.00  0.00     0.051 H 
ATOM     17  H   LIG d   1       8.113   0.174  -5.762  0.00  0.00     0.027 H 
ATOM     18  H   LIG d   1       9.488  -0.373  -4.766  0.00  0.00     0.027 H 
ATOM     19  H   LIG d   1       8.268   0.549  -2.731  0.00  0.00     0.027 H 
ATOM     20  H   LIG d   1       8.745   1.801  -3.910  0.00  0.00     0.027 H 
ATOM     21  H   LIG d   1       6.351   1.985  -3.094  0.00  0.00     0.031 H 
ATOM     22  H   LIG d   1       6.527   1.857  -4.857  0.00  0.00     0.031 H 
ATOM     23  H   LIG d   1       7.728  -2.145  -5.172  0.00  0.00     0.031 H 
ATOM     24  H   LIG d   1       8.060  -1.815  -3.460  0.00  0.00     0.031 H 
ATOM     25  H   LIG d   1       5.712  -3.114  -3.677  0.00  0.00     0.031 H 
ATOM     26  H   LIG d   1       5.156  -2.597  -5.278  0.00  0.00     0.031 H 
ATOM     27  H   LIG d   1       2.827  -2.008  -1.802  0.00  0.00     0.027 H 
ATOM     28  H   LIG d   1       4.268  -3.046  -1.825  0.00  0.00     0.027 H 
ATOM     29  H   LIG d   1       4.608  -0.990  -0.460  0.00  0.00     0.027 H 
ATOM     30  H   LIG d   1       5.727  -1.071  -1.842  0.00  0.00     0.027 H 
ATOM     31  H   LIG d   1       4.734   1.219  -1.632  0.00  0.00     0.027 H 
ATOM     32  H   LIG d   1       3.105   0.508  -1.779  0.00  0.00     0.027 H 
ENDROOT
BRANCH  15  33
ATOM     33  N   LIG d   1       3.441  -0.632  -5.635  0.00  0.00    -0.314 N 
ATOM     34  C   LIG d   1       2.969   0.440  -6.302  0.00  0.00     0.200 C 
ATOM     35  O   LIG d   1       2.493   1.372  -5.688  0.00  0.00    -0.280 OA
ATOM     36  H   LIG d   1       3.016   0.469  -7.379  0.00  0.00     0.125 H 
ATOM     37  H   LIG d   1       3.823  -1.378  -6.125  0.00  0.00     0.149 HD
ENDBRANCH  15  33
TORSDOF 1
ENDMDL
MODEL 3
REMARK VINA RESULT:      -6.1      3.002      4.688
REMARK  1 active torsions:
REMARK  status: ('A' for Active; 'I' for Inactive)
REMARK    1  A    between atoms: C_15  and  N_17 
REMARK       I    between atoms: N_17  and  C_18 
ROOT
ATOM      1  C   LIG d   1       3.013   0.021  -2.792  0.00  0.00    -0.049 C 
ATOM      2  C   LIG d   1       4.194  -0.395  -1.904  0.00  0.00    -0.049 C 
ATOM      3  C   LIG d   1       4.628  -1.789  -2.342  0.00  0.00    -0.031 C 
ATOM      4  C   LIG d   1       4.841  -1.858  -3.839  0.00  0.00    -0.065 C 
ATOM      5  C   LIG d   1       4.336  -0.996  -4.668  0.00  0.00    -0.070 C 
ATOM      6  C   LIG d   1       3.541   0.211  -4.208  0.00  0.00    -0.032 C 
ATOM      7  C   LIG d   1       4.482  -1.111  -6.170  0.00  0.00    -0.027 C 
ATOM      8  C   LIG d   1       5.553  -2.098  -6.586  0.00  0.00    -0.018 C 
ATOM      9  H   LIG d   1       5.376  -2.360  -7.629  0.00  0.00     0.032 H 
ATOM     10  C   LIG d   1       6.952  -1.512  -6.474  0.00  0.00    -0.048 C 
ATOM     11  C   LIG d   1       7.310  -1.231  -5.015  0.00  0.00    -0.052 C 
ATOM     12  C   LIG d   1       7.183  -2.531  -4.192  0.00  0.00    -0.045 C 
ATOM     13  C   LIG d   1       5.725  -3.005  -4.296  0.00  0.00    -0.001 C 
ATOM     14  H   LIG d   1       5.569  -3.871  -3.654  0.00  0.00     0.036 H 
ATOM     15  C   LIG d   1       5.420  -3.370  -5.746  0.00  0.00     0.033 C 
ATOM     16  H   LIG d   1       6.130  -4.120  -6.095  0.00  0.00     0.051 H 
ATOM     17  H   LIG d   1       2.250  -0.758  -2.782  0.00  0.00     0.027 H 
ATOM     18  H   LIG d   1       2.588   0.957  -2.427  0.00  0.00     0.027 H 
ATOM     19  H   LIG d   1       5.018   0.306  -2.032  0.00  0.00     0.027 H 
ATOM     20  H   LIG d   1       3.882  -0.414  -0.859  0.00  0.00     0.027 H 
ATOM     21  H   LIG d   1       5.559  -2.047  -1.837  0.00  0.00     0.031 H 
ATOM     22  H   LIG d   1       3.858  -2.507  -2.059  0.00  0.00     0.031 H 
ATOM     23  H   LIG d   1       2.700   0.363  -4.884  0.00  0.00     0.031 H 
ATOM     24  H   LIG d   1       4.182   1.092  -4.235  0.00  0.00     0.031 H 
ATOM     25  H   LIG d   1       4.738  -0.129  -6.568  0.00  0.00     0.031 H 
ATOM     26  H   LIG d   1       3.531  -1.425  -6.600  0.00  0.00     0.031 H 
ATOM     27  H   LIG d   1       7.671  -2.216  -6.891  0.00  0.00     0.027 H 
ATOM     28  H   LIG d   1       6.996  -0.580  -7.037  0.00  0.00     0.027 H 
ATOM     29  H   LIG d   1       8.335  -0.865  -4.955  0.00  0.00     0.027 H 
ATOM     30  H   LIG d   1       6.631  -0.481  -4.611  0.00  0.00     0.027 H 
ATOM     31  H   LIG d   1       7.438  -2.348  -3.148  0.00  0.00     0.027 H 
ATOM     32  H   LIG d   1       7.847  -3.291  -4.606  0.00  0.00     0.027 H 
ENDROOT
BRANCH  15  33
ATOM     33  N   LIG d   1       4.055  -3.892  -5.850  0.00  0.00    -0.314 N 
ATOM     34  C   LIG d   1       3.798  -4.958  -6.634  0.00  0.00     0.200 C 
ATOM     35  O   LIG d   1       4.698  -5.484  -7.254  0.00  0.00    -0.280 OA
ATOM     36  H   LIG d   1       2.793  -5.342  -6.710  0.00  0.00     0.125 H 
ATOM     37  H   LIG d   1       3.336  -3.470  -5.353  0.00  0.00     0.149 HD
ENDBRANCH  15  33
TORSDOF 1
ENDMDL
MODEL 4
REMARK VINA RESULT:      -6.1      1.980      3.353
REMARK  1 active torsions:
REMARK  status: ('A' for Active; 'I' for Inactive)
REMARK    1  A    between atoms: C_15  and  N_17 
REMARK       I    between atoms: N_17  and  C_18 
ROOT
ATOM      1  C   LIG d   1       3.634   1.157  -2.341  0.00  0.00    -0.049 C 
ATOM      2  C   LIG d   1       2.868  -0.055  -2.888  0.00  0.00    -0.049 C 
ATOM      3  C   LIG d   1       3.341  -0.290  -4.318  0.00  0.00    -0.031 C 
ATOM      4  C   LIG d   1       4.851  -0.343  -4.400  0.00  0.00    -0.065 C 
ATOM      5  C   LIG d   1       5.629   0.146  -3.484  0.00  0.00    -0.070 C 
ATOM      6  C   LIG d   1       5.097   0.756  -2.201  0.00  0.00    -0.032 C 
ATOM      7  C   LIG d   1       7.138   0.166  -3.604  0.00  0.00    -0.027 C 
ATOM      8  C   LIG d   1       7.655  -0.744  -4.699  0.00  0.00    -0.018 C 
ATOM      9  H   LIG d   1       8.674  -0.436  -4.933  0.00  0.00     0.032 H 
ATOM     10  C   LIG d   1       7.687  -2.203  -4.268  0.00  0.00    -0.048 C 
ATOM     11  C   LIG d   1       6.273  -2.734  -4.038  0.00  0.00    -0.052 C 
ATOM     12  C   LIG d   1       5.435  -2.549  -5.321  0.00  0.00    -0.045 C 
ATOM     13  C   LIG d   1       5.390  -1.046  -5.633  0.00  0.00    -0.001 C 
ATOM     14  H   LIG d   1       4.732  -0.862  -6.482  0.00  0.00     0.036 H 
ATOM     15  C   LIG d   1       6.800  -0.559  -5.954  0.00  0.00     0.033 C 
ATOM     16  H   LIG d   1       7.216  -1.144  -6.774  0.00  0.00     0.051 H 
ATOM     17  H   LIG d   1       3.544   1.994  -3.032  0.00  0.00     0.027 H 
ATOM     18  H   LIG d   1       3.233   1.438  -1.366  0.00  0.00     0.027 H 
ATOM     19  H   LIG d   1       3.082  -0.934  -2.280  0.00  0.00     0.027 H 
ATOM     20  H   LIG d   1       1.797   0.150  -2.881  0.00  0.00     0.027 H 
ATOM     21  H   LIG d   1       2.931  -1.233  -4.679  0.00  0.00     0.031 H 
ATOM     22  H   LIG d   1       2.979   0.522  -4.951  0.00  0.00     0.031 H 
ATOM     23  H   LIG d   1       5.686   1.639  -1.953  0.00  0.00     0.031 H 
ATOM     24  H   LIG d   1       5.192   0.029  -1.394  0.00  0.00     0.031 H 
ATOM     25  H   LIG d   1       7.564  -0.154  -2.652  0.00  0.00     0.031 H 
ATOM     26  H   LIG d   1       7.468   1.184  -3.810  0.00  0.00     0.031 H 
ATOM     27  H   LIG d   1       8.171  -2.796  -5.044  0.00  0.00     0.027 H 
ATOM     28  H   LIG d   1       8.256  -2.291  -3.343  0.00  0.00     0.027 H 
ATOM     29  H   LIG d   1       6.318  -3.793  -3.786  0.00  0.00     0.027 H 
ATOM     30  H   LIG d   1       5.805  -2.184  -3.221  0.00  0.00     0.027 H 
ATOM     31  H   LIG d   1       4.423  -2.926  -5.174  0.00  0.00     0.027 H 
ATOM     32  H   LIG d   1       5.910  -3.082  -6.146  0.00  0.00     0.027 H 
ENDROOT
BRANCH  15  33
ATOM     33  N   LIG d   1       6.764   0.858  -6.324  0.00  0.00    -0.314 N 
ATOM     34  C   LIG d   1       7.451   1.292  -7.399  0.00  0.00     0.200 C 
ATOM     35  O   LIG d   1       8.100   0.509  -8.059  0.00  0.00    -0.280 OA
ATOM     36  H   LIG d   1       7.424   2.336  -7.672  0.00  0.00     0.125 H 
ATOM     37  H   LIG d   1       6.244   1.484  -5.795  0.00  0.00     0.149 HD
ENDBRANCH  15  33
TORSDOF 1
ENDMDL
MODEL 5
REMARK VINA RESULT:      -6.0      2.348      4.097
REMARK  1 active torsions:
REMARK  status: ('A' for Active; 'I' for Inactive)
REMARK    1  A    between atoms: C_15  and  N_17 
REMARK       I    between atoms: N_17  and  C_18 
ROOT
ATOM      1  C   LIG d   1       4.383   0.328  -1.590  0.00  0.00    -0.049 C 
ATOM      2  C   LIG d   1       4.800   1.406  -2.600  0.00  0.00    -0.049 C 
ATOM      3  C   LIG d   1       6.132   0.977  -3.205  0.00  0.00    -0.031 C 
ATOM      4  C   LIG d   1       6.077  -0.448  -3.711  0.00  0.00    -0.065 C 
ATOM      5  C   LIG d   1       5.184  -1.306  -3.320  0.00  0.00    -0.070 C 
ATOM      6  C   LIG d   1       4.060  -0.940  -2.370  0.00  0.00    -0.032 C 
ATOM      7  C   LIG d   1       5.179  -2.754  -3.763  0.00  0.00    -0.027 C 
ATOM      8  C   LIG d   1       6.073  -3.009  -4.959  0.00  0.00    -0.018 C 
ATOM      9  H   LIG d   1       6.265  -4.080  -5.007  0.00  0.00     0.032 H 
ATOM     10  C   LIG d   1       5.421  -2.584  -6.266  0.00  0.00    -0.048 C 
ATOM     11  C   LIG d   1       5.232  -1.068  -6.313  0.00  0.00    -0.052 C 
ATOM     12  C   LIG d   1       6.594  -0.370  -6.116  0.00  0.00    -0.045 C 
ATOM     13  C   LIG d   1       7.137  -0.791  -4.742  0.00  0.00    -0.001 C 
ATOM     14  H   LIG d   1       8.056  -0.249  -4.523  0.00  0.00     0.036 H 
ATOM     15  C   LIG d   1       7.409  -2.293  -4.751  0.00  0.00     0.033 C 
ATOM     16  H   LIG d   1       8.091  -2.540  -5.565  0.00  0.00     0.051 H 
ATOM     17  H   LIG d   1       5.201   0.137  -0.895  0.00  0.00     0.027 H 
ATOM     18  H   LIG d   1       3.501   0.659  -1.040  0.00  0.00     0.027 H 
ATOM     19  H   LIG d   1       4.048   1.488  -3.384  0.00  0.00     0.027 H 
ATOM     20  H   LIG d   1       4.914   2.364  -2.093  0.00  0.00     0.027 H 
ATOM     21  H   LIG d   1       6.376   1.640  -4.035  0.00  0.00     0.031 H 
ATOM     22  H   LIG d   1       6.910   1.055  -2.445  0.00  0.00     0.031 H 
ATOM     23  H   LIG d   1       3.903  -1.759  -1.669  0.00  0.00     0.031 H 
ATOM     24  H   LIG d   1       3.146  -0.783  -2.943  0.00  0.00     0.031 H 
ATOM     25  H   LIG d   1       4.157  -3.031  -4.024  0.00  0.00     0.031 H 
ATOM     26  H   LIG d   1       5.510  -3.383  -2.937  0.00  0.00     0.031 H 
ATOM     27  H   LIG d   1       6.053  -2.892  -7.099  0.00  0.00     0.027 H 
ATOM     28  H   LIG d   1       4.449  -3.068  -6.356  0.00  0.00     0.027 H 
ATOM     29  H   LIG d   1       4.816  -0.783  -7.279  0.00  0.00     0.027 H 
ATOM     30  H   LIG d   1       4.552  -0.761  -5.519  0.00  0.00     0.027 H 
ATOM     31  H   LIG d   1       6.476   0.713  -6.149  0.00  0.00     0.027 H 
ATOM     32  H   LIG d   1       7.284  -0.689  -6.898  0.00  0.00     0.027 H 
ENDROOT
BRANCH  15  33
ATOM     33  N   LIG d   1       7.995  -2.699  -3.471  0.00  0.00    -0.314 N 
ATOM     34  C   LIG d   1       8.929  -3.670  -3.435  0.00  0.00     0.200 C 
ATOM     35  O   LIG d   1       9.284  -4.207  -4.463  0.00  0.00    -0.280 OA
ATOM     36  H   LIG d   1       9.361  -3.969  -2.492  0.00  0.00     0.125 H 
ATOM     37  H   LIG d   1       7.710  -2.269  -2.649  0.00  0.00     0.149 HD
ENDBRANCH  15  33
TORSDOF 1
ENDMDL
MODEL 6
REMARK VINA RESULT:      -5.9      2.592      4.399
REMARK  1 active torsions:
REMARK  status: ('A' for Active; 'I' for Inactive)
REMARK    1  A    between atoms: C_15  and  N_17 
REMARK       I    between atoms: N_17  and  C_18 
ROOT
ATOM      1  C   LIG d   1       4.780   0.924  -2.074  0.00  0.00    -0.049 C 
ATOM      2  C   LIG d   1       4.413  -0.484  -1.585  0.00  0.00    -0.049 C 
ATOM      3  C   LIG d   1       3.822  -1.241  -2.769  0.00  0.00    -0.031 C 
ATOM      4  C   LIG d   1       4.716  -1.152  -3.986  0.00  0.00    -0.065 C 
ATOM      5  C   LIG d   1       5.627  -0.239  -4.133  0.00  0.00    -0.070 C 
ATOM      6  C   LIG d   1       5.934   0.788  -3.059  0.00  0.00    -0.032 C 
ATOM      7  C   LIG d   1       6.466  -0.101  -5.385  0.00  0.00    -0.027 C 
ATOM      8  C   LIG d   1       6.397  -1.321  -6.280  0.00  0.00    -0.018 C 
ATOM      9  H   LIG d   1       6.742  -1.026  -7.271  0.00  0.00     0.032 H 
ATOM     10  C   LIG d   1       7.286  -2.451  -5.783  0.00  0.00    -0.048 C 
ATOM     11  C   LIG d   1       6.783  -2.993  -4.446  0.00  0.00    -0.052 C 
ATOM     12  C   LIG d   1       5.319  -3.460  -4.595  0.00  0.00    -0.045 C 
ATOM     13  C   LIG d   1       4.484  -2.242  -5.018  0.00  0.00    -0.001 C 
ATOM     14  H   LIG d   1       3.428  -2.506  -5.046  0.00  0.00     0.036 H 
ATOM     15  C   LIG d   1       4.941  -1.778  -6.399  0.00  0.00     0.033 C 
ATOM     16  H   LIG d   1       4.869  -2.602  -7.108  0.00  0.00     0.051 H 
ATOM     17  H   LIG d   1       3.922   1.378  -2.570  0.00  0.00     0.027 H 
ATOM     18  H   LIG d   1       5.086   1.541  -1.228  0.00  0.00     0.027 H 
ATOM     19  H   LIG d   1       5.307  -0.996  -1.229  0.00  0.00     0.027 H 
ATOM     20  H   LIG d   1       3.679  -0.418  -0.783  0.00  0.00     0.027 H 
ATOM     21  H   LIG d   1       3.696  -2.289  -2.494  0.00  0.00     0.031 H 
ATOM     22  H   LIG d   1       2.847  -0.817  -3.012  0.00  0.00     0.031 H 
ATOM     23  H   LIG d   1       6.116   1.754  -3.530  0.00  0.00     0.031 H 
ATOM     24  H   LIG d   1       6.830   0.482  -2.519  0.00  0.00     0.031 H 
ATOM     25  H   LIG d   1       7.503   0.059  -5.090  0.00  0.00     0.031 H 
ATOM     26  H   LIG d   1       6.126   0.767  -5.950  0.00  0.00     0.031 H 
ATOM     27  H   LIG d   1       7.289  -3.255  -6.518  0.00  0.00     0.027 H 
ATOM     28  H   LIG d   1       8.302  -2.077  -5.657  0.00  0.00     0.027 H 
ATOM     29  H   LIG d   1       7.401  -3.836  -4.139  0.00  0.00     0.027 H 
ATOM     30  H   LIG d   1       6.836  -2.208  -3.691  0.00  0.00     0.027 H 
ATOM     31  H   LIG d   1       4.946  -3.852  -3.649  0.00  0.00     0.027 H 
ATOM     32  H   LIG d   1       5.259  -4.232  -5.363  0.00  0.00     0.027 H 
ENDROOT
BRANCH  15  33
ATOM     33  N   LIG d   1       4.106  -0.661  -6.848  0.00  0.00    -0.314 N 
ATOM     34  C   LIG d   1       3.308  -0.805  -7.924  0.00  0.00     0.200 C 
ATOM     35  O   LIG d   1       3.282  -1.861  -8.521  0.00  0.00    -0.280 OA
ATOM     36  H   LIG d   1       2.694   0.017  -8.255  0.00  0.00     0.125 H 
ATOM     37  H   LIG d   1       4.128   0.184  -6.370  0.00  0.00     0.149 HD
ENDBRANCH  15  33
TORSDOF 1
ENDMDL
MODEL 7
REMARK VINA RESULT:      -5.8      1.506      2.627
REMARK  1 active torsions:
REMARK  status: ('A' for Active; 'I' for Inactive)
REMARK    1  A    between atoms: C_15  and  N_17 
REMARK       I    between atoms: N_17  and  C_18 
ROOT
ATOM      1  C   LIG d   1       5.367  -3.886  -6.793  0.00  0.00    -0.049 C 
ATOM      2  C   LIG d   1       5.590  -4.524  -5.415  0.00  0.00    -0.049 C 
ATOM      3  C   LIG d   1       6.248  -3.476  -4.525  0.00  0.00    -0.031 C 
ATOM      4  C   LIG d   1       5.489  -2.167  -4.557  0.00  0.00    -0.065 C 
ATOM      5  C   LIG d   1       4.659  -1.851  -5.504  0.00  0.00    -0.070 C 
ATOM      6  C   LIG d   1       4.312  -2.798  -6.637  0.00  0.00    -0.032 C 
ATOM      7  C   LIG d   1       3.962  -0.509  -5.579  0.00  0.00    -0.027 C 
ATOM      8  C   LIG d   1       4.042   0.271  -4.283  0.00  0.00    -0.018 C 
ATOM      9  H   LIG d   1       3.819   1.314  -4.509  0.00  0.00     0.032 H 
ATOM     10  C   LIG d   1       3.035  -0.218  -3.253  0.00  0.00    -0.048 C 
ATOM     11  C   LIG d   1       3.364  -1.641  -2.803  0.00  0.00    -0.052 C 
ATOM     12  C   LIG d   1       4.802  -1.687  -2.243  0.00  0.00    -0.045 C 
ATOM     13  C   LIG d   1       5.753  -1.258  -3.370  0.00  0.00    -0.001 C 
ATOM     14  H   LIG d   1       6.787  -1.364  -3.045  0.00  0.00     0.036 H 
ATOM     15  C   LIG d   1       5.470   0.197  -3.737  0.00  0.00     0.033 C 
ATOM     16  H   LIG d   1       5.559   0.825  -2.851  0.00  0.00     0.051 H 
ATOM     17  H   LIG d   1       6.299  -3.450  -7.153  0.00  0.00     0.027 H 
ATOM     18  H   LIG d   1       5.017  -4.642  -7.498  0.00  0.00     0.027 H 
ATOM     19  H   LIG d   1       4.633  -4.824  -4.987  0.00  0.00     0.027 H 
ATOM     20  H   LIG d   1       6.242  -5.392  -5.510  0.00  0.00     0.027 H 
ATOM     21  H   LIG d   1       6.276  -3.846  -3.500  0.00  0.00     0.031 H 
ATOM     22  H   LIG d   1       7.267  -3.304  -4.871  0.00  0.00     0.031 H 
ATOM     23  H   LIG d   1       4.242  -2.234  -7.566  0.00  0.00     0.031 H 
ATOM     24  H   LIG d   1       3.349  -3.264  -6.430  0.00  0.00     0.031 H 
ATOM     25  H   LIG d   1       2.913  -0.678  -5.822  0.00  0.00     0.031 H 
ATOM     26  H   LIG d   1       4.413   0.085  -6.374  0.00  0.00     0.031 H 
ATOM     27  H   LIG d   1       3.055   0.446  -2.389  0.00  0.00     0.027 H 
ATOM     28  H   LIG d   1       2.038  -0.205  -3.693  0.00  0.00     0.027 H 
ATOM     29  H   LIG d   1       2.664  -1.948  -2.026  0.00  0.00     0.027 H 
ATOM     30  H   LIG d   1       3.286  -2.319  -3.652  0.00  0.00     0.027 H 
ATOM     31  H   LIG d   1       5.051  -2.696  -1.914  0.00  0.00     0.027 H 
ATOM     32  H   LIG d   1       4.889  -0.995  -1.405  0.00  0.00     0.027 H 
ENDROOT
BRANCH  15  33
ATOM     33  N   LIG d   1       6.416   0.644  -4.761  0.00  0.00    -0.314 N 
ATOM     34  C   LIG d   1       7.460   1.426  -4.420  0.00  0.00     0.200 C 
ATOM     35  O   LIG d   1       7.613   1.759  -3.264  0.00  0.00    -0.280 OA
ATOM     36  H   LIG d   1       8.157   1.755  -5.175  0.00  0.00     0.125 H 
ATOM     37  H   LIG d   1       6.292   0.376  -5.686  0.00  0.00     0.149 HD
ENDBRANCH  15  33
TORSDOF 1
ENDMDL
MODEL 8
REMARK VINA RESULT:      -5.8      2.399      4.145
REMARK  1 active torsions:
REMARK  status: ('A' for Active; 'I' for Inactive)
REMARK    1  A    between atoms: C_15  and  N_17 
REMARK       I    between atoms: N_17  and  C_18 
ROOT
ATOM      1  C   LIG d   1       8.323  -3.110  -5.380  0.00  0.00    -0.049 C 
ATOM      2  C   LIG d   1       8.785  -1.812  -4.703  0.00  0.00    -0.049 C 
ATOM      3  C   LIG d   1       7.730  -0.748  -4.984  0.00  0.00    -0.031 C 
ATOM      4  C   LIG d   1       6.341  -1.241  -4.641  0.00  0.00    -0.065 C 
ATOM      5  C   LIG d   1       6.043  -2.499  -4.524  0.00  0.00    -0.070 C 
ATOM      6  C   LIG d   1       7.080  -3.598  -4.648  0.00  0.00    -0.032 C 
ATOM      7  C   LIG d   1       4.637  -2.994  -4.261  0.00  0.00    -0.027 C 
ATOM      8  C   LIG d   1       3.701  -1.897  -3.796  0.00  0.00    -0.018 C 
ATOM      9  H   LIG d   1       2.680  -2.248  -3.943  0.00  0.00     0.032 H 
ATOM     10  C   LIG d   1       3.884  -1.570  -2.322  0.00  0.00    -0.048 C 
ATOM     11  C   LIG d   1       5.261  -0.959  -2.067  0.00  0.00    -0.052 C 
ATOM     12  C   LIG d   1       5.440   0.299  -2.944  0.00  0.00    -0.045 C 
ATOM     13  C   LIG d   1       5.321  -0.139  -4.412  0.00  0.00    -0.001 C 
ATOM     14  H   LIG d   1       5.532   0.703  -5.069  0.00  0.00     0.036 H 
ATOM     15  C   LIG d   1       3.908  -0.656  -4.667  0.00  0.00     0.033 C 
ATOM     16  H   LIG d   1       3.180   0.109  -4.398  0.00  0.00     0.051 H 
ATOM     17  H   LIG d   1       8.085  -2.917  -6.426  0.00  0.00     0.027 H 
ATOM     18  H   LIG d   1       9.111  -3.861  -5.313  0.00  0.00     0.027 H 
ATOM     19  H   LIG d   1       8.875  -1.967  -3.628  0.00  0.00     0.027 H 
ATOM     20  H   LIG d   1       9.744  -1.500  -5.115  0.00  0.00     0.027 H 
ATOM     21  H   LIG d   1       7.951   0.139  -4.389  0.00  0.00     0.031 H 
ATOM     22  H   LIG d   1       7.762  -0.485  -6.042  0.00  0.00     0.031 H 
ATOM     23  H   LIG d   1       6.649  -4.435  -5.197  0.00  0.00     0.031 H 
ATOM     24  H   LIG d   1       7.363  -3.936  -3.651  0.00  0.00     0.031 H 
ATOM     25  H   LIG d   1       4.681  -3.766  -3.491  0.00  0.00     0.031 H 
ATOM     26  H   LIG d   1       4.235  -3.434  -5.173  0.00  0.00     0.031 H 
ATOM     27  H   LIG d   1       3.114  -0.863  -2.014  0.00  0.00     0.027 H 
ATOM     28  H   LIG d   1       3.785  -2.484  -1.737  0.00  0.00     0.027 H 
ATOM     29  H   LIG d   1       5.347  -0.681  -1.017  0.00  0.00     0.027 H 
ATOM     30  H   LIG d   1       6.034  -1.685  -2.316  0.00  0.00     0.027 H 
ATOM     31  H   LIG d   1       6.418   0.748  -2.771  0.00  0.00     0.027 H 
ATOM     32  H   LIG d   1       4.656   1.020  -2.711  0.00  0.00     0.027 H 
ENDROOT
BRANCH  15  33
ATOM     33  N   LIG d   1       3.756  -1.011  -6.080  0.00  0.00    -0.314 N 
ATOM     34  C   LIG d   1       3.286  -0.102  -6.957  0.00  0.00     0.200 C 
ATOM     35  O   LIG d   1       2.987   1.010  -6.574  0.00  0.00    -0.280 OA
ATOM     36  H   LIG d   1       3.174  -0.363  -7.997  0.00  0.00     0.125 H 
ATOM     37  H   LIG d   1       3.995  -1.900  -6.385  0.00  0.00     0.149 HD
ENDBRANCH  15  33
TORSDOF 1
ENDMDL
MODEL 9
REMARK VINA RESULT:      -5.7      3.441      5.560
REMARK  1 active torsions:
REMARK  status: ('A' for Active; 'I' for Inactive)
REMARK    1  A    between atoms: C_15  and  N_17 
REMARK       I    between atoms: N_17  and  C_18 
ROOT
ATOM      1  C   LIG d   1       1.640  -2.980 -10.267  0.00  0.00    -0.049 C 
ATOM      2  C   LIG d   1       1.328  -1.707 -11.066  0.00  0.00    -0.049 C 
ATOM      3  C   LIG d   1       1.207  -0.558 -10.071  0.00  0.00    -0.031 C 
ATOM      4  C   LIG d   1       2.399  -0.505  -9.139  0.00  0.00    -0.065 C 
ATOM      5  C   LIG d   1       3.190  -1.515  -8.940  0.00  0.00    -0.070 C 
ATOM      6  C   LIG d   1       3.038  -2.830  -9.681  0.00  0.00    -0.032 C 
ATOM      7  C   LIG d   1       4.333  -1.487  -7.948  0.00  0.00    -0.027 C 
ATOM      8  C   LIG d   1       4.682  -0.086  -7.488  0.00  0.00    -0.018 C 
ATOM      9  H   LIG d   1       5.260  -0.173  -6.569  0.00  0.00     0.032 H 
ATOM     10  C   LIG d   1       5.523   0.662  -8.511  0.00  0.00    -0.048 C 
ATOM     11  C   LIG d   1       4.725   0.923  -9.787  0.00  0.00    -0.052 C 
ATOM     12  C   LIG d   1       3.440   1.705  -9.443  0.00  0.00    -0.045 C 
ATOM     13  C   LIG d   1       2.617   0.842  -8.474  0.00  0.00    -0.001 C 
ATOM     14  H   LIG d   1       1.657   1.317  -8.276  0.00  0.00     0.036 H 
ATOM     15  C   LIG d   1       3.394   0.676  -7.170  0.00  0.00     0.033 C 
ATOM     16  H   LIG d   1       3.636   1.655  -6.757  0.00  0.00     0.051 H 
ATOM     17  H   LIG d   1       0.914  -3.099  -9.463  0.00  0.00     0.027 H 
ATOM     18  H   LIG d   1       1.606  -3.848 -10.926  0.00  0.00     0.027 H 
ATOM     19  H   LIG d   1       2.136  -1.504 -11.768  0.00  0.00     0.027 H 
ATOM     20  H   LIG d   1       0.390  -1.830 -11.606  0.00  0.00     0.027 H 
ATOM     21  H   LIG d   1       1.141   0.382 -10.619  0.00  0.00     0.031 H 
ATOM     22  H   LIG d   1       0.301  -0.692  -9.481  0.00  0.00     0.031 H 
ATOM     23  H   LIG d   1       3.226  -3.652  -8.992  0.00  0.00     0.031 H 
ATOM     24  H   LIG d   1       3.769  -2.869 -10.489  0.00  0.00     0.031 H 
ATOM     25  H   LIG d   1       5.210  -1.930  -8.419  0.00  0.00     0.031 H 
ATOM     26  H   LIG d   1       4.066  -2.085  -7.076  0.00  0.00     0.031 H 
ATOM     27  H   LIG d   1       5.842   1.614  -8.086  0.00  0.00     0.027 H 
ATOM     28  H   LIG d   1       6.403   0.067  -8.755  0.00  0.00     0.027 H 
ATOM     29  H   LIG d   1       5.329   1.508 -10.481  0.00  0.00     0.027 H 
ATOM     30  H   LIG d   1       4.456  -0.027 -10.250  0.00  0.00     0.027 H 
ATOM     31  H   LIG d   1       2.860   1.901 -10.345  0.00  0.00     0.027 H 
ATOM     32  H   LIG d   1       3.704   2.648  -8.963  0.00  0.00     0.027 H 
ENDROOT
BRANCH  15  33
ATOM     33  N   LIG d   1       2.592  -0.085  -6.209  0.00  0.00    -0.314 N 
ATOM     34  C   LIG d   1       2.385   0.402  -4.969  0.00  0.00     0.200 C 
ATOM     35  O   LIG d   1       2.863   1.470  -4.651  0.00  0.00    -0.280 OA
ATOM     36  H   LIG d   1       1.794  -0.158  -4.261  0.00  0.00     0.125 H 
ATOM     37  H   LIG d   1       2.210  -0.939  -6.465  0.00  0.00     0.149 HD
ENDBRANCH  15  33
TORSDOF 1
ENDMDL
MODEL 10
REMARK VINA RESULT:      -5.3      2.108      3.432
REMARK  1 active torsions:
REMARK  status: ('A' for Active; 'I' for Inactive)
REMARK    1  A    between atoms: C_15  and  N_17 
REMARK       I    between atoms: N_17  and  C_18 
ROOT
ATOM      1  C   LIG d   1       7.662   1.127  -7.285  0.00  0.00    -0.049 C 
ATOM      2  C   LIG d   1       8.684   0.694  -6.224  0.00  0.00    -0.049 C 
ATOM      3  C   LIG d   1       7.988   0.748  -4.868  0.00  0.00    -0.031 C 
ATOM      4  C   LIG d   1       6.671   0.003  -4.892  0.00  0.00    -0.065 C 
ATOM      5  C   LIG d   1       6.034  -0.278  -5.988  0.00  0.00    -0.070 C 
ATOM      6  C   LIG d   1       6.588   0.051  -7.361  0.00  0.00    -0.032 C 
ATOM      7  C   LIG d   1       4.678  -0.950  -6.007  0.00  0.00    -0.027 C 
ATOM      8  C   LIG d   1       4.310  -1.577  -4.678  0.00  0.00    -0.018 C 
ATOM      9  H   LIG d   1       3.233  -1.740  -4.675  0.00  0.00     0.032 H 
ATOM     10  C   LIG d   1       4.995  -2.917  -4.464  0.00  0.00    -0.048 C 
ATOM     11  C   LIG d   1       6.508  -2.742  -4.340  0.00  0.00    -0.052 C 
ATOM     12  C   LIG d   1       6.823  -1.765  -3.187  0.00  0.00    -0.045 C 
ATOM     13  C   LIG d   1       6.163  -0.421  -3.526  0.00  0.00    -0.001 C 
ATOM     14  H   LIG d   1       6.436   0.326  -2.781  0.00  0.00     0.036 H 
ATOM     15  C   LIG d   1       4.647  -0.600  -3.550  0.00  0.00     0.033 C 
ATOM     16  H   LIG d   1       4.307  -1.005  -2.597  0.00  0.00     0.051 H 
ATOM     17  H   LIG d   1       7.213   2.079  -6.999  0.00  0.00     0.027 H 
ATOM     18  H   LIG d   1       8.155   1.228  -8.252  0.00  0.00     0.027 H 
ATOM     19  H   LIG d   1       9.019  -0.322  -6.427  0.00  0.00     0.027 H 
ATOM     20  H   LIG d   1       9.535   1.374  -6.230  0.00  0.00     0.027 H 
ATOM     21  H   LIG d   1       8.637   0.299  -4.117  0.00  0.00     0.031 H 
ATOM     22  H   LIG d   1       7.803   1.789  -4.604  0.00  0.00     0.031 H 
ATOM     23  H   LIG d   1       5.777   0.402  -7.999  0.00  0.00     0.031 H 
ATOM     24  H   LIG d   1       7.017  -0.852  -7.797  0.00  0.00     0.031 H 
ATOM     25  H   LIG d   1       4.689  -1.729  -6.770  0.00  0.00     0.031 H 
ATOM     26  H   LIG d   1       3.917  -0.215  -6.270  0.00  0.00     0.031 H 
ATOM     27  H   LIG d   1       4.611  -3.376  -3.554  0.00  0.00     0.027 H 
ATOM     28  H   LIG d   1       4.780  -3.569  -5.312  0.00  0.00     0.027 H 
ATOM     29  H   LIG d   1       6.971  -3.707  -4.132  0.00  0.00     0.027 H 
ATOM     30  H   LIG d   1       6.907  -2.341  -5.271  0.00  0.00     0.027 H 
ATOM     31  H   LIG d   1       7.900  -1.632  -3.084  0.00  0.00     0.027 H 
ATOM     32  H   LIG d   1       6.409  -2.155  -2.256  0.00  0.00     0.027 H 
ENDROOT
BRANCH  15  33
ATOM     33  N   LIG d   1       3.999   0.690  -3.800  0.00  0.00    -0.314 N 
ATOM     34  C   LIG d   1       3.704   1.508  -2.771  0.00  0.00     0.200 C 
ATOM     35  O   LIG d   1       3.975   1.175  -1.637  0.00  0.00    -0.280 OA
ATOM     36  H   LIG d   1       3.227   2.458  -2.956  0.00  0.00     0.125 H 
ATOM     37  H   LIG d   1       3.782   0.955  -4.708  0.00  0.00     0.149 HD
ENDBRANCH  15  33
TORSDOF 1
ENDMDL
