MODEL 1
REMARK VINA RESULT:      -5.1      0.000      0.000
REMARK  2 active torsions:
REMARK  status: ('A' for Active; 'I' for Inactive)
REMARK    1  A    between atoms: C_3  and  C_10 
REMARK    2  A    between atoms: C_6  and  C_7 
REMARK       I    between atoms: C_7  and  N_9 
REMARK       I    between atoms: C_10  and  N_12 
ROOT
ATOM      1  C   LIG d   1       4.934  -0.301  -4.471  0.00  0.00    -0.049 A 
ATOM      2  C   LIG d   1       5.076  -1.512  -5.115  0.00  0.00    -0.049 A 
ATOM      3  C   LIG d   1       4.719  -2.694  -4.465  0.00  0.00     0.036 A 
ATOM      4  C   LIG d   1       4.222  -2.651  -3.161  0.00  0.00    -0.049 A 
ATOM      5  C   LIG d   1       4.083  -1.440  -2.517  0.00  0.00    -0.049 A 
ATOM      6  C   LIG d   1       4.441  -0.258  -3.167  0.00  0.00     0.036 A 
ATOM      7  H   LIG d   1       5.207   0.614  -4.976  0.00  0.00     0.062 H 
ATOM      8  H   LIG d   1       5.462  -1.546  -6.123  0.00  0.00     0.062 H 
ATOM      9  H   LIG d   1       3.945  -3.566  -2.658  0.00  0.00     0.062 H 
ATOM     10  H   LIG d   1       3.699  -1.407  -1.508  0.00  0.00     0.062 H 
ENDROOT
BRANCH   3  11
ATOM     11  C   LIG d   1       4.869  -3.994  -5.157  0.00  0.00     0.241 C 
ATOM     12  O   LIG d   1       5.945  -4.560  -5.161  0.00  0.00    -0.270 OA
ATOM     13  N   LIG d   1       3.813  -4.549  -5.783  0.00  0.00    -0.325 N 
ATOM     14  H   LIG d   1       2.956  -4.097  -5.781  0.00  0.00     0.145 HD
ATOM     15  H   LIG d   1       3.911  -5.402  -6.237  0.00  0.00     0.145 HD
ENDBRANCH   3  11
BRANCH   6  16
ATOM     16  C   LIG d   1       4.292   1.042  -2.474  0.00  0.00     0.241 C 
ATOM     17  O   LIG d   1       4.701   1.174  -1.337  0.00  0.00    -0.270 OA
ATOM     18  N   LIG d   1       3.710   2.079  -3.107  0.00  0.00    -0.325 N 
ATOM     19  H   LIG d   1       3.616   2.932  -2.654  0.00  0.00     0.145 HD
ATOM     20  H   LIG d   1       3.384   1.972  -4.014  0.00  0.00     0.145 HD
ENDBRANCH   6  16
TORSDOF 2
ENDMDL
MODEL 2
REMARK VINA RESULT:      -5.1      0.084      5.101
REMARK  2 active torsions:
REMARK  status: ('A' for Active; 'I' for Inactive)
REMARK    1  A    between atoms: C_3  and  C_10 
REMARK    2  A    between atoms: C_6  and  C_7 
REMARK       I    between atoms: C_7  and  N_9 
REMARK       I    between atoms: C_10  and  N_12 
ROOT
ATOM      1  C   LIG d   1       4.330  -2.676  -3.161  0.00  0.00    -0.049 A 
ATOM      2  C   LIG d   1       4.202  -1.468  -2.511  0.00  0.00    -0.049 A 
ATOM      3  C   LIG d   1       4.446  -0.277  -3.196  0.00  0.00     0.036 A 
ATOM      4  C   LIG d   1       4.824  -0.310  -4.540  0.00  0.00    -0.049 A 
ATOM      5  C   LIG d   1       4.955  -1.519  -5.188  0.00  0.00    -0.049 A 
ATOM      6  C   LIG d   1       4.712  -2.710  -4.502  0.00  0.00     0.036 A 
ATOM      7  H   LIG d   1       4.138  -3.598  -2.631  0.00  0.00     0.062 H 
ATOM      8  H   LIG d   1       3.910  -1.442  -1.471  0.00  0.00     0.062 H 
ATOM      9  H   LIG d   1       5.012   0.611  -5.070  0.00  0.00     0.062 H 
ATOM     10  H   LIG d   1       5.248  -1.544  -6.228  0.00  0.00     0.062 H 
ENDROOT
BRANCH   3  11
ATOM     11  C   LIG d   1       4.305   1.021  -2.499  0.00  0.00     0.241 C 
ATOM     12  O   LIG d   1       4.719   1.148  -1.363  0.00  0.00    -0.270 OA
ATOM     13  N   LIG d   1       3.718   2.061  -3.122  0.00  0.00    -0.325 N 
ATOM     14  H   LIG d   1       3.387   1.958  -4.028  0.00  0.00     0.145 HD
ATOM     15  H   LIG d   1       3.625   2.912  -2.665  0.00  0.00     0.145 HD
ENDBRANCH   3  11
BRANCH   6  16
ATOM     16  C   LIG d   1       4.854  -4.008  -5.200  0.00  0.00     0.241 C 
ATOM     17  O   LIG d   1       5.912  -4.605  -5.163  0.00  0.00    -0.270 OA
ATOM     18  N   LIG d   1       3.808  -4.530  -5.869  0.00  0.00    -0.325 N 
ATOM     19  H   LIG d   1       3.901  -5.383  -6.323  0.00  0.00     0.145 HD
ATOM     20  H   LIG d   1       2.964  -4.054  -5.899  0.00  0.00     0.145 HD
ENDBRANCH   6  16
TORSDOF 2
ENDMDL
MODEL 3
REMARK VINA RESULT:      -5.0      3.404      4.151
REMARK  2 active torsions:
REMARK  status: ('A' for Active; 'I' for Inactive)
REMARK    1  A    between atoms: C_3  and  C_10 
REMARK    2  A    between atoms: C_6  and  C_7 
REMARK       I    between atoms: C_7  and  N_9 
REMARK       I    between atoms: C_10  and  N_12 
ROOT
ATOM      1  C   LIG d   1       4.421  -1.285  -5.019  0.00  0.00    -0.049 A 
ATOM      2  C   LIG d   1       4.168  -0.763  -6.270  0.00  0.00    -0.049 A 
ATOM      3  C   LIG d   1       3.123   0.144  -6.450  0.00  0.00     0.036 A 
ATOM      4  C   LIG d   1       2.331   0.520  -5.364  0.00  0.00    -0.049 A 
ATOM      5  C   LIG d   1       2.581  -0.004  -4.115  0.00  0.00    -0.049 A 
ATOM      6  C   LIG d   1       3.626  -0.912  -3.935  0.00  0.00     0.036 A 
ATOM      7  H   LIG d   1       5.232  -1.984  -4.879  0.00  0.00     0.062 H 
ATOM      8  H   LIG d   1       4.781  -1.055  -7.111  0.00  0.00     0.062 H 
ATOM      9  H   LIG d   1       1.523   1.222  -5.504  0.00  0.00     0.062 H 
ATOM     10  H   LIG d   1       1.968   0.287  -3.275  0.00  0.00     0.062 H 
ENDROOT
BRANCH   3  11
ATOM     11  C   LIG d   1       2.854   0.706  -7.793  0.00  0.00     0.241 C 
ATOM     12  O   LIG d   1       2.381   0.002  -8.663  0.00  0.00    -0.270 OA
ATOM     13  N   LIG d   1       3.135   1.998  -8.050  0.00  0.00    -0.325 N 
ATOM     14  H   LIG d   1       3.514   2.560  -7.357  0.00  0.00     0.145 HD
ATOM     15  H   LIG d   1       2.959   2.367  -8.931  0.00  0.00     0.145 HD
ENDBRANCH   3  11
BRANCH   6  16
ATOM     16  C   LIG d   1       3.894  -1.476  -2.592  0.00  0.00     0.241 C 
ATOM     17  O   LIG d   1       3.652  -2.644  -2.364  0.00  0.00    -0.270 OA
ATOM     18  N   LIG d   1       4.413  -0.693  -1.626  0.00  0.00    -0.325 N 
ATOM     19  H   LIG d   1       4.592  -1.064  -0.746  0.00  0.00     0.145 HD
ATOM     20  H   LIG d   1       4.606   0.240  -1.808  0.00  0.00     0.145 HD
ENDBRANCH   6  16
TORSDOF 2
ENDMDL
MODEL 4
REMARK VINA RESULT:      -5.0      3.393      4.339
REMARK  2 active torsions:
REMARK  status: ('A' for Active; 'I' for Inactive)
REMARK    1  A    between atoms: C_3  and  C_10 
REMARK    2  A    between atoms: C_6  and  C_7 
REMARK       I    between atoms: C_7  and  N_9 
REMARK       I    between atoms: C_10  and  N_12 
ROOT
ATOM      1  C   LIG d   1       4.187  -0.776  -6.245  0.00  0.00    -0.049 A 
ATOM      2  C   LIG d   1       4.430  -1.294  -4.991  0.00  0.00    -0.049 A 
ATOM      3  C   LIG d   1       3.616  -0.932  -3.916  0.00  0.00     0.036 A 
ATOM      4  C   LIG d   1       2.558  -0.041  -4.111  0.00  0.00    -0.049 A 
ATOM      5  C   LIG d   1       2.318   0.479  -5.365  0.00  0.00    -0.049 A 
ATOM      6  C   LIG d   1       3.133   0.117  -6.439  0.00  0.00     0.036 A 
ATOM      7  H   LIG d   1       4.814  -1.060  -7.077  0.00  0.00     0.062 H 
ATOM      8  H   LIG d   1       5.248  -1.983  -4.839  0.00  0.00     0.062 H 
ATOM      9  H   LIG d   1       1.929   0.239  -3.280  0.00  0.00     0.062 H 
ATOM     10  H   LIG d   1       1.500   1.168  -5.515  0.00  0.00     0.062 H 
ENDROOT
BRANCH   3  11
ATOM     11  C   LIG d   1       3.875  -1.491  -2.570  0.00  0.00     0.241 C 
ATOM     12  O   LIG d   1       3.582  -2.644  -2.325  0.00  0.00    -0.270 OA
ATOM     13  N   LIG d   1       4.435  -0.720  -1.617  0.00  0.00    -0.325 N 
ATOM     14  H   LIG d   1       4.667   0.200  -1.813  0.00  0.00     0.145 HD
ATOM     15  H   LIG d   1       4.605  -1.087  -0.735  0.00  0.00     0.145 HD
ENDBRANCH   3  11
BRANCH   6  16
ATOM     16  C   LIG d   1       2.874   0.677  -7.785  0.00  0.00     0.241 C 
ATOM     17  O   LIG d   1       2.427  -0.034  -8.663  0.00  0.00    -0.270 OA
ATOM     18  N   LIG d   1       3.130   1.976  -8.034  0.00  0.00    -0.325 N 
ATOM     19  H   LIG d   1       2.957   2.344  -8.915  0.00  0.00     0.145 HD
ATOM     20  H   LIG d   1       3.488   2.543  -7.333  0.00  0.00     0.145 HD
ENDBRANCH   6  16
TORSDOF 2
ENDMDL
MODEL 5
REMARK VINA RESULT:      -4.8      3.155      3.792
REMARK  2 active torsions:
REMARK  status: ('A' for Active; 'I' for Inactive)
REMARK    1  A    between atoms: C_3  and  C_10 
REMARK    2  A    between atoms: C_6  and  C_7 
REMARK       I    between atoms: C_7  and  N_9 
REMARK       I    between atoms: C_10  and  N_12 
ROOT
ATOM      1  C   LIG d   1       6.022   1.328  -3.079  0.00  0.00    -0.049 A 
ATOM      2  C   LIG d   1       4.851   0.631  -2.872  0.00  0.00    -0.049 A 
ATOM      3  C   LIG d   1       4.793  -0.735  -3.153  0.00  0.00     0.036 A 
ATOM      4  C   LIG d   1       5.920  -1.394  -3.647  0.00  0.00    -0.049 A 
ATOM      5  C   LIG d   1       7.089  -0.695  -3.858  0.00  0.00    -0.049 A 
ATOM      6  C   LIG d   1       7.147   0.671  -3.578  0.00  0.00     0.036 A 
ATOM      7  H   LIG d   1       6.067   2.385  -2.858  0.00  0.00     0.062 H 
ATOM      8  H   LIG d   1       3.979   1.140  -2.489  0.00  0.00     0.062 H 
ATOM      9  H   LIG d   1       5.875  -2.451  -3.864  0.00  0.00     0.062 H 
ATOM     10  H   LIG d   1       7.961  -1.206  -4.241  0.00  0.00     0.062 H 
ENDROOT
BRANCH   3  11
ATOM     11  C   LIG d   1       3.537  -1.485  -2.927  0.00  0.00     0.241 C 
ATOM     12  O   LIG d   1       3.564  -2.559  -2.360  0.00  0.00    -0.270 OA
ATOM     13  N   LIG d   1       2.363  -0.976  -3.350  0.00  0.00    -0.325 N 
ATOM     14  H   LIG d   1       2.342  -0.119  -3.803  0.00  0.00     0.145 HD
ATOM     15  H   LIG d   1       1.539  -1.467  -3.202  0.00  0.00     0.145 HD
ENDBRANCH   3  11
BRANCH   6  16
ATOM     16  C   LIG d   1       8.403   1.421  -3.805  0.00  0.00     0.241 C 
ATOM     17  O   LIG d   1       8.495   2.576  -3.439  0.00  0.00    -0.270 OA
ATOM     18  N   LIG d   1       9.445   0.819  -4.410  0.00  0.00    -0.325 N 
ATOM     19  H   LIG d   1      10.270   1.310  -4.556  0.00  0.00     0.145 HD
ATOM     20  H   LIG d   1       9.371  -0.103  -4.702  0.00  0.00     0.145 HD
ENDBRANCH   6  16
TORSDOF 2
ENDMDL
MODEL 6
REMARK VINA RESULT:      -4.7      3.156      4.671
REMARK  2 active torsions:
REMARK  status: ('A' for Active; 'I' for Inactive)
REMARK    1  A    between atoms: C_3  and  C_10 
REMARK    2  A    between atoms: C_6  and  C_7 
REMARK       I    between atoms: C_7  and  N_9 
REMARK       I    between atoms: C_10  and  N_12 
ROOT
ATOM      1  C   LIG d   1       5.917  -1.341  -3.529  0.00  0.00    -0.049 A 
ATOM      2  C   LIG d   1       7.090  -0.660  -3.775  0.00  0.00    -0.049 A 
ATOM      3  C   LIG d   1       7.156   0.717  -3.558  0.00  0.00     0.036 A 
ATOM      4  C   LIG d   1       6.033   1.405  -3.095  0.00  0.00    -0.049 A 
ATOM      5  C   LIG d   1       4.860   0.724  -2.853  0.00  0.00    -0.049 A 
ATOM      6  C   LIG d   1       4.793  -0.652  -3.071  0.00  0.00     0.036 A 
ATOM      7  H   LIG d   1       5.867  -2.408  -3.694  0.00  0.00     0.062 H 
ATOM      8  H   LIG d   1       7.959  -1.192  -4.134  0.00  0.00     0.062 H 
ATOM      9  H   LIG d   1       6.085   2.470  -2.927  0.00  0.00     0.062 H 
ATOM     10  H   LIG d   1       3.991   1.258  -2.495  0.00  0.00     0.062 H 
ENDROOT
BRANCH   3  11
ATOM     11  C   LIG d   1       8.417   1.447  -3.819  0.00  0.00     0.241 C 
ATOM     12  O   LIG d   1       8.536   2.602  -3.458  0.00  0.00    -0.270 OA
ATOM     13  N   LIG d   1       9.432   0.833  -4.457  0.00  0.00    -0.325 N 
ATOM     14  H   LIG d   1       9.337  -0.088  -4.746  0.00  0.00     0.145 HD
ATOM     15  H   LIG d   1      10.259   1.312  -4.628  0.00  0.00     0.145 HD
ENDBRANCH   3  11
BRANCH   6  16
ATOM     16  C   LIG d   1       3.532  -1.383  -2.811  0.00  0.00     0.241 C 
ATOM     17  O   LIG d   1       2.464  -0.827  -2.974  0.00  0.00    -0.270 OA
ATOM     18  N   LIG d   1       3.570  -2.665  -2.400  0.00  0.00    -0.325 N 
ATOM     19  H   LIG d   1       2.743  -3.145  -2.233  0.00  0.00     0.145 HD
ATOM     20  H   LIG d   1       4.423  -3.109  -2.270  0.00  0.00     0.145 HD
ENDBRANCH   6  16
TORSDOF 2
ENDMDL
MODEL 7
REMARK VINA RESULT:      -4.6     10.936     12.158
REMARK  2 active torsions:
REMARK  status: ('A' for Active; 'I' for Inactive)
REMARK    1  A    between atoms: C_3  and  C_10 
REMARK    2  A    between atoms: C_6  and  C_7 
REMARK       I    between atoms: C_7  and  N_9 
REMARK       I    between atoms: C_10  and  N_12 
ROOT
ATOM      1  C   LIG d   1      10.779   9.546   0.167  0.00  0.00    -0.049 A 
ATOM      2  C   LIG d   1      11.162   8.354   0.745  0.00  0.00    -0.049 A 
ATOM      3  C   LIG d   1      10.743   7.144   0.192  0.00  0.00     0.036 A 
ATOM      4  C   LIG d   1       9.932   7.140  -0.944  0.00  0.00    -0.049 A 
ATOM      5  C   LIG d   1       9.546   8.331  -1.519  0.00  0.00    -0.049 A 
ATOM      6  C   LIG d   1       9.965   9.542  -0.965  0.00  0.00     0.036 A 
ATOM      7  H   LIG d   1      11.107  10.483   0.594  0.00  0.00     0.062 H 
ATOM      8  H   LIG d   1      11.790   8.357   1.625  0.00  0.00     0.062 H 
ATOM      9  H   LIG d   1       9.607   6.203  -1.372  0.00  0.00     0.062 H 
ATOM     10  H   LIG d   1       8.918   8.327  -2.398  0.00  0.00     0.062 H 
ENDROOT
BRANCH   3  11
ATOM     11  C   LIG d   1      11.157   5.864   0.811  0.00  0.00     0.241 C 
ATOM     12  O   LIG d   1      11.223   5.768   2.021  0.00  0.00    -0.270 OA
ATOM     13  N   LIG d   1      11.461   4.807   0.033  0.00  0.00    -0.325 N 
ATOM     14  H   LIG d   1      11.409   4.884  -0.932  0.00  0.00     0.145 HD
ATOM     15  H   LIG d   1      11.733   3.968   0.439  0.00  0.00     0.145 HD
ENDBRANCH   3  11
BRANCH   6  16
ATOM     16  C   LIG d   1       9.550  10.821  -1.584  0.00  0.00     0.241 C 
ATOM     17  O   LIG d   1      10.274  11.794  -1.510  0.00  0.00    -0.270 OA
ATOM     18  N   LIG d   1       8.372  10.904  -2.233  0.00  0.00    -0.325 N 
ATOM     19  H   LIG d   1       8.102  11.742  -2.641  0.00  0.00     0.145 HD
ATOM     20  H   LIG d   1       7.794  10.127  -2.291  0.00  0.00     0.145 HD
ENDBRANCH   6  16
TORSDOF 2
ENDMDL
MODEL 8
REMARK VINA RESULT:      -4.6     10.925     12.695
REMARK  2 active torsions:
REMARK  status: ('A' for Active; 'I' for Inactive)
REMARK    1  A    between atoms: C_3  and  C_10 
REMARK    2  A    between atoms: C_6  and  C_7 
REMARK       I    between atoms: C_7  and  N_9 
REMARK       I    between atoms: C_10  and  N_12 
ROOT
ATOM      1  C   LIG d   1       9.943   7.139  -0.983  0.00  0.00    -0.049 A 
ATOM      2  C   LIG d   1       9.554   8.333  -1.552  0.00  0.00    -0.049 A 
ATOM      3  C   LIG d   1       9.962   9.542  -0.985  0.00  0.00     0.036 A 
ATOM      4  C   LIG d   1      10.760   9.542   0.160  0.00  0.00    -0.049 A 
ATOM      5  C   LIG d   1      11.145   8.348   0.730  0.00  0.00    -0.049 A 
ATOM      6  C   LIG d   1      10.737   7.139   0.165  0.00  0.00     0.036 A 
ATOM      7  H   LIG d   1       9.631   6.204  -1.424  0.00  0.00     0.062 H 
ATOM      8  H   LIG d   1       8.936   8.333  -2.438  0.00  0.00     0.062 H 
ATOM      9  H   LIG d   1      11.075  10.477   0.598  0.00  0.00     0.062 H 
ATOM     10  H   LIG d   1      11.762   8.349   1.617  0.00  0.00     0.062 H 
ENDROOT
BRANCH   3  11
ATOM     11  C   LIG d   1       9.547  10.824  -1.599  0.00  0.00     0.241 C 
ATOM     12  O   LIG d   1      10.264  11.800  -1.509  0.00  0.00    -0.270 OA
ATOM     13  N   LIG d   1       8.373  10.908  -2.255  0.00  0.00    -0.325 N 
ATOM     14  H   LIG d   1       7.800  10.129  -2.326  0.00  0.00     0.145 HD
ATOM     15  H   LIG d   1       8.101  11.748  -2.658  0.00  0.00     0.145 HD
ENDBRANCH   3  11
BRANCH   6  16
ATOM     16  C   LIG d   1      11.152   5.857   0.779  0.00  0.00     0.241 C 
ATOM     17  O   LIG d   1      11.216   5.756   1.988  0.00  0.00    -0.270 OA
ATOM     18  N   LIG d   1      11.451   4.802  -0.004  0.00  0.00    -0.325 N 
ATOM     19  H   LIG d   1      11.719   3.961   0.399  0.00  0.00     0.145 HD
ATOM     20  H   LIG d   1      11.400   4.884  -0.969  0.00  0.00     0.145 HD
ENDBRANCH   6  16
TORSDOF 2
ENDMDL
MODEL 9
REMARK VINA RESULT:      -4.4      9.433     10.662
REMARK  2 active torsions:
REMARK  status: ('A' for Active; 'I' for Inactive)
REMARK    1  A    between atoms: C_3  and  C_10 
REMARK    2  A    between atoms: C_6  and  C_7 
REMARK       I    between atoms: C_7  and  N_9 
REMARK       I    between atoms: C_10  and  N_12 
ROOT
ATOM      1  C   LIG d   1      10.618   5.201  -2.525  0.00  0.00    -0.049 A 
ATOM      2  C   LIG d   1      11.028   5.195  -1.209  0.00  0.00    -0.049 A 
ATOM      3  C   LIG d   1      10.613   6.208  -0.344  0.00  0.00     0.036 A 
ATOM      4  C   LIG d   1       9.785   7.230  -0.812  0.00  0.00    -0.049 A 
ATOM      5  C   LIG d   1       9.379   7.238  -2.129  0.00  0.00    -0.049 A 
ATOM      6  C   LIG d   1       9.795   6.226  -2.994  0.00  0.00     0.036 A 
ATOM      7  H   LIG d   1      10.936   4.415  -3.194  0.00  0.00     0.062 H 
ATOM      8  H   LIG d   1      11.668   4.404  -0.846  0.00  0.00     0.062 H 
ATOM      9  H   LIG d   1       9.464   8.014  -0.142  0.00  0.00     0.062 H 
ATOM     10  H   LIG d   1       8.740   8.030  -2.491  0.00  0.00     0.062 H 
ENDROOT
BRANCH   3  11
ATOM     11  C   LIG d   1      11.050   6.199   1.071  0.00  0.00     0.241 C 
ATOM     12  O   LIG d   1      11.748   7.098   1.496  0.00  0.00    -0.270 OA
ATOM     13  N   LIG d   1      10.676   5.194   1.885  0.00  0.00    -0.325 N 
ATOM     14  H   LIG d   1      10.120   4.476   1.545  0.00  0.00     0.145 HD
ATOM     15  H   LIG d   1      10.962   5.188   2.813  0.00  0.00     0.145 HD
ENDBRANCH   3  11
BRANCH   6  16
ATOM     16  C   LIG d   1       9.358   6.235  -4.409  0.00  0.00     0.241 C 
ATOM     17  O   LIG d   1       9.391   5.211  -5.062  0.00  0.00    -0.270 OA
ATOM     18  N   LIG d   1       8.918   7.379  -4.969  0.00  0.00    -0.325 N 
ATOM     19  H   LIG d   1       8.629   7.384  -5.896  0.00  0.00     0.145 HD
ATOM     20  H   LIG d   1       8.893   8.197  -4.448  0.00  0.00     0.145 HD
ENDBRANCH   6  16
TORSDOF 2
ENDMDL
MODEL 10
REMARK VINA RESULT:      -4.4      5.298      6.894
REMARK  2 active torsions:
REMARK  status: ('A' for Active; 'I' for Inactive)
REMARK    1  A    between atoms: C_3  and  C_10 
REMARK    2  A    between atoms: C_6  and  C_7 
REMARK       I    between atoms: C_7  and  N_9 
REMARK       I    between atoms: C_10  and  N_12 
ROOT
ATOM      1  C   LIG d   1       3.348  -1.105  -9.079  0.00  0.00    -0.049 A 
ATOM      2  C   LIG d   1       3.256  -0.979  -7.709  0.00  0.00    -0.049 A 
ATOM      3  C   LIG d   1       2.991   0.267  -7.140  0.00  0.00     0.036 A 
ATOM      4  C   LIG d   1       2.823   1.386  -7.957  0.00  0.00    -0.049 A 
ATOM      5  C   LIG d   1       2.919   1.260  -9.325  0.00  0.00    -0.049 A 
ATOM      6  C   LIG d   1       3.184   0.014  -9.895  0.00  0.00     0.036 A 
ATOM      7  H   LIG d   1       3.549  -2.071  -9.520  0.00  0.00     0.062 H 
ATOM      8  H   LIG d   1       3.386  -1.845  -7.077  0.00  0.00     0.062 H 
ATOM      9  H   LIG d   1       2.618   2.350  -7.515  0.00  0.00     0.062 H 
ATOM     10  H   LIG d   1       2.789   2.127  -9.957  0.00  0.00     0.062 H 
ENDROOT
BRANCH   3  11
ATOM     11  C   LIG d   1       2.890   0.402  -5.669  0.00  0.00     0.241 C 
ATOM     12  O   LIG d   1       2.615   1.478  -5.175  0.00  0.00    -0.270 OA
ATOM     13  N   LIG d   1       3.101  -0.669  -4.878  0.00  0.00    -0.325 N 
ATOM     14  H   LIG d   1       3.321  -1.527  -5.272  0.00  0.00     0.145 HD
ATOM     15  H   LIG d   1       3.034  -0.580  -3.914  0.00  0.00     0.145 HD
ENDBRANCH   3  11
BRANCH   6  16
ATOM     16  C   LIG d   1       3.287  -0.120 -11.366  0.00  0.00     0.241 C 
ATOM     17  O   LIG d   1       2.428  -0.718 -11.983  0.00  0.00    -0.270 OA
ATOM     18  N   LIG d   1       4.330   0.426 -12.020  0.00  0.00    -0.325 N 
ATOM     19  H   LIG d   1       4.396   0.341 -12.985  0.00  0.00     0.145 HD
ATOM     20  H   LIG d   1       5.017   0.903 -11.528  0.00  0.00     0.145 HD
ENDBRANCH   6  16
TORSDOF 2
ENDMDL
