MODEL 1
REMARK VINA RESULT:      -5.4      0.000      0.000
REMARK  4 active torsions:
REMARK  status: ('A' for Active; 'I' for Inactive)
REMARK    1  A    between atoms: C_4  and  C_7 
REMARK    2  A    between atoms: C_7  and  C_9 
REMARK    3  A    between atoms: C_7  and  O_11 
REMARK    4  A    between atoms: C_9  and  O_10 
ROOT
ATOM      1  C   LIG d   1       4.650  -0.707  -1.468  0.00  0.00    -0.062 A 
ATOM      2  C   LIG d   1       4.513   0.633  -1.779  0.00  0.00    -0.061 A 
ATOM      3  C   LIG d   1       3.758   1.016  -2.872  0.00  0.00    -0.056 A 
ATOM      4  C   LIG d   1       3.139   0.058  -3.654  0.00  0.00    -0.017 A 
ATOM      5  C   LIG d   1       3.276  -1.282  -3.343  0.00  0.00    -0.056 A 
ATOM      6  C   LIG d   1       4.032  -1.665  -2.251  0.00  0.00    -0.061 A 
ATOM      7  H   LIG d   1       5.241  -1.006  -0.615  0.00  0.00     0.062 H 
ATOM      8  H   LIG d   1       4.997   1.381  -1.168  0.00  0.00     0.062 H 
ATOM      9  H   LIG d   1       3.647   2.062  -3.111  0.00  0.00     0.062 H 
ATOM     10  H   LIG d   1       2.794  -2.030  -3.954  0.00  0.00     0.062 H 
ATOM     11  H   LIG d   1       4.140  -2.712  -2.008  0.00  0.00     0.062 H 
ENDROOT
BRANCH   4  12
ATOM     12  C   LIG d   1       2.315   0.474  -4.844  0.00  0.00     0.103 C 
ATOM     13  H   LIG d   1       2.139   1.550  -4.805  0.00  0.00     0.067 H 
BRANCH  12  14
ATOM     14  C   LIG d   1       3.067   0.128  -6.131  0.00  0.00     0.074 C 
ATOM     15  H   LIG d   1       4.084  -0.175  -5.888  0.00  0.00     0.059 H 
ATOM     16  H   LIG d   1       2.555  -0.689  -6.641  0.00  0.00     0.059 H 
BRANCH  14  17
ATOM     17  O   LIG d   1       3.103   1.274  -6.985  0.00  0.00    -0.392 OA
ATOM     18  H   LIG d   1       3.512   2.051  -6.581  0.00  0.00     0.209 HD
ENDBRANCH  14  17
ENDBRANCH  12  14
BRANCH  12  19
ATOM     19  O   LIG d   1       1.064  -0.215  -4.822  0.00  0.00    -0.385 OA
ATOM     20  H   LIG d   1       0.345   0.288  -4.416  0.00  0.00     0.210 HD
ENDBRANCH  12  19
ENDBRANCH   4  12
TORSDOF 4
ENDMDL
MODEL 2
REMARK VINA RESULT:      -4.7      3.750      4.365
REMARK  4 active torsions:
REMARK  status: ('A' for Active; 'I' for Inactive)
REMARK    1  A    between atoms: C_4  and  C_7 
REMARK    2  A    between atoms: C_7  and  C_9 
REMARK    3  A    between atoms: C_7  and  O_11 
REMARK    4  A    between atoms: C_9  and  O_10 
ROOT
ATOM      1  C   LIG d   1       4.217  -0.531  -1.791  0.00  0.00    -0.062 A 
ATOM      2  C   LIG d   1       4.550   0.802  -1.938  0.00  0.00    -0.061 A 
ATOM      3  C   LIG d   1       5.605   1.166  -2.753  0.00  0.00    -0.056 A 
ATOM      4  C   LIG d   1       6.328   0.195  -3.423  0.00  0.00    -0.017 A 
ATOM      5  C   LIG d   1       5.995  -1.138  -3.276  0.00  0.00    -0.056 A 
ATOM      6  C   LIG d   1       4.940  -1.502  -2.460  0.00  0.00    -0.061 A 
ATOM      7  H   LIG d   1       3.393  -0.815  -1.154  0.00  0.00     0.062 H 
ATOM      8  H   LIG d   1       3.985   1.561  -1.415  0.00  0.00     0.062 H 
ATOM      9  H   LIG d   1       5.862   2.208  -2.872  0.00  0.00     0.062 H 
ATOM     10  H   LIG d   1       6.559  -1.897  -3.797  0.00  0.00     0.062 H 
ATOM     11  H   LIG d   1       4.680  -2.544  -2.344  0.00  0.00     0.062 H 
ENDROOT
BRANCH   4  12
ATOM     12  C   LIG d   1       7.477   0.591  -4.312  0.00  0.00     0.103 C 
ATOM     13  H   LIG d   1       7.129   0.670  -5.342  0.00  0.00     0.067 H 
BRANCH  12  14
ATOM     14  C   LIG d   1       8.033   1.941  -3.857  0.00  0.00     0.074 C 
ATOM     15  H   LIG d   1       7.982   2.652  -4.681  0.00  0.00     0.059 H 
ATOM     16  H   LIG d   1       7.444   2.312  -3.018  0.00  0.00     0.059 H 
BRANCH  14  17
ATOM     17  O   LIG d   1       9.394   1.783  -3.449  0.00  0.00    -0.392 OA
ATOM     18  H   LIG d   1       9.774   0.923  -3.676  0.00  0.00     0.209 HD
ENDBRANCH  14  17
ENDBRANCH  12  14
BRANCH  12  19
ATOM     19  O   LIG d   1       8.505  -0.399  -4.232  0.00  0.00    -0.385 OA
ATOM     20  H   LIG d   1       8.516  -1.016  -4.978  0.00  0.00     0.210 HD
ENDBRANCH  12  19
ENDBRANCH   4  12
TORSDOF 4
ENDMDL
MODEL 3
REMARK VINA RESULT:      -4.6      2.731      3.643
REMARK  4 active torsions:
REMARK  status: ('A' for Active; 'I' for Inactive)
REMARK    1  A    between atoms: C_4  and  C_7 
REMARK    2  A    between atoms: C_7  and  C_9 
REMARK    3  A    between atoms: C_7  and  O_11 
REMARK    4  A    between atoms: C_9  and  O_10 
ROOT
ATOM      1  C   LIG d   1       3.035  -1.219  -2.553  0.00  0.00    -0.062 A 
ATOM      2  C   LIG d   1       4.132  -2.049  -2.684  0.00  0.00    -0.061 A 
ATOM      3  C   LIG d   1       5.375  -1.513  -2.963  0.00  0.00    -0.056 A 
ATOM      4  C   LIG d   1       5.521  -0.146  -3.112  0.00  0.00    -0.017 A 
ATOM      5  C   LIG d   1       4.424   0.684  -2.981  0.00  0.00    -0.056 A 
ATOM      6  C   LIG d   1       3.181   0.148  -2.703  0.00  0.00    -0.061 A 
ATOM      7  H   LIG d   1       2.063  -1.638  -2.335  0.00  0.00     0.062 H 
ATOM      8  H   LIG d   1       4.018  -3.117  -2.568  0.00  0.00     0.062 H 
ATOM      9  H   LIG d   1       6.233  -2.161  -3.060  0.00  0.00     0.062 H 
ATOM     10  H   LIG d   1       4.537   1.752  -3.098  0.00  0.00     0.062 H 
ATOM     11  H   LIG d   1       2.322   0.797  -2.601  0.00  0.00     0.062 H 
ENDROOT
BRANCH   4  12
ATOM     12  C   LIG d   1       6.876   0.439  -3.416  0.00  0.00     0.103 C 
ATOM     13  H   LIG d   1       7.586   0.127  -2.650  0.00  0.00     0.067 H 
BRANCH  12  14
ATOM     14  C   LIG d   1       7.350  -0.057  -4.783  0.00  0.00     0.074 C 
ATOM     15  H   LIG d   1       8.401   0.196  -4.917  0.00  0.00     0.059 H 
ATOM     16  H   LIG d   1       7.226  -1.138  -4.840  0.00  0.00     0.059 H 
BRANCH  14  17
ATOM     17  O   LIG d   1       6.575   0.566  -5.811  0.00  0.00    -0.392 OA
ATOM     18  H   LIG d   1       5.905  -0.011  -6.202  0.00  0.00     0.209 HD
ENDBRANCH  14  17
ENDBRANCH  12  14
BRANCH  12  19
ATOM     19  O   LIG d   1       6.787   1.865  -3.430  0.00  0.00    -0.385 OA
ATOM     20  H   LIG d   1       7.615   2.313  -3.207  0.00  0.00     0.210 HD
ENDBRANCH  12  19
ENDBRANCH   4  12
TORSDOF 4
ENDMDL
MODEL 4
REMARK VINA RESULT:      -4.5      3.497      4.412
REMARK  4 active torsions:
REMARK  status: ('A' for Active; 'I' for Inactive)
REMARK    1  A    between atoms: C_4  and  C_7 
REMARK    2  A    between atoms: C_7  and  C_9 
REMARK    3  A    between atoms: C_7  and  O_11 
REMARK    4  A    between atoms: C_9  and  O_10 
ROOT
ATOM      1  C   LIG d   1       3.231   0.277  -2.472  0.00  0.00    -0.062 A 
ATOM      2  C   LIG d   1       3.209  -1.078  -2.741  0.00  0.00    -0.061 A 
ATOM      3  C   LIG d   1       4.387  -1.750  -3.007  0.00  0.00    -0.056 A 
ATOM      4  C   LIG d   1       5.589  -1.066  -3.006  0.00  0.00    -0.017 A 
ATOM      5  C   LIG d   1       5.611   0.290  -2.737  0.00  0.00    -0.056 A 
ATOM      6  C   LIG d   1       4.433   0.962  -2.471  0.00  0.00    -0.061 A 
ATOM      7  H   LIG d   1       2.310   0.802  -2.264  0.00  0.00     0.062 H 
ATOM      8  H   LIG d   1       2.270  -1.613  -2.742  0.00  0.00     0.062 H 
ATOM      9  H   LIG d   1       4.370  -2.810  -3.212  0.00  0.00     0.062 H 
ATOM     10  H   LIG d   1       6.549   0.825  -2.737  0.00  0.00     0.062 H 
ATOM     11  H   LIG d   1       4.450   2.022  -2.262  0.00  0.00     0.062 H 
ENDROOT
BRANCH   4  12
ATOM     12  C   LIG d   1       6.873  -1.797  -3.295  0.00  0.00     0.103 C 
ATOM     13  H   LIG d   1       7.178  -2.360  -2.413  0.00  0.00     0.067 H 
BRANCH  12  14
ATOM     14  C   LIG d   1       6.659  -2.760  -4.465  0.00  0.00     0.074 C 
ATOM     15  H   LIG d   1       5.642  -3.149  -4.435  0.00  0.00     0.059 H 
ATOM     16  H   LIG d   1       6.819  -2.231  -5.404  0.00  0.00     0.059 H 
BRANCH  14  17
ATOM     17  O   LIG d   1       7.586  -3.844  -4.365  0.00  0.00    -0.392 OA
ATOM     18  H   LIG d   1       7.534  -4.474  -5.097  0.00  0.00     0.209 HD
ENDBRANCH  14  17
ENDBRANCH  12  14
BRANCH  12  19
ATOM     19  O   LIG d   1       7.892  -0.855  -3.634  0.00  0.00    -0.385 OA
ATOM     20  H   LIG d   1       7.653  -0.258  -4.356  0.00  0.00     0.210 HD
ENDBRANCH  12  19
ENDBRANCH   4  12
TORSDOF 4
ENDMDL
MODEL 5
REMARK VINA RESULT:      -4.5      1.725      2.250
REMARK  4 active torsions:
REMARK  status: ('A' for Active; 'I' for Inactive)
REMARK    1  A    between atoms: C_4  and  C_7 
REMARK    2  A    between atoms: C_7  and  C_9 
REMARK    3  A    between atoms: C_7  and  O_11 
REMARK    4  A    between atoms: C_9  and  O_10 
ROOT
ATOM      1  C   LIG d   1       3.583  -1.609  -2.467  0.00  0.00    -0.062 A 
ATOM      2  C   LIG d   1       2.981  -0.469  -2.966  0.00  0.00    -0.061 A 
ATOM      3  C   LIG d   1       3.162  -0.115  -4.290  0.00  0.00    -0.056 A 
ATOM      4  C   LIG d   1       3.945  -0.901  -5.116  0.00  0.00    -0.017 A 
ATOM      5  C   LIG d   1       4.546  -2.041  -4.616  0.00  0.00    -0.056 A 
ATOM      6  C   LIG d   1       4.367  -2.395  -3.292  0.00  0.00    -0.061 A 
ATOM      7  H   LIG d   1       3.442  -1.886  -1.433  0.00  0.00     0.062 H 
ATOM      8  H   LIG d   1       2.369   0.145  -2.322  0.00  0.00     0.062 H 
ATOM      9  H   LIG d   1       2.687   0.772  -4.681  0.00  0.00     0.062 H 
ATOM     10  H   LIG d   1       5.159  -2.655  -5.260  0.00  0.00     0.062 H 
ATOM     11  H   LIG d   1       4.837  -3.286  -2.902  0.00  0.00     0.062 H 
ENDROOT
BRANCH   4  12
ATOM     12  C   LIG d   1       4.141  -0.516  -6.558  0.00  0.00     0.103 C 
ATOM     13  H   LIG d   1       4.336  -1.411  -7.150  0.00  0.00     0.067 H 
BRANCH  12  14
ATOM     14  C   LIG d   1       2.879   0.174  -7.079  0.00  0.00     0.074 C 
ATOM     15  H   LIG d   1       2.470  -0.396  -7.912  0.00  0.00     0.059 H 
ATOM     16  H   LIG d   1       2.141   0.230  -6.279  0.00  0.00     0.059 H 
BRANCH  14  17
ATOM     17  O   LIG d   1       3.205   1.494  -7.519  0.00  0.00    -0.392 OA
ATOM     18  H   LIG d   1       3.753   1.518  -8.315  0.00  0.00     0.209 HD
ENDBRANCH  14  17
ENDBRANCH  12  14
BRANCH  12  19
ATOM     19  O   LIG d   1       5.252   0.376  -6.667  0.00  0.00    -0.385 OA
ATOM     20  H   LIG d   1       6.105  -0.067  -6.773  0.00  0.00     0.210 HD
ENDBRANCH  12  19
ENDBRANCH   4  12
TORSDOF 4
ENDMDL
MODEL 6
REMARK VINA RESULT:      -4.3      2.467      3.272
REMARK  4 active torsions:
REMARK  status: ('A' for Active; 'I' for Inactive)
REMARK    1  A    between atoms: C_4  and  C_7 
REMARK    2  A    between atoms: C_7  and  C_9 
REMARK    3  A    between atoms: C_7  and  O_11 
REMARK    4  A    between atoms: C_9  and  O_10 
ROOT
ATOM      1  C   LIG d   1       4.687  -2.974  -3.696  0.00  0.00    -0.062 A 
ATOM      2  C   LIG d   1       3.879  -2.545  -2.661  0.00  0.00    -0.061 A 
ATOM      3  C   LIG d   1       3.889  -1.216  -2.280  0.00  0.00    -0.056 A 
ATOM      4  C   LIG d   1       4.708  -0.316  -2.936  0.00  0.00    -0.017 A 
ATOM      5  C   LIG d   1       5.517  -0.745  -3.972  0.00  0.00    -0.056 A 
ATOM      6  C   LIG d   1       5.507  -2.074  -4.352  0.00  0.00    -0.061 A 
ATOM      7  H   LIG d   1       4.680  -4.013  -3.994  0.00  0.00     0.062 H 
ATOM      8  H   LIG d   1       3.239  -3.249  -2.149  0.00  0.00     0.062 H 
ATOM      9  H   LIG d   1       3.254  -0.880  -1.475  0.00  0.00     0.062 H 
ATOM     10  H   LIG d   1       6.157  -0.042  -4.484  0.00  0.00     0.062 H 
ATOM     11  H   LIG d   1       6.140  -2.410  -5.161  0.00  0.00     0.062 H 
ENDROOT
BRANCH   4  12
ATOM     12  C   LIG d   1       4.719   1.133  -2.523  0.00  0.00     0.103 C 
ATOM     13  H   LIG d   1       5.481   1.667  -3.092  0.00  0.00     0.067 H 
BRANCH  12  14
ATOM     14  C   LIG d   1       3.348   1.752  -2.799  0.00  0.00     0.074 C 
ATOM     15  H   LIG d   1       2.575   1.156  -2.315  0.00  0.00     0.059 H 
ATOM     16  H   LIG d   1       3.324   2.769  -2.406  0.00  0.00     0.059 H 
BRANCH  14  17
ATOM     17  O   LIG d   1       3.114   1.781  -4.209  0.00  0.00    -0.392 OA
ATOM     18  H   LIG d   1       2.920   0.915  -4.592  0.00  0.00     0.209 HD
ENDBRANCH  14  17
ENDBRANCH  12  14
BRANCH  12  19
ATOM     19  O   LIG d   1       5.014   1.228  -1.128  0.00  0.00    -0.385 OA
ATOM     20  H   LIG d   1       5.859   1.655  -0.932  0.00  0.00     0.210 HD
ENDBRANCH  12  19
ENDBRANCH   4  12
TORSDOF 4
ENDMDL
MODEL 7
REMARK VINA RESULT:      -4.3      2.582      3.676
REMARK  4 active torsions:
REMARK  status: ('A' for Active; 'I' for Inactive)
REMARK    1  A    between atoms: C_4  and  C_7 
REMARK    2  A    between atoms: C_7  and  C_9 
REMARK    3  A    between atoms: C_7  and  O_11 
REMARK    4  A    between atoms: C_9  and  O_10 
ROOT
ATOM      1  C   LIG d   1       6.357  -3.114  -4.465  0.00  0.00    -0.062 A 
ATOM      2  C   LIG d   1       4.988  -3.255  -4.331  0.00  0.00    -0.061 A 
ATOM      3  C   LIG d   1       4.273  -2.358  -3.560  0.00  0.00    -0.056 A 
ATOM      4  C   LIG d   1       4.927  -1.320  -2.922  0.00  0.00    -0.017 A 
ATOM      5  C   LIG d   1       6.295  -1.180  -3.055  0.00  0.00    -0.056 A 
ATOM      6  C   LIG d   1       7.011  -2.077  -3.825  0.00  0.00    -0.061 A 
ATOM      7  H   LIG d   1       6.916  -3.815  -5.067  0.00  0.00     0.062 H 
ATOM      8  H   LIG d   1       4.478  -4.065  -4.830  0.00  0.00     0.062 H 
ATOM      9  H   LIG d   1       3.204  -2.464  -3.460  0.00  0.00     0.062 H 
ATOM     10  H   LIG d   1       6.807  -0.370  -2.556  0.00  0.00     0.062 H 
ATOM     11  H   LIG d   1       8.081  -1.968  -3.930  0.00  0.00     0.062 H 
ENDROOT
BRANCH   4  12
ATOM     12  C   LIG d   1       4.148  -0.342  -2.082  0.00  0.00     0.103 C 
ATOM     13  H   LIG d   1       4.065  -0.723  -1.064  0.00  0.00     0.067 H 
BRANCH  12  14
ATOM     14  C   LIG d   1       4.873   1.005  -2.063  0.00  0.00     0.074 C 
ATOM     15  H   LIG d   1       4.709   1.494  -1.104  0.00  0.00     0.059 H 
ATOM     16  H   LIG d   1       5.941   0.845  -2.213  0.00  0.00     0.059 H 
BRANCH  14  17
ATOM     17  O   LIG d   1       4.365   1.834  -3.112  0.00  0.00    -0.392 OA
ATOM     18  H   LIG d   1       3.701   2.472  -2.821  0.00  0.00     0.209 HD
ENDBRANCH  14  17
ENDBRANCH  12  14
BRANCH  12  19
ATOM     19  O   LIG d   1       2.842  -0.173  -2.635  0.00  0.00    -0.385 OA
ATOM     20  H   LIG d   1       2.625  -0.805  -3.334  0.00  0.00     0.210 HD
ENDBRANCH  12  19
ENDBRANCH   4  12
TORSDOF 4
ENDMDL
MODEL 8
REMARK VINA RESULT:      -4.2      9.866     10.409
REMARK  4 active torsions:
REMARK  status: ('A' for Active; 'I' for Inactive)
REMARK    1  A    between atoms: C_4  and  C_7 
REMARK    2  A    between atoms: C_7  and  C_9 
REMARK    3  A    between atoms: C_7  and  O_11 
REMARK    4  A    between atoms: C_9  and  O_10 
ROOT
ATOM      1  C   LIG d   1       7.726  -9.693  -1.568  0.00  0.00    -0.062 A 
ATOM      2  C   LIG d   1       7.715  -9.097  -2.815  0.00  0.00    -0.061 A 
ATOM      3  C   LIG d   1       6.655  -9.313  -3.675  0.00  0.00    -0.056 A 
ATOM      4  C   LIG d   1       5.605 -10.126  -3.288  0.00  0.00    -0.017 A 
ATOM      5  C   LIG d   1       5.616 -10.722  -2.041  0.00  0.00    -0.056 A 
ATOM      6  C   LIG d   1       6.677 -10.506  -1.181  0.00  0.00    -0.061 A 
ATOM      7  H   LIG d   1       8.555  -9.524  -0.895  0.00  0.00     0.062 H 
ATOM      8  H   LIG d   1       8.535  -8.462  -3.117  0.00  0.00     0.062 H 
ATOM      9  H   LIG d   1       6.643  -8.843  -4.646  0.00  0.00     0.062 H 
ATOM     10  H   LIG d   1       4.798 -11.358  -1.738  0.00  0.00     0.062 H 
ATOM     11  H   LIG d   1       6.686 -10.973  -0.206  0.00  0.00     0.062 H 
ENDROOT
BRANCH   4  12
ATOM     12  C   LIG d   1       4.449 -10.362  -4.224  0.00  0.00     0.103 C 
ATOM     13  H   LIG d   1       4.741 -11.084  -4.987  0.00  0.00     0.067 H 
BRANCH  12  14
ATOM     14  C   LIG d   1       3.257 -10.907  -3.436  0.00  0.00     0.074 C 
ATOM     15  H   LIG d   1       2.703 -11.612  -4.054  0.00  0.00     0.059 H 
ATOM     16  H   LIG d   1       3.615 -11.412  -2.539  0.00  0.00     0.059 H 
BRANCH  14  17
ATOM     17  O   LIG d   1       2.399  -9.826  -3.062  0.00  0.00    -0.392 OA
ATOM     18  H   LIG d   1       2.002  -9.924  -2.186  0.00  0.00     0.209 HD
ENDBRANCH  14  17
ENDBRANCH  12  14
BRANCH  12  19
ATOM     19  O   LIG d   1       4.084  -9.130  -4.850  0.00  0.00    -0.385 OA
ATOM     20  H   LIG d   1       4.546  -8.960  -5.683  0.00  0.00     0.210 HD
ENDBRANCH  12  19
ENDBRANCH   4  12
TORSDOF 4
ENDMDL
MODEL 9
REMARK VINA RESULT:      -4.0      2.520      5.404
REMARK  4 active torsions:
REMARK  status: ('A' for Active; 'I' for Inactive)
REMARK    1  A    between atoms: C_4  and  C_7 
REMARK    2  A    between atoms: C_7  and  C_9 
REMARK    3  A    between atoms: C_7  and  O_11 
REMARK    4  A    between atoms: C_9  and  O_10 
ROOT
ATOM      1  C   LIG d   1       3.171   0.689  -9.930  0.00  0.00    -0.062 A 
ATOM      2  C   LIG d   1       3.221  -0.573  -9.368  0.00  0.00    -0.061 A 
ATOM      3  C   LIG d   1       3.081  -0.728  -8.002  0.00  0.00    -0.056 A 
ATOM      4  C   LIG d   1       2.890   0.380  -7.196  0.00  0.00    -0.017 A 
ATOM      5  C   LIG d   1       2.839   1.642  -7.758  0.00  0.00    -0.056 A 
ATOM      6  C   LIG d   1       2.981   1.797  -9.125  0.00  0.00    -0.061 A 
ATOM      7  H   LIG d   1       3.280   0.810 -10.998  0.00  0.00     0.062 H 
ATOM      8  H   LIG d   1       3.370  -1.439  -9.997  0.00  0.00     0.062 H 
ATOM      9  H   LIG d   1       3.115  -1.714  -7.564  0.00  0.00     0.062 H 
ATOM     10  H   LIG d   1       2.692   2.508  -7.130  0.00  0.00     0.062 H 
ATOM     11  H   LIG d   1       2.941   2.783  -9.564  0.00  0.00     0.062 H 
ENDROOT
BRANCH   4  12
ATOM     12  C   LIG d   1       2.736   0.212  -5.708  0.00  0.00     0.103 C 
ATOM     13  H   LIG d   1       1.798  -0.300  -5.495  0.00  0.00     0.067 H 
BRANCH  12  14
ATOM     14  C   LIG d   1       3.903  -0.615  -5.165  0.00  0.00     0.074 C 
ATOM     15  H   LIG d   1       4.556  -0.906  -5.986  0.00  0.00     0.059 H 
ATOM     16  H   LIG d   1       4.465  -0.021  -4.444  0.00  0.00     0.059 H 
BRANCH  14  17
ATOM     17  O   LIG d   1       3.397  -1.787  -4.522  0.00  0.00    -0.392 OA
ATOM     18  H   LIG d   1       3.666  -1.875  -3.597  0.00  0.00     0.209 HD
ENDBRANCH  14  17
ENDBRANCH  12  14
BRANCH  12  19
ATOM     19  O   LIG d   1       2.730   1.496  -5.081  0.00  0.00    -0.385 OA
ATOM     20  H   LIG d   1       3.032   1.488  -4.162  0.00  0.00     0.210 HD
ENDBRANCH  12  19
ENDBRANCH   4  12
TORSDOF 4
ENDMDL
MODEL 10
REMARK VINA RESULT:      -3.9      9.546     10.296
REMARK  4 active torsions:
REMARK  status: ('A' for Active; 'I' for Inactive)
REMARK    1  A    between atoms: C_4  and  C_7 
REMARK    2  A    between atoms: C_7  and  C_9 
REMARK    3  A    between atoms: C_7  and  O_11 
REMARK    4  A    between atoms: C_9  and  O_10 
ROOT
ATOM      1  C   LIG d   1      10.950   5.127  -3.098  0.00  0.00    -0.062 A 
ATOM      2  C   LIG d   1      10.359   6.176  -3.776  0.00  0.00    -0.061 A 
ATOM      3  C   LIG d   1       9.760   7.204  -3.073  0.00  0.00    -0.056 A 
ATOM      4  C   LIG d   1       9.752   7.183  -1.690  0.00  0.00    -0.017 A 
ATOM      5  C   LIG d   1      10.343   6.134  -1.012  0.00  0.00    -0.056 A 
ATOM      6  C   LIG d   1      10.941   5.106  -1.715  0.00  0.00    -0.061 A 
ATOM      7  H   LIG d   1      11.419   4.323  -3.647  0.00  0.00     0.062 H 
ATOM      8  H   LIG d   1      10.366   6.193  -4.856  0.00  0.00     0.062 H 
ATOM      9  H   LIG d   1       9.304   8.026  -3.603  0.00  0.00     0.062 H 
ATOM     10  H   LIG d   1      10.335   6.116   0.068  0.00  0.00     0.062 H 
ATOM     11  H   LIG d   1      11.403   4.285  -1.184  0.00  0.00     0.062 H 
ENDROOT
BRANCH   4  12
ATOM     12  C   LIG d   1       9.099   8.304  -0.923  0.00  0.00     0.103 C 
ATOM     13  H   LIG d   1       9.514   8.344   0.084  0.00  0.00     0.067 H 
BRANCH  12  14
ATOM     14  C   LIG d   1       9.363   9.631  -1.637  0.00  0.00     0.074 C 
ATOM     15  H   LIG d   1      10.120  10.193  -1.091  0.00  0.00     0.059 H 
ATOM     16  H   LIG d   1       9.715   9.435  -2.650  0.00  0.00     0.059 H 
BRANCH  14  17
ATOM     17  O   LIG d   1       8.153  10.391  -1.692  0.00  0.00    -0.392 OA
ATOM     18  H   LIG d   1       8.203  11.167  -2.266  0.00  0.00     0.209 HD
ENDBRANCH  14  17
ENDBRANCH  12  14
BRANCH  12  19
ATOM     19  O   LIG d   1       7.691   8.074  -0.849  0.00  0.00    -0.385 OA
ATOM     20  H   LIG d   1       7.392   7.301  -1.347  0.00  0.00     0.210 HD
ENDBRANCH  12  19
ENDBRANCH   4  12
TORSDOF 4
ENDMDL
