MODEL 1
REMARK VINA RESULT:      -6.3      0.000      0.000
REMARK  12 active torsions:
REMARK  status: ('A' for Active; 'I' for Inactive)
REMARK    1  A    between atoms: C_1  and  C_2 
REMARK    2  A    between atoms: C_2  and  C_3 
REMARK    3  A    between atoms: C_3  and  C_4 
REMARK    4  A    between atoms: C_4  and  C_5 
REMARK    5  A    between atoms: C_5  and  C_6 
REMARK    6  A    between atoms: C_6  and  C_8 
REMARK    7  A    between atoms: C_6  and  C_23 
REMARK    8  A    between atoms: C_8  and  C_10 
REMARK    9  A    between atoms: C_8  and  C_11 
REMARK   10  A    between atoms: C_11  and  C_12 
REMARK       I    between atoms: C_12  and  N_14 
REMARK   11  A    between atoms: N_14  and  C_15 
REMARK   12  A    between atoms: C_18  and  C_21 
ROOT
ATOM      1  C   LIG d   1       3.758  -0.846  -2.398  0.00  0.00    -0.028 C 
ATOM      2  H   LIG d   1       3.757  -0.390  -1.408  0.00  0.00     0.031 H 
ENDROOT
BRANCH   1   3
ATOM      3  C   LIG d   1       4.996  -0.385  -3.170  0.00  0.00     0.002 C 
ATOM      4  H   LIG d   1       4.739  -0.247  -4.221  0.00  0.00     0.036 H 
BRANCH   3   5
ATOM      5  C   LIG d   1       6.095  -1.441  -3.050  0.00  0.00    -0.045 C 
ATOM      6  H   LIG d   1       6.906  -1.052  -2.433  0.00  0.00     0.027 H 
ATOM      7  H   LIG d   1       5.688  -2.340  -2.588  0.00  0.00     0.027 H 
BRANCH   5   8
ATOM      8  C   LIG d   1       6.632  -1.781  -4.442  0.00  0.00    -0.052 C 
ATOM      9  H   LIG d   1       6.047  -1.253  -5.194  0.00  0.00     0.026 H 
ATOM     10  H   LIG d   1       7.676  -1.476  -4.513  0.00  0.00     0.026 H 
BRANCH   8  11
ATOM     11  C   LIG d   1       6.524  -3.289  -4.677  0.00  0.00    -0.053 C 
ATOM     12  H   LIG d   1       7.375  -3.626  -5.268  0.00  0.00     0.026 H 
ATOM     13  H   LIG d   1       6.520  -3.807  -3.717  0.00  0.00     0.026 H 
BRANCH  11  14
ATOM     14  C   LIG d   1       5.227  -3.595  -5.428  0.00  0.00    -0.056 C 
ATOM     15  H   LIG d   1       4.398  -3.072  -4.952  0.00  0.00     0.026 H 
ATOM     16  H   LIG d   1       5.320  -3.266  -6.462  0.00  0.00     0.026 H 
BRANCH  14  17
ATOM     17  C   LIG d   1       4.963  -5.103  -5.395  0.00  0.00    -0.065 C 
ATOM     18  H   LIG d   1       5.237  -5.498  -4.417  0.00  0.00     0.023 H 
ATOM     19  H   LIG d   1       3.905  -5.290  -5.579  0.00  0.00     0.023 H 
ATOM     20  H   LIG d   1       5.558  -5.593  -6.165  0.00  0.00     0.023 H 
ENDBRANCH  14  17
ENDBRANCH  11  14
ENDBRANCH   8  11
ENDBRANCH   5   8
ENDBRANCH   3   5
BRANCH   3  21
ATOM     21  C   LIG d   1       5.488   0.919  -2.597  0.00  0.00     0.045 C 
ATOM     22  O   LIG d   1       5.039   1.328  -1.553  0.00  0.00    -0.549 OA
ATOM     23  O   LIG d   1       6.423   1.628  -3.249  0.00  0.00    -0.549 OA
ENDBRANCH   3  21
ENDBRANCH   1   3
BRANCH   1  24
ATOM     24  C   LIG d   1       3.783  -2.370  -2.258  0.00  0.00    -0.061 C 
ATOM     25  H   LIG d   1       4.730  -2.679  -1.818  0.00  0.00     0.023 H 
ATOM     26  H   LIG d   1       2.962  -2.688  -1.614  0.00  0.00     0.023 H 
ATOM     27  H   LIG d   1       3.672  -2.827  -3.241  0.00  0.00     0.023 H 
ENDBRANCH   1  24
BRANCH   1  28
ATOM     28  C   LIG d   1       2.498  -0.425  -3.156  0.00  0.00     0.027 C 
ATOM     29  H   LIG d   1       1.999   0.380  -2.614  0.00  0.00     0.036 H 
ATOM     30  H   LIG d   1       1.823  -1.276  -3.243  0.00  0.00     0.036 H 
BRANCH  28  31
ATOM     31  C   LIG d   1       2.877   0.059  -4.532  0.00  0.00     0.217 C 
ATOM     32  O   LIG d   1       2.844   1.243  -4.789  0.00  0.00    -0.276 OA
ATOM     33  N   LIG d   1       3.256  -0.826  -5.477  0.00  0.00    -0.285 N 
ATOM     34  H   LIG d   1       3.356  -1.763  -5.251  0.00  0.00     0.155 HD
BRANCH  33  35
ATOM     35  C   LIG d   1       3.499  -0.392  -6.779  0.00  0.00     0.033 A 
ATOM     36  C   LIG d   1       2.434  -0.168  -7.646  0.00  0.00    -0.040 A 
ATOM     37  C   LIG d   1       2.670   0.260  -8.933  0.00  0.00    -0.051 A 
ATOM     38  H   LIG d   1       1.421  -0.329  -7.308  0.00  0.00     0.064 H 
ATOM     39  C   LIG d   1       3.983   0.469  -9.368  0.00  0.00    -0.003 A 
ATOM     40  H   LIG d   1       1.843   0.434  -9.605  0.00  0.00     0.062 H 
ATOM     41  C   LIG d   1       5.050   0.243  -8.495  0.00  0.00    -0.051 A 
ATOM     42  C   LIG d   1       4.806  -0.181  -7.208  0.00  0.00    -0.040 A 
ATOM     43  H   LIG d   1       6.065   0.403  -8.828  0.00  0.00     0.062 H 
ATOM     44  H   LIG d   1       5.630  -0.353  -6.531  0.00  0.00     0.064 H 
BRANCH  39  45
ATOM     45  C   LIG d   1       4.239   0.927 -10.747  0.00  0.00     0.072 C 
ATOM     46  O   LIG d   1       3.903   2.043 -11.089  0.00  0.00    -0.545 OA
ATOM     47  O   LIG d   1       4.848   0.107 -11.626  0.00  0.00    -0.545 OA
ENDBRANCH  39  45
ENDBRANCH  33  35
ENDBRANCH  28  31
ENDBRANCH   1  28
TORSDOF 12
ENDMDL
MODEL 2
REMARK VINA RESULT:      -5.9      4.200      6.191
REMARK  12 active torsions:
REMARK  status: ('A' for Active; 'I' for Inactive)
REMARK    1  A    between atoms: C_1  and  C_2 
REMARK    2  A    between atoms: C_2  and  C_3 
REMARK    3  A    between atoms: C_3  and  C_4 
REMARK    4  A    between atoms: C_4  and  C_5 
REMARK    5  A    between atoms: C_5  and  C_6 
REMARK    6  A    between atoms: C_6  and  C_8 
REMARK    7  A    between atoms: C_6  and  C_23 
REMARK    8  A    between atoms: C_8  and  C_10 
REMARK    9  A    between atoms: C_8  and  C_11 
REMARK   10  A    between atoms: C_11  and  C_12 
REMARK       I    between atoms: C_12  and  N_14 
REMARK   11  A    between atoms: N_14  and  C_15 
REMARK   12  A    between atoms: C_18  and  C_21 
ROOT
ATOM      1  C   LIG d   1       6.549  -1.802  -4.535  0.00  0.00    -0.028 C 
ATOM      2  H   LIG d   1       6.858  -1.337  -5.470  0.00  0.00     0.031 H 
ENDROOT
BRANCH   1   3
ATOM      3  C   LIG d   1       5.029  -1.969  -4.526  0.00  0.00     0.002 C 
ATOM      4  H   LIG d   1       4.554  -0.987  -4.561  0.00  0.00     0.036 H 
BRANCH   3   5
ATOM      5  C   LIG d   1       4.602  -2.693  -3.248  0.00  0.00    -0.045 C 
ATOM      6  H   LIG d   1       3.900  -3.490  -3.499  0.00  0.00     0.027 H 
ATOM      7  H   LIG d   1       5.479  -3.122  -2.763  0.00  0.00     0.027 H 
BRANCH   5   8
ATOM      8  C   LIG d   1       3.928  -1.701  -2.298  0.00  0.00    -0.052 C 
ATOM      9  H   LIG d   1       3.320  -2.246  -1.577  0.00  0.00     0.026 H 
ATOM     10  H   LIG d   1       4.689  -1.128  -1.771  0.00  0.00     0.026 H 
BRANCH   8  11
ATOM     11  C   LIG d   1       3.037  -0.751  -3.101  0.00  0.00    -0.053 C 
ATOM     12  H   LIG d   1       3.257  -0.857  -4.163  0.00  0.00     0.026 H 
ATOM     13  H   LIG d   1       1.990  -0.995  -2.921  0.00  0.00     0.026 H 
BRANCH  11  14
ATOM     14  C   LIG d   1       3.307   0.691  -2.665  0.00  0.00    -0.056 C 
ATOM     15  H   LIG d   1       3.631   1.276  -3.525  0.00  0.00     0.026 H 
ATOM     16  H   LIG d   1       2.395   1.122  -2.254  0.00  0.00     0.026 H 
BRANCH  14  17
ATOM     17  C   LIG d   1       4.404   0.704  -1.598  0.00  0.00    -0.065 C 
ATOM     18  H   LIG d   1       5.114   1.501  -1.817  0.00  0.00     0.023 H 
ATOM     19  H   LIG d   1       3.956   0.876  -0.619  0.00  0.00     0.023 H 
ATOM     20  H   LIG d   1       4.923  -0.255  -1.598  0.00  0.00     0.023 H 
ENDBRANCH  14  17
ENDBRANCH  11  14
ENDBRANCH   8  11
ENDBRANCH   5   8
ENDBRANCH   3   5
BRANCH   3  21
ATOM     21  C   LIG d   1       4.604  -2.776  -5.725  0.00  0.00     0.045 C 
ATOM     22  O   LIG d   1       4.666  -2.292  -6.830  0.00  0.00    -0.549 OA
ATOM     23  O   LIG d   1       4.157  -4.031  -5.566  0.00  0.00    -0.549 OA
ENDBRANCH   3  21
ENDBRANCH   1   3
BRANCH   1  24
ATOM     24  C   LIG d   1       7.214  -3.174  -4.403  0.00  0.00    -0.061 C 
ATOM     25  H   LIG d   1       6.661  -3.779  -3.686  0.00  0.00     0.023 H 
ATOM     26  H   LIG d   1       7.215  -3.671  -5.373  0.00  0.00     0.023 H 
ATOM     27  H   LIG d   1       8.240  -3.049  -4.058  0.00  0.00     0.023 H 
ENDBRANCH   1  24
BRANCH   1  28
ATOM     28  C   LIG d   1       6.972  -0.916  -3.361  0.00  0.00     0.027 C 
ATOM     29  H   LIG d   1       7.830  -1.364  -2.858  0.00  0.00     0.036 H 
ATOM     30  H   LIG d   1       6.145  -0.827  -2.656  0.00  0.00     0.036 H 
BRANCH  28  31
ATOM     31  C   LIG d   1       7.347   0.450  -3.872  0.00  0.00     0.217 C 
ATOM     32  O   LIG d   1       6.485   1.212  -4.254  0.00  0.00    -0.276 OA
ATOM     33  N   LIG d   1       8.641   0.826  -3.904  0.00  0.00    -0.285 N 
ATOM     34  H   LIG d   1       9.323   0.248  -3.529  0.00  0.00     0.155 HD
BRANCH  33  35
ATOM     35  C   LIG d   1       8.999   2.045  -4.479  0.00  0.00     0.033 A 
ATOM     36  C   LIG d   1       9.230   3.153  -3.671  0.00  0.00    -0.040 A 
ATOM     37  C   LIG d   1       9.584   4.357  -4.236  0.00  0.00    -0.051 A 
ATOM     38  H   LIG d   1       9.132   3.068  -2.598  0.00  0.00     0.064 H 
ATOM     39  C   LIG d   1       9.711   4.466  -5.624  0.00  0.00    -0.003 A 
ATOM     40  H   LIG d   1       9.763   5.218  -3.607  0.00  0.00     0.062 H 
ATOM     41  C   LIG d   1       9.478   3.350  -6.433  0.00  0.00    -0.051 A 
ATOM     42  C   LIG d   1       9.129   2.147  -5.861  0.00  0.00    -0.040 A 
ATOM     43  H   LIG d   1       9.575   3.430  -7.506  0.00  0.00     0.062 H 
ATOM     44  H   LIG d   1       8.953   1.284  -6.485  0.00  0.00     0.064 H 
BRANCH  39  45
ATOM     45  C   LIG d   1      10.089   5.755  -6.233  0.00  0.00     0.072 C 
ATOM     46  O   LIG d   1      10.592   6.625  -5.551  0.00  0.00    -0.545 OA
ATOM     47  O   LIG d   1       9.876   5.967  -7.547  0.00  0.00    -0.545 OA
ENDBRANCH  39  45
ENDBRANCH  33  35
ENDBRANCH  28  31
ENDBRANCH   1  28
TORSDOF 12
ENDMDL
MODEL 3
REMARK VINA RESULT:      -5.9      4.310      6.781
REMARK  12 active torsions:
REMARK  status: ('A' for Active; 'I' for Inactive)
REMARK    1  A    between atoms: C_1  and  C_2 
REMARK    2  A    between atoms: C_2  and  C_3 
REMARK    3  A    between atoms: C_3  and  C_4 
REMARK    4  A    between atoms: C_4  and  C_5 
REMARK    5  A    between atoms: C_5  and  C_6 
REMARK    6  A    between atoms: C_6  and  C_8 
REMARK    7  A    between atoms: C_6  and  C_23 
REMARK    8  A    between atoms: C_8  and  C_10 
REMARK    9  A    between atoms: C_8  and  C_11 
REMARK   10  A    between atoms: C_11  and  C_12 
REMARK       I    between atoms: C_12  and  N_14 
REMARK   11  A    between atoms: N_14  and  C_15 
REMARK   12  A    between atoms: C_18  and  C_21 
ROOT
ATOM      1  C   LIG d   1       6.711  -0.880  -5.132  0.00  0.00    -0.028 C 
ATOM      2  H   LIG d   1       7.189  -0.275  -5.903  0.00  0.00     0.031 H 
ENDROOT
BRANCH   1   3
ATOM      3  C   LIG d   1       5.201  -0.635  -5.155  0.00  0.00     0.002 C 
ATOM      4  H   LIG d   1       4.974   0.291  -4.625  0.00  0.00     0.036 H 
BRANCH   3   5
ATOM      5  C   LIG d   1       4.485  -1.800  -4.471  0.00  0.00    -0.045 C 
ATOM      6  H   LIG d   1       3.934  -2.375  -5.217  0.00  0.00     0.027 H 
ATOM      7  H   LIG d   1       5.218  -2.444  -3.986  0.00  0.00     0.027 H 
BRANCH   5   8
ATOM      8  C   LIG d   1       3.509  -1.257  -3.425  0.00  0.00    -0.052 C 
ATOM      9  H   LIG d   1       3.227  -0.238  -3.687  0.00  0.00     0.026 H 
ATOM     10  H   LIG d   1       2.620  -1.885  -3.397  0.00  0.00     0.026 H 
BRANCH   8  11
ATOM     11  C   LIG d   1       4.180  -1.262  -2.050  0.00  0.00    -0.053 C 
ATOM     12  H   LIG d   1       3.518  -1.734  -1.324  0.00  0.00     0.026 H 
ATOM     13  H   LIG d   1       5.116  -1.820  -2.104  0.00  0.00     0.026 H 
BRANCH  11  14
ATOM     14  C   LIG d   1       4.469   0.177  -1.618  0.00  0.00    -0.056 C 
ATOM     15  H   LIG d   1       4.282   0.281  -0.550  0.00  0.00     0.026 H 
ATOM     16  H   LIG d   1       5.509   0.419  -1.832  0.00  0.00     0.026 H 
BRANCH  14  17
ATOM     17  C   LIG d   1       3.555   1.133  -2.390  0.00  0.00    -0.065 C 
ATOM     18  H   LIG d   1       2.571   1.151  -1.922  0.00  0.00     0.023 H 
ATOM     19  H   LIG d   1       3.984   2.136  -2.374  0.00  0.00     0.023 H 
ATOM     20  H   LIG d   1       3.462   0.794  -3.421  0.00  0.00     0.023 H 
ENDBRANCH  14  17
ENDBRANCH  11  14
ENDBRANCH   8  11
ENDBRANCH   5   8
ENDBRANCH   3   5
BRANCH   3  21
ATOM     21  C   LIG d   1       4.732  -0.525  -6.583  0.00  0.00     0.045 C 
ATOM     22  O   LIG d   1       4.978   0.468  -7.225  0.00  0.00    -0.549 OA
ATOM     23  O   LIG d   1       4.039  -1.530  -7.141  0.00  0.00    -0.549 OA
ENDBRANCH   3  21
ENDBRANCH   1   3
BRANCH   1  24
ATOM     24  C   LIG d   1       6.992  -2.360  -5.397  0.00  0.00    -0.061 C 
ATOM     25  H   LIG d   1       6.622  -2.629  -6.386  0.00  0.00     0.023 H 
ATOM     26  H   LIG d   1       8.066  -2.540  -5.351  0.00  0.00     0.023 H 
ATOM     27  H   LIG d   1       6.490  -2.966  -4.643  0.00  0.00     0.023 H 
ENDBRANCH   1  24
BRANCH   1  28
ATOM     28  C   LIG d   1       7.269  -0.493  -3.761  0.00  0.00     0.027 C 
ATOM     29  H   LIG d   1       8.144  -1.105  -3.538  0.00  0.00     0.036 H 
ATOM     30  H   LIG d   1       6.508  -0.657  -2.999  0.00  0.00     0.036 H 
BRANCH  28  31
ATOM     31  C   LIG d   1       7.664   0.961  -3.771  0.00  0.00     0.217 C 
ATOM     32  O   LIG d   1       6.832   1.817  -3.561  0.00  0.00    -0.276 OA
ATOM     33  N   LIG d   1       8.944   1.310  -4.013  0.00  0.00    -0.285 N 
ATOM     34  H   LIG d   1       9.624   0.626  -4.106  0.00  0.00     0.155 HD
BRANCH  33  35
ATOM     35  C   LIG d   1       9.288   2.656  -4.134  0.00  0.00     0.033 A 
ATOM     36  C   LIG d   1       9.198   3.287  -5.370  0.00  0.00    -0.040 A 
ATOM     37  C   LIG d   1       9.537   4.616  -5.493  0.00  0.00    -0.051 A 
ATOM     38  H   LIG d   1       8.862   2.734  -6.235  0.00  0.00     0.064 H 
ATOM     39  C   LIG d   1       9.972   5.331  -4.373  0.00  0.00    -0.003 A 
ATOM     40  H   LIG d   1       9.467   5.105  -6.454  0.00  0.00     0.062 H 
ATOM     41  C   LIG d   1      10.061   4.694  -3.132  0.00  0.00    -0.051 A 
ATOM     42  C   LIG d   1       9.716   3.366  -3.016  0.00  0.00    -0.040 A 
ATOM     43  H   LIG d   1      10.396   5.243  -2.265  0.00  0.00     0.062 H 
ATOM     44  H   LIG d   1       9.781   2.874  -2.057  0.00  0.00     0.064 H 
BRANCH  39  45
ATOM     45  C   LIG d   1      10.336   6.754  -4.501  0.00  0.00     0.072 C 
ATOM     46  O   LIG d   1      11.373   7.162  -4.017  0.00  0.00    -0.545 OA
ATOM     47  O   LIG d   1       9.518   7.602  -5.156  0.00  0.00    -0.545 OA
ENDBRANCH  39  45
ENDBRANCH  33  35
ENDBRANCH  28  31
ENDBRANCH   1  28
TORSDOF 12
ENDMDL
MODEL 4
REMARK VINA RESULT:      -5.8      2.832      4.222
REMARK  12 active torsions:
REMARK  status: ('A' for Active; 'I' for Inactive)
REMARK    1  A    between atoms: C_1  and  C_2 
REMARK    2  A    between atoms: C_2  and  C_3 
REMARK    3  A    between atoms: C_3  and  C_4 
REMARK    4  A    between atoms: C_4  and  C_5 
REMARK    5  A    between atoms: C_5  and  C_6 
REMARK    6  A    between atoms: C_6  and  C_8 
REMARK    7  A    between atoms: C_6  and  C_23 
REMARK    8  A    between atoms: C_8  and  C_10 
REMARK    9  A    between atoms: C_8  and  C_11 
REMARK   10  A    between atoms: C_11  and  C_12 
REMARK       I    between atoms: C_12  and  N_14 
REMARK   11  A    between atoms: N_14  and  C_15 
REMARK   12  A    between atoms: C_18  and  C_21 
ROOT
ATOM      1  C   LIG d   1       5.977  -1.731  -5.264  0.00  0.00    -0.028 C 
ATOM      2  H   LIG d   1       6.448  -2.234  -6.108  0.00  0.00     0.031 H 
ENDROOT
BRANCH   1   3
ATOM      3  C   LIG d   1       4.707  -2.485  -4.865  0.00  0.00     0.002 C 
ATOM      4  H   LIG d   1       3.832  -1.921  -5.191  0.00  0.00     0.036 H 
BRANCH   3   5
ATOM      5  C   LIG d   1       4.667  -2.651  -3.345  0.00  0.00    -0.045 C 
ATOM      6  H   LIG d   1       4.323  -3.656  -3.099  0.00  0.00     0.027 H 
ATOM      7  H   LIG d   1       5.667  -2.500  -2.937  0.00  0.00     0.027 H 
BRANCH   5   8
ATOM      8  C   LIG d   1       3.708  -1.622  -2.743  0.00  0.00    -0.052 C 
ATOM      9  H   LIG d   1       3.411  -0.910  -3.512  0.00  0.00     0.026 H 
ATOM     10  H   LIG d   1       2.826  -2.130  -2.358  0.00  0.00     0.026 H 
BRANCH   8  11
ATOM     11  C   LIG d   1       4.408  -0.878  -1.603  0.00  0.00    -0.053 C 
ATOM     12  H   LIG d   1       3.757  -0.858  -0.729  0.00  0.00     0.026 H 
ATOM     13  H   LIG d   1       5.337  -1.390  -1.352  0.00  0.00     0.026 H 
BRANCH  11  14
ATOM     14  C   LIG d   1       4.716   0.554  -2.043  0.00  0.00    -0.056 C 
ATOM     15  H   LIG d   1       4.959   1.159  -1.169  0.00  0.00     0.026 H 
ATOM     16  H   LIG d   1       5.562   0.549  -2.729  0.00  0.00     0.026 H 
BRANCH  14  17
ATOM     17  C   LIG d   1       3.493   1.146  -2.747  0.00  0.00    -0.065 C 
ATOM     18  H   LIG d   1       2.895   0.341  -3.174  0.00  0.00     0.023 H 
ATOM     19  H   LIG d   1       2.892   1.701  -2.026  0.00  0.00     0.023 H 
ATOM     20  H   LIG d   1       3.820   1.817  -3.541  0.00  0.00     0.023 H 
ENDBRANCH  14  17
ENDBRANCH  11  14
ENDBRANCH   8  11
ENDBRANCH   5   8
ENDBRANCH   3   5
BRANCH   3  21
ATOM     21  C   LIG d   1       4.702  -3.842  -5.519  0.00  0.00     0.045 C 
ATOM     22  O   LIG d   1       4.276  -4.800  -4.919  0.00  0.00    -0.549 OA
ATOM     23  O   LIG d   1       5.171  -3.988  -6.768  0.00  0.00    -0.549 OA
ENDBRANCH   3  21
ENDBRANCH   1   3
BRANCH   1  24
ATOM     24  C   LIG d   1       6.947  -1.704  -4.081  0.00  0.00    -0.061 C 
ATOM     25  H   LIG d   1       7.246  -0.676  -3.879  0.00  0.00     0.023 H 
ATOM     26  H   LIG d   1       6.456  -2.118  -3.200  0.00  0.00     0.023 H 
ATOM     27  H   LIG d   1       7.828  -2.299  -4.319  0.00  0.00     0.023 H 
ENDBRANCH   1  24
BRANCH   1  28
ATOM     28  C   LIG d   1       5.617  -0.298  -5.660  0.00  0.00     0.027 C 
ATOM     29  H   LIG d   1       6.520   0.235  -5.960  0.00  0.00     0.036 H 
ATOM     30  H   LIG d   1       5.161   0.211  -4.811  0.00  0.00     0.036 H 
BRANCH  28  31
ATOM     31  C   LIG d   1       4.645  -0.324  -6.811  0.00  0.00     0.217 C 
ATOM     32  O   LIG d   1       3.601   0.289  -6.737  0.00  0.00    -0.276 OA
ATOM     33  N   LIG d   1       4.936  -1.028  -7.924  0.00  0.00    -0.285 N 
ATOM     34  H   LIG d   1       5.801  -1.455  -8.014  0.00  0.00     0.155 HD
BRANCH  33  35
ATOM     35  C   LIG d   1       3.991  -1.144  -8.941  0.00  0.00     0.033 A 
ATOM     36  C   LIG d   1       3.897  -0.157  -9.918  0.00  0.00    -0.040 A 
ATOM     37  C   LIG d   1       2.965  -0.270 -10.925  0.00  0.00    -0.051 A 
ATOM     38  H   LIG d   1       4.556   0.697  -9.886  0.00  0.00     0.064 H 
ATOM     39  C   LIG d   1       2.112  -1.377 -10.965  0.00  0.00    -0.003 A 
ATOM     40  H   LIG d   1       2.892   0.497 -11.682  0.00  0.00     0.062 H 
ATOM     41  C   LIG d   1       2.209  -2.367  -9.983  0.00  0.00    -0.051 A 
ATOM     42  C   LIG d   1       3.147  -2.250  -8.982  0.00  0.00    -0.040 A 
ATOM     43  H   LIG d   1       1.552  -3.223 -10.012  0.00  0.00     0.062 H 
ATOM     44  H   LIG d   1       3.225  -3.016  -8.224  0.00  0.00     0.064 H 
BRANCH  39  45
ATOM     45  C   LIG d   1       1.112  -1.500 -12.043  0.00  0.00     0.072 C 
ATOM     46  O   LIG d   1       0.106  -0.819 -12.018  0.00  0.00    -0.545 OA
ATOM     47  O   LIG d   1       1.316  -2.367 -13.054  0.00  0.00    -0.545 OA
ENDBRANCH  39  45
ENDBRANCH  33  35
ENDBRANCH  28  31
ENDBRANCH   1  28
TORSDOF 12
ENDMDL
MODEL 5
REMARK VINA RESULT:      -5.8      3.801      5.279
REMARK  12 active torsions:
REMARK  status: ('A' for Active; 'I' for Inactive)
REMARK    1  A    between atoms: C_1  and  C_2 
REMARK    2  A    between atoms: C_2  and  C_3 
REMARK    3  A    between atoms: C_3  and  C_4 
REMARK    4  A    between atoms: C_4  and  C_5 
REMARK    5  A    between atoms: C_5  and  C_6 
REMARK    6  A    between atoms: C_6  and  C_8 
REMARK    7  A    between atoms: C_6  and  C_23 
REMARK    8  A    between atoms: C_8  and  C_10 
REMARK    9  A    between atoms: C_8  and  C_11 
REMARK   10  A    between atoms: C_11  and  C_12 
REMARK       I    between atoms: C_12  and  N_14 
REMARK   11  A    between atoms: N_14  and  C_15 
REMARK   12  A    between atoms: C_18  and  C_21 
ROOT
ATOM      1  C   LIG d   1       6.408  -1.426  -4.836  0.00  0.00    -0.028 C 
ATOM      2  H   LIG d   1       6.744  -1.466  -5.871  0.00  0.00     0.031 H 
ENDROOT
BRANCH   1   3
ATOM      3  C   LIG d   1       4.962  -0.927  -4.789  0.00  0.00     0.002 C 
ATOM      4  H   LIG d   1       4.933   0.062  -4.330  0.00  0.00     0.036 H 
BRANCH   3   5
ATOM      5  C   LIG d   1       4.115  -1.896  -3.963  0.00  0.00    -0.045 C 
ATOM      6  H   LIG d   1       3.375  -2.372  -4.608  0.00  0.00     0.027 H 
ATOM      7  H   LIG d   1       4.757  -2.658  -3.524  0.00  0.00     0.027 H 
BRANCH   5   8
ATOM      8  C   LIG d   1       3.399  -1.128  -2.850  0.00  0.00    -0.052 C 
ATOM      9  H   LIG d   1       2.993  -0.201  -3.253  0.00  0.00     0.026 H 
ATOM     10  H   LIG d   1       2.588  -1.737  -2.452  0.00  0.00     0.026 H 
BRANCH   8  11
ATOM     11  C   LIG d   1       4.392  -0.806  -1.732  0.00  0.00    -0.053 C 
ATOM     12  H   LIG d   1       3.981  -1.130  -0.776  0.00  0.00     0.026 H 
ATOM     13  H   LIG d   1       5.332  -1.327  -1.918  0.00  0.00     0.026 H 
BRANCH  11  14
ATOM     14  C   LIG d   1       4.645   0.702  -1.693  0.00  0.00    -0.056 C 
ATOM     15  H   LIG d   1       4.659   1.043  -0.658  0.00  0.00     0.026 H 
ATOM     16  H   LIG d   1       5.604   0.922  -2.162  0.00  0.00     0.026 H 
BRANCH  14  17
ATOM     17  C   LIG d   1       3.529   1.426  -2.452  0.00  0.00    -0.065 C 
ATOM     18  H   LIG d   1       2.563   1.035  -2.135  0.00  0.00     0.023 H 
ATOM     19  H   LIG d   1       3.578   2.494  -2.236  0.00  0.00     0.023 H 
ATOM     20  H   LIG d   1       3.654   1.265  -3.522  0.00  0.00     0.023 H 
ENDBRANCH  14  17
ENDBRANCH  11  14
ENDBRANCH   8  11
ENDBRANCH   5   8
ENDBRANCH   3   5
BRANCH   3  21
ATOM     21  C   LIG d   1       4.412  -0.847  -6.190  0.00  0.00     0.045 C 
ATOM     22  O   LIG d   1       4.399  -1.831  -6.890  0.00  0.00    -0.549 OA
ATOM     23  O   LIG d   1       3.939   0.317  -6.660  0.00  0.00    -0.549 OA
ENDBRANCH   3  21
ENDBRANCH   1   3
BRANCH   1  24
ATOM     24  C   LIG d   1       6.485  -2.824  -4.219  0.00  0.00    -0.061 C 
ATOM     25  H   LIG d   1       6.217  -3.568  -4.968  0.00  0.00     0.023 H 
ATOM     26  H   LIG d   1       7.501  -3.011  -3.870  0.00  0.00     0.023 H 
ATOM     27  H   LIG d   1       5.795  -2.889  -3.378  0.00  0.00     0.023 H 
ENDBRANCH   1  24
BRANCH   1  28
ATOM     28  C   LIG d   1       7.303  -0.469  -4.045  0.00  0.00     0.027 C 
ATOM     29  H   LIG d   1       8.228  -0.979  -3.773  0.00  0.00     0.036 H 
ATOM     30  H   LIG d   1       6.785  -0.151  -3.141  0.00  0.00     0.036 H 
BRANCH  28  31
ATOM     31  C   LIG d   1       7.623   0.734  -4.892  0.00  0.00     0.217 C 
ATOM     32  O   LIG d   1       7.171   1.820  -4.598  0.00  0.00    -0.276 OA
ATOM     33  N   LIG d   1       8.414   0.605  -5.977  0.00  0.00    -0.285 N 
ATOM     34  H   LIG d   1       8.837  -0.246  -6.169  0.00  0.00     0.155 HD
BRANCH  33  35
ATOM     35  C   LIG d   1       8.620   1.693  -6.823  0.00  0.00     0.033 A 
ATOM     36  C   LIG d   1       7.857   1.828  -7.979  0.00  0.00    -0.040 A 
ATOM     37  C   LIG d   1       8.058   2.902  -8.816  0.00  0.00    -0.051 A 
ATOM     38  H   LIG d   1       7.107   1.089  -8.219  0.00  0.00     0.064 H 
ATOM     39  C   LIG d   1       9.030   3.858  -8.504  0.00  0.00    -0.003 A 
ATOM     40  H   LIG d   1       7.466   3.005  -9.714  0.00  0.00     0.062 H 
ATOM     41  C   LIG d   1       9.794   3.719  -7.342  0.00  0.00    -0.051 A 
ATOM     42  C   LIG d   1       9.585   2.645  -6.507  0.00  0.00    -0.040 A 
ATOM     43  H   LIG d   1      10.545   4.456  -7.098  0.00  0.00     0.062 H 
ATOM     44  H   LIG d   1      10.173   2.540  -5.607  0.00  0.00     0.064 H 
BRANCH  39  45
ATOM     45  C   LIG d   1       9.248   5.009  -9.400  0.00  0.00     0.072 C 
ATOM     46  O   LIG d   1      10.303   5.611  -9.372  0.00  0.00    -0.545 OA
ATOM     47  O   LIG d   1       8.275   5.392 -10.251  0.00  0.00    -0.545 OA
ENDBRANCH  39  45
ENDBRANCH  33  35
ENDBRANCH  28  31
ENDBRANCH   1  28
TORSDOF 12
ENDMDL
MODEL 6
REMARK VINA RESULT:      -5.5      4.877      7.438
REMARK  12 active torsions:
REMARK  status: ('A' for Active; 'I' for Inactive)
REMARK    1  A    between atoms: C_1  and  C_2 
REMARK    2  A    between atoms: C_2  and  C_3 
REMARK    3  A    between atoms: C_3  and  C_4 
REMARK    4  A    between atoms: C_4  and  C_5 
REMARK    5  A    between atoms: C_5  and  C_6 
REMARK    6  A    between atoms: C_6  and  C_8 
REMARK    7  A    between atoms: C_6  and  C_23 
REMARK    8  A    between atoms: C_8  and  C_10 
REMARK    9  A    between atoms: C_8  and  C_11 
REMARK   10  A    between atoms: C_11  and  C_12 
REMARK       I    between atoms: C_12  and  N_14 
REMARK   11  A    between atoms: N_14  and  C_15 
REMARK   12  A    between atoms: C_18  and  C_21 
ROOT
ATOM      1  C   LIG d   1       4.789  -7.902  -5.735  0.00  0.00    -0.028 C 
ATOM      2  H   LIG d   1       3.822  -7.550  -5.377  0.00  0.00     0.031 H 
ENDROOT
BRANCH   1   3
ATOM      3  C   LIG d   1       5.390  -8.869  -4.714  0.00  0.00     0.002 C 
ATOM      4  H   LIG d   1       5.764  -8.307  -3.857  0.00  0.00     0.036 H 
BRANCH   3   5
ATOM      5  C   LIG d   1       6.543  -9.640  -5.358  0.00  0.00    -0.045 C 
ATOM      6  H   LIG d   1       6.178 -10.600  -5.726  0.00  0.00     0.027 H 
ATOM      7  H   LIG d   1       6.948  -9.063  -6.189  0.00  0.00     0.027 H 
BRANCH   5   8
ATOM      8  C   LIG d   1       7.642  -9.879  -4.320  0.00  0.00    -0.052 C 
ATOM      9  H   LIG d   1       7.335 -10.678  -3.646  0.00  0.00     0.026 H 
ATOM     10  H   LIG d   1       8.564 -10.164  -4.825  0.00  0.00     0.026 H 
BRANCH   8  11
ATOM     11  C   LIG d   1       7.875  -8.597  -3.518  0.00  0.00    -0.053 C 
ATOM     12  H   LIG d   1       8.756  -8.084  -3.902  0.00  0.00     0.026 H 
ATOM     13  H   LIG d   1       7.005  -7.946  -3.613  0.00  0.00     0.026 H 
BRANCH  11  14
ATOM     14  C   LIG d   1       8.090  -8.949  -2.045  0.00  0.00    -0.056 C 
ATOM     15  H   LIG d   1       9.077  -9.393  -1.917  0.00  0.00     0.026 H 
ATOM     16  H   LIG d   1       8.017  -8.045  -1.441  0.00  0.00     0.026 H 
BRANCH  14  17
ATOM     17  C   LIG d   1       7.020  -9.948  -1.598  0.00  0.00    -0.065 C 
ATOM     18  H   LIG d   1       6.692  -9.700  -0.589  0.00  0.00     0.023 H 
ATOM     19  H   LIG d   1       6.170  -9.899  -2.279  0.00  0.00     0.023 H 
ATOM     20  H   LIG d   1       7.436 -10.955  -1.608  0.00  0.00     0.023 H 
ENDBRANCH  14  17
ENDBRANCH  11  14
ENDBRANCH   8  11
ENDBRANCH   5   8
ENDBRANCH   3   5
BRANCH   3  21
ATOM     21  C   LIG d   1       4.332  -9.839  -4.256  0.00  0.00     0.045 C 
ATOM     22  O   LIG d   1       4.397 -11.001  -4.577  0.00  0.00    -0.549 OA
ATOM     23  O   LIG d   1       3.315  -9.411  -3.491  0.00  0.00    -0.549 OA
ENDBRANCH   3  21
ENDBRANCH   1   3
BRANCH   1  24
ATOM     24  C   LIG d   1       4.606  -8.622  -7.073  0.00  0.00    -0.061 C 
ATOM     25  H   LIG d   1       4.957  -7.981  -7.881  0.00  0.00     0.023 H 
ATOM     26  H   LIG d   1       5.181  -9.548  -7.068  0.00  0.00     0.023 H 
ATOM     27  H   LIG d   1       3.551  -8.850  -7.222  0.00  0.00     0.023 H 
ENDBRANCH   1  24
BRANCH   1  28
ATOM     28  C   LIG d   1       5.729  -6.710  -5.922  0.00  0.00     0.027 C 
ATOM     29  H   LIG d   1       5.997  -6.620  -6.976  0.00  0.00     0.036 H 
ATOM     30  H   LIG d   1       6.631  -6.861  -5.330  0.00  0.00     0.036 H 
BRANCH  28  31
ATOM     31  C   LIG d   1       5.037  -5.449  -5.473  0.00  0.00     0.217 C 
ATOM     32  O   LIG d   1       3.828  -5.420  -5.385  0.00  0.00    -0.276 OA
ATOM     33  N   LIG d   1       5.762  -4.354  -5.167  0.00  0.00    -0.285 N 
ATOM     34  H   LIG d   1       6.730  -4.399  -5.164  0.00  0.00     0.155 HD
BRANCH  33  35
ATOM     35  C   LIG d   1       5.119  -3.156  -4.859  0.00  0.00     0.033 A 
ATOM     36  C   LIG d   1       4.640  -2.936  -3.571  0.00  0.00    -0.040 A 
ATOM     37  C   LIG d   1       4.005  -1.754  -3.264  0.00  0.00    -0.051 A 
ATOM     38  H   LIG d   1       4.768  -3.693  -2.812  0.00  0.00     0.064 H 
ATOM     39  C   LIG d   1       3.841  -0.774  -4.249  0.00  0.00    -0.003 A 
ATOM     40  H   LIG d   1       3.634  -1.584  -2.264  0.00  0.00     0.062 H 
ATOM     41  C   LIG d   1       4.323  -0.999  -5.541  0.00  0.00    -0.051 A 
ATOM     42  C   LIG d   1       4.961  -2.182  -5.840  0.00  0.00    -0.040 A 
ATOM     43  H   LIG d   1       4.197  -0.245  -6.304  0.00  0.00     0.062 H 
ATOM     44  H   LIG d   1       5.337  -2.354  -6.838  0.00  0.00     0.064 H 
BRANCH  39  45
ATOM     45  C   LIG d   1       3.160   0.493  -3.923  0.00  0.00     0.072 C 
ATOM     46  O   LIG d   1       3.064   0.851  -2.766  0.00  0.00    -0.545 OA
ATOM     47  O   LIG d   1       2.646   1.254  -4.910  0.00  0.00    -0.545 OA
ENDBRANCH  39  45
ENDBRANCH  33  35
ENDBRANCH  28  31
ENDBRANCH   1  28
TORSDOF 12
ENDMDL
MODEL 7
REMARK VINA RESULT:      -5.5      4.156      7.266
REMARK  12 active torsions:
REMARK  status: ('A' for Active; 'I' for Inactive)
REMARK    1  A    between atoms: C_1  and  C_2 
REMARK    2  A    between atoms: C_2  and  C_3 
REMARK    3  A    between atoms: C_3  and  C_4 
REMARK    4  A    between atoms: C_4  and  C_5 
REMARK    5  A    between atoms: C_5  and  C_6 
REMARK    6  A    between atoms: C_6  and  C_8 
REMARK    7  A    between atoms: C_6  and  C_23 
REMARK    8  A    between atoms: C_8  and  C_10 
REMARK    9  A    between atoms: C_8  and  C_11 
REMARK   10  A    between atoms: C_11  and  C_12 
REMARK       I    between atoms: C_12  and  N_14 
REMARK   11  A    between atoms: N_14  and  C_15 
REMARK   12  A    between atoms: C_18  and  C_21 
ROOT
ATOM      1  C   LIG d   1       7.002  -5.987  -6.174  0.00  0.00    -0.028 C 
ATOM      2  H   LIG d   1       6.394  -5.181  -6.583  0.00  0.00     0.031 H 
ENDROOT
BRANCH   1   3
ATOM      3  C   LIG d   1       6.119  -6.919  -5.342  0.00  0.00     0.002 C 
ATOM      4  H   LIG d   1       6.254  -6.698  -4.282  0.00  0.00     0.036 H 
BRANCH   3   5
ATOM      5  C   LIG d   1       6.514  -8.372  -5.612  0.00  0.00    -0.045 C 
ATOM      6  H   LIG d   1       5.796  -8.822  -6.298  0.00  0.00     0.027 H 
ATOM      7  H   LIG d   1       7.509  -8.402  -6.057  0.00  0.00     0.027 H 
BRANCH   5   8
ATOM      8  C   LIG d   1       6.520  -9.153  -4.296  0.00  0.00    -0.052 C 
ATOM      9  H   LIG d   1       7.505  -9.593  -4.141  0.00  0.00     0.026 H 
ATOM     10  H   LIG d   1       6.290  -8.479  -3.472  0.00  0.00     0.026 H 
BRANCH   8  11
ATOM     11  C   LIG d   1       5.469 -10.263  -4.357  0.00  0.00    -0.053 C 
ATOM     12  H   LIG d   1       5.241 -10.491  -5.398  0.00  0.00     0.026 H 
ATOM     13  H   LIG d   1       5.855 -11.157  -3.865  0.00  0.00     0.026 H 
BRANCH  11  14
ATOM     14  C   LIG d   1       4.197  -9.799  -3.646  0.00  0.00    -0.056 C 
ATOM     15  H   LIG d   1       4.444  -9.464  -2.639  0.00  0.00     0.026 H 
ATOM     16  H   LIG d   1       3.748  -8.978  -4.204  0.00  0.00     0.026 H 
BRANCH  14  17
ATOM     17  C   LIG d   1       3.204 -10.962  -3.566  0.00  0.00    -0.065 C 
ATOM     18  H   LIG d   1       2.798 -11.162  -4.557  0.00  0.00     0.023 H 
ATOM     19  H   LIG d   1       3.717 -11.852  -3.198  0.00  0.00     0.023 H 
ATOM     20  H   LIG d   1       2.393 -10.702  -2.887  0.00  0.00     0.023 H 
ENDBRANCH  14  17
ENDBRANCH  11  14
ENDBRANCH   8  11
ENDBRANCH   5   8
ENDBRANCH   3   5
BRANCH   3  21
ATOM     21  C   LIG d   1       4.675  -6.713  -5.719  0.00  0.00     0.045 C 
ATOM     22  O   LIG d   1       4.084  -5.733  -5.333  0.00  0.00    -0.549 OA
ATOM     23  O   LIG d   1       4.044  -7.620  -6.482  0.00  0.00    -0.549 OA
ENDBRANCH   3  21
ENDBRANCH   1   3
BRANCH   1  24
ATOM     24  C   LIG d   1       7.640  -6.776  -7.319  0.00  0.00    -0.061 C 
ATOM     25  H   LIG d   1       8.021  -6.084  -8.070  0.00  0.00     0.023 H 
ATOM     26  H   LIG d   1       8.461  -7.379  -6.931  0.00  0.00     0.023 H 
ATOM     27  H   LIG d   1       6.893  -7.428  -7.772  0.00  0.00     0.023 H 
ENDBRANCH   1  24
BRANCH   1  28
ATOM     28  C   LIG d   1       8.101  -5.398  -5.287  0.00  0.00     0.027 C 
ATOM     29  H   LIG d   1       8.955  -5.119  -5.904  0.00  0.00     0.036 H 
ATOM     30  H   LIG d   1       8.411  -6.141  -4.552  0.00  0.00     0.036 H 
BRANCH  28  31
ATOM     31  C   LIG d   1       7.574  -4.178  -4.578  0.00  0.00     0.217 C 
ATOM     32  O   LIG d   1       8.199  -3.695  -3.658  0.00  0.00    -0.276 OA
ATOM     33  N   LIG d   1       6.409  -3.622  -4.967  0.00  0.00    -0.285 N 
ATOM     34  H   LIG d   1       5.947  -3.961  -5.748  0.00  0.00     0.155 HD
BRANCH  33  35
ATOM     35  C   LIG d   1       5.865  -2.563  -4.241  0.00  0.00     0.033 A 
ATOM     36  C   LIG d   1       6.462  -1.307  -4.295  0.00  0.00    -0.040 A 
ATOM     37  C   LIG d   1       5.928  -0.259  -3.580  0.00  0.00    -0.051 A 
ATOM     38  H   LIG d   1       7.345  -1.155  -4.897  0.00  0.00     0.064 H 
ATOM     39  C   LIG d   1       4.784  -0.458  -2.799  0.00  0.00    -0.003 A 
ATOM     40  H   LIG d   1       6.392   0.716  -3.621  0.00  0.00     0.062 H 
ATOM     41  C   LIG d   1       4.188  -1.720  -2.749  0.00  0.00    -0.051 A 
ATOM     42  C   LIG d   1       4.725  -2.763  -3.470  0.00  0.00    -0.040 A 
ATOM     43  H   LIG d   1       3.305  -1.877  -2.147  0.00  0.00     0.062 H 
ATOM     44  H   LIG d   1       4.262  -3.738  -3.434  0.00  0.00     0.064 H 
BRANCH  39  45
ATOM     45  C   LIG d   1       4.210   0.663  -2.032  0.00  0.00     0.072 C 
ATOM     46  O   LIG d   1       3.068   1.021  -2.241  0.00  0.00    -0.545 OA
ATOM     47  O   LIG d   1       4.953   1.290  -1.098  0.00  0.00    -0.545 OA
ENDBRANCH  39  45
ENDBRANCH  33  35
ENDBRANCH  28  31
ENDBRANCH   1  28
TORSDOF 12
ENDMDL
MODEL 8
REMARK VINA RESULT:      -5.4      4.442      7.142
REMARK  12 active torsions:
REMARK  status: ('A' for Active; 'I' for Inactive)
REMARK    1  A    between atoms: C_1  and  C_2 
REMARK    2  A    between atoms: C_2  and  C_3 
REMARK    3  A    between atoms: C_3  and  C_4 
REMARK    4  A    between atoms: C_4  and  C_5 
REMARK    5  A    between atoms: C_5  and  C_6 
REMARK    6  A    between atoms: C_6  and  C_8 
REMARK    7  A    between atoms: C_6  and  C_23 
REMARK    8  A    between atoms: C_8  and  C_10 
REMARK    9  A    between atoms: C_8  and  C_11 
REMARK   10  A    between atoms: C_11  and  C_12 
REMARK       I    between atoms: C_12  and  N_14 
REMARK   11  A    between atoms: N_14  and  C_15 
REMARK   12  A    between atoms: C_18  and  C_21 
ROOT
ATOM      1  C   LIG d   1       6.066  -0.432  -5.177  0.00  0.00    -0.028 C 
ATOM      2  H   LIG d   1       5.612   0.334  -4.548  0.00  0.00     0.031 H 
ENDROOT
BRANCH   1   3
ATOM      3  C   LIG d   1       6.006  -1.782  -4.460  0.00  0.00     0.002 C 
ATOM      4  H   LIG d   1       5.048  -2.261  -4.666  0.00  0.00     0.036 H 
BRANCH   3   5
ATOM      5  C   LIG d   1       6.153  -1.566  -2.953  0.00  0.00    -0.045 C 
ATOM      6  H   LIG d   1       6.746  -2.376  -2.526  0.00  0.00     0.027 H 
ATOM      7  H   LIG d   1       6.652  -0.615  -2.768  0.00  0.00     0.027 H 
BRANCH   5   8
ATOM      8  C   LIG d   1       4.769  -1.551  -2.301  0.00  0.00    -0.052 C 
ATOM      9  H   LIG d   1       4.019  -1.838  -3.037  0.00  0.00     0.026 H 
ATOM     10  H   LIG d   1       4.751  -2.256  -1.471  0.00  0.00     0.026 H 
BRANCH   8  11
ATOM     11  C   LIG d   1       4.463  -0.144  -1.784  0.00  0.00    -0.053 C 
ATOM     12  H   LIG d   1       4.117  -0.203  -0.752  0.00  0.00     0.026 H 
ATOM     13  H   LIG d   1       5.367   0.465  -1.829  0.00  0.00     0.026 H 
BRANCH  11  14
ATOM     14  C   LIG d   1       3.375   0.492  -2.651  0.00  0.00    -0.056 C 
ATOM     15  H   LIG d   1       2.764   1.156  -2.040  0.00  0.00     0.026 H 
ATOM     16  H   LIG d   1       3.839   1.063  -3.455  0.00  0.00     0.026 H 
BRANCH  14  17
ATOM     17  C   LIG d   1       2.492  -0.606  -3.249  0.00  0.00    -0.065 C 
ATOM     18  H   LIG d   1       3.102  -1.481  -3.471  0.00  0.00     0.023 H 
ATOM     19  H   LIG d   1       1.715  -0.877  -2.533  0.00  0.00     0.023 H 
ATOM     20  H   LIG d   1       2.031  -0.242  -4.167  0.00  0.00     0.023 H 
ENDBRANCH  14  17
ENDBRANCH  11  14
ENDBRANCH   8  11
ENDBRANCH   5   8
ENDBRANCH   3   5
BRANCH   3  21
ATOM     21  C   LIG d   1       7.125  -2.663  -4.952  0.00  0.00     0.045 C 
ATOM     22  O   LIG d   1       8.114  -2.817  -4.276  0.00  0.00    -0.549 OA
ATOM     23  O   LIG d   1       7.024  -3.275  -6.142  0.00  0.00    -0.549 OA
ENDBRANCH   3  21
ENDBRANCH   1   3
BRANCH   1  24
ATOM     24  C   LIG d   1       5.304  -0.523  -6.501  0.00  0.00    -0.061 C 
ATOM     25  H   LIG d   1       4.788  -1.481  -6.558  0.00  0.00     0.023 H 
ATOM     26  H   LIG d   1       4.575   0.285  -6.556  0.00  0.00     0.023 H 
ATOM     27  H   LIG d   1       6.005  -0.438  -7.331  0.00  0.00     0.023 H 
ENDBRANCH   1  24
BRANCH   1  28
ATOM     28  C   LIG d   1       7.526  -0.066  -5.454  0.00  0.00     0.027 C 
ATOM     29  H   LIG d   1       7.676   0.044  -6.529  0.00  0.00     0.036 H 
ATOM     30  H   LIG d   1       8.177  -0.854  -5.076  0.00  0.00     0.036 H 
BRANCH  28  31
ATOM     31  C   LIG d   1       7.857   1.233  -4.767  0.00  0.00     0.217 C 
ATOM     32  O   LIG d   1       7.022   1.788  -4.085  0.00  0.00    -0.276 OA
ATOM     33  N   LIG d   1       9.082   1.778  -4.908  0.00  0.00    -0.285 N 
ATOM     34  H   LIG d   1       9.773   1.298  -5.390  0.00  0.00     0.155 HD
BRANCH  33  35
ATOM     35  C   LIG d   1       9.354   3.033  -4.366  0.00  0.00     0.033 A 
ATOM     36  C   LIG d   1       9.109   4.180  -5.114  0.00  0.00    -0.040 A 
ATOM     37  C   LIG d   1       9.376   5.421  -4.582  0.00  0.00    -0.051 A 
ATOM     38  H   LIG d   1       8.709   4.097  -6.114  0.00  0.00     0.064 H 
ATOM     39  C   LIG d   1       9.894   5.528  -3.287  0.00  0.00    -0.003 A 
ATOM     40  H   LIG d   1       9.186   6.311  -5.163  0.00  0.00     0.062 H 
ATOM     41  C   LIG d   1      10.138   4.373  -2.538  0.00  0.00    -0.051 A 
ATOM     42  C   LIG d   1       9.865   3.135  -3.075  0.00  0.00    -0.040 A 
ATOM     43  H   LIG d   1      10.538   4.452  -1.538  0.00  0.00     0.062 H 
ATOM     44  H   LIG d   1      10.050   2.243  -2.496  0.00  0.00     0.064 H 
BRANCH  39  45
ATOM     45  C   LIG d   1      10.181   6.856  -2.713  0.00  0.00     0.072 C 
ATOM     46  O   LIG d   1       9.509   7.280  -1.795  0.00  0.00    -0.545 OA
ATOM     47  O   LIG d   1      11.192   7.598  -3.209  0.00  0.00    -0.545 OA
ENDBRANCH  39  45
ENDBRANCH  33  35
ENDBRANCH  28  31
ENDBRANCH   1  28
TORSDOF 12
ENDMDL
MODEL 9
REMARK VINA RESULT:      -5.4      5.148      7.839
REMARK  12 active torsions:
REMARK  status: ('A' for Active; 'I' for Inactive)
REMARK    1  A    between atoms: C_1  and  C_2 
REMARK    2  A    between atoms: C_2  and  C_3 
REMARK    3  A    between atoms: C_3  and  C_4 
REMARK    4  A    between atoms: C_4  and  C_5 
REMARK    5  A    between atoms: C_5  and  C_6 
REMARK    6  A    between atoms: C_6  and  C_8 
REMARK    7  A    between atoms: C_6  and  C_23 
REMARK    8  A    between atoms: C_8  and  C_10 
REMARK    9  A    between atoms: C_8  and  C_11 
REMARK   10  A    between atoms: C_11  and  C_12 
REMARK       I    between atoms: C_12  and  N_14 
REMARK   11  A    between atoms: N_14  and  C_15 
REMARK   12  A    between atoms: C_18  and  C_21 
ROOT
ATOM      1  C   LIG d   1       5.861  -3.022  -6.385  0.00  0.00    -0.028 C 
ATOM      2  H   LIG d   1       6.654  -3.524  -6.940  0.00  0.00     0.031 H 
ENDROOT
BRANCH   1   3
ATOM      3  C   LIG d   1       5.942  -3.420  -4.910  0.00  0.00     0.002 C 
ATOM      4  H   LIG d   1       5.199  -4.192  -4.700  0.00  0.00     0.036 H 
BRANCH   3   5
ATOM      5  C   LIG d   1       5.665  -2.197  -4.035  0.00  0.00    -0.045 C 
ATOM      6  H   LIG d   1       6.481  -2.068  -3.323  0.00  0.00     0.027 H 
ATOM      7  H   LIG d   1       5.587  -1.310  -4.664  0.00  0.00     0.027 H 
BRANCH   5   8
ATOM      8  C   LIG d   1       4.353  -2.399  -3.274  0.00  0.00    -0.052 C 
ATOM      9  H   LIG d   1       3.515  -2.142  -3.922  0.00  0.00     0.026 H 
ATOM     10  H   LIG d   1       4.268  -3.441  -2.967  0.00  0.00     0.026 H 
BRANCH   8  11
ATOM     11  C   LIG d   1       4.336  -1.499  -2.037  0.00  0.00    -0.053 C 
ATOM     12  H   LIG d   1       3.305  -1.288  -1.755  0.00  0.00     0.026 H 
ATOM     13  H   LIG d   1       4.842  -2.003  -1.213  0.00  0.00     0.026 H 
BRANCH  11  14
ATOM     14  C   LIG d   1       5.057  -0.187  -2.353  0.00  0.00    -0.056 C 
ATOM     15  H   LIG d   1       5.982  -0.133  -1.780  0.00  0.00     0.026 H 
ATOM     16  H   LIG d   1       5.285  -0.144  -3.417  0.00  0.00     0.026 H 
BRANCH  14  17
ATOM     17  C   LIG d   1       4.157   0.993  -1.977  0.00  0.00    -0.065 C 
ATOM     18  H   LIG d   1       4.129   1.097  -0.893  0.00  0.00     0.023 H 
ATOM     19  H   LIG d   1       4.553   1.907  -2.420  0.00  0.00     0.023 H 
ATOM     20  H   LIG d   1       3.149   0.814  -2.351  0.00  0.00     0.023 H 
ENDBRANCH  14  17
ENDBRANCH  11  14
ENDBRANCH   8  11
ENDBRANCH   5   8
ENDBRANCH   3   5
BRANCH   3  21
ATOM     21  C   LIG d   1       7.318  -3.953  -4.608  0.00  0.00     0.045 C 
ATOM     22  O   LIG d   1       7.699  -4.974  -5.129  0.00  0.00    -0.549 OA
ATOM     23  O   LIG d   1       8.122  -3.293  -3.758  0.00  0.00    -0.549 OA
ENDBRANCH   3  21
ENDBRANCH   1   3
BRANCH   1  24
ATOM     24  C   LIG d   1       6.028  -1.507  -6.514  0.00  0.00    -0.061 C 
ATOM     25  H   LIG d   1       5.918  -1.216  -7.559  0.00  0.00     0.023 H 
ATOM     26  H   LIG d   1       5.266  -1.006  -5.917  0.00  0.00     0.023 H 
ATOM     27  H   LIG d   1       7.017  -1.218  -6.159  0.00  0.00     0.023 H 
ENDBRANCH   1  24
BRANCH   1  28
ATOM     28  C   LIG d   1       4.501  -3.435  -6.951  0.00  0.00     0.027 C 
ATOM     29  H   LIG d   1       4.490  -3.266  -8.029  0.00  0.00     0.036 H 
ATOM     30  H   LIG d   1       3.717  -2.842  -6.483  0.00  0.00     0.036 H 
BRANCH  28  31
ATOM     31  C   LIG d   1       4.263  -4.896  -6.671  0.00  0.00     0.217 C 
ATOM     32  O   LIG d   1       3.224  -5.253  -6.157  0.00  0.00    -0.276 OA
ATOM     33  N   LIG d   1       5.204  -5.807  -6.991  0.00  0.00    -0.285 N 
ATOM     34  H   LIG d   1       6.001  -5.532  -7.470  0.00  0.00     0.155 HD
BRANCH  33  35
ATOM     35  C   LIG d   1       5.033  -7.143  -6.631  0.00  0.00     0.033 A 
ATOM     36  C   LIG d   1       4.686  -8.083  -7.596  0.00  0.00    -0.040 A 
ATOM     37  C   LIG d   1       4.516  -9.403  -7.244  0.00  0.00    -0.051 A 
ATOM     38  H   LIG d   1       4.550  -7.777  -8.623  0.00  0.00     0.064 H 
ATOM     39  C   LIG d   1       4.693  -9.798  -5.914  0.00  0.00    -0.003 A 
ATOM     40  H   LIG d   1       4.247 -10.132  -7.993  0.00  0.00     0.062 H 
ATOM     41  C   LIG d   1       5.042  -8.851  -4.947  0.00  0.00    -0.051 A 
ATOM     42  C   LIG d   1       5.214  -7.533  -5.308  0.00  0.00    -0.040 A 
ATOM     43  H   LIG d   1       5.179  -9.152  -3.919  0.00  0.00     0.062 H 
ATOM     44  H   LIG d   1       5.487  -6.801  -4.562  0.00  0.00     0.064 H 
BRANCH  39  45
ATOM     45  C   LIG d   1       4.511 -11.211  -5.533  0.00  0.00     0.072 C 
ATOM     46  O   LIG d   1       3.675 -11.515  -4.706  0.00  0.00    -0.545 OA
ATOM     47  O   LIG d   1       5.274 -12.165  -6.104  0.00  0.00    -0.545 OA
ENDBRANCH  39  45
ENDBRANCH  33  35
ENDBRANCH  28  31
ENDBRANCH   1  28
TORSDOF 12
ENDMDL
MODEL 10
REMARK VINA RESULT:      -5.3      2.760      7.343
REMARK  12 active torsions:
REMARK  status: ('A' for Active; 'I' for Inactive)
REMARK    1  A    between atoms: C_1  and  C_2 
REMARK    2  A    between atoms: C_2  and  C_3 
REMARK    3  A    between atoms: C_3  and  C_4 
REMARK    4  A    between atoms: C_4  and  C_5 
REMARK    5  A    between atoms: C_5  and  C_6 
REMARK    6  A    between atoms: C_6  and  C_8 
REMARK    7  A    between atoms: C_6  and  C_23 
REMARK    8  A    between atoms: C_8  and  C_10 
REMARK    9  A    between atoms: C_8  and  C_11 
REMARK   10  A    between atoms: C_11  and  C_12 
REMARK       I    between atoms: C_12  and  N_14 
REMARK   11  A    between atoms: N_14  and  C_15 
REMARK   12  A    between atoms: C_18  and  C_21 
ROOT
ATOM      1  C   LIG d   1       2.173  -1.023  -9.920  0.00  0.00    -0.028 C 
ATOM      2  H   LIG d   1       1.720  -1.300  -8.968  0.00  0.00     0.031 H 
ENDROOT
BRANCH   1   3
ATOM      3  C   LIG d   1       3.125  -2.132 -10.373  0.00  0.00     0.002 C 
ATOM      4  H   LIG d   1       4.142  -1.742 -10.419  0.00  0.00     0.036 H 
BRANCH   3   5
ATOM      5  C   LIG d   1       2.708  -2.628 -11.759  0.00  0.00    -0.045 C 
ATOM      6  H   LIG d   1       2.258  -3.617 -11.670  0.00  0.00     0.027 H 
ATOM      7  H   LIG d   1       1.983  -1.937 -12.190  0.00  0.00     0.027 H 
BRANCH   5   8
ATOM      8  C   LIG d   1       3.939  -2.708 -12.665  0.00  0.00    -0.052 C 
ATOM      9  H   LIG d   1       4.315  -3.730 -12.674  0.00  0.00     0.026 H 
ATOM     10  H   LIG d   1       3.665  -2.412 -13.676  0.00  0.00     0.026 H 
BRANCH   8  11
ATOM     11  C   LIG d   1       5.025  -1.770 -12.135  0.00  0.00    -0.053 C 
ATOM     12  H   LIG d   1       4.612  -1.147 -11.341  0.00  0.00     0.026 H 
ATOM     13  H   LIG d   1       5.853  -2.359 -11.739  0.00  0.00     0.026 H 
BRANCH  11  14
ATOM     14  C   LIG d   1       5.529  -0.880 -13.272  0.00  0.00    -0.056 C 
ATOM     15  H   LIG d   1       5.930   0.046 -12.860  0.00  0.00     0.026 H 
ATOM     16  H   LIG d   1       6.311  -1.402 -13.822  0.00  0.00     0.026 H 
BRANCH  14  17
ATOM     17  C   LIG d   1       4.370  -0.556 -14.219  0.00  0.00    -0.065 C 
ATOM     18  H   LIG d   1       4.687  -0.721 -15.248  0.00  0.00     0.023 H 
ATOM     19  H   LIG d   1       3.524  -1.205 -13.991  0.00  0.00     0.023 H 
ATOM     20  H   LIG d   1       4.076   0.485 -14.090  0.00  0.00     0.023 H 
ENDBRANCH  14  17
ENDBRANCH  11  14
ENDBRANCH   8  11
ENDBRANCH   5   8
ENDBRANCH   3   5
BRANCH   3  21
ATOM     21  C   LIG d   1       3.068  -3.275  -9.393  0.00  0.00     0.045 C 
ATOM     22  O   LIG d   1       2.500  -4.298  -9.691  0.00  0.00    -0.549 OA
ATOM     23  O   LIG d   1       3.647  -3.155  -8.188  0.00  0.00    -0.549 OA
ENDBRANCH   3  21
ENDBRANCH   1   3
BRANCH   1  24
ATOM     24  C   LIG d   1       1.077  -0.831 -10.970  0.00  0.00    -0.061 C 
ATOM     25  H   LIG d   1       1.533  -0.674 -11.947  0.00  0.00     0.023 H 
ATOM     26  H   LIG d   1       0.446  -1.719 -11.002  0.00  0.00     0.023 H 
ATOM     27  H   LIG d   1       0.471   0.036 -10.708  0.00  0.00     0.023 H 
ENDBRANCH   1  24
BRANCH   1  28
ATOM     28  C   LIG d   1       2.954   0.282  -9.753  0.00  0.00     0.027 C 
ATOM     29  H   LIG d   1       2.330   1.121 -10.065  0.00  0.00     0.036 H 
ATOM     30  H   LIG d   1       3.852   0.250 -10.369  0.00  0.00     0.036 H 
BRANCH  28  31
ATOM     31  C   LIG d   1       3.340   0.455  -8.308  0.00  0.00     0.217 C 
ATOM     32  O   LIG d   1       4.187   1.267  -8.000  0.00  0.00    -0.276 OA
ATOM     33  N   LIG d   1       2.744  -0.290  -7.356  0.00  0.00    -0.285 N 
ATOM     34  H   LIG d   1       2.015  -0.884  -7.592  0.00  0.00     0.155 HD
BRANCH  33  35
ATOM     35  C   LIG d   1       3.178  -0.211  -6.034  0.00  0.00     0.033 A 
ATOM     36  C   LIG d   1       4.304  -0.922  -5.630  0.00  0.00    -0.040 A 
ATOM     37  C   LIG d   1       4.737  -0.845  -4.325  0.00  0.00    -0.051 A 
ATOM     38  H   LIG d   1       4.839  -1.534  -6.340  0.00  0.00     0.064 H 
ATOM     39  C   LIG d   1       4.043  -0.052  -3.405  0.00  0.00    -0.003 A 
ATOM     40  H   LIG d   1       5.610  -1.398  -4.012  0.00  0.00     0.062 H 
ATOM     41  C   LIG d   1       2.913   0.661  -3.815  0.00  0.00    -0.051 A 
ATOM     42  C   LIG d   1       2.489   0.584  -5.123  0.00  0.00    -0.040 A 
ATOM     43  H   LIG d   1       2.375   1.275  -3.108  0.00  0.00     0.062 H 
ATOM     44  H   LIG d   1       1.617   1.137  -5.441  0.00  0.00     0.064 H 
BRANCH  39  45
ATOM     45  C   LIG d   1       4.503   0.032  -2.007  0.00  0.00     0.072 C 
ATOM     46  O   LIG d   1       4.559  -0.972  -1.324  0.00  0.00    -0.545 OA
ATOM     47  O   LIG d   1       4.862   1.222  -1.487  0.00  0.00    -0.545 OA
ENDBRANCH  39  45
ENDBRANCH  33  35
ENDBRANCH  28  31
ENDBRANCH   1  28
TORSDOF 12
ENDMDL
