MODEL 1
REMARK VINA RESULT:      -6.3      0.000      0.000
REMARK  9 active torsions:
REMARK  status: ('A' for Active; 'I' for Inactive)
REMARK    1  A    between atoms: C_1  and  C_2 
REMARK    2  A    between atoms: C_2  and  C_4 
REMARK    3  A    between atoms: C_2  and  N_10 
REMARK    4  A    between atoms: N_10  and  C_11 
REMARK    5  A    between atoms: C_11  and  C_12 
REMARK    6  A    between atoms: C_12  and  C_13 
REMARK    7  A    between atoms: C_13  and  C_15 
REMARK    8  A    between atoms: C_13  and  C_22 
REMARK    9  A    between atoms: C_15  and  C_16 
ROOT
ATOM      1  C   LIG d   1       3.956  -1.607  -7.259  0.00  0.00    -0.003 C 
ATOM      2  H   LIG d   1       4.117  -1.531  -8.335  0.00  0.00     0.032 H 
ATOM      3  H   LIG d   1       2.961  -2.008  -7.068  0.00  0.00     0.032 H 
ENDROOT
BRANCH   1   4
ATOM      4  C   LIG d   1       5.006  -2.537  -6.650  0.00  0.00    -0.032 C 
ATOM      5  H   LIG d   1       4.842  -3.553  -7.008  0.00  0.00     0.081 H 
ATOM      6  H   LIG d   1       4.923  -2.517  -5.563  0.00  0.00     0.081 H 
BRANCH   4   7
ATOM      7  N   LIG d   1       6.347  -2.089  -7.046  0.00  0.00     0.232 N 
ATOM      8  H   LIG d   1       6.293  -1.151  -7.415  0.00  0.00     0.202 HD
ATOM      9  H   LIG d   1       6.714  -2.706  -7.754  0.00  0.00     0.202 HD
BRANCH   7  10
ATOM     10  C   LIG d   1       7.235  -2.104  -5.876  0.00  0.00     0.000 C 
ATOM     11  H   LIG d   1       8.196  -2.537  -6.155  0.00  0.00     0.090 H 
BRANCH  10  12
ATOM     12  C   LIG d   1       6.601  -2.944  -4.765  0.00  0.00    -0.017 C 
ATOM     13  H   LIG d   1       7.067  -3.929  -4.743  0.00  0.00     0.029 H 
ATOM     14  H   LIG d   1       6.750  -2.449  -3.805  0.00  0.00     0.029 H 
ATOM     15  H   LIG d   1       5.533  -3.051  -4.956  0.00  0.00     0.029 H 
ENDBRANCH  10  12
BRANCH  10  16
ATOM     16  C   LIG d   1       7.443  -0.695  -5.384  0.00  0.00    -0.000 A 
ATOM     17  C   LIG d   1       7.224  -0.387  -4.054  0.00  0.00    -0.053 A 
ATOM     18  C   LIG d   1       7.418   0.905  -3.602  0.00  0.00    -0.061 A 
ATOM     19  H   LIG d   1       6.903  -1.156  -3.368  0.00  0.00     0.062 H 
ATOM     20  C   LIG d   1       7.823   1.891  -4.482  0.00  0.00    -0.062 A 
ATOM     21  H   LIG d   1       7.250   1.143  -2.564  0.00  0.00     0.062 H 
ATOM     22  C   LIG d   1       8.038   1.584  -5.813  0.00  0.00    -0.061 A 
ATOM     23  H   LIG d   1       7.973   2.901  -4.130  0.00  0.00     0.062 H 
ATOM     24  C   LIG d   1       7.848   0.291  -6.264  0.00  0.00    -0.053 A 
ATOM     25  H   LIG d   1       8.355   2.355  -6.501  0.00  0.00     0.062 H 
ATOM     26  H   LIG d   1       8.015   0.052  -7.304  0.00  0.00     0.062 H 
ENDBRANCH  10  16
ENDBRANCH   7  10
ENDBRANCH   4   7
ENDBRANCH   1   4
BRANCH   1  27
ATOM     27  C   LIG d   1       4.076  -0.219  -6.626  0.00  0.00     0.026 C 
ATOM     28  H   LIG d   1       5.013  -0.151  -6.075  0.00  0.00     0.038 H 
BRANCH  27  29
ATOM     29  C   LIG d   1       2.904   0.009  -5.670  0.00  0.00    -0.018 C 
ATOM     30  H   LIG d   1       2.456   0.983  -5.869  0.00  0.00     0.032 H 
ATOM     31  H   LIG d   1       2.157  -0.770  -5.819  0.00  0.00     0.032 H 
BRANCH  29  32
ATOM     32  C   LIG d   1       3.399  -0.036  -4.248  0.00  0.00    -0.047 A 
ATOM     33  C   LIG d   1       3.587  -1.253  -3.619  0.00  0.00    -0.059 A 
ATOM     34  C   LIG d   1       4.045  -1.295  -2.316  0.00  0.00    -0.061 A 
ATOM     35  H   LIG d   1       3.378  -2.171  -4.149  0.00  0.00     0.062 H 
ATOM     36  C   LIG d   1       4.308  -0.119  -1.638  0.00  0.00    -0.062 A 
ATOM     37  H   LIG d   1       4.196  -2.246  -1.827  0.00  0.00     0.062 H 
ATOM     38  C   LIG d   1       4.116   1.098  -2.264  0.00  0.00    -0.061 A 
ATOM     39  H   LIG d   1       4.664  -0.151  -0.619  0.00  0.00     0.062 H 
ATOM     40  C   LIG d   1       3.660   1.140  -3.569  0.00  0.00    -0.059 A 
ATOM     41  H   LIG d   1       4.321   2.017  -1.735  0.00  0.00     0.062 H 
ATOM     42  H   LIG d   1       3.510   2.091  -4.058  0.00  0.00     0.062 H 
ENDBRANCH  29  32
ENDBRANCH  27  29
BRANCH  27  43
ATOM     43  C   LIG d   1       4.053   0.830  -7.708  0.00  0.00     0.108 A 
ATOM     44  O   LIG d   1       5.129   1.380  -8.293  0.00  0.00    -0.468 OA
ATOM     45  C   LIG d   1       4.731   2.274  -9.213  0.00  0.00     0.092 A 
ATOM     46  C   LIG d   1       3.387   2.309  -9.218  0.00  0.00    -0.024 A 
ATOM     47  H   LIG d   1       5.381   2.867  -9.840  0.00  0.00     0.103 H 
ATOM     48  C   LIG d   1       2.949   1.378  -8.248  0.00  0.00    -0.020 A 
ATOM     49  H   LIG d   1       2.761   2.929  -9.844  0.00  0.00     0.065 H 
ATOM     50  H   LIG d   1       1.925   1.150  -7.990  0.00  0.00     0.065 H 
ENDBRANCH  27  43
ENDBRANCH   1  27
TORSDOF 9
ENDMDL
MODEL 2
REMARK VINA RESULT:      -6.0      2.089      4.927
REMARK  9 active torsions:
REMARK  status: ('A' for Active; 'I' for Inactive)
REMARK    1  A    between atoms: C_1  and  C_2 
REMARK    2  A    between atoms: C_2  and  C_4 
REMARK    3  A    between atoms: C_2  and  N_10 
REMARK    4  A    between atoms: N_10  and  C_11 
REMARK    5  A    between atoms: C_11  and  C_12 
REMARK    6  A    between atoms: C_12  and  C_13 
REMARK    7  A    between atoms: C_13  and  C_15 
REMARK    8  A    between atoms: C_13  and  C_22 
REMARK    9  A    between atoms: C_15  and  C_16 
ROOT
ATOM      1  C   LIG d   1       6.643  -2.254  -4.451  0.00  0.00    -0.003 C 
ATOM      2  H   LIG d   1       7.321  -3.105  -4.383  0.00  0.00     0.032 H 
ATOM      3  H   LIG d   1       6.674  -1.690  -3.519  0.00  0.00     0.032 H 
ENDROOT
BRANCH   1   4
ATOM      4  C   LIG d   1       7.073  -1.350  -5.608  0.00  0.00    -0.032 C 
ATOM      5  H   LIG d   1       7.858  -1.843  -6.181  0.00  0.00     0.081 H 
ATOM      6  H   LIG d   1       7.452  -0.408  -5.211  0.00  0.00     0.081 H 
BRANCH   4   7
ATOM      7  N   LIG d   1       5.921  -1.088  -6.480  0.00  0.00     0.232 N 
ATOM      8  H   LIG d   1       5.195  -0.632  -5.948  0.00  0.00     0.202 HD
ATOM      9  H   LIG d   1       5.571  -1.959  -6.847  0.00  0.00     0.202 HD
BRANCH   7  10
ATOM     10  C   LIG d   1       6.335  -0.219  -7.590  0.00  0.00     0.000 C 
ATOM     11  H   LIG d   1       6.698  -0.832  -8.415  0.00  0.00     0.090 H 
BRANCH  10  12
ATOM     12  C   LIG d   1       7.450   0.717  -7.118  0.00  0.00    -0.017 C 
ATOM     13  H   LIG d   1       7.401   1.651  -7.677  0.00  0.00     0.029 H 
ATOM     14  H   LIG d   1       7.328   0.922  -6.055  0.00  0.00     0.029 H 
ATOM     15  H   LIG d   1       8.417   0.243  -7.288  0.00  0.00     0.029 H 
ENDBRANCH  10  12
BRANCH  10  16
ATOM     16  C   LIG d   1       5.156   0.599  -8.053  0.00  0.00    -0.000 A 
ATOM     17  C   LIG d   1       3.882   0.282  -7.621  0.00  0.00    -0.053 A 
ATOM     18  C   LIG d   1       2.801   1.033  -8.043  0.00  0.00    -0.061 A 
ATOM     19  H   LIG d   1       3.731  -0.552  -6.951  0.00  0.00     0.062 H 
ATOM     20  C   LIG d   1       2.994   2.097  -8.904  0.00  0.00    -0.062 A 
ATOM     21  H   LIG d   1       1.808   0.788  -7.701  0.00  0.00     0.062 H 
ATOM     22  C   LIG d   1       4.268   2.411  -9.341  0.00  0.00    -0.061 A 
ATOM     23  H   LIG d   1       2.149   2.683  -9.236  0.00  0.00     0.062 H 
ATOM     24  C   LIG d   1       5.348   1.662  -8.915  0.00  0.00    -0.053 A 
ATOM     25  H   LIG d   1       4.418   3.242 -10.014  0.00  0.00     0.062 H 
ATOM     26  H   LIG d   1       6.343   1.907  -9.256  0.00  0.00     0.062 H 
ENDBRANCH  10  16
ENDBRANCH   7  10
ENDBRANCH   4   7
ENDBRANCH   1   4
BRANCH   1  27
ATOM     27  C   LIG d   1       5.218  -2.754  -4.697  0.00  0.00     0.026 C 
ATOM     28  H   LIG d   1       4.752  -2.154  -5.479  0.00  0.00     0.038 H 
BRANCH  27  29
ATOM     29  C   LIG d   1       4.405  -2.632  -3.407  0.00  0.00    -0.018 C 
ATOM     30  H   LIG d   1       3.461  -3.165  -3.520  0.00  0.00     0.032 H 
ATOM     31  H   LIG d   1       4.968  -3.064  -2.580  0.00  0.00     0.032 H 
BRANCH  29  32
ATOM     32  C   LIG d   1       4.131  -1.178  -3.122  0.00  0.00    -0.047 A 
ATOM     33  C   LIG d   1       3.385  -0.427  -4.013  0.00  0.00    -0.059 A 
ATOM     34  C   LIG d   1       3.130   0.905  -3.749  0.00  0.00    -0.061 A 
ATOM     35  H   LIG d   1       2.999  -0.885  -4.912  0.00  0.00     0.062 H 
ATOM     36  C   LIG d   1       3.628   1.491  -2.600  0.00  0.00    -0.062 A 
ATOM     37  H   LIG d   1       2.544   1.490  -4.443  0.00  0.00     0.062 H 
ATOM     38  C   LIG d   1       4.378   0.742  -1.712  0.00  0.00    -0.061 A 
ATOM     39  H   LIG d   1       3.431   2.532  -2.395  0.00  0.00     0.062 H 
ATOM     40  C   LIG d   1       4.630  -0.593  -1.974  0.00  0.00    -0.059 A 
ATOM     41  H   LIG d   1       4.767   1.198  -0.814  0.00  0.00     0.062 H 
ATOM     42  H   LIG d   1       5.216  -1.177  -1.280  0.00  0.00     0.062 H 
ENDBRANCH  29  32
ENDBRANCH  27  29
BRANCH  27  43
ATOM     43  C   LIG d   1       5.260  -4.197  -5.129  0.00  0.00     0.108 A 
ATOM     44  O   LIG d   1       4.206  -5.026  -5.201  0.00  0.00    -0.468 OA
ATOM     45  C   LIG d   1       4.614  -6.233  -5.626  0.00  0.00     0.092 A 
ATOM     46  C   LIG d   1       5.944  -6.188  -5.822  0.00  0.00    -0.024 A 
ATOM     47  H   LIG d   1       3.982  -7.096  -5.780  0.00  0.00     0.103 H 
ATOM     48  C   LIG d   1       6.360  -4.875  -5.501  0.00  0.00    -0.020 A 
ATOM     49  H   LIG d   1       6.573  -6.998  -6.160  0.00  0.00     0.065 H 
ATOM     50  H   LIG d   1       7.369  -4.490  -5.547  0.00  0.00     0.065 H 
ENDBRANCH  27  43
ENDBRANCH   1  27
TORSDOF 9
ENDMDL
MODEL 3
REMARK VINA RESULT:      -5.9      1.546      4.738
REMARK  9 active torsions:
REMARK  status: ('A' for Active; 'I' for Inactive)
REMARK    1  A    between atoms: C_1  and  C_2 
REMARK    2  A    between atoms: C_2  and  C_4 
REMARK    3  A    between atoms: C_2  and  N_10 
REMARK    4  A    between atoms: N_10  and  C_11 
REMARK    5  A    between atoms: C_11  and  C_12 
REMARK    6  A    between atoms: C_12  and  C_13 
REMARK    7  A    between atoms: C_13  and  C_15 
REMARK    8  A    between atoms: C_13  and  C_22 
REMARK    9  A    between atoms: C_15  and  C_16 
ROOT
ATOM      1  C   LIG d   1       7.470  -1.544  -6.453  0.00  0.00    -0.003 C 
ATOM      2  H   LIG d   1       8.453  -1.332  -6.032  0.00  0.00     0.032 H 
ATOM      3  H   LIG d   1       7.587  -2.003  -7.435  0.00  0.00     0.032 H 
ENDROOT
BRANCH   1   4
ATOM      4  C   LIG d   1       6.715  -2.502  -5.530  0.00  0.00    -0.032 C 
ATOM      5  H   LIG d   1       7.183  -3.485  -5.566  0.00  0.00     0.081 H 
ATOM      6  H   LIG d   1       5.678  -2.581  -5.859  0.00  0.00     0.081 H 
BRANCH   4   7
ATOM      7  N   LIG d   1       6.754  -1.990  -4.154  0.00  0.00     0.232 N 
ATOM      8  H   LIG d   1       6.923  -0.996  -4.170  0.00  0.00     0.202 HD
ATOM      9  H   LIG d   1       7.495  -2.448  -3.646  0.00  0.00     0.202 HD
BRANCH   7  10
ATOM     10  C   LIG d   1       5.469  -2.259  -3.495  0.00  0.00     0.000 C 
ATOM     11  H   LIG d   1       5.646  -2.773  -2.550  0.00  0.00     0.090 H 
BRANCH  10  12
ATOM     12  C   LIG d   1       4.604  -3.139  -4.400  0.00  0.00    -0.017 C 
ATOM     13  H   LIG d   1       3.644  -2.651  -4.570  0.00  0.00     0.029 H 
ATOM     14  H   LIG d   1       5.110  -3.288  -5.353  0.00  0.00     0.029 H 
ATOM     15  H   LIG d   1       4.442  -4.104  -3.920  0.00  0.00     0.029 H 
ENDBRANCH  10  12
BRANCH  10  16
ATOM     16  C   LIG d   1       4.758  -0.956  -3.232  0.00  0.00    -0.000 A 
ATOM     17  C   LIG d   1       4.996  -0.263  -2.059  0.00  0.00    -0.053 A 
ATOM     18  C   LIG d   1       4.347   0.933  -1.819  0.00  0.00    -0.061 A 
ATOM     19  H   LIG d   1       5.691  -0.655  -1.332  0.00  0.00     0.062 H 
ATOM     20  C   LIG d   1       3.452   1.432  -2.748  0.00  0.00    -0.062 A 
ATOM     21  H   LIG d   1       4.536   1.476  -0.906  0.00  0.00     0.062 H 
ATOM     22  C   LIG d   1       3.210   0.736  -3.918  0.00  0.00    -0.061 A 
ATOM     23  H   LIG d   1       2.943   2.366  -2.560  0.00  0.00     0.062 H 
ATOM     24  C   LIG d   1       3.863  -0.458  -4.159  0.00  0.00    -0.053 A 
ATOM     25  H   LIG d   1       2.511   1.126  -4.644  0.00  0.00     0.062 H 
ATOM     26  H   LIG d   1       3.674  -1.002  -5.073  0.00  0.00     0.062 H 
ENDBRANCH  10  16
ENDBRANCH   7  10
ENDBRANCH   4   7
ENDBRANCH   1   4
BRANCH   1  27
ATOM     27  C   LIG d   1       6.682  -0.240  -6.590  0.00  0.00     0.026 C 
ATOM     28  H   LIG d   1       5.678  -0.378  -6.189  0.00  0.00     0.038 H 
BRANCH  27  29
ATOM     29  C   LIG d   1       6.592   0.149  -8.067  0.00  0.00    -0.018 C 
ATOM     30  H   LIG d   1       7.411   0.824  -8.316  0.00  0.00     0.032 H 
ATOM     31  H   LIG d   1       6.660  -0.747  -8.684  0.00  0.00     0.032 H 
BRANCH  29  32
ATOM     32  C   LIG d   1       5.277   0.838  -8.327  0.00  0.00    -0.047 A 
ATOM     33  C   LIG d   1       4.107   0.310  -7.810  0.00  0.00    -0.059 A 
ATOM     34  C   LIG d   1       2.901   0.944  -8.044  0.00  0.00    -0.061 A 
ATOM     35  H   LIG d   1       4.138  -0.594  -7.221  0.00  0.00     0.062 H 
ATOM     36  C   LIG d   1       2.863   2.099  -8.802  0.00  0.00    -0.062 A 
ATOM     37  H   LIG d   1       1.989   0.535  -7.637  0.00  0.00     0.062 H 
ATOM     38  C   LIG d   1       4.031   2.623  -9.323  0.00  0.00    -0.061 A 
ATOM     39  H   LIG d   1       1.921   2.593  -8.987  0.00  0.00     0.062 H 
ATOM     40  C   LIG d   1       5.238   1.992  -9.086  0.00  0.00    -0.059 A 
ATOM     41  H   LIG d   1       4.002   3.526  -9.915  0.00  0.00     0.062 H 
ATOM     42  H   LIG d   1       6.151   2.401  -9.493  0.00  0.00     0.062 H 
ENDBRANCH  29  32
ENDBRANCH  27  29
BRANCH  27  43
ATOM     43  C   LIG d   1       7.382   0.853  -5.825  0.00  0.00     0.108 A 
ATOM     44  O   LIG d   1       7.181   1.162  -4.533  0.00  0.00    -0.468 OA
ATOM     45  C   LIG d   1       7.979   2.185  -4.188  0.00  0.00     0.092 A 
ATOM     46  C   LIG d   1       8.695   2.549  -5.267  0.00  0.00    -0.024 A 
ATOM     47  H   LIG d   1       8.033   2.642  -3.210  0.00  0.00     0.103 H 
ATOM     48  C   LIG d   1       8.311   1.690  -6.322  0.00  0.00    -0.020 A 
ATOM     49  H   LIG d   1       9.425   3.344  -5.317  0.00  0.00     0.065 H 
ATOM     50  H   LIG d   1       8.690   1.703  -7.334  0.00  0.00     0.065 H 
ENDBRANCH  27  43
ENDBRANCH   1  27
TORSDOF 9
ENDMDL
MODEL 4
REMARK VINA RESULT:      -5.8      2.414      5.356
REMARK  9 active torsions:
REMARK  status: ('A' for Active; 'I' for Inactive)
REMARK    1  A    between atoms: C_1  and  C_2 
REMARK    2  A    between atoms: C_2  and  C_4 
REMARK    3  A    between atoms: C_2  and  N_10 
REMARK    4  A    between atoms: N_10  and  C_11 
REMARK    5  A    between atoms: C_11  and  C_12 
REMARK    6  A    between atoms: C_12  and  C_13 
REMARK    7  A    between atoms: C_13  and  C_15 
REMARK    8  A    between atoms: C_13  and  C_22 
REMARK    9  A    between atoms: C_15  and  C_16 
ROOT
ATOM      1  C   LIG d   1       5.861  -2.018  -6.228  0.00  0.00    -0.003 C 
ATOM      2  H   LIG d   1       6.852  -2.457  -6.350  0.00  0.00     0.032 H 
ATOM      3  H   LIG d   1       5.960  -0.970  -5.947  0.00  0.00     0.032 H 
ENDROOT
BRANCH   1   4
ATOM      4  C   LIG d   1       5.092  -2.121  -7.546  0.00  0.00    -0.032 C 
ATOM      5  H   LIG d   1       5.167  -3.137  -7.933  0.00  0.00     0.081 H 
ATOM      6  H   LIG d   1       5.517  -1.425  -8.270  0.00  0.00     0.081 H 
BRANCH   4   7
ATOM      7  N   LIG d   1       3.680  -1.788  -7.317  0.00  0.00     0.232 N 
ATOM      8  H   LIG d   1       3.619  -0.946  -6.765  0.00  0.00     0.202 HD
ATOM      9  H   LIG d   1       3.231  -2.545  -6.825  0.00  0.00     0.202 HD
BRANCH   7  10
ATOM     10  C   LIG d   1       3.011  -1.577  -8.608  0.00  0.00     0.000 C 
ATOM     11  H   LIG d   1       1.944  -1.778  -8.501  0.00  0.00     0.090 H 
BRANCH  10  12
ATOM     12  C   LIG d   1       3.606  -2.522  -9.653  0.00  0.00    -0.017 C 
ATOM     13  H   LIG d   1       3.905  -3.454  -9.171  0.00  0.00     0.029 H 
ATOM     14  H   LIG d   1       2.861  -2.732 -10.420  0.00  0.00     0.029 H 
ATOM     15  H   LIG d   1       4.478  -2.054 -10.110  0.00  0.00     0.029 H 
ENDBRANCH  10  12
BRANCH  10  16
ATOM     16  C   LIG d   1       3.210  -0.149  -9.049  0.00  0.00    -0.000 A 
ATOM     17  C   LIG d   1       2.883   0.890  -8.198  0.00  0.00    -0.053 A 
ATOM     18  C   LIG d   1       3.070   2.198  -8.601  0.00  0.00    -0.061 A 
ATOM     19  H   LIG d   1       2.485   0.679  -7.217  0.00  0.00     0.062 H 
ATOM     20  C   LIG d   1       3.574   2.469  -9.860  0.00  0.00    -0.062 A 
ATOM     21  H   LIG d   1       2.819   3.009  -7.935  0.00  0.00     0.062 H 
ATOM     22  C   LIG d   1       3.896   1.430 -10.713  0.00  0.00    -0.061 A 
ATOM     23  H   LIG d   1       3.718   3.492 -10.176  0.00  0.00     0.062 H 
ATOM     24  C   LIG d   1       3.714   0.121 -10.308  0.00  0.00    -0.053 A 
ATOM     25  H   LIG d   1       4.290   1.640 -11.696  0.00  0.00     0.062 H 
ATOM     26  H   LIG d   1       3.965  -0.691 -10.974  0.00  0.00     0.062 H 
ENDBRANCH  10  16
ENDBRANCH   7  10
ENDBRANCH   4   7
ENDBRANCH   1   4
BRANCH   1  27
ATOM     27  C   LIG d   1       5.101  -2.771  -5.134  0.00  0.00     0.026 C 
ATOM     28  H   LIG d   1       4.047  -2.497  -5.170  0.00  0.00     0.038 H 
BRANCH  27  29
ATOM     29  C   LIG d   1       5.678  -2.400  -3.766  0.00  0.00    -0.018 C 
ATOM     30  H   LIG d   1       5.524  -3.225  -3.070  0.00  0.00     0.032 H 
ATOM     31  H   LIG d   1       6.746  -2.203  -3.863  0.00  0.00     0.032 H 
BRANCH  29  32
ATOM     32  C   LIG d   1       4.985  -1.167  -3.246  0.00  0.00    -0.047 A 
ATOM     33  C   LIG d   1       5.730  -0.072  -2.848  0.00  0.00    -0.059 A 
ATOM     34  C   LIG d   1       5.094   1.060  -2.374  0.00  0.00    -0.061 A 
ATOM     35  H   LIG d   1       6.808  -0.101  -2.910  0.00  0.00     0.062 H 
ATOM     36  C   LIG d   1       3.715   1.095  -2.291  0.00  0.00    -0.062 A 
ATOM     37  H   LIG d   1       5.676   1.917  -2.068  0.00  0.00     0.062 H 
ATOM     38  C   LIG d   1       2.971  -0.002  -2.684  0.00  0.00    -0.061 A 
ATOM     39  H   LIG d   1       3.218   1.979  -1.919  0.00  0.00     0.062 H 
ATOM     40  C   LIG d   1       3.606  -1.133  -3.161  0.00  0.00    -0.059 A 
ATOM     41  H   LIG d   1       1.893   0.025  -2.619  0.00  0.00     0.062 H 
ATOM     42  H   LIG d   1       3.025  -1.990  -3.467  0.00  0.00     0.062 H 
ENDBRANCH  29  32
ENDBRANCH  27  29
BRANCH  27  43
ATOM     43  C   LIG d   1       5.244  -4.254  -5.353  0.00  0.00     0.108 A 
ATOM     44  O   LIG d   1       4.235  -5.138  -5.426  0.00  0.00    -0.468 OA
ATOM     45  C   LIG d   1       4.732  -6.369  -5.631  0.00  0.00     0.092 A 
ATOM     46  C   LIG d   1       6.073  -6.283  -5.681  0.00  0.00    -0.024 A 
ATOM     47  H   LIG d   1       4.152  -7.275  -5.733  0.00  0.00     0.103 H 
ATOM     48  C   LIG d   1       6.403  -4.920  -5.502  0.00  0.00    -0.020 A 
ATOM     49  H   LIG d   1       6.766  -7.099  -5.831  0.00  0.00     0.065 H 
ATOM     50  H   LIG d   1       7.396  -4.494  -5.489  0.00  0.00     0.065 H 
ENDBRANCH  27  43
ENDBRANCH   1  27
TORSDOF 9
ENDMDL
MODEL 5
REMARK VINA RESULT:      -5.7      2.466      5.338
REMARK  9 active torsions:
REMARK  status: ('A' for Active; 'I' for Inactive)
REMARK    1  A    between atoms: C_1  and  C_2 
REMARK    2  A    between atoms: C_2  and  C_4 
REMARK    3  A    between atoms: C_2  and  N_10 
REMARK    4  A    between atoms: N_10  and  C_11 
REMARK    5  A    between atoms: C_11  and  C_12 
REMARK    6  A    between atoms: C_12  and  C_13 
REMARK    7  A    between atoms: C_13  and  C_15 
REMARK    8  A    between atoms: C_13  and  C_22 
REMARK    9  A    between atoms: C_15  and  C_16 
ROOT
ATOM      1  C   LIG d   1       6.527  -0.811  -7.772  0.00  0.00    -0.003 C 
ATOM      2  H   LIG d   1       6.786  -1.291  -8.717  0.00  0.00     0.032 H 
ATOM      3  H   LIG d   1       7.331  -0.971  -7.052  0.00  0.00     0.032 H 
ENDROOT
BRANCH   1   4
ATOM      4  C   LIG d   1       6.337   0.690  -7.998  0.00  0.00    -0.032 C 
ATOM      5  H   LIG d   1       6.792   0.975  -8.946  0.00  0.00     0.081 H 
ATOM      6  H   LIG d   1       6.811   1.242  -7.187  0.00  0.00     0.081 H 
BRANCH   4   7
ATOM      7  N   LIG d   1       4.902   1.002  -8.030  0.00  0.00     0.232 N 
ATOM      8  H   LIG d   1       4.698   1.714  -7.344  0.00  0.00     0.202 HD
ATOM      9  H   LIG d   1       4.371   0.171  -7.818  0.00  0.00     0.202 HD
BRANCH   7  10
ATOM     10  C   LIG d   1       4.536   1.490  -9.366  0.00  0.00     0.000 C 
ATOM     11  H   LIG d   1       5.424   1.523  -9.997  0.00  0.00     0.090 H 
BRANCH  10  12
ATOM     12  C   LIG d   1       3.940   2.895  -9.251  0.00  0.00    -0.017 C 
ATOM     13  H   LIG d   1       2.980   2.841  -8.736  0.00  0.00     0.029 H 
ATOM     14  H   LIG d   1       4.620   3.533  -8.688  0.00  0.00     0.029 H 
ATOM     15  H   LIG d   1       3.794   3.310 -10.248  0.00  0.00     0.029 H 
ENDBRANCH  10  12
BRANCH  10  16
ATOM     16  C   LIG d   1       3.519   0.562  -9.979  0.00  0.00    -0.000 A 
ATOM     17  C   LIG d   1       2.414   0.167  -9.247  0.00  0.00    -0.053 A 
ATOM     18  C   LIG d   1       1.479  -0.681  -9.810  0.00  0.00    -0.061 A 
ATOM     19  H   LIG d   1       2.280   0.524  -8.237  0.00  0.00     0.062 H 
ATOM     20  C   LIG d   1       1.654  -1.143 -11.102  0.00  0.00    -0.062 A 
ATOM     21  H   LIG d   1       0.615  -0.986  -9.240  0.00  0.00     0.062 H 
ATOM     22  C   LIG d   1       2.761  -0.752 -11.831  0.00  0.00    -0.061 A 
ATOM     23  H   LIG d   1       0.924  -1.807 -11.541  0.00  0.00     0.062 H 
ATOM     24  C   LIG d   1       3.693   0.100 -11.269  0.00  0.00    -0.053 A 
ATOM     25  H   LIG d   1       2.898  -1.112 -12.841  0.00  0.00     0.062 H 
ATOM     26  H   LIG d   1       4.559   0.405 -11.840  0.00  0.00     0.062 H 
ENDBRANCH  10  16
ENDBRANCH   7  10
ENDBRANCH   4   7
ENDBRANCH   1   4
BRANCH   1  27
ATOM     27  C   LIG d   1       5.230  -1.415  -7.232  0.00  0.00     0.026 C 
ATOM     28  H   LIG d   1       4.501  -0.622  -7.066  0.00  0.00     0.038 H 
BRANCH  27  29
ATOM     29  C   LIG d   1       5.513  -2.132  -5.910  0.00  0.00    -0.018 C 
ATOM     30  H   LIG d   1       5.390  -3.207  -6.045  0.00  0.00     0.032 H 
ATOM     31  H   LIG d   1       6.535  -1.921  -5.594  0.00  0.00     0.032 H 
BRANCH  29  32
ATOM     32  C   LIG d   1       4.551  -1.644  -4.857  0.00  0.00    -0.047 A 
ATOM     33  C   LIG d   1       3.747  -0.548  -5.111  0.00  0.00    -0.059 A 
ATOM     34  C   LIG d   1       2.862  -0.103  -4.147  0.00  0.00    -0.061 A 
ATOM     35  H   LIG d   1       3.809  -0.042  -6.063  0.00  0.00     0.062 H 
ATOM     36  C   LIG d   1       2.786  -0.748  -2.927  0.00  0.00    -0.062 A 
ATOM     37  H   LIG d   1       2.231   0.751  -4.347  0.00  0.00     0.062 H 
ATOM     38  C   LIG d   1       3.593  -1.841  -2.672  0.00  0.00    -0.061 A 
ATOM     39  H   LIG d   1       2.096  -0.399  -2.173  0.00  0.00     0.062 H 
ATOM     40  C   LIG d   1       4.476  -2.289  -3.637  0.00  0.00    -0.059 A 
ATOM     41  H   LIG d   1       3.534  -2.345  -1.719  0.00  0.00     0.062 H 
ATOM     42  H   LIG d   1       5.107  -3.142  -3.438  0.00  0.00     0.062 H 
ENDBRANCH  29  32
ENDBRANCH  27  29
BRANCH  27  43
ATOM     43  C   LIG d   1       4.681  -2.401  -8.229  0.00  0.00     0.108 A 
ATOM     44  O   LIG d   1       3.562  -3.129  -8.080  0.00  0.00    -0.468 OA
ATOM     45  C   LIG d   1       3.379  -3.896  -9.168  0.00  0.00     0.092 A 
ATOM     46  C   LIG d   1       4.392  -3.671 -10.023  0.00  0.00    -0.024 A 
ATOM     47  H   LIG d   1       2.559  -4.582  -9.326  0.00  0.00     0.103 H 
ATOM     48  C   LIG d   1       5.231  -2.707  -9.418  0.00  0.00    -0.020 A 
ATOM     49  H   LIG d   1       4.536  -4.136 -10.987  0.00  0.00     0.065 H 
ATOM     50  H   LIG d   1       6.140  -2.294  -9.831  0.00  0.00     0.065 H 
ENDBRANCH  27  43
ENDBRANCH   1  27
TORSDOF 9
ENDMDL
MODEL 6
REMARK VINA RESULT:      -5.7      1.488      3.945
REMARK  9 active torsions:
REMARK  status: ('A' for Active; 'I' for Inactive)
REMARK    1  A    between atoms: C_1  and  C_2 
REMARK    2  A    between atoms: C_2  and  C_4 
REMARK    3  A    between atoms: C_2  and  N_10 
REMARK    4  A    between atoms: N_10  and  C_11 
REMARK    5  A    between atoms: C_11  and  C_12 
REMARK    6  A    between atoms: C_12  and  C_13 
REMARK    7  A    between atoms: C_13  and  C_15 
REMARK    8  A    between atoms: C_13  and  C_22 
REMARK    9  A    between atoms: C_15  and  C_16 
ROOT
ATOM      1  C   LIG d   1       6.905   0.207  -7.671  0.00  0.00    -0.003 C 
ATOM      2  H   LIG d   1       6.947   1.218  -8.077  0.00  0.00     0.032 H 
ATOM      3  H   LIG d   1       7.407  -0.479  -8.354  0.00  0.00     0.032 H 
ENDROOT
BRANCH   1   4
ATOM      4  C   LIG d   1       7.605   0.174  -6.311  0.00  0.00    -0.032 C 
ATOM      5  H   LIG d   1       8.507   0.783  -6.352  0.00  0.00     0.081 H 
ATOM      6  H   LIG d   1       7.872  -0.854  -6.065  0.00  0.00     0.081 H 
BRANCH   4   7
ATOM      7  N   LIG d   1       6.702   0.705  -5.282  0.00  0.00     0.232 N 
ATOM      8  H   LIG d   1       5.753   0.685  -5.625  0.00  0.00     0.202 HD
ATOM      9  H   LIG d   1       6.960   1.655  -5.065  0.00  0.00     0.202 HD
BRANCH   7  10
ATOM     10  C   LIG d   1       6.802  -0.119  -4.070  0.00  0.00     0.000 C 
ATOM     11  H   LIG d   1       7.278   0.458  -3.277  0.00  0.00     0.090 H 
BRANCH  10  12
ATOM     12  C   LIG d   1       7.638  -1.365  -4.367  0.00  0.00    -0.017 C 
ATOM     13  H   LIG d   1       7.248  -2.209  -3.797  0.00  0.00     0.029 H 
ATOM     14  H   LIG d   1       7.588  -1.592  -5.432  0.00  0.00     0.029 H 
ATOM     15  H   LIG d   1       8.674  -1.183  -4.082  0.00  0.00     0.029 H 
ENDBRANCH  10  12
BRANCH  10  16
ATOM     16  C   LIG d   1       5.421  -0.534  -3.629  0.00  0.00    -0.000 A 
ATOM     17  C   LIG d   1       5.268  -1.531  -2.683  0.00  0.00    -0.053 A 
ATOM     18  C   LIG d   1       4.003  -1.909  -2.276  0.00  0.00    -0.061 A 
ATOM     19  H   LIG d   1       6.137  -2.012  -2.261  0.00  0.00     0.062 H 
ATOM     20  C   LIG d   1       2.889  -1.296  -2.822  0.00  0.00    -0.062 A 
ATOM     21  H   LIG d   1       3.883  -2.684  -1.535  0.00  0.00     0.062 H 
ATOM     22  C   LIG d   1       3.042  -0.303  -3.771  0.00  0.00    -0.061 A 
ATOM     23  H   LIG d   1       1.900  -1.593  -2.505  0.00  0.00     0.062 H 
ATOM     24  C   LIG d   1       4.309   0.077  -4.175  0.00  0.00    -0.053 A 
ATOM     25  H   LIG d   1       2.173   0.176  -4.198  0.00  0.00     0.062 H 
ATOM     26  H   LIG d   1       4.428   0.853  -4.917  0.00  0.00     0.062 H 
ENDBRANCH  10  16
ENDBRANCH   7  10
ENDBRANCH   4   7
ENDBRANCH   1   4
BRANCH   1  27
ATOM     27  C   LIG d   1       5.445  -0.216  -7.504  0.00  0.00     0.026 C 
ATOM     28  H   LIG d   1       5.212  -0.309  -6.443  0.00  0.00     0.038 H 
BRANCH  27  29
ATOM     29  C   LIG d   1       5.222  -1.564  -8.194  0.00  0.00    -0.018 C 
ATOM     30  H   LIG d   1       4.189  -1.632  -8.535  0.00  0.00     0.032 H 
ATOM     31  H   LIG d   1       5.893  -1.649  -9.049  0.00  0.00     0.032 H 
BRANCH  29  32
ATOM     32  C   LIG d   1       5.506  -2.680  -7.221  0.00  0.00    -0.047 A 
ATOM     33  C   LIG d   1       6.675  -3.411  -7.331  0.00  0.00    -0.059 A 
ATOM     34  C   LIG d   1       6.937  -4.432  -6.436  0.00  0.00    -0.061 A 
ATOM     35  H   LIG d   1       7.383  -3.182  -8.113  0.00  0.00     0.062 H 
ATOM     36  C   LIG d   1       6.027  -4.727  -5.438  0.00  0.00    -0.062 A 
ATOM     37  H   LIG d   1       7.851  -5.000  -6.519  0.00  0.00     0.062 H 
ATOM     38  C   LIG d   1       4.856  -3.999  -5.332  0.00  0.00    -0.061 A 
ATOM     39  H   LIG d   1       6.230  -5.526  -4.741  0.00  0.00     0.062 H 
ATOM     40  C   LIG d   1       4.596  -2.976  -6.225  0.00  0.00    -0.059 A 
ATOM     41  H   LIG d   1       4.145  -4.230  -4.553  0.00  0.00     0.062 H 
ATOM     42  H   LIG d   1       3.681  -2.407  -6.142  0.00  0.00     0.062 H 
ENDBRANCH  29  32
ENDBRANCH  27  29
BRANCH  27  43
ATOM     43  C   LIG d   1       4.547   0.820  -8.126  0.00  0.00     0.108 A 
ATOM     44  O   LIG d   1       4.953   1.934  -8.758  0.00  0.00    -0.468 OA
ATOM     45  C   LIG d   1       3.881   2.621  -9.187  0.00  0.00     0.092 A 
ATOM     46  C   LIG d   1       2.773   1.952  -8.823  0.00  0.00    -0.024 A 
ATOM     47  H   LIG d   1       3.906   3.555  -9.730  0.00  0.00     0.103 H 
ATOM     48  C   LIG d   1       3.202   0.791  -8.140  0.00  0.00    -0.020 A 
ATOM     49  H   LIG d   1       1.751   2.244  -9.017  0.00  0.00     0.065 H 
ATOM     50  H   LIG d   1       2.571   0.026  -7.710  0.00  0.00     0.065 H 
ENDBRANCH  27  43
ENDBRANCH   1  27
TORSDOF 9
ENDMDL
MODEL 7
REMARK VINA RESULT:      -5.7      1.900      4.394
REMARK  9 active torsions:
REMARK  status: ('A' for Active; 'I' for Inactive)
REMARK    1  A    between atoms: C_1  and  C_2 
REMARK    2  A    between atoms: C_2  and  C_4 
REMARK    3  A    between atoms: C_2  and  N_10 
REMARK    4  A    between atoms: N_10  and  C_11 
REMARK    5  A    between atoms: C_11  and  C_12 
REMARK    6  A    between atoms: C_12  and  C_13 
REMARK    7  A    between atoms: C_13  and  C_15 
REMARK    8  A    between atoms: C_13  and  C_22 
REMARK    9  A    between atoms: C_15  and  C_16 
ROOT
ATOM      1  C   LIG d   1       2.519   0.249  -6.372  0.00  0.00    -0.003 C 
ATOM      2  H   LIG d   1       1.688  -0.453  -6.436  0.00  0.00     0.032 H 
ATOM      3  H   LIG d   1       2.175   1.244  -6.656  0.00  0.00     0.032 H 
ENDROOT
BRANCH   1   4
ATOM      4  C   LIG d   1       3.048   0.284  -4.937  0.00  0.00    -0.032 C 
ATOM      5  H   LIG d   1       2.730   1.208  -4.455  0.00  0.00     0.081 H 
ATOM      6  H   LIG d   1       4.138   0.239  -4.951  0.00  0.00     0.081 H 
BRANCH   4   7
ATOM      7  N   LIG d   1       2.520  -0.865  -4.191  0.00  0.00     0.232 N 
ATOM      8  H   LIG d   1       2.515  -1.679  -4.787  0.00  0.00     0.202 HD
ATOM      9  H   LIG d   1       1.579  -0.666  -3.888  0.00  0.00     0.202 HD
BRANCH   7  10
ATOM     10  C   LIG d   1       3.368  -1.121  -3.019  0.00  0.00     0.000 C 
ATOM     11  H   LIG d   1       2.827  -1.748  -2.310  0.00  0.00     0.090 H 
BRANCH  10  12
ATOM     12  C   LIG d   1       3.733   0.207  -2.353  0.00  0.00    -0.017 C 
ATOM     13  H   LIG d   1       3.850   0.976  -3.117  0.00  0.00     0.029 H 
ATOM     14  H   LIG d   1       2.940   0.497  -1.663  0.00  0.00     0.029 H 
ATOM     15  H   LIG d   1       4.668   0.093  -1.805  0.00  0.00     0.029 H 
ENDBRANCH  10  12
BRANCH  10  16
ATOM     16  C   LIG d   1       4.627  -1.827  -3.455  0.00  0.00    -0.000 A 
ATOM     17  C   LIG d   1       5.863  -1.299  -3.130  0.00  0.00    -0.053 A 
ATOM     18  C   LIG d   1       7.017  -1.948  -3.526  0.00  0.00    -0.061 A 
ATOM     19  H   LIG d   1       5.926  -0.382  -2.564  0.00  0.00     0.062 H 
ATOM     20  C   LIG d   1       6.936  -3.120  -4.255  0.00  0.00    -0.062 A 
ATOM     21  H   LIG d   1       7.981  -1.538  -3.268  0.00  0.00     0.062 H 
ATOM     22  C   LIG d   1       5.700  -3.645  -4.584  0.00  0.00    -0.061 A 
ATOM     23  H   LIG d   1       7.838  -3.626  -4.566  0.00  0.00     0.062 H 
ATOM     24  C   LIG d   1       4.545  -2.998  -4.184  0.00  0.00    -0.053 A 
ATOM     25  H   LIG d   1       5.636  -4.560  -5.154  0.00  0.00     0.062 H 
ATOM     26  H   LIG d   1       3.580  -3.408  -4.442  0.00  0.00     0.062 H 
ENDBRANCH  10  16
ENDBRANCH   7  10
ENDBRANCH   4   7
ENDBRANCH   1   4
BRANCH   1  27
ATOM     27  C   LIG d   1       3.636  -0.195  -7.318  0.00  0.00     0.026 C 
ATOM     28  H   LIG d   1       3.463  -1.225  -7.626  0.00  0.00     0.038 H 
BRANCH  27  29
ATOM     29  C   LIG d   1       4.983  -0.097  -6.597  0.00  0.00    -0.018 C 
ATOM     30  H   LIG d   1       5.394   0.904  -6.728  0.00  0.00     0.032 H 
ATOM     31  H   LIG d   1       4.842  -0.296  -5.535  0.00  0.00     0.032 H 
BRANCH  29  32
ATOM     32  C   LIG d   1       5.936  -1.111  -7.175  0.00  0.00    -0.047 A 
ATOM     33  C   LIG d   1       7.300  -0.887  -7.122  0.00  0.00    -0.059 A 
ATOM     34  C   LIG d   1       8.175  -1.819  -7.648  0.00  0.00    -0.061 A 
ATOM     35  H   LIG d   1       7.681   0.015  -6.666  0.00  0.00     0.062 H 
ATOM     36  C   LIG d   1       7.686  -2.971  -8.236  0.00  0.00    -0.062 A 
ATOM     37  H   LIG d   1       9.239  -1.646  -7.603  0.00  0.00     0.062 H 
ATOM     38  C   LIG d   1       6.323  -3.193  -8.293  0.00  0.00    -0.061 A 
ATOM     39  H   LIG d   1       8.369  -3.698  -8.649  0.00  0.00     0.062 H 
ATOM     40  C   LIG d   1       5.448  -2.262  -7.764  0.00  0.00    -0.059 A 
ATOM     41  H   LIG d   1       5.940  -4.093  -8.752  0.00  0.00     0.062 H 
ATOM     42  H   LIG d   1       4.383  -2.435  -7.809  0.00  0.00     0.062 H 
ENDBRANCH  29  32
ENDBRANCH  27  29
BRANCH  27  43
ATOM     43  C   LIG d   1       3.651   0.698  -8.531  0.00  0.00     0.108 A 
ATOM     44  O   LIG d   1       4.002   0.328  -9.774  0.00  0.00    -0.468 OA
ATOM     45  C   LIG d   1       3.892   1.381 -10.602  0.00  0.00     0.092 A 
ATOM     46  C   LIG d   1       3.477   2.442  -9.888  0.00  0.00    -0.024 A 
ATOM     47  H   LIG d   1       4.106   1.376 -11.661  0.00  0.00     0.103 H 
ATOM     48  C   LIG d   1       3.321   2.002  -8.553  0.00  0.00    -0.020 A 
ATOM     49  H   LIG d   1       3.295   3.439 -10.262  0.00  0.00     0.065 H 
ATOM     50  H   LIG d   1       2.998   2.598  -7.712  0.00  0.00     0.065 H 
ENDBRANCH  27  43
ENDBRANCH   1  27
TORSDOF 9
ENDMDL
MODEL 8
REMARK VINA RESULT:      -5.6      2.302      5.820
REMARK  9 active torsions:
REMARK  status: ('A' for Active; 'I' for Inactive)
REMARK    1  A    between atoms: C_1  and  C_2 
REMARK    2  A    between atoms: C_2  and  C_4 
REMARK    3  A    between atoms: C_2  and  N_10 
REMARK    4  A    between atoms: N_10  and  C_11 
REMARK    5  A    between atoms: C_11  and  C_12 
REMARK    6  A    between atoms: C_12  and  C_13 
REMARK    7  A    between atoms: C_13  and  C_15 
REMARK    8  A    between atoms: C_13  and  C_22 
REMARK    9  A    between atoms: C_15  and  C_16 
ROOT
ATOM      1  C   LIG d   1       4.548  -2.539  -5.377  0.00  0.00    -0.003 C 
ATOM      2  H   LIG d   1       3.681  -2.952  -4.862  0.00  0.00     0.032 H 
ATOM      3  H   LIG d   1       5.416  -2.582  -4.718  0.00  0.00     0.032 H 
ENDROOT
BRANCH   1   4
ATOM      4  C   LIG d   1       4.827  -3.353  -6.641  0.00  0.00    -0.032 C 
ATOM      5  H   LIG d   1       5.104  -4.370  -6.364  0.00  0.00     0.081 H 
ATOM      6  H   LIG d   1       5.645  -2.893  -7.196  0.00  0.00     0.081 H 
BRANCH   4   7
ATOM      7  N   LIG d   1       3.622  -3.384  -7.480  0.00  0.00     0.232 N 
ATOM      8  H   LIG d   1       3.138  -2.502  -7.407  0.00  0.00     0.202 HD
ATOM      9  H   LIG d   1       3.014  -4.126  -7.169  0.00  0.00     0.202 HD
BRANCH   7  10
ATOM     10  C   LIG d   1       4.005  -3.619  -8.879  0.00  0.00     0.000 C 
ATOM     11  H   LIG d   1       3.622  -4.587  -9.203  0.00  0.00     0.090 H 
BRANCH  10  12
ATOM     12  C   LIG d   1       5.530  -3.606  -9.000  0.00  0.00    -0.017 C 
ATOM     13  H   LIG d   1       5.860  -4.505  -9.520  0.00  0.00     0.029 H 
ATOM     14  H   LIG d   1       5.843  -2.725  -9.561  0.00  0.00     0.029 H 
ATOM     15  H   LIG d   1       5.973  -3.579  -8.005  0.00  0.00     0.029 H 
ENDBRANCH  10  12
BRANCH  10  16
ATOM     16  C   LIG d   1       3.422  -2.533  -9.747  0.00  0.00    -0.000 A 
ATOM     17  C   LIG d   1       4.241  -1.819 -10.604  0.00  0.00    -0.053 A 
ATOM     18  C   LIG d   1       3.707  -0.826 -11.403  0.00  0.00    -0.061 A 
ATOM     19  H   LIG d   1       5.297  -2.040 -10.650  0.00  0.00     0.062 H 
ATOM     20  C   LIG d   1       2.356  -0.540 -11.339  0.00  0.00    -0.062 A 
ATOM     21  H   LIG d   1       4.345  -0.273 -12.074  0.00  0.00     0.062 H 
ATOM     22  C   LIG d   1       1.538  -1.250 -10.479  0.00  0.00    -0.061 A 
ATOM     23  H   LIG d   1       1.938   0.237 -11.962  0.00  0.00     0.062 H 
ATOM     24  C   LIG d   1       2.072  -2.246  -9.683  0.00  0.00    -0.053 A 
ATOM     25  H   LIG d   1       0.483  -1.026 -10.429  0.00  0.00     0.062 H 
ATOM     26  H   LIG d   1       1.434  -2.800  -9.011  0.00  0.00     0.062 H 
ENDBRANCH  10  16
ENDBRANCH   7  10
ENDBRANCH   4   7
ENDBRANCH   1   4
BRANCH   1  27
ATOM     27  C   LIG d   1       4.269  -1.084  -5.758  0.00  0.00     0.026 C 
ATOM     28  H   LIG d   1       3.272  -1.006  -6.191  0.00  0.00     0.038 H 
BRANCH  27  29
ATOM     29  C   LIG d   1       5.307  -0.617  -6.782  0.00  0.00    -0.018 C 
ATOM     30  H   LIG d   1       6.161  -0.184  -6.262  0.00  0.00     0.032 H 
ATOM     31  H   LIG d   1       5.637  -1.468  -7.378  0.00  0.00     0.032 H 
BRANCH  29  32
ATOM     32  C   LIG d   1       4.690   0.420  -7.686  0.00  0.00    -0.047 A 
ATOM     33  C   LIG d   1       5.489   1.147  -8.549  0.00  0.00    -0.059 A 
ATOM     34  C   LIG d   1       4.922   2.095  -9.380  0.00  0.00    -0.061 A 
ATOM     35  H   LIG d   1       6.554   0.972  -8.574  0.00  0.00     0.062 H 
ATOM     36  C   LIG d   1       3.559   2.322  -9.343  0.00  0.00    -0.062 A 
ATOM     37  H   LIG d   1       5.545   2.660 -10.057  0.00  0.00     0.062 H 
ATOM     38  C   LIG d   1       2.761   1.597  -8.477  0.00  0.00    -0.061 A 
ATOM     39  H   LIG d   1       3.117   3.063  -9.991  0.00  0.00     0.062 H 
ATOM     40  C   LIG d   1       3.327   0.647  -7.647  0.00  0.00    -0.059 A 
ATOM     41  H   LIG d   1       1.696   1.774  -8.448  0.00  0.00     0.062 H 
ATOM     42  H   LIG d   1       2.704   0.082  -6.970  0.00  0.00     0.062 H 
ENDBRANCH  29  32
ENDBRANCH  27  29
BRANCH  27  43
ATOM     43  C   LIG d   1       4.353  -0.217  -4.529  0.00  0.00     0.108 A 
ATOM     44  O   LIG d   1       5.483   0.145  -3.898  0.00  0.00    -0.468 OA
ATOM     45  C   LIG d   1       5.178   0.920  -2.844  0.00  0.00     0.092 A 
ATOM     46  C   LIG d   1       3.841   1.052  -2.786  0.00  0.00    -0.024 A 
ATOM     47  H   LIG d   1       5.887   1.359  -2.157  0.00  0.00     0.103 H 
ATOM     48  C   LIG d   1       3.309   0.320  -3.871  0.00  0.00    -0.020 A 
ATOM     49  H   LIG d   1       3.281   1.612  -2.051  0.00  0.00     0.065 H 
ATOM     50  H   LIG d   1       2.264   0.211  -4.126  0.00  0.00     0.065 H 
ENDBRANCH  27  43
ENDBRANCH   1  27
TORSDOF 9
ENDMDL
MODEL 9
REMARK VINA RESULT:      -5.5      2.507      5.489
REMARK  9 active torsions:
REMARK  status: ('A' for Active; 'I' for Inactive)
REMARK    1  A    between atoms: C_1  and  C_2 
REMARK    2  A    between atoms: C_2  and  C_4 
REMARK    3  A    between atoms: C_2  and  N_10 
REMARK    4  A    between atoms: N_10  and  C_11 
REMARK    5  A    between atoms: C_11  and  C_12 
REMARK    6  A    between atoms: C_12  and  C_13 
REMARK    7  A    between atoms: C_13  and  C_15 
REMARK    8  A    between atoms: C_13  and  C_22 
REMARK    9  A    between atoms: C_15  and  C_16 
ROOT
ATOM      1  C   LIG d   1       6.168  -1.112  -7.453  0.00  0.00    -0.003 C 
ATOM      2  H   LIG d   1       6.031  -1.682  -8.373  0.00  0.00     0.032 H 
ATOM      3  H   LIG d   1       7.209  -1.181  -7.135  0.00  0.00     0.032 H 
ENDROOT
BRANCH   1   4
ATOM      4  C   LIG d   1       5.807   0.353  -7.703  0.00  0.00    -0.032 C 
ATOM      5  H   LIG d   1       6.133   0.642  -8.701  0.00  0.00     0.081 H 
ATOM      6  H   LIG d   1       6.305   0.980  -6.962  0.00  0.00     0.081 H 
BRANCH   4   7
ATOM      7  N   LIG d   1       4.353   0.525  -7.593  0.00  0.00     0.232 N 
ATOM      8  H   LIG d   1       4.139   1.055  -6.761  0.00  0.00     0.202 HD
ATOM      9  H   LIG d   1       3.910  -0.379  -7.538  0.00  0.00     0.202 HD
BRANCH   7  10
ATOM     10  C   LIG d   1       3.854   1.245  -8.772  0.00  0.00     0.000 C 
ATOM     11  H   LIG d   1       4.692   1.703  -9.299  0.00  0.00     0.090 H 
BRANCH  10  12
ATOM     12  C   LIG d   1       2.874   2.333  -8.330  0.00  0.00    -0.017 C 
ATOM     13  H   LIG d   1       2.051   2.392  -9.043  0.00  0.00     0.029 H 
ATOM     14  H   LIG d   1       2.483   2.091  -7.342  0.00  0.00     0.029 H 
ATOM     15  H   LIG d   1       3.389   3.293  -8.292  0.00  0.00     0.029 H 
ENDBRANCH  10  12
BRANCH  10  16
ATOM     16  C   LIG d   1       3.152   0.279  -9.691  0.00  0.00    -0.000 A 
ATOM     17  C   LIG d   1       3.590   0.119 -10.993  0.00  0.00    -0.053 A 
ATOM     18  C   LIG d   1       2.949  -0.770 -11.834  0.00  0.00    -0.061 A 
ATOM     19  H   LIG d   1       4.436   0.687 -11.351  0.00  0.00     0.062 H 
ATOM     20  C   LIG d   1       1.863  -1.493 -11.377  0.00  0.00    -0.062 A 
ATOM     21  H   LIG d   1       3.294  -0.898 -12.848  0.00  0.00     0.062 H 
ATOM     22  C   LIG d   1       1.421  -1.329 -10.077  0.00  0.00    -0.061 A 
ATOM     23  H   LIG d   1       1.360  -2.187 -12.035  0.00  0.00     0.062 H 
ATOM     24  C   LIG d   1       2.066  -0.443  -9.235  0.00  0.00    -0.053 A 
ATOM     25  H   LIG d   1       0.572  -1.894  -9.719  0.00  0.00     0.062 H 
ATOM     26  H   LIG d   1       1.721  -0.316  -8.219  0.00  0.00     0.062 H 
ENDBRANCH  10  16
ENDBRANCH   7  10
ENDBRANCH   4   7
ENDBRANCH   1   4
BRANCH   1  27
ATOM     27  C   LIG d   1       5.261  -1.682  -6.360  0.00  0.00     0.026 C 
ATOM     28  H   LIG d   1       4.487  -0.956  -6.115  0.00  0.00     0.038 H 
BRANCH  27  29
ATOM     29  C   LIG d   1       6.094  -1.981  -5.111  0.00  0.00    -0.018 C 
ATOM     30  H   LIG d   1       6.045  -3.046  -4.888  0.00  0.00     0.032 H 
ATOM     31  H   LIG d   1       7.131  -1.695  -5.290  0.00  0.00     0.032 H 
BRANCH  29  32
ATOM     32  C   LIG d   1       5.550  -1.196  -3.945  0.00  0.00    -0.047 A 
ATOM     33  C   LIG d   1       4.769  -1.825  -2.993  0.00  0.00    -0.059 A 
ATOM     34  C   LIG d   1       4.274  -1.107  -1.922  0.00  0.00    -0.061 A 
ATOM     35  H   LIG d   1       4.550  -2.879  -3.086  0.00  0.00     0.062 H 
ATOM     36  C   LIG d   1       4.551   0.243  -1.806  0.00  0.00    -0.062 A 
ATOM     37  H   LIG d   1       3.668  -1.599  -1.176  0.00  0.00     0.062 H 
ATOM     38  C   LIG d   1       5.328   0.873  -2.761  0.00  0.00    -0.061 A 
ATOM     39  H   LIG d   1       4.162   0.805  -0.971  0.00  0.00     0.062 H 
ATOM     40  C   LIG d   1       5.826   0.153  -3.831  0.00  0.00    -0.059 A 
ATOM     41  H   LIG d   1       5.545   1.927  -2.672  0.00  0.00     0.062 H 
ATOM     42  H   LIG d   1       6.433   0.645  -4.577  0.00  0.00     0.062 H 
ENDBRANCH  29  32
ENDBRANCH  27  29
BRANCH  27  43
ATOM     43  C   LIG d   1       4.621  -2.954  -6.852  0.00  0.00     0.108 A 
ATOM     44  O   LIG d   1       4.402  -4.058  -6.118  0.00  0.00    -0.468 OA
ATOM     45  C   LIG d   1       3.811  -4.992  -6.881  0.00  0.00     0.092 A 
ATOM     46  C   LIG d   1       3.654  -4.493  -8.120  0.00  0.00    -0.024 A 
ATOM     47  H   LIG d   1       3.515  -5.979  -6.555  0.00  0.00     0.103 H 
ATOM     48  C   LIG d   1       4.176  -3.180  -8.101  0.00  0.00    -0.020 A 
ATOM     49  H   LIG d   1       3.213  -4.999  -8.967  0.00  0.00     0.065 H 
ATOM     50  H   LIG d   1       4.211  -2.488  -8.931  0.00  0.00     0.065 H 
ENDBRANCH  27  43
ENDBRANCH   1  27
TORSDOF 9
ENDMDL
MODEL 10
REMARK VINA RESULT:      -5.5      2.076      5.578
REMARK  9 active torsions:
REMARK  status: ('A' for Active; 'I' for Inactive)
REMARK    1  A    between atoms: C_1  and  C_2 
REMARK    2  A    between atoms: C_2  and  C_4 
REMARK    3  A    between atoms: C_2  and  N_10 
REMARK    4  A    between atoms: N_10  and  C_11 
REMARK    5  A    between atoms: C_11  and  C_12 
REMARK    6  A    between atoms: C_12  and  C_13 
REMARK    7  A    between atoms: C_13  and  C_15 
REMARK    8  A    between atoms: C_13  and  C_22 
REMARK    9  A    between atoms: C_15  and  C_16 
ROOT
ATOM      1  C   LIG d   1       5.366  -2.031  -5.308  0.00  0.00    -0.003 C 
ATOM      2  H   LIG d   1       4.865  -2.351  -4.394  0.00  0.00     0.032 H 
ATOM      3  H   LIG d   1       6.381  -2.429  -5.323  0.00  0.00     0.032 H 
ENDROOT
BRANCH   1   4
ATOM      4  C   LIG d   1       4.596  -2.553  -6.522  0.00  0.00    -0.032 C 
ATOM      5  H   LIG d   1       4.096  -3.485  -6.261  0.00  0.00     0.081 H 
ATOM      6  H   LIG d   1       5.291  -2.731  -7.344  0.00  0.00     0.081 H 
BRANCH   4   7
ATOM      7  N   LIG d   1       3.596  -1.558  -6.933  0.00  0.00     0.232 N 
ATOM      8  H   LIG d   1       3.896  -0.640  -6.642  0.00  0.00     0.202 HD
ATOM      9  H   LIG d   1       2.710  -1.774  -6.502  0.00  0.00     0.202 HD
BRANCH   7  10
ATOM     10  C   LIG d   1       3.450  -1.585  -8.395  0.00  0.00     0.000 C 
ATOM     11  H   LIG d   1       2.495  -2.042  -8.655  0.00  0.00     0.090 H 
BRANCH  10  12
ATOM     12  C   LIG d   1       4.590  -2.401  -9.007  0.00  0.00    -0.017 C 
ATOM     13  H   LIG d   1       4.812  -3.255  -8.365  0.00  0.00     0.029 H 
ATOM     14  H   LIG d   1       4.295  -2.756  -9.994  0.00  0.00     0.029 H 
ATOM     15  H   LIG d   1       5.478  -1.775  -9.096  0.00  0.00     0.029 H 
ENDBRANCH  10  12
BRANCH  10  16
ATOM     16  C   LIG d   1       3.496  -0.177  -8.930  0.00  0.00    -0.000 A 
ATOM     17  C   LIG d   1       3.175   0.886  -8.107  0.00  0.00    -0.053 A 
ATOM     18  C   LIG d   1       3.220   2.178  -8.596  0.00  0.00    -0.061 A 
ATOM     19  H   LIG d   1       2.891   0.708  -7.080  0.00  0.00     0.062 H 
ATOM     20  C   LIG d   1       3.578   2.406  -9.912  0.00  0.00    -0.062 A 
ATOM     21  H   LIG d   1       2.974   3.008  -7.952  0.00  0.00     0.062 H 
ATOM     22  C   LIG d   1       3.894   1.342 -10.737  0.00  0.00    -0.061 A 
ATOM     23  H   LIG d   1       3.612   3.415 -10.295  0.00  0.00     0.062 H 
ATOM     24  C   LIG d   1       3.852   0.051 -10.245  0.00  0.00    -0.053 A 
ATOM     25  H   LIG d   1       4.173   1.520 -11.765  0.00  0.00     0.062 H 
ATOM     26  H   LIG d   1       4.099  -0.780 -10.890  0.00  0.00     0.062 H 
ENDBRANCH  10  16
ENDBRANCH   7  10
ENDBRANCH   4   7
ENDBRANCH   1   4
BRANCH   1  27
ATOM     27  C   LIG d   1       5.416  -0.502  -5.354  0.00  0.00     0.026 C 
ATOM     28  H   LIG d   1       4.800  -0.143  -6.178  0.00  0.00     0.038 H 
BRANCH  27  29
ATOM     29  C   LIG d   1       6.862  -0.046  -5.562  0.00  0.00    -0.018 C 
ATOM     30  H   LIG d   1       7.029   0.890  -5.029  0.00  0.00     0.032 H 
ATOM     31  H   LIG d   1       7.542  -0.807  -5.180  0.00  0.00     0.032 H 
BRANCH  29  32
ATOM     32  C   LIG d   1       7.117   0.161  -7.033  0.00  0.00    -0.047 A 
ATOM     33  C   LIG d   1       7.661  -0.860  -7.791  0.00  0.00    -0.059 A 
ATOM     34  C   LIG d   1       7.891  -0.672  -9.140  0.00  0.00    -0.061 A 
ATOM     35  H   LIG d   1       7.903  -1.805  -7.327  0.00  0.00     0.062 H 
ATOM     36  C   LIG d   1       7.585   0.540  -9.732  0.00  0.00    -0.062 A 
ATOM     37  H   LIG d   1       8.312  -1.471  -9.733  0.00  0.00     0.062 H 
ATOM     38  C   LIG d   1       7.046   1.562  -8.973  0.00  0.00    -0.061 A 
ATOM     39  H   LIG d   1       7.767   0.688 -10.785  0.00  0.00     0.062 H 
ATOM     40  C   LIG d   1       6.813   1.373  -7.624  0.00  0.00    -0.059 A 
ATOM     41  H   LIG d   1       6.807   2.509  -9.435  0.00  0.00     0.062 H 
ATOM     42  H   LIG d   1       6.392   2.172  -7.031  0.00  0.00     0.062 H 
ENDBRANCH  29  32
ENDBRANCH  27  29
BRANCH  27  43
ATOM     43  C   LIG d   1       4.896   0.057  -4.056  0.00  0.00     0.108 A 
ATOM     44  O   LIG d   1       5.624   0.281  -2.949  0.00  0.00    -0.468 OA
ATOM     45  C   LIG d   1       4.833   0.786  -1.988  0.00  0.00     0.092 A 
ATOM     46  C   LIG d   1       3.582   0.880  -2.473  0.00  0.00    -0.024 A 
ATOM     47  H   LIG d   1       5.148   1.064  -0.992  0.00  0.00     0.103 H 
ATOM     48  C   LIG d   1       3.623   0.411  -3.805  0.00  0.00    -0.020 A 
ATOM     49  H   LIG d   1       2.713   1.246  -1.945  0.00  0.00     0.065 H 
ATOM     50  H   LIG d   1       2.791   0.349  -4.492  0.00  0.00     0.065 H 
ENDBRANCH  27  43
ENDBRANCH   1  27
TORSDOF 9
ENDMDL
