MODEL 1
REMARK VINA RESULT:      -6.6      0.000      0.000
REMARK  4 active torsions:
REMARK  status: ('A' for Active; 'I' for Inactive)
REMARK    1  A    between atoms: C_6  and  C_7 
REMARK    2  A    between atoms: C_10  and  C_13 
REMARK    3  A    between atoms: C_15  and  N_20 
REMARK    4  A    between atoms: C_18  and  O_19 
ROOT
ATOM      1  C   LIG d   1       3.852   0.695  -8.852  0.00  0.00     0.068 A 
ATOM      2  H   LIG d   1       4.616   1.342  -9.285  0.00  0.00     0.057 H 
ATOM      3  C   LIG d   1       4.491  -0.345  -7.911  0.00  0.00     0.016 A 
ATOM      4  C   LIG d   1       3.874  -0.044  -6.564  0.00  0.00     0.072 A 
ATOM      5  N   LIG d   1       3.058   0.946  -6.676  0.00  0.00    -0.190 NA
ATOM      6  N   LIG d   1       2.962   1.464  -7.968  0.00  0.00    -0.261 N 
ATOM      7  H   LIG d   1       4.237  -1.357  -8.230  0.00  0.00     0.035 H 
ATOM      8  H   LIG d   1       5.573  -0.215  -7.875  0.00  0.00     0.035 H 
ATOM      9  H   LIG d   1       2.401   2.208  -8.241  0.00  0.00     0.169 HD
ENDROOT
BRANCH   4  10
ATOM     10  C   LIG d   1       4.163  -0.772  -5.315  0.00  0.00     0.046 A 
ATOM     11  C   LIG d   1       3.209  -0.818  -4.290  0.00  0.00     0.126 A 
ATOM     12  C   LIG d   1       3.487  -1.509  -3.122  0.00  0.00    -0.013 A 
ATOM     13  C   LIG d   1       4.707  -2.142  -2.965  0.00  0.00     0.019 A 
ATOM     14  H   LIG d   1       2.753  -1.551  -2.331  0.00  0.00     0.066 H 
ATOM     15  C   LIG d   1       5.655  -2.094  -3.973  0.00  0.00     0.274 A 
ATOM     16  H   LIG d   1       4.922  -2.675  -2.051  0.00  0.00     0.069 H 
ATOM     17  C   LIG d   1       5.391  -1.415  -5.144  0.00  0.00     0.028 A 
ATOM     18  H   LIG d   1       6.132  -1.380  -5.928  0.00  0.00     0.069 H 
BRANCH  11  19
ATOM     19  O   LIG d   1       2.014  -0.191  -4.441  0.00  0.00    -0.506 OA
ATOM     20  H   LIG d   1       1.492  -0.136  -3.628  0.00  0.00     0.292 HD
ENDBRANCH  11  19
BRANCH  15  21
ATOM     21  N   LIG d   1       6.956  -2.776  -3.793  0.00  0.00     0.080 N 
ATOM     22  O   LIG d   1       7.741  -2.372  -2.967  0.00  0.00     0.041 OA
ATOM     23  O   LIG d   1       7.234  -3.736  -4.472  0.00  0.00    -0.576 OA
ENDBRANCH  15  21
ENDBRANCH   4  10
BRANCH   1  24
ATOM     24  C   LIG d   1       3.061   0.013  -9.939  0.00  0.00    -0.025 A 
ATOM     25  C   LIG d   1       3.634  -0.205 -11.177  0.00  0.00    -0.055 A 
ATOM     26  C   LIG d   1       2.909  -0.831 -12.174  0.00  0.00    -0.043 A 
ATOM     27  H   LIG d   1       4.649   0.110 -11.366  0.00  0.00     0.062 H 
ATOM     28  C   LIG d   1       1.609  -1.240 -11.931  0.00  0.00     0.041 A 
ATOM     29  H   LIG d   1       3.356  -1.001 -13.142  0.00  0.00     0.063 H 
ATOM     30  C   LIG d   1       1.037  -1.021 -10.691  0.00  0.00    -0.043 A 
ATOM     31 CL   LIG d   1       0.698  -2.026 -13.182  0.00  0.00    -0.084 Cl
ATOM     32  C   LIG d   1       1.763  -0.395  -9.695  0.00  0.00    -0.055 A 
ATOM     33  H   LIG d   1       0.023  -1.340 -10.500  0.00  0.00     0.063 H 
ATOM     34  H   LIG d   1       1.316  -0.225  -8.727  0.00  0.00     0.062 H 
ENDBRANCH   1  24
TORSDOF 4
ENDMDL
MODEL 2
REMARK VINA RESULT:      -6.5      4.711      7.798
REMARK  4 active torsions:
REMARK  status: ('A' for Active; 'I' for Inactive)
REMARK    1  A    between atoms: C_6  and  C_7 
REMARK    2  A    between atoms: C_10  and  C_13 
REMARK    3  A    between atoms: C_15  and  N_20 
REMARK    4  A    between atoms: C_18  and  O_19 
ROOT
ATOM      1  C   LIG d   1       5.358  -4.045  -5.057  0.00  0.00     0.068 A 
ATOM      2  H   LIG d   1       6.328  -4.507  -4.876  0.00  0.00     0.057 H 
ATOM      3  C   LIG d   1       5.212  -3.651  -6.539  0.00  0.00     0.016 A 
ATOM      4  C   LIG d   1       4.029  -4.463  -7.017  0.00  0.00     0.072 A 
ATOM      5  N   LIG d   1       3.576  -5.176  -6.045  0.00  0.00    -0.190 NA
ATOM      6  N   LIG d   1       4.273  -5.018  -4.847  0.00  0.00    -0.261 N 
ATOM      7  H   LIG d   1       5.006  -2.584  -6.633  0.00  0.00     0.035 H 
ATOM      8  H   LIG d   1       6.110  -3.918  -7.097  0.00  0.00     0.035 H 
ATOM      9  H   LIG d   1       4.078  -5.472  -4.012  0.00  0.00     0.169 HD
ENDROOT
BRANCH   4  10
ATOM     10  C   LIG d   1       3.480  -4.441  -8.386  0.00  0.00     0.046 A 
ATOM     11  C   LIG d   1       3.187  -5.641  -9.046  0.00  0.00     0.126 A 
ATOM     12  C   LIG d   1       2.665  -5.611 -10.329  0.00  0.00    -0.013 A 
ATOM     13  C   LIG d   1       2.447  -4.400 -10.959  0.00  0.00     0.019 A 
ATOM     14  H   LIG d   1       2.433  -6.534 -10.839  0.00  0.00     0.066 H 
ATOM     15  C   LIG d   1       2.741  -3.211 -10.313  0.00  0.00     0.274 A 
ATOM     16  H   LIG d   1       2.046  -4.380 -11.961  0.00  0.00     0.069 H 
ATOM     17  C   LIG d   1       3.255  -3.224  -9.033  0.00  0.00     0.028 A 
ATOM     18  H   LIG d   1       3.483  -2.296  -8.532  0.00  0.00     0.069 H 
BRANCH  11  19
ATOM     19  O   LIG d   1       3.407  -6.831  -8.429  0.00  0.00    -0.506 OA
ATOM     20  H   LIG d   1       3.833  -7.494  -8.991  0.00  0.00     0.292 HD
ENDBRANCH  11  19
BRANCH  15  21
ATOM     21  N   LIG d   1       2.503  -1.921 -10.998  0.00  0.00     0.080 N 
ATOM     22  O   LIG d   1       2.942  -1.736 -12.109  0.00  0.00     0.041 OA
ATOM     23  O   LIG d   1       1.868  -1.053 -10.447  0.00  0.00    -0.576 OA
ENDBRANCH  15  21
ENDBRANCH   4  10
BRANCH   1  24
ATOM     24  C   LIG d   1       5.172  -2.843  -4.167  0.00  0.00    -0.025 A 
ATOM     25  C   LIG d   1       6.020  -1.758  -4.285  0.00  0.00    -0.055 A 
ATOM     26  C   LIG d   1       5.850  -0.655  -3.468  0.00  0.00    -0.043 A 
ATOM     27  H   LIG d   1       6.814  -1.771  -5.016  0.00  0.00     0.062 H 
ATOM     28  C   LIG d   1       4.829  -0.637  -2.535  0.00  0.00     0.041 A 
ATOM     29  H   LIG d   1       6.513   0.192  -3.560  0.00  0.00     0.063 H 
ATOM     30  C   LIG d   1       3.980  -1.723  -2.418  0.00  0.00    -0.043 A 
ATOM     31 CL   LIG d   1       4.614   0.747  -1.510  0.00  0.00    -0.084 Cl
ATOM     32  C   LIG d   1       4.152  -2.825  -3.234  0.00  0.00    -0.055 A 
ATOM     33  H   LIG d   1       3.183  -1.710  -1.689  0.00  0.00     0.063 H 
ATOM     34  H   LIG d   1       3.489  -3.673  -3.143  0.00  0.00     0.062 H 
ENDBRANCH   1  24
TORSDOF 4
ENDMDL
MODEL 3
REMARK VINA RESULT:      -6.4      7.181      8.867
REMARK  4 active torsions:
REMARK  status: ('A' for Active; 'I' for Inactive)
REMARK    1  A    between atoms: C_6  and  C_7 
REMARK    2  A    between atoms: C_10  and  C_13 
REMARK    3  A    between atoms: C_15  and  N_20 
REMARK    4  A    between atoms: C_18  and  O_19 
ROOT
ATOM      1  C   LIG d   1       8.564   0.929  -4.752  0.00  0.00     0.068 A 
ATOM      2  H   LIG d   1       9.249   0.194  -5.175  0.00  0.00     0.057 H 
ATOM      3  C   LIG d   1       9.307   1.871  -3.785  0.00  0.00     0.016 A 
ATOM      4  C   LIG d   1       9.137   3.239  -4.406  0.00  0.00     0.072 A 
ATOM      5  N   LIG d   1       8.452   3.136  -5.492  0.00  0.00    -0.190 NA
ATOM      6  N   LIG d   1       8.061   1.832  -5.800  0.00  0.00    -0.261 N 
ATOM      7  H   LIG d   1       8.850   1.841  -2.795  0.00  0.00     0.035 H 
ATOM      8  H   LIG d   1      10.363   1.606  -3.727  0.00  0.00     0.035 H 
ATOM      9  H   LIG d   1       7.543   1.563  -6.575  0.00  0.00     0.169 HD
ENDROOT
BRANCH   4  10
ATOM     10  C   LIG d   1       9.673   4.497  -3.853  0.00  0.00     0.046 A 
ATOM     11  C   LIG d   1       9.892   5.597  -4.692  0.00  0.00     0.126 A 
ATOM     12  C   LIG d   1      10.390   6.777  -4.163  0.00  0.00    -0.013 A 
ATOM     13  C   LIG d   1      10.681   6.862  -2.814  0.00  0.00     0.019 A 
ATOM     14  H   LIG d   1      10.556   7.629  -4.805  0.00  0.00     0.066 H 
ATOM     15  C   LIG d   1      10.472   5.775  -1.982  0.00  0.00     0.274 A 
ATOM     16  H   LIG d   1      11.074   7.781  -2.406  0.00  0.00     0.069 H 
ATOM     17  C   LIG d   1       9.970   4.595  -2.493  0.00  0.00     0.028 A 
ATOM     18  H   LIG d   1       9.808   3.750  -1.841  0.00  0.00     0.069 H 
BRANCH  11  19
ATOM     19  O   LIG d   1       9.612   5.511  -6.019  0.00  0.00    -0.506 OA
ATOM     20  H   LIG d   1       8.791   5.041  -6.218  0.00  0.00     0.292 HD
ENDBRANCH  11  19
BRANCH  15  21
ATOM     21  N   LIG d   1      10.787   5.879  -0.540  0.00  0.00     0.080 N 
ATOM     22  O   LIG d   1      11.648   5.182  -0.057  0.00  0.00     0.041 OA
ATOM     23  O   LIG d   1      10.182   6.661   0.155  0.00  0.00    -0.576 OA
ENDBRANCH  15  21
ENDBRANCH   4  10
BRANCH   1  24
ATOM     24  C   LIG d   1       7.421   0.242  -4.050  0.00  0.00    -0.025 A 
ATOM     25  C   LIG d   1       7.319  -1.136  -4.083  0.00  0.00    -0.055 A 
ATOM     26  C   LIG d   1       6.270  -1.767  -3.439  0.00  0.00    -0.043 A 
ATOM     27  H   LIG d   1       8.059  -1.720  -4.608  0.00  0.00     0.062 H 
ATOM     28  C   LIG d   1       5.324  -1.018  -2.761  0.00  0.00     0.041 A 
ATOM     29  H   LIG d   1       6.190  -2.844  -3.464  0.00  0.00     0.063 H 
ATOM     30  C   LIG d   1       5.427   0.361  -2.729  0.00  0.00    -0.043 A 
ATOM     31 CL   LIG d   1       4.007  -1.809  -1.953  0.00  0.00    -0.084 Cl
ATOM     32  C   LIG d   1       6.476   0.990  -3.373  0.00  0.00    -0.055 A 
ATOM     33  H   LIG d   1       4.689   0.946  -2.201  0.00  0.00     0.063 H 
ATOM     34  H   LIG d   1       6.557   2.067  -3.348  0.00  0.00     0.062 H 
ENDBRANCH   1  24
TORSDOF 4
ENDMDL
MODEL 4
REMARK VINA RESULT:      -6.3      6.584      8.701
REMARK  4 active torsions:
REMARK  status: ('A' for Active; 'I' for Inactive)
REMARK    1  A    between atoms: C_6  and  C_7 
REMARK    2  A    between atoms: C_10  and  C_13 
REMARK    3  A    between atoms: C_15  and  N_20 
REMARK    4  A    between atoms: C_18  and  O_19 
ROOT
ATOM      1  C   LIG d   1       9.460   3.174  -5.039  0.00  0.00     0.068 A 
ATOM      2  H   LIG d   1       9.680   3.330  -6.095  0.00  0.00     0.057 H 
ATOM      3  C   LIG d   1       8.050   2.578  -4.860  0.00  0.00     0.016 A 
ATOM      4  C   LIG d   1       8.300   1.245  -4.192  0.00  0.00     0.072 A 
ATOM      5  N   LIG d   1       9.565   1.083  -4.014  0.00  0.00    -0.190 NA
ATOM      6  N   LIG d   1      10.347   2.146  -4.471  0.00  0.00    -0.261 N 
ATOM      7  H   LIG d   1       7.442   3.218  -4.220  0.00  0.00     0.035 H 
ATOM      8  H   LIG d   1       7.568   2.437  -5.828  0.00  0.00     0.035 H 
ATOM      9  H   LIG d   1      11.315   2.200  -4.423  0.00  0.00     0.169 HD
ENDROOT
BRANCH   4  10
ATOM     10  C   LIG d   1       7.255   0.279  -3.804  0.00  0.00     0.046 A 
ATOM     11  C   LIG d   1       7.492  -1.098  -3.918  0.00  0.00     0.126 A 
ATOM     12  C   LIG d   1       6.507  -1.998  -3.545  0.00  0.00    -0.013 A 
ATOM     13  C   LIG d   1       5.291  -1.538  -3.075  0.00  0.00     0.019 A 
ATOM     14  H   LIG d   1       6.688  -3.059  -3.626  0.00  0.00     0.066 H 
ATOM     15  C   LIG d   1       5.050  -0.179  -2.968  0.00  0.00     0.274 A 
ATOM     16  H   LIG d   1       4.524  -2.243  -2.791  0.00  0.00     0.069 H 
ATOM     17  C   LIG d   1       6.023   0.730  -3.328  0.00  0.00     0.028 A 
ATOM     18  H   LIG d   1       5.832   1.789  -3.242  0.00  0.00     0.069 H 
BRANCH  11  19
ATOM     19  O   LIG d   1       8.685  -1.549  -4.386  0.00  0.00    -0.506 OA
ATOM     20  H   LIG d   1       9.436  -1.347  -3.810  0.00  0.00     0.292 HD
ENDBRANCH  11  19
BRANCH  15  21
ATOM     21  N   LIG d   1       3.745   0.300  -2.462  0.00  0.00     0.080 N 
ATOM     22  O   LIG d   1       2.744  -0.348  -2.662  0.00  0.00     0.041 OA
ATOM     23  O   LIG d   1       3.678   1.340  -1.850  0.00  0.00    -0.576 OA
ENDBRANCH  15  21
ENDBRANCH   4  10
BRANCH   1  24
ATOM     24  C   LIG d   1       9.590   4.467  -4.275  0.00  0.00    -0.025 A 
ATOM     25  C   LIG d   1       9.921   4.446  -2.934  0.00  0.00    -0.055 A 
ATOM     26  C   LIG d   1      10.041   5.632  -2.232  0.00  0.00    -0.043 A 
ATOM     27  H   LIG d   1      10.089   3.504  -2.433  0.00  0.00     0.062 H 
ATOM     28  C   LIG d   1       9.831   6.839  -2.875  0.00  0.00     0.041 A 
ATOM     29  H   LIG d   1      10.299   5.616  -1.184  0.00  0.00     0.063 H 
ATOM     30  C   LIG d   1       9.499   6.859  -4.218  0.00  0.00    -0.043 A 
ATOM     31 CL   LIG d   1       9.981   8.329  -1.996  0.00  0.00    -0.084 Cl
ATOM     32  C   LIG d   1       9.380   5.673  -4.917  0.00  0.00    -0.055 A 
ATOM     33  H   LIG d   1       9.335   7.801  -4.720  0.00  0.00     0.063 H 
ATOM     34  H   LIG d   1       9.122   5.688  -5.966  0.00  0.00     0.062 H 
ENDBRANCH   1  24
TORSDOF 4
ENDMDL
MODEL 5
REMARK VINA RESULT:      -6.2      6.510      8.304
REMARK  4 active torsions:
REMARK  status: ('A' for Active; 'I' for Inactive)
REMARK    1  A    between atoms: C_6  and  C_7 
REMARK    2  A    between atoms: C_10  and  C_13 
REMARK    3  A    between atoms: C_15  and  N_20 
REMARK    4  A    between atoms: C_18  and  O_19 
ROOT
ATOM      1  C   LIG d   1      10.179   3.221  -5.493  0.00  0.00     0.068 A 
ATOM      2  H   LIG d   1      10.899   2.867  -6.230  0.00  0.00     0.057 H 
ATOM      3  C   LIG d   1       8.848   2.454  -5.621  0.00  0.00     0.016 A 
ATOM      4  C   LIG d   1       8.691   1.770  -4.282  0.00  0.00     0.072 A 
ATOM      5  N   LIG d   1       9.695   2.062  -3.530  0.00  0.00    -0.190 NA
ATOM      6  N   LIG d   1      10.634   2.903  -4.130  0.00  0.00    -0.261 N 
ATOM      7  H   LIG d   1       8.023   3.145  -5.797  0.00  0.00     0.035 H 
ATOM      8  H   LIG d   1       8.907   1.717  -6.423  0.00  0.00     0.035 H 
ATOM      9  H   LIG d   1      11.451   3.226  -3.718  0.00  0.00     0.169 HD
ENDROOT
BRANCH   4  10
ATOM     10  C   LIG d   1       7.562   0.904  -3.897  0.00  0.00     0.046 A 
ATOM     11  C   LIG d   1       7.707  -0.490  -3.913  0.00  0.00     0.126 A 
ATOM     12  C   LIG d   1       6.642  -1.296  -3.544  0.00  0.00    -0.013 A 
ATOM     13  C   LIG d   1       5.438  -0.726  -3.173  0.00  0.00     0.019 A 
ATOM     14  H   LIG d   1       6.751  -2.370  -3.550  0.00  0.00     0.066 H 
ATOM     15  C   LIG d   1       5.288   0.650  -3.162  0.00  0.00     0.274 A 
ATOM     16  H   LIG d   1       4.609  -1.358  -2.891  0.00  0.00     0.069 H 
ATOM     17  C   LIG d   1       6.341   1.467  -3.520  0.00  0.00     0.028 A 
ATOM     18  H   LIG d   1       6.221   2.540  -3.510  0.00  0.00     0.069 H 
BRANCH  11  19
ATOM     19  O   LIG d   1       8.887  -1.049  -4.284  0.00  0.00    -0.506 OA
ATOM     20  H   LIG d   1       9.092  -1.877  -3.826  0.00  0.00     0.292 HD
ENDBRANCH  11  19
BRANCH  15  21
ATOM     21  N   LIG d   1       3.995   1.248  -2.762  0.00  0.00     0.080 N 
ATOM     22  O   LIG d   1       3.573   2.220  -3.343  0.00  0.00     0.041 OA
ATOM     23  O   LIG d   1       3.361   0.765  -1.853  0.00  0.00    -0.576 OA
ENDBRANCH  15  21
ENDBRANCH   4  10
BRANCH   1  24
ATOM     24  C   LIG d   1       9.954   4.703  -5.645  0.00  0.00    -0.025 A 
ATOM     25  C   LIG d   1       9.521   5.450  -4.565  0.00  0.00    -0.055 A 
ATOM     26  C   LIG d   1       9.315   6.811  -4.703  0.00  0.00    -0.043 A 
ATOM     27  H   LIG d   1       9.348   4.972  -3.613  0.00  0.00     0.062 H 
ATOM     28  C   LIG d   1       9.543   7.423  -5.923  0.00  0.00     0.041 A 
ATOM     29  H   LIG d   1       8.977   7.394  -3.860  0.00  0.00     0.063 H 
ATOM     30  C   LIG d   1       9.975   6.675  -7.003  0.00  0.00    -0.043 A 
ATOM     31 CL   LIG d   1       9.284   9.131  -6.097  0.00  0.00    -0.084 Cl
ATOM     32  C   LIG d   1      10.181   5.316  -6.863  0.00  0.00    -0.055 A 
ATOM     33  H   LIG d   1      10.153   7.153  -7.955  0.00  0.00     0.063 H 
ATOM     34  H   LIG d   1      10.519   4.732  -7.706  0.00  0.00     0.062 H 
ENDBRANCH   1  24
TORSDOF 4
ENDMDL
MODEL 6
REMARK VINA RESULT:      -5.9      5.184      7.768
REMARK  4 active torsions:
REMARK  status: ('A' for Active; 'I' for Inactive)
REMARK    1  A    between atoms: C_6  and  C_7 
REMARK    2  A    between atoms: C_10  and  C_13 
REMARK    3  A    between atoms: C_15  and  N_20 
REMARK    4  A    between atoms: C_18  and  O_19 
ROOT
ATOM      1  C   LIG d   1       5.374  -4.056  -5.031  0.00  0.00     0.068 A 
ATOM      2  H   LIG d   1       6.326  -4.538  -4.807  0.00  0.00     0.057 H 
ATOM      3  C   LIG d   1       5.302  -3.661  -6.518  0.00  0.00     0.016 A 
ATOM      4  C   LIG d   1       4.124  -4.448  -7.047  0.00  0.00     0.072 A 
ATOM      5  N   LIG d   1       3.613  -5.150  -6.095  0.00  0.00    -0.190 NA
ATOM      6  N   LIG d   1       4.261  -5.005  -4.867  0.00  0.00    -0.261 N 
ATOM      7  H   LIG d   1       5.123  -2.590  -6.622  0.00  0.00     0.035 H 
ATOM      8  H   LIG d   1       6.218  -3.948  -7.036  0.00  0.00     0.035 H 
ATOM      9  H   LIG d   1       4.019  -5.453  -4.041  0.00  0.00     0.169 HD
ENDROOT
BRANCH   4  10
ATOM     10  C   LIG d   1       3.636  -4.417  -8.438  0.00  0.00     0.046 A 
ATOM     11  C   LIG d   1       3.178  -3.217  -8.996  0.00  0.00     0.126 A 
ATOM     12  C   LIG d   1       2.727  -3.196 -10.306  0.00  0.00    -0.013 A 
ATOM     13  C   LIG d   1       2.717  -4.358 -11.054  0.00  0.00     0.019 A 
ATOM     14  H   LIG d   1       2.377  -2.271 -10.742  0.00  0.00     0.066 H 
ATOM     15  C   LIG d   1       3.163  -5.548 -10.505  0.00  0.00     0.274 A 
ATOM     16  H   LIG d   1       2.360  -4.339 -12.073  0.00  0.00     0.069 H 
ATOM     17  C   LIG d   1       3.622  -5.585  -9.204  0.00  0.00     0.028 A 
ATOM     18  H   LIG d   1       3.969  -6.514  -8.779  0.00  0.00     0.069 H 
BRANCH  11  19
ATOM     19  O   LIG d   1       3.181  -2.076  -8.259  0.00  0.00    -0.506 OA
ATOM     20  H   LIG d   1       3.864  -2.051  -7.574  0.00  0.00     0.292 HD
ENDBRANCH  11  19
BRANCH  15  21
ATOM     21  N   LIG d   1       3.150  -6.785 -11.316  0.00  0.00     0.080 N 
ATOM     22  O   LIG d   1       2.330  -7.646 -11.093  0.00  0.00     0.041 OA
ATOM     23  O   LIG d   1       3.958  -6.937 -12.201  0.00  0.00    -0.576 OA
ENDBRANCH  15  21
ENDBRANCH   4  10
BRANCH   1  24
ATOM     24  C   LIG d   1       5.175  -2.848  -4.151  0.00  0.00    -0.025 A 
ATOM     25  C   LIG d   1       6.008  -1.753  -4.282  0.00  0.00    -0.055 A 
ATOM     26  C   LIG d   1       5.825  -0.645  -3.475  0.00  0.00    -0.043 A 
ATOM     27  H   LIG d   1       6.799  -1.761  -5.017  0.00  0.00     0.062 H 
ATOM     28  C   LIG d   1       4.808  -0.633  -2.537  0.00  0.00     0.041 A 
ATOM     29  H   LIG d   1       6.476   0.211  -3.578  0.00  0.00     0.063 H 
ATOM     30  C   LIG d   1       3.976  -1.730  -2.406  0.00  0.00    -0.043 A 
ATOM     31 CL   LIG d   1       4.578   0.758  -1.524  0.00  0.00    -0.084 Cl
ATOM     32  C   LIG d   1       4.159  -2.836  -3.214  0.00  0.00    -0.055 A 
ATOM     33  H   LIG d   1       3.182  -1.721  -1.674  0.00  0.00     0.063 H 
ATOM     34  H   LIG d   1       3.509  -3.693  -3.111  0.00  0.00     0.062 H 
ENDBRANCH   1  24
TORSDOF 4
ENDMDL
MODEL 7
REMARK VINA RESULT:      -5.9      6.316      8.296
REMARK  4 active torsions:
REMARK  status: ('A' for Active; 'I' for Inactive)
REMARK    1  A    between atoms: C_6  and  C_7 
REMARK    2  A    between atoms: C_10  and  C_13 
REMARK    3  A    between atoms: C_15  and  N_20 
REMARK    4  A    between atoms: C_18  and  O_19 
ROOT
ATOM      1  C   LIG d   1       6.521  -3.961  -5.827  0.00  0.00     0.068 A 
ATOM      2  H   LIG d   1       6.733  -3.408  -6.743  0.00  0.00     0.057 H 
ATOM      3  C   LIG d   1       5.504  -5.087  -6.095  0.00  0.00     0.016 A 
ATOM      4  C   LIG d   1       6.258  -6.349  -5.744  0.00  0.00     0.072 A 
ATOM      5  N   LIG d   1       7.448  -6.046  -5.357  0.00  0.00    -0.190 NA
ATOM      6  N   LIG d   1       7.720  -4.678  -5.365  0.00  0.00    -0.261 N 
ATOM      7  H   LIG d   1       4.629  -4.973  -5.453  0.00  0.00     0.035 H 
ATOM      8  H   LIG d   1       5.210  -5.096  -7.145  0.00  0.00     0.035 H 
ATOM      9  H   LIG d   1       8.561  -4.264  -5.108  0.00  0.00     0.169 HD
ENDROOT
BRANCH   4  10
ATOM     10  C   LIG d   1       5.713  -7.717  -5.831  0.00  0.00     0.046 A 
ATOM     11  C   LIG d   1       5.868  -8.463  -7.006  0.00  0.00     0.126 A 
ATOM     12  C   LIG d   1       5.358  -9.749  -7.077  0.00  0.00    -0.013 A 
ATOM     13  C   LIG d   1       4.688 -10.289  -5.995  0.00  0.00     0.019 A 
ATOM     14  H   LIG d   1       5.481 -10.329  -7.979  0.00  0.00     0.066 H 
ATOM     15  C   LIG d   1       4.526  -9.553  -4.833  0.00  0.00     0.274 A 
ATOM     16  H   LIG d   1       4.287 -11.290  -6.056  0.00  0.00     0.069 H 
ATOM     17  C   LIG d   1       5.034  -8.273  -4.745  0.00  0.00     0.028 A 
ATOM     18  H   LIG d   1       4.906  -7.702  -3.837  0.00  0.00     0.069 H 
BRANCH  11  19
ATOM     19  O   LIG d   1       6.521  -7.930  -8.072  0.00  0.00    -0.506 OA
ATOM     20  H   LIG d   1       6.628  -8.542  -8.814  0.00  0.00     0.292 HD
ENDBRANCH  11  19
BRANCH  15  21
ATOM     21  N   LIG d   1       3.807 -10.142  -3.682  0.00  0.00     0.080 N 
ATOM     22  O   LIG d   1       4.416 -10.455  -2.685  0.00  0.00     0.041 OA
ATOM     23  O   LIG d   1       2.612 -10.311  -3.737  0.00  0.00    -0.576 OA
ENDBRANCH  15  21
ENDBRANCH   4  10
BRANCH   1  24
ATOM     24  C   LIG d   1       6.014  -3.030  -4.755  0.00  0.00    -0.025 A 
ATOM     25  C   LIG d   1       4.728  -3.174  -4.268  0.00  0.00    -0.055 A 
ATOM     26  C   LIG d   1       4.262  -2.321  -3.284  0.00  0.00    -0.043 A 
ATOM     27  H   LIG d   1       4.089  -3.955  -4.652  0.00  0.00     0.062 H 
ATOM     28  C   LIG d   1       5.083  -1.324  -2.788  0.00  0.00     0.041 A 
ATOM     29  H   LIG d   1       3.258  -2.434  -2.903  0.00  0.00     0.063 H 
ATOM     30  C   LIG d   1       6.369  -1.181  -3.277  0.00  0.00    -0.043 A 
ATOM     31 CL   LIG d   1       4.499  -0.253  -1.553  0.00  0.00    -0.084 Cl
ATOM     32  C   LIG d   1       6.834  -2.034  -4.260  0.00  0.00    -0.055 A 
ATOM     33  H   LIG d   1       7.011  -0.403  -2.890  0.00  0.00     0.063 H 
ATOM     34  H   LIG d   1       7.838  -1.922  -4.641  0.00  0.00     0.062 H 
ENDBRANCH   1  24
TORSDOF 4
ENDMDL
MODEL 8
REMARK VINA RESULT:      -5.9      5.408      7.711
REMARK  4 active torsions:
REMARK  status: ('A' for Active; 'I' for Inactive)
REMARK    1  A    between atoms: C_6  and  C_7 
REMARK    2  A    between atoms: C_10  and  C_13 
REMARK    3  A    between atoms: C_15  and  N_20 
REMARK    4  A    between atoms: C_18  and  O_19 
ROOT
ATOM      1  C   LIG d   1       4.778  -3.294  -5.856  0.00  0.00     0.068 A 
ATOM      2  H   LIG d   1       4.011  -3.082  -6.602  0.00  0.00     0.057 H 
ATOM      3  C   LIG d   1       4.603  -4.714  -5.285  0.00  0.00     0.016 A 
ATOM      4  C   LIG d   1       5.889  -5.417  -5.655  0.00  0.00     0.072 A 
ATOM      5  N   LIG d   1       6.654  -4.604  -6.298  0.00  0.00    -0.190 NA
ATOM      6  N   LIG d   1       6.110  -3.331  -6.479  0.00  0.00    -0.261 N 
ATOM      7  H   LIG d   1       4.485  -4.679  -4.201  0.00  0.00     0.035 H 
ATOM      8  H   LIG d   1       3.749  -5.210  -5.747  0.00  0.00     0.035 H 
ATOM      9  H   LIG d   1       6.539  -2.591  -6.940  0.00  0.00     0.169 HD
ENDROOT
BRANCH   4  10
ATOM     10  C   LIG d   1       6.218  -6.817  -5.329  0.00  0.00     0.046 A 
ATOM     11  C   LIG d   1       7.537  -7.179  -5.030  0.00  0.00     0.126 A 
ATOM     12  C   LIG d   1       7.835  -8.496  -4.720  0.00  0.00    -0.013 A 
ATOM     13  C   LIG d   1       6.835  -9.450  -4.717  0.00  0.00     0.019 A 
ATOM     14  H   LIG d   1       8.851  -8.778  -4.484  0.00  0.00     0.066 H 
ATOM     15  C   LIG d   1       5.531  -9.098  -5.018  0.00  0.00     0.274 A 
ATOM     16  H   LIG d   1       7.073 -10.477  -4.480  0.00  0.00     0.069 H 
ATOM     17  C   LIG d   1       5.216  -7.790  -5.323  0.00  0.00     0.028 A 
ATOM     18  H   LIG d   1       4.198  -7.519  -5.557  0.00  0.00     0.069 H 
BRANCH  11  19
ATOM     19  O   LIG d   1       8.521  -6.242  -5.039  0.00  0.00    -0.506 OA
ATOM     20  H   LIG d   1       8.297  -5.441  -5.533  0.00  0.00     0.292 HD
ENDBRANCH  11  19
BRANCH  15  21
ATOM     21  N   LIG d   1       4.469 -10.129  -5.012  0.00  0.00     0.080 N 
ATOM     22  O   LIG d   1       4.014 -10.536  -6.055  0.00  0.00     0.041 OA
ATOM     23  O   LIG d   1       4.055 -10.564  -3.963  0.00  0.00    -0.576 OA
ENDBRANCH  15  21
ENDBRANCH   4  10
BRANCH   1  24
ATOM     24  C   LIG d   1       4.737  -2.269  -4.752  0.00  0.00    -0.025 A 
ATOM     25  C   LIG d   1       5.043  -0.948  -5.024  0.00  0.00    -0.055 A 
ATOM     26  C   LIG d   1       5.006  -0.007  -4.011  0.00  0.00    -0.043 A 
ATOM     27  H   LIG d   1       5.307  -0.651  -6.027  0.00  0.00     0.062 H 
ATOM     28  C   LIG d   1       4.662  -0.388  -2.726  0.00  0.00     0.041 A 
ATOM     29  H   LIG d   1       5.244   1.024  -4.224  0.00  0.00     0.063 H 
ATOM     30  C   LIG d   1       4.356  -1.710  -2.455  0.00  0.00    -0.043 A 
ATOM     31 CL   LIG d   1       4.615   0.793  -1.454  0.00  0.00    -0.084 Cl
ATOM     32  C   LIG d   1       4.394  -2.649  -3.468  0.00  0.00    -0.055 A 
ATOM     33  H   LIG d   1       4.088  -2.008  -1.452  0.00  0.00     0.063 H 
ATOM     34  H   LIG d   1       4.155  -3.681  -3.257  0.00  0.00     0.062 H 
ENDBRANCH   1  24
TORSDOF 4
ENDMDL
MODEL 9
REMARK VINA RESULT:      -5.8      8.498      9.929
REMARK  4 active torsions:
REMARK  status: ('A' for Active; 'I' for Inactive)
REMARK    1  A    between atoms: C_6  and  C_7 
REMARK    2  A    between atoms: C_10  and  C_13 
REMARK    3  A    between atoms: C_15  and  N_20 
REMARK    4  A    between atoms: C_18  and  O_19 
ROOT
ATOM      1  C   LIG d   1      10.659   2.417  -3.985  0.00  0.00     0.068 A 
ATOM      2  H   LIG d   1      11.571   1.821  -3.932  0.00  0.00     0.057 H 
ATOM      3  C   LIG d   1      10.438   3.189  -2.670  0.00  0.00     0.016 A 
ATOM      4  C   LIG d   1      10.468   4.641  -3.091  0.00  0.00     0.072 A 
ATOM      5  N   LIG d   1      10.664   4.716  -4.361  0.00  0.00    -0.190 NA
ATOM      6  N   LIG d   1      10.793   3.479  -4.994  0.00  0.00    -0.261 N 
ATOM      7  H   LIG d   1       9.469   2.937  -2.237  0.00  0.00     0.035 H 
ATOM      8  H   LIG d   1      11.240   2.978  -1.962  0.00  0.00     0.035 H 
ATOM      9  H   LIG d   1      10.945   3.340  -5.943  0.00  0.00     0.169 HD
ENDROOT
BRANCH   4  10
ATOM     10  C   LIG d   1      10.300   5.792  -2.185  0.00  0.00     0.046 A 
ATOM     11  C   LIG d   1       9.628   6.941  -2.624  0.00  0.00     0.126 A 
ATOM     12  C   LIG d   1       9.469   8.015  -1.764  0.00  0.00    -0.013 A 
ATOM     13  C   LIG d   1       9.984   7.958  -0.482  0.00  0.00     0.019 A 
ATOM     14  H   LIG d   1       8.948   8.900  -2.097  0.00  0.00     0.066 H 
ATOM     15  C   LIG d   1      10.654   6.828  -0.046  0.00  0.00     0.274 A 
ATOM     16  H   LIG d   1       9.863   8.800   0.183  0.00  0.00     0.069 H 
ATOM     17  C   LIG d   1      10.815   5.747  -0.888  0.00  0.00     0.028 A 
ATOM     18  H   LIG d   1      11.338   4.867  -0.544  0.00  0.00     0.069 H 
BRANCH  11  19
ATOM     19  O   LIG d   1       9.128   6.999  -3.886  0.00  0.00    -0.506 OA
ATOM     20  H   LIG d   1       9.403   7.783  -4.382  0.00  0.00     0.292 HD
ENDBRANCH  11  19
BRANCH  15  21
ATOM     21  N   LIG d   1      11.199   6.779   1.329  0.00  0.00     0.080 N 
ATOM     22  O   LIG d   1      11.705   7.764   1.815  0.00  0.00     0.041 OA
ATOM     23  O   LIG d   1      11.140   5.754   1.966  0.00  0.00    -0.576 OA
ENDBRANCH  15  21
ENDBRANCH   4  10
BRANCH   1  24
ATOM     24  C   LIG d   1       9.473   1.539  -4.292  0.00  0.00    -0.025 A 
ATOM     25  C   LIG d   1       8.246   1.810  -3.716  0.00  0.00    -0.055 A 
ATOM     26  C   LIG d   1       7.157   1.006  -3.998  0.00  0.00    -0.043 A 
ATOM     27  H   LIG d   1       8.137   2.652  -3.050  0.00  0.00     0.062 H 
ATOM     28  C   LIG d   1       7.297  -0.070  -4.857  0.00  0.00     0.041 A 
ATOM     29  H   LIG d   1       6.198   1.218  -3.548  0.00  0.00     0.063 H 
ATOM     30  C   LIG d   1       8.525  -0.340  -5.432  0.00  0.00    -0.043 A 
ATOM     31 CL   LIG d   1       5.930  -1.080  -5.211  0.00  0.00    -0.084 Cl
ATOM     32  C   LIG d   1       9.612   0.465  -5.150  0.00  0.00    -0.055 A 
ATOM     33  H   LIG d   1       8.634  -1.180  -6.103  0.00  0.00     0.063 H 
ATOM     34  H   LIG d   1      10.571   0.253  -5.599  0.00  0.00     0.062 H 
ENDBRANCH   1  24
TORSDOF 4
ENDMDL
MODEL 10
REMARK VINA RESULT:      -5.8      6.562      8.225
REMARK  4 active torsions:
REMARK  status: ('A' for Active; 'I' for Inactive)
REMARK    1  A    between atoms: C_6  and  C_7 
REMARK    2  A    between atoms: C_10  and  C_13 
REMARK    3  A    between atoms: C_15  and  N_20 
REMARK    4  A    between atoms: C_18  and  O_19 
ROOT
ATOM      1  C   LIG d   1       7.989  -2.376  -4.842  0.00  0.00     0.068 A 
ATOM      2  H   LIG d   1       7.972  -2.102  -5.897  0.00  0.00     0.057 H 
ATOM      3  C   LIG d   1       7.618  -3.861  -4.660  0.00  0.00     0.016 A 
ATOM      4  C   LIG d   1       8.848  -4.467  -4.023  0.00  0.00     0.072 A 
ATOM      5  N   LIG d   1       9.744  -3.556  -3.862  0.00  0.00    -0.190 NA
ATOM      6  N   LIG d   1       9.357  -2.290  -4.306  0.00  0.00    -0.261 N 
ATOM      7  H   LIG d   1       6.756  -3.962  -3.999  0.00  0.00     0.035 H 
ATOM      8  H   LIG d   1       7.418  -4.326  -5.625  0.00  0.00     0.035 H 
ATOM      9  H   LIG d   1       9.898  -1.486  -4.268  0.00  0.00     0.169 HD
ENDROOT
BRANCH   4  10
ATOM     10  C   LIG d   1       8.998  -5.885  -3.643  0.00  0.00     0.046 A 
ATOM     11  C   LIG d   1       9.610  -6.228  -2.430  0.00  0.00     0.126 A 
ATOM     12  C   LIG d   1       9.740  -7.562  -2.080  0.00  0.00    -0.013 A 
ATOM     13  C   LIG d   1       9.280  -8.550  -2.929  0.00  0.00     0.019 A 
ATOM     14  H   LIG d   1      10.207  -7.830  -1.143  0.00  0.00     0.066 H 
ATOM     15  C   LIG d   1       8.680  -8.216  -4.131  0.00  0.00     0.274 A 
ATOM     16  H   LIG d   1       9.388  -9.588  -2.655  0.00  0.00     0.069 H 
ATOM     17  C   LIG d   1       8.536  -6.892  -4.493  0.00  0.00     0.028 A 
ATOM     18  H   LIG d   1       8.067  -6.635  -5.431  0.00  0.00     0.069 H 
BRANCH  11  19
ATOM     19  O   LIG d   1      10.069  -5.257  -1.599  0.00  0.00    -0.506 OA
ATOM     20  H   LIG d   1      11.006  -5.049  -1.716  0.00  0.00     0.292 HD
ENDBRANCH  11  19
BRANCH  15  21
ATOM     21  N   LIG d   1       8.189  -9.282  -5.032  0.00  0.00     0.080 N 
ATOM     22  O   LIG d   1       7.817  -9.007  -6.149  0.00  0.00     0.041 OA
ATOM     23  O   LIG d   1       8.160 -10.429  -4.651  0.00  0.00    -0.576 OA
ENDBRANCH  15  21
ENDBRANCH   4  10
BRANCH   1  24
ATOM     24  C   LIG d   1       7.054  -1.495  -4.053  0.00  0.00    -0.025 A 
ATOM     25  C   LIG d   1       5.981  -2.052  -3.383  0.00  0.00    -0.055 A 
ATOM     26  C   LIG d   1       5.123  -1.244  -2.659  0.00  0.00    -0.043 A 
ATOM     27  H   LIG d   1       5.814  -3.117  -3.423  0.00  0.00     0.062 H 
ATOM     28  C   LIG d   1       5.341   0.121  -2.604  0.00  0.00     0.041 A 
ATOM     29  H   LIG d   1       4.284  -1.679  -2.136  0.00  0.00     0.063 H 
ATOM     30  C   LIG d   1       6.416   0.678  -3.275  0.00  0.00    -0.043 A 
ATOM     31 CL   LIG d   1       4.265   1.137  -1.695  0.00  0.00    -0.084 Cl
ATOM     32  C   LIG d   1       7.272  -0.131  -3.998  0.00  0.00    -0.055 A 
ATOM     33  H   LIG d   1       6.586   1.743  -3.233  0.00  0.00     0.063 H 
ATOM     34  H   LIG d   1       8.111   0.303  -4.521  0.00  0.00     0.062 H 
ENDBRANCH   1  24
TORSDOF 4
ENDMDL
