MODEL 1
REMARK VINA RESULT:      -5.8      0.000      0.000
REMARK  6 active torsions:
REMARK  status: ('A' for Active; 'I' for Inactive)
REMARK    1  A    between atoms: C_1  and  C_2 
REMARK    2  A    between atoms: N_5  and  C_9 
REMARK    3  A    between atoms: C_7  and  C_8 
REMARK    4  A    between atoms: C_9  and  C_10 
REMARK    5  A    between atoms: C_10  and  C_12 
REMARK    6  A    between atoms: C_16  and  N_18 
ROOT
ATOM      1  C   LIG d   1       7.729  -1.696  -5.475  0.00  0.00     0.212 C 
ATOM      2  H   LIG d   1       8.769  -1.675  -5.149  0.00  0.00     0.112 H 
ATOM      3  H   LIG d   1       7.402  -2.731  -5.577  0.00  0.00     0.112 H 
ENDROOT
BRANCH   1   4
ATOM      4  N   LIG d   1       6.893  -1.015  -4.483  0.00  0.00    -0.196 N 
ATOM      5  C   LIG d   1       7.117   0.257  -4.219  0.00  0.00     0.172 A 
ATOM      6  C   LIG d   1       6.348   0.932  -3.290  0.00  0.00     0.005 A 
ATOM      7  H   LIG d   1       7.910   0.778  -4.735  0.00  0.00     0.138 H 
ATOM      8  C   LIG d   1       5.332   0.255  -2.633  0.00  0.00    -0.036 A 
ATOM      9  H   LIG d   1       6.536   1.975  -3.078  0.00  0.00     0.068 H 
ATOM     10  C   LIG d   1       5.130  -1.084  -2.933  0.00  0.00     0.016 A 
ATOM     11  C   LIG d   1       5.935  -1.691  -3.878  0.00  0.00     0.175 A 
ATOM     12  H   LIG d   1       5.782  -2.732  -4.122  0.00  0.00     0.138 H 
BRANCH   8  13
ATOM     13  C   LIG d   1       4.471   0.955  -1.613  0.00  0.00    -0.039 C 
ATOM     14  H   LIG d   1       3.423   0.729  -1.805  0.00  0.00     0.028 H 
ATOM     15  H   LIG d   1       4.741   0.612  -0.614  0.00  0.00     0.028 H 
ATOM     16  H   LIG d   1       4.630   2.031  -1.683  0.00  0.00     0.028 H 
ENDBRANCH   8  13
BRANCH  10  17
ATOM     17  C   LIG d   1       4.043  -1.866  -2.241  0.00  0.00    -0.034 C 
ATOM     18  H   LIG d   1       3.178  -1.221  -2.081  0.00  0.00     0.028 H 
ATOM     19  H   LIG d   1       3.754  -2.713  -2.862  0.00  0.00     0.028 H 
ATOM     20  H   LIG d   1       4.410  -2.227  -1.281  0.00  0.00     0.028 H 
ENDBRANCH  10  17
ENDBRANCH   1   4
BRANCH   1  21
ATOM     21  C   LIG d   1       7.604  -0.995  -6.803  0.00  0.00     0.228 C 
ATOM     22  O   LIG d   1       8.576  -0.475  -7.307  0.00  0.00    -0.285 OA
BRANCH  21  23
ATOM     23  C   LIG d   1       6.302  -0.943  -7.487  0.00  0.00     0.030 A 
ATOM     24  C   LIG d   1       5.725   0.291  -7.805  0.00  0.00     0.027 A 
ATOM     25  C   LIG d   1       4.509   0.333  -8.451  0.00  0.00     0.287 A 
ATOM     26  H   LIG d   1       6.234   1.209  -7.549  0.00  0.00     0.069 H 
ATOM     27  C   LIG d   1       3.852  -0.843  -8.776  0.00  0.00     0.090 A 
ATOM     28  C   LIG d   1       4.414  -2.068  -8.459  0.00  0.00    -0.041 A 
ATOM     29  I   LIG d   1       1.999  -0.766  -9.750  0.00  0.00    -0.037 I 
ATOM     30  C   LIG d   1       5.633  -2.126  -7.817  0.00  0.00    -0.050 A 
ATOM     31  H   LIG d   1       3.897  -2.980  -8.714  0.00  0.00     0.063 H 
ATOM     32  H   LIG d   1       6.071  -3.082  -7.572  0.00  0.00     0.062 H 
BRANCH  25  33
ATOM     33  N   LIG d   1       3.900   1.637  -8.795  0.00  0.00     0.081 N 
ATOM     34  O   LIG d   1       4.180   2.178  -9.839  0.00  0.00     0.042 OA
ATOM     35  O   LIG d   1       3.121   2.161  -8.033  0.00  0.00    -0.576 OA
ENDBRANCH  25  33
ENDBRANCH  21  23
ENDBRANCH   1  21
TORSDOF 6
ENDMDL
MODEL 2
REMARK VINA RESULT:      -5.8      2.013      2.751
REMARK  6 active torsions:
REMARK  status: ('A' for Active; 'I' for Inactive)
REMARK    1  A    between atoms: C_1  and  C_2 
REMARK    2  A    between atoms: N_5  and  C_9 
REMARK    3  A    between atoms: C_7  and  C_8 
REMARK    4  A    between atoms: C_9  and  C_10 
REMARK    5  A    between atoms: C_10  and  C_12 
REMARK    6  A    between atoms: C_16  and  N_18 
ROOT
ATOM      1  C   LIG d   1       5.976  -3.435  -4.882  0.00  0.00     0.212 C 
ATOM      2  H   LIG d   1       6.781  -3.136  -5.554  0.00  0.00     0.112 H 
ATOM      3  H   LIG d   1       6.314  -4.262  -4.256  0.00  0.00     0.112 H 
ENDROOT
BRANCH   1   4
ATOM      4  N   LIG d   1       5.601  -2.301  -4.033  0.00  0.00    -0.196 N 
ATOM      5  C   LIG d   1       4.582  -2.428  -3.206  0.00  0.00     0.172 A 
ATOM      6  C   LIG d   1       4.200  -1.380  -2.389  0.00  0.00     0.005 A 
ATOM      7  H   LIG d   1       4.039  -3.361  -3.166  0.00  0.00     0.138 H 
ATOM      8  C   LIG d   1       4.904  -0.187  -2.448  0.00  0.00    -0.036 A 
ATOM      9  H   LIG d   1       3.365  -1.490  -1.713  0.00  0.00     0.068 H 
ATOM     10  C   LIG d   1       5.966  -0.089  -3.334  0.00  0.00     0.016 A 
ATOM     11  C   LIG d   1       6.293  -1.182  -4.115  0.00  0.00     0.175 A 
ATOM     12  H   LIG d   1       7.122  -1.117  -4.804  0.00  0.00     0.138 H 
BRANCH   8  13
ATOM     13  C   LIG d   1       4.519   0.979  -1.574  0.00  0.00    -0.039 C 
ATOM     14  H   LIG d   1       3.761   1.577  -2.079  0.00  0.00     0.028 H 
ATOM     15  H   LIG d   1       4.121   0.610  -0.630  0.00  0.00     0.028 H 
ATOM     16  H   LIG d   1       5.398   1.595  -1.382  0.00  0.00     0.028 H 
ENDBRANCH   8  13
BRANCH  10  17
ATOM     17  C   LIG d   1       6.757   1.189  -3.440  0.00  0.00    -0.034 C 
ATOM     18  H   LIG d   1       6.077   2.025  -3.602  0.00  0.00     0.028 H 
ATOM     19  H   LIG d   1       7.314   1.348  -2.517  0.00  0.00     0.028 H 
ATOM     20  H   LIG d   1       7.452   1.118  -4.276  0.00  0.00     0.028 H 
ENDBRANCH  10  17
ENDBRANCH   1   4
BRANCH   1  21
ATOM     21  C   LIG d   1       4.782  -3.872  -5.692  0.00  0.00     0.228 C 
ATOM     22  O   LIG d   1       4.181  -4.881  -5.388  0.00  0.00    -0.285 OA
BRANCH  21  23
ATOM     23  C   LIG d   1       4.348  -3.077  -6.850  0.00  0.00     0.030 A 
ATOM     24  C   LIG d   1       4.386  -1.680  -6.797  0.00  0.00     0.027 A 
ATOM     25  C   LIG d   1       3.984  -0.940  -7.888  0.00  0.00     0.287 A 
ATOM     26  H   LIG d   1       4.734  -1.181  -5.904  0.00  0.00     0.069 H 
ATOM     27  C   LIG d   1       3.531  -1.578  -9.033  0.00  0.00     0.090 A 
ATOM     28  C   LIG d   1       3.486  -2.961  -9.091  0.00  0.00    -0.041 A 
ATOM     29  I   LIG d   1       2.914  -0.443 -10.682  0.00  0.00    -0.037 I 
ATOM     30  C   LIG d   1       3.890  -3.713  -8.009  0.00  0.00    -0.050 A 
ATOM     31  H   LIG d   1       3.133  -3.450  -9.985  0.00  0.00     0.063 H 
ATOM     32  H   LIG d   1       3.855  -4.791  -8.056  0.00  0.00     0.062 H 
BRANCH  25  33
ATOM     33  N   LIG d   1       4.029   0.538  -7.837  0.00  0.00     0.081 N 
ATOM     34  O   LIG d   1       3.078   1.157  -7.422  0.00  0.00     0.042 OA
ATOM     35  O   LIG d   1       5.018   1.126  -8.209  0.00  0.00    -0.576 OA
ENDBRANCH  25  33
ENDBRANCH  21  23
ENDBRANCH   1  21
TORSDOF 6
ENDMDL
MODEL 3
REMARK VINA RESULT:      -5.7      4.903      6.498
REMARK  6 active torsions:
REMARK  status: ('A' for Active; 'I' for Inactive)
REMARK    1  A    between atoms: C_1  and  C_2 
REMARK    2  A    between atoms: N_5  and  C_9 
REMARK    3  A    between atoms: C_7  and  C_8 
REMARK    4  A    between atoms: C_9  and  C_10 
REMARK    5  A    between atoms: C_10  and  C_12 
REMARK    6  A    between atoms: C_16  and  N_18 
ROOT
ATOM      1  C   LIG d   1       8.535   0.285  -4.596  0.00  0.00     0.212 C 
ATOM      2  H   LIG d   1       9.231   0.570  -3.806  0.00  0.00     0.112 H 
ATOM      3  H   LIG d   1       9.003  -0.459  -5.241  0.00  0.00     0.112 H 
ENDROOT
BRANCH   1   4
ATOM      4  N   LIG d   1       7.323  -0.280  -3.997  0.00  0.00    -0.196 N 
ATOM      5  C   LIG d   1       7.007  -1.535  -4.251  0.00  0.00     0.172 A 
ATOM      6  C   LIG d   1       5.872  -2.103  -3.704  0.00  0.00     0.005 A 
ATOM      7  H   LIG d   1       7.643  -2.127  -4.894  0.00  0.00     0.138 H 
ATOM      8  C   LIG d   1       5.063  -1.336  -2.880  0.00  0.00    -0.036 A 
ATOM      9  H   LIG d   1       5.619  -3.132  -3.915  0.00  0.00     0.068 H 
ATOM     10  C   LIG d   1       5.424  -0.019  -2.641  0.00  0.00     0.016 A 
ATOM     11  C   LIG d   1       6.577   0.478  -3.218  0.00  0.00     0.175 A 
ATOM     12  H   LIG d   1       6.869   1.501  -3.033  0.00  0.00     0.138 H 
BRANCH   8  13
ATOM     13  C   LIG d   1       3.816  -1.918  -2.264  0.00  0.00    -0.039 C 
ATOM     14  H   LIG d   1       3.292  -2.521  -3.005  0.00  0.00     0.028 H 
ATOM     15  H   LIG d   1       4.089  -2.543  -1.414  0.00  0.00     0.028 H 
ATOM     16  H   LIG d   1       3.166  -1.110  -1.928  0.00  0.00     0.028 H 
ENDBRANCH   8  13
BRANCH  10  17
ATOM     17  C   LIG d   1       4.573   0.857  -1.757  0.00  0.00    -0.034 C 
ATOM     18  H   LIG d   1       5.006   1.857  -1.714  0.00  0.00     0.028 H 
ATOM     19  H   LIG d   1       3.565   0.915  -2.166  0.00  0.00     0.028 H 
ATOM     20  H   LIG d   1       4.535   0.433  -0.754  0.00  0.00     0.028 H 
ENDBRANCH  10  17
ENDBRANCH   1   4
BRANCH   1  21
ATOM     21  C   LIG d   1       8.173   1.500  -5.410  0.00  0.00     0.228 C 
ATOM     22  O   LIG d   1       7.257   1.448  -6.202  0.00  0.00    -0.285 OA
BRANCH  21  23
ATOM     23  C   LIG d   1       8.933   2.749  -5.244  0.00  0.00     0.030 A 
ATOM     24  C   LIG d   1       9.203   3.243  -3.964  0.00  0.00     0.027 A 
ATOM     25  C   LIG d   1       9.920   4.410  -3.816  0.00  0.00     0.287 A 
ATOM     26  H   LIG d   1       8.852   2.709  -3.093  0.00  0.00     0.069 H 
ATOM     27  C   LIG d   1      10.366   5.100  -4.932  0.00  0.00     0.090 A 
ATOM     28  C   LIG d   1      10.099   4.620  -6.203  0.00  0.00    -0.041 A 
ATOM     29  I   LIG d   1      11.449   6.877  -4.694  0.00  0.00    -0.037 I 
ATOM     30  C   LIG d   1       9.386   3.450  -6.367  0.00  0.00    -0.050 A 
ATOM     31  H   LIG d   1      10.448   5.162  -7.068  0.00  0.00     0.063 H 
ATOM     32  H   LIG d   1       9.179   3.077  -7.358  0.00  0.00     0.062 H 
BRANCH  25  33
ATOM     33  N   LIG d   1      10.212   4.931  -2.462  0.00  0.00     0.081 N 
ATOM     34  O   LIG d   1       9.571   5.855  -2.019  0.00  0.00     0.042 OA
ATOM     35  O   LIG d   1      11.092   4.433  -1.798  0.00  0.00    -0.576 OA
ENDBRANCH  25  33
ENDBRANCH  21  23
ENDBRANCH   1  21
TORSDOF 6
ENDMDL
MODEL 4
REMARK VINA RESULT:      -5.6      1.690      2.057
REMARK  6 active torsions:
REMARK  status: ('A' for Active; 'I' for Inactive)
REMARK    1  A    between atoms: C_1  and  C_2 
REMARK    2  A    between atoms: N_5  and  C_9 
REMARK    3  A    between atoms: C_7  and  C_8 
REMARK    4  A    between atoms: C_9  and  C_10 
REMARK    5  A    between atoms: C_10  and  C_12 
REMARK    6  A    between atoms: C_16  and  N_18 
ROOT
ATOM      1  C   LIG d   1       8.150  -1.925  -4.909  0.00  0.00     0.212 C 
ATOM      2  H   LIG d   1       9.032  -1.301  -5.053  0.00  0.00     0.112 H 
ATOM      3  H   LIG d   1       8.435  -2.840  -4.389  0.00  0.00     0.112 H 
ENDROOT
BRANCH   1   4
ATOM      4  N   LIG d   1       7.162  -1.197  -4.108  0.00  0.00    -0.196 N 
ATOM      5  C   LIG d   1       7.312   0.101  -3.929  0.00  0.00     0.172 A 
ATOM      6  C   LIG d   1       6.400   0.821  -3.180  0.00  0.00     0.005 A 
ATOM      7  H   LIG d   1       8.157   0.608  -4.372  0.00  0.00     0.138 H 
ATOM      8  C   LIG d   1       5.320   0.162  -2.615  0.00  0.00    -0.036 A 
ATOM      9  H   LIG d   1       6.528   1.884  -3.037  0.00  0.00     0.068 H 
ATOM     10  C   LIG d   1       5.199  -1.204  -2.820  0.00  0.00     0.016 A 
ATOM     11  C   LIG d   1       6.147  -1.856  -3.586  0.00  0.00     0.175 A 
ATOM     12  H   LIG d   1       6.058  -2.919  -3.756  0.00  0.00     0.138 H 
BRANCH   8  13
ATOM     13  C   LIG d   1       4.304   0.911  -1.791  0.00  0.00    -0.039 C 
ATOM     14  H   LIG d   1       4.198   1.924  -2.178  0.00  0.00     0.028 H 
ATOM     15  H   LIG d   1       3.343   0.398  -1.845  0.00  0.00     0.028 H 
ATOM     16  H   LIG d   1       4.637   0.951  -0.754  0.00  0.00     0.028 H 
ENDBRANCH   8  13
BRANCH  10  17
ATOM     17  C   LIG d   1       4.045  -1.967  -2.221  0.00  0.00    -0.034 C 
ATOM     18  H   LIG d   1       3.571  -2.573  -2.993  0.00  0.00     0.028 H 
ATOM     19  H   LIG d   1       4.412  -2.614  -1.425  0.00  0.00     0.028 H 
ATOM     20  H   LIG d   1       3.318  -1.265  -1.813  0.00  0.00     0.028 H 
ENDBRANCH  10  17
ENDBRANCH   1   4
BRANCH   1  21
ATOM     21  C   LIG d   1       7.553  -2.271  -6.249  0.00  0.00     0.228 C 
ATOM     22  O   LIG d   1       7.723  -3.375  -6.720  0.00  0.00    -0.285 OA
BRANCH  21  23
ATOM     23  C   LIG d   1       6.766  -1.269  -6.984  0.00  0.00     0.030 A 
ATOM     24  C   LIG d   1       5.376  -1.392  -7.068  0.00  0.00     0.027 A 
ATOM     25  C   LIG d   1       4.643  -0.447  -7.753  0.00  0.00     0.287 A 
ATOM     26  H   LIG d   1       4.876  -2.224  -6.594  0.00  0.00     0.069 H 
ATOM     27  C   LIG d   1       5.283   0.618  -8.367  0.00  0.00     0.090 A 
ATOM     28  C   LIG d   1       6.660   0.744  -8.292  0.00  0.00    -0.041 A 
ATOM     29  I   LIG d   1       4.161   2.045  -9.413  0.00  0.00    -0.037 I 
ATOM     30  C   LIG d   1       7.405  -0.191  -7.606  0.00  0.00    -0.050 A 
ATOM     31  H   LIG d   1       7.152   1.576  -8.773  0.00  0.00     0.063 H 
ATOM     32  H   LIG d   1       8.479  -0.091  -7.548  0.00  0.00     0.062 H 
BRANCH  25  33
ATOM     33  N   LIG d   1       3.171  -0.571  -7.839  0.00  0.00     0.081 N 
ATOM     34  O   LIG d   1       2.469   0.017  -7.050  0.00  0.00     0.042 OA
ATOM     35  O   LIG d   1       2.671  -1.260  -8.697  0.00  0.00    -0.576 OA
ENDBRANCH  25  33
ENDBRANCH  21  23
ENDBRANCH   1  21
TORSDOF 6
ENDMDL
MODEL 5
REMARK VINA RESULT:      -5.6      4.927      6.332
REMARK  6 active torsions:
REMARK  status: ('A' for Active; 'I' for Inactive)
REMARK    1  A    between atoms: C_1  and  C_2 
REMARK    2  A    between atoms: N_5  and  C_9 
REMARK    3  A    between atoms: C_7  and  C_8 
REMARK    4  A    between atoms: C_9  and  C_10 
REMARK    5  A    between atoms: C_10  and  C_12 
REMARK    6  A    between atoms: C_16  and  N_18 
ROOT
ATOM      1  C   LIG d   1       8.542   0.191  -4.638  0.00  0.00     0.212 C 
ATOM      2  H   LIG d   1       9.326   0.238  -3.883  0.00  0.00     0.112 H 
ATOM      3  H   LIG d   1       8.867  -0.450  -5.459  0.00  0.00     0.112 H 
ENDROOT
BRANCH   1   4
ATOM      4  N   LIG d   1       7.322  -0.360  -4.043  0.00  0.00    -0.196 N 
ATOM      5  C   LIG d   1       6.983  -1.605  -4.311  0.00  0.00     0.172 A 
ATOM      6  C   LIG d   1       5.839  -2.160  -3.767  0.00  0.00     0.005 A 
ATOM      7  H   LIG d   1       7.605  -2.200  -4.964  0.00  0.00     0.138 H 
ATOM      8  C   LIG d   1       5.047  -1.389  -2.930  0.00  0.00    -0.036 A 
ATOM      9  H   LIG d   1       5.567  -3.181  -3.991  0.00  0.00     0.068 H 
ATOM     10  C   LIG d   1       5.433  -0.082  -2.675  0.00  0.00     0.016 A 
ATOM     11  C   LIG d   1       6.593   0.401  -3.251  0.00  0.00     0.175 A 
ATOM     12  H   LIG d   1       6.904   1.417  -3.053  0.00  0.00     0.138 H 
BRANCH   8  13
ATOM     13  C   LIG d   1       3.793  -1.957  -2.317  0.00  0.00    -0.039 C 
ATOM     14  H   LIG d   1       3.621  -2.960  -2.705  0.00  0.00     0.028 H 
ATOM     15  H   LIG d   1       3.905  -2.000  -1.234  0.00  0.00     0.028 H 
ATOM     16  H   LIG d   1       2.945  -1.319  -2.569  0.00  0.00     0.028 H 
ENDBRANCH   8  13
BRANCH  10  17
ATOM     17  C   LIG d   1       4.602   0.798  -1.777  0.00  0.00    -0.034 C 
ATOM     18  H   LIG d   1       4.352   1.720  -2.302  0.00  0.00     0.028 H 
ATOM     19  H   LIG d   1       3.686   0.275  -1.504  0.00  0.00     0.028 H 
ATOM     20  H   LIG d   1       5.168   1.034  -0.876  0.00  0.00     0.028 H 
ENDBRANCH  10  17
ENDBRANCH   1   4
BRANCH   1  21
ATOM     21  C   LIG d   1       8.263   1.577  -5.162  0.00  0.00     0.228 C 
ATOM     22  O   LIG d   1       7.460   1.736  -6.056  0.00  0.00    -0.285 OA
BRANCH  21  23
ATOM     23  C   LIG d   1       8.967   2.734  -4.588  0.00  0.00     0.030 A 
ATOM     24  C   LIG d   1       9.059   3.928  -5.310  0.00  0.00     0.027 A 
ATOM     25  C   LIG d   1       9.714   5.011  -4.765  0.00  0.00     0.287 A 
ATOM     26  H   LIG d   1       8.615   4.003  -6.292  0.00  0.00     0.069 H 
ATOM     27  C   LIG d   1      10.291   4.915  -3.508  0.00  0.00     0.090 A 
ATOM     28  C   LIG d   1      10.208   3.734  -2.789  0.00  0.00    -0.041 A 
ATOM     29  I   LIG d   1      11.291   6.565  -2.692  0.00  0.00    -0.037 I 
ATOM     30  C   LIG d   1       9.551   2.644  -3.320  0.00  0.00    -0.050 A 
ATOM     31  H   LIG d   1      10.659   3.667  -1.811  0.00  0.00     0.063 H 
ATOM     32  H   LIG d   1       9.486   1.725  -2.758  0.00  0.00     0.062 H 
BRANCH  25  33
ATOM     33  N   LIG d   1       9.808   6.278  -5.524  0.00  0.00     0.081 N 
ATOM     34  O   LIG d   1      10.688   6.431  -6.337  0.00  0.00     0.042 OA
ATOM     35  O   LIG d   1       9.003   7.160  -5.331  0.00  0.00    -0.576 OA
ENDBRANCH  25  33
ENDBRANCH  21  23
ENDBRANCH   1  21
TORSDOF 6
ENDMDL
MODEL 6
REMARK VINA RESULT:      -5.5      5.997      7.837
REMARK  6 active torsions:
REMARK  status: ('A' for Active; 'I' for Inactive)
REMARK    1  A    between atoms: C_1  and  C_2 
REMARK    2  A    between atoms: N_5  and  C_9 
REMARK    3  A    between atoms: C_7  and  C_8 
REMARK    4  A    between atoms: C_9  and  C_10 
REMARK    5  A    between atoms: C_10  and  C_12 
REMARK    6  A    between atoms: C_16  and  N_18 
ROOT
ATOM      1  C   LIG d   1       8.356   2.232  -4.953  0.00  0.00     0.212 C 
ATOM      2  H   LIG d   1       8.833   1.833  -5.849  0.00  0.00     0.112 H 
ATOM      3  H   LIG d   1       7.742   3.092  -5.222  0.00  0.00     0.112 H 
ENDROOT
BRANCH   1   4
ATOM      4  N   LIG d   1       7.510   1.199  -4.349  0.00  0.00    -0.196 N 
ATOM      5  C   LIG d   1       7.692  -0.061  -4.692  0.00  0.00     0.172 A 
ATOM      6  C   LIG d   1       6.913  -1.063  -4.142  0.00  0.00     0.005 A 
ATOM      7  H   LIG d   1       8.458  -0.314  -5.410  0.00  0.00     0.138 H 
ATOM      8  C   LIG d   1       5.933  -0.727  -3.221  0.00  0.00    -0.036 A 
ATOM      9  H   LIG d   1       7.068  -2.093  -4.427  0.00  0.00     0.068 H 
ATOM     10  C   LIG d   1       5.767   0.609  -2.891  0.00  0.00     0.016 A 
ATOM     11  C   LIG d   1       6.588   1.554  -3.477  0.00  0.00     0.175 A 
ATOM     12  H   LIG d   1       6.469   2.597  -3.221  0.00  0.00     0.138 H 
BRANCH   8  13
ATOM     13  C   LIG d   1       5.063  -1.790  -2.600  0.00  0.00    -0.039 C 
ATOM     14  H   LIG d   1       4.201  -1.974  -3.240  0.00  0.00     0.028 H 
ATOM     15  H   LIG d   1       5.637  -2.709  -2.488  0.00  0.00     0.028 H 
ATOM     16  H   LIG d   1       4.723  -1.452  -1.620  0.00  0.00     0.028 H 
ENDBRANCH   8  13
BRANCH  10  17
ATOM     17  C   LIG d   1       4.710   1.024  -1.899  0.00  0.00    -0.034 C 
ATOM     18  H   LIG d   1       4.807   0.426  -0.993  0.00  0.00     0.028 H 
ATOM     19  H   LIG d   1       4.838   2.078  -1.654  0.00  0.00     0.028 H 
ATOM     20  H   LIG d   1       3.723   0.869  -2.334  0.00  0.00     0.028 H 
ENDBRANCH  10  17
ENDBRANCH   1   4
BRANCH   1  21
ATOM     21  C   LIG d   1       9.413   2.656  -3.967  0.00  0.00     0.228 C 
ATOM     22  O   LIG d   1      10.081   1.819  -3.398  0.00  0.00    -0.285 OA
BRANCH  21  23
ATOM     23  C   LIG d   1       9.633   4.084  -3.694  0.00  0.00     0.030 A 
ATOM     24  C   LIG d   1      10.132   4.494  -2.453  0.00  0.00     0.027 A 
ATOM     25  C   LIG d   1      10.342   5.833  -2.206  0.00  0.00     0.287 A 
ATOM     26  H   LIG d   1      10.355   3.761  -1.691  0.00  0.00     0.069 H 
ATOM     27  C   LIG d   1      10.050   6.775  -3.180  0.00  0.00     0.090 A 
ATOM     28  C   LIG d   1       9.551   6.377  -4.410  0.00  0.00    -0.041 A 
ATOM     29  I   LIG d   1      10.365   8.808  -2.790  0.00  0.00    -0.037 I 
ATOM     30  C   LIG d   1       9.341   5.040  -4.673  0.00  0.00    -0.050 A 
ATOM     31  H   LIG d   1       9.326   7.116  -5.163  0.00  0.00     0.063 H 
ATOM     32  H   LIG d   1       8.953   4.732  -5.632  0.00  0.00     0.062 H 
BRANCH  25  33
ATOM     33  N   LIG d   1      10.875   6.269  -0.896  0.00  0.00     0.081 N 
ATOM     34  O   LIG d   1      10.118   6.517   0.012  0.00  0.00     0.042 OA
ATOM     35  O   LIG d   1      12.069   6.375  -0.734  0.00  0.00    -0.576 OA
ENDBRANCH  25  33
ENDBRANCH  21  23
ENDBRANCH   1  21
TORSDOF 6
ENDMDL
MODEL 7
REMARK VINA RESULT:      -5.5      4.579      6.094
REMARK  6 active torsions:
REMARK  status: ('A' for Active; 'I' for Inactive)
REMARK    1  A    between atoms: C_1  and  C_2 
REMARK    2  A    between atoms: N_5  and  C_9 
REMARK    3  A    between atoms: C_7  and  C_8 
REMARK    4  A    between atoms: C_9  and  C_10 
REMARK    5  A    between atoms: C_10  and  C_12 
REMARK    6  A    between atoms: C_16  and  N_18 
ROOT
ATOM      1  C   LIG d   1      10.294   1.689  -4.126  0.00  0.00     0.212 C 
ATOM      2  H   LIG d   1      11.239   1.552  -4.652  0.00  0.00     0.112 H 
ATOM      3  H   LIG d   1      10.290   1.076  -3.224  0.00  0.00     0.112 H 
ENDROOT
BRANCH   1   4
ATOM      4  N   LIG d   1      10.140   3.099  -3.758  0.00  0.00    -0.196 N 
ATOM      5  C   LIG d   1       9.568   3.926  -4.611  0.00  0.00     0.172 A 
ATOM      6  C   LIG d   1       9.404   5.262  -4.298  0.00  0.00     0.005 A 
ATOM      7  H   LIG d   1       9.223   3.555  -5.565  0.00  0.00     0.138 H 
ATOM      8  C   LIG d   1       9.850   5.728  -3.071  0.00  0.00    -0.036 A 
ATOM      9  H   LIG d   1       8.935   5.935  -5.001  0.00  0.00     0.068 H 
ATOM     10  C   LIG d   1      10.451   4.830  -2.202  0.00  0.00     0.016 A 
ATOM     11  C   LIG d   1      10.575   3.507  -2.582  0.00  0.00     0.175 A 
ATOM     12  H   LIG d   1      11.037   2.799  -1.909  0.00  0.00     0.138 H 
BRANCH   8  13
ATOM     13  C   LIG d   1       9.691   7.178  -2.692  0.00  0.00    -0.039 C 
ATOM     14  H   LIG d   1       9.335   7.742  -3.554  0.00  0.00     0.028 H 
ATOM     15  H   LIG d   1       8.971   7.264  -1.878  0.00  0.00     0.028 H 
ATOM     16  H   LIG d   1      10.653   7.577  -2.369  0.00  0.00     0.028 H 
ENDBRANCH   8  13
BRANCH  10  17
ATOM     17  C   LIG d   1      10.958   5.290  -0.859  0.00  0.00    -0.034 C 
ATOM     18  H   LIG d   1      10.723   6.346  -0.725  0.00  0.00     0.028 H 
ATOM     19  H   LIG d   1      10.478   4.708  -0.072  0.00  0.00     0.028 H 
ATOM     20  H   LIG d   1      12.037   5.147  -0.810  0.00  0.00     0.028 H 
ENDBRANCH  10  17
ENDBRANCH   1   4
BRANCH   1  21
ATOM     21  C   LIG d   1       9.155   1.276  -5.021  0.00  0.00     0.228 C 
ATOM     22  O   LIG d   1       9.197   1.522  -6.207  0.00  0.00    -0.285 OA
BRANCH  21  23
ATOM     23  C   LIG d   1       7.992   0.574  -4.455  0.00  0.00     0.030 A 
ATOM     24  C   LIG d   1       7.012   1.288  -3.758  0.00  0.00     0.027 A 
ATOM     25  C   LIG d   1       5.922   0.625  -3.236  0.00  0.00     0.287 A 
ATOM     26  H   LIG d   1       7.107   2.356  -3.633  0.00  0.00     0.069 H 
ATOM     27  C   LIG d   1       5.801  -0.746  -3.391  0.00  0.00     0.090 A 
ATOM     28  C   LIG d   1       6.770  -1.461  -4.076  0.00  0.00    -0.041 A 
ATOM     29  I   LIG d   1       4.145  -1.743  -2.586  0.00  0.00    -0.037 I 
ATOM     30  C   LIG d   1       7.864  -0.810  -4.608  0.00  0.00    -0.050 A 
ATOM     31  H   LIG d   1       6.670  -2.529  -4.192  0.00  0.00     0.063 H 
ATOM     32  H   LIG d   1       8.618  -1.369  -5.142  0.00  0.00     0.062 H 
BRANCH  25  33
ATOM     33  N   LIG d   1       4.880   1.379  -2.504  0.00  0.00     0.081 N 
ATOM     34  O   LIG d   1       4.857   1.359  -1.296  0.00  0.00     0.042 OA
ATOM     35  O   LIG d   1       4.053   2.016  -3.114  0.00  0.00    -0.576 OA
ENDBRANCH  25  33
ENDBRANCH  21  23
ENDBRANCH   1  21
TORSDOF 6
ENDMDL
MODEL 8
REMARK VINA RESULT:      -5.3      3.259      4.256
REMARK  6 active torsions:
REMARK  status: ('A' for Active; 'I' for Inactive)
REMARK    1  A    between atoms: C_1  and  C_2 
REMARK    2  A    between atoms: N_5  and  C_9 
REMARK    3  A    between atoms: C_7  and  C_8 
REMARK    4  A    between atoms: C_9  and  C_10 
REMARK    5  A    between atoms: C_10  and  C_12 
REMARK    6  A    between atoms: C_16  and  N_18 
ROOT
ATOM      1  C   LIG d   1       5.126  -0.411  -7.179  0.00  0.00     0.212 C 
ATOM      2  H   LIG d   1       5.811   0.431  -7.075  0.00  0.00     0.112 H 
ATOM      3  H   LIG d   1       5.608  -1.202  -7.755  0.00  0.00     0.112 H 
ENDROOT
BRANCH   1   4
ATOM      4  N   LIG d   1       4.772  -0.920  -5.852  0.00  0.00    -0.196 N 
ATOM      5  C   LIG d   1       5.002  -2.186  -5.568  0.00  0.00     0.172 A 
ATOM      6  C   LIG d   1       4.682  -2.702  -4.325  0.00  0.00     0.005 A 
ATOM      7  H   LIG d   1       5.446  -2.829  -6.314  0.00  0.00     0.138 H 
ATOM      8  C   LIG d   1       4.113  -1.869  -3.375  0.00  0.00    -0.036 A 
ATOM      9  H   LIG d   1       4.874  -3.741  -4.099  0.00  0.00     0.068 H 
ATOM     10  C   LIG d   1       3.880  -0.545  -3.712  0.00  0.00     0.016 A 
ATOM     11  C   LIG d   1       4.232  -0.099  -4.972  0.00  0.00     0.175 A 
ATOM     12  H   LIG d   1       4.060   0.933  -5.242  0.00  0.00     0.138 H 
BRANCH   8  13
ATOM     13  C   LIG d   1       3.749  -2.393  -2.009  0.00  0.00    -0.039 C 
ATOM     14  H   LIG d   1       4.363  -1.901  -1.256  0.00  0.00     0.028 H 
ATOM     15  H   LIG d   1       2.697  -2.189  -1.810  0.00  0.00     0.028 H 
ATOM     16  H   LIG d   1       3.924  -3.469  -1.975  0.00  0.00     0.028 H 
ENDBRANCH   8  13
BRANCH  10  17
ATOM     17  C   LIG d   1       3.257   0.399  -2.715  0.00  0.00    -0.034 C 
ATOM     18  H   LIG d   1       2.228   0.607  -3.006  0.00  0.00     0.028 H 
ATOM     19  H   LIG d   1       3.270  -0.058  -1.726  0.00  0.00     0.028 H 
ATOM     20  H   LIG d   1       3.824   1.329  -2.692  0.00  0.00     0.028 H 
ENDBRANCH  10  17
ENDBRANCH   1   4
BRANCH   1  21
ATOM     21  C   LIG d   1       3.878   0.042  -7.893  0.00  0.00     0.228 C 
ATOM     22  O   LIG d   1       3.513   1.195  -7.802  0.00  0.00    -0.285 OA
BRANCH  21  23
ATOM     23  C   LIG d   1       3.104  -0.915  -8.699  0.00  0.00     0.030 A 
ATOM     24  C   LIG d   1       3.496  -2.255  -8.767  0.00  0.00     0.027 A 
ATOM     25  C   LIG d   1       2.763  -3.147  -9.519  0.00  0.00     0.287 A 
ATOM     26  H   LIG d   1       4.371  -2.591  -8.229  0.00  0.00     0.069 H 
ATOM     27  C   LIG d   1       1.644  -2.717 -10.214  0.00  0.00     0.090 A 
ATOM     28  C   LIG d   1       1.252  -1.390 -10.155  0.00  0.00    -0.041 A 
ATOM     29  I   LIG d   1       0.542  -4.080 -11.360  0.00  0.00    -0.037 I 
ATOM     30  C   LIG d   1       1.974  -0.487  -9.403  0.00  0.00    -0.050 A 
ATOM     31  H   LIG d   1       0.380  -1.062 -10.700  0.00  0.00     0.063 H 
ATOM     32  H   LIG d   1       1.666   0.547  -9.358  0.00  0.00     0.062 H 
BRANCH  25  33
ATOM     33  N   LIG d   1       3.172  -4.568  -9.588  0.00  0.00     0.081 N 
ATOM     34  O   LIG d   1       2.780  -5.351  -8.755  0.00  0.00     0.042 OA
ATOM     35  O   LIG d   1       3.899  -4.945 -10.478  0.00  0.00    -0.576 OA
ENDBRANCH  25  33
ENDBRANCH  21  23
ENDBRANCH   1  21
TORSDOF 6
ENDMDL
MODEL 9
REMARK VINA RESULT:      -5.3      4.249      5.235
REMARK  6 active torsions:
REMARK  status: ('A' for Active; 'I' for Inactive)
REMARK    1  A    between atoms: C_1  and  C_2 
REMARK    2  A    between atoms: N_5  and  C_9 
REMARK    3  A    between atoms: C_7  and  C_8 
REMARK    4  A    between atoms: C_9  and  C_10 
REMARK    5  A    between atoms: C_10  and  C_12 
REMARK    6  A    between atoms: C_16  and  N_18 
ROOT
ATOM      1  C   LIG d   1       8.357   0.960  -4.349  0.00  0.00     0.212 C 
ATOM      2  H   LIG d   1       8.566   1.833  -3.730  0.00  0.00     0.112 H 
ATOM      3  H   LIG d   1       9.235   0.313  -4.370  0.00  0.00     0.112 H 
ENDROOT
BRANCH   1   4
ATOM      4  N   LIG d   1       7.222   0.224  -3.787  0.00  0.00    -0.196 N 
ATOM      5  C   LIG d   1       7.205  -1.092  -3.870  0.00  0.00     0.172 A 
ATOM      6  C   LIG d   1       6.151  -1.820  -3.351  0.00  0.00     0.005 A 
ATOM      7  H   LIG d   1       8.025  -1.607  -4.349  0.00  0.00     0.138 H 
ATOM      8  C   LIG d   1       5.104  -1.149  -2.739  0.00  0.00    -0.036 A 
ATOM      9  H   LIG d   1       6.144  -2.898  -3.422  0.00  0.00     0.068 H 
ATOM     10  C   LIG d   1       5.153   0.235  -2.676  0.00  0.00     0.016 A 
ATOM     11  C   LIG d   1       6.243   0.894  -3.211  0.00  0.00     0.175 A 
ATOM     12  H   LIG d   1       6.293   1.972  -3.162  0.00  0.00     0.138 H 
BRANCH   8  13
ATOM     13  C   LIG d   1       3.936  -1.907  -2.161  0.00  0.00    -0.039 C 
ATOM     14  H   LIG d   1       4.195  -2.273  -1.169  0.00  0.00     0.028 H 
ATOM     15  H   LIG d   1       3.073  -1.245  -2.090  0.00  0.00     0.028 H 
ATOM     16  H   LIG d   1       3.694  -2.750  -2.809  0.00  0.00     0.028 H 
ENDBRANCH   8  13
BRANCH  10  17
ATOM     17  C   LIG d   1       4.036   1.010  -2.026  0.00  0.00    -0.034 C 
ATOM     18  H   LIG d   1       3.078   0.576  -2.314  0.00  0.00     0.028 H 
ATOM     19  H   LIG d   1       4.144   0.964  -0.943  0.00  0.00     0.028 H 
ATOM     20  H   LIG d   1       4.077   2.049  -2.351  0.00  0.00     0.028 H 
ENDBRANCH  10  17
ENDBRANCH   1   4
BRANCH   1  21
ATOM     21  C   LIG d   1       8.025   1.404  -5.750  0.00  0.00     0.228 C 
ATOM     22  O   LIG d   1       7.115   0.877  -6.353  0.00  0.00    -0.285 OA
BRANCH  21  23
ATOM     23  C   LIG d   1       8.807   2.475  -6.387  0.00  0.00     0.030 A 
ATOM     24  C   LIG d   1       8.541   2.849  -7.707  0.00  0.00     0.027 A 
ATOM     25  C   LIG d   1       9.273   3.858  -8.296  0.00  0.00     0.287 A 
ATOM     26  H   LIG d   1       7.760   2.352  -8.264  0.00  0.00     0.069 H 
ATOM     27  C   LIG d   1      10.278   4.494  -7.585  0.00  0.00     0.090 A 
ATOM     28  C   LIG d   1      10.551   4.125  -6.278  0.00  0.00    -0.041 A 
ATOM     29  I   LIG d   1      11.390   6.020  -8.492  0.00  0.00    -0.037 I 
ATOM     30  C   LIG d   1       9.824   3.121  -5.675  0.00  0.00    -0.050 A 
ATOM     31  H   LIG d   1      11.336   4.624  -5.731  0.00  0.00     0.063 H 
ATOM     32  H   LIG d   1      10.037   2.836  -4.656  0.00  0.00     0.062 H 
BRANCH  25  33
ATOM     33  N   LIG d   1       8.989   4.260  -9.691  0.00  0.00     0.081 N 
ATOM     34  O   LIG d   1       8.218   5.164  -9.914  0.00  0.00     0.042 OA
ATOM     35  O   LIG d   1       9.528   3.686 -10.608  0.00  0.00    -0.576 OA
ENDBRANCH  25  33
ENDBRANCH  21  23
ENDBRANCH   1  21
TORSDOF 6
ENDMDL
