MODEL 1
REMARK VINA RESULT:      -6.7      0.000      0.000
REMARK  5 active torsions:
REMARK  status: ('A' for Active; 'I' for Inactive)
REMARK    1  A    between atoms: C_1  and  C_2 
REMARK    2  A    between atoms: C_2  and  N_3 
REMARK    3  A    between atoms: C_6  and  C_13 
REMARK    4  A    between atoms: C_19  and  O_25 
REMARK    5  A    between atoms: O_25  and  C_26 
ROOT
ATOM      1  C   LIG d   1       4.887  -0.573  -7.679  0.00  0.00     0.051 C 
ATOM      2  H   LIG d   1       5.884  -0.863  -8.012  0.00  0.00     0.097 H 
ATOM      3  C   LIG d   1       3.856  -1.093  -8.653  0.00  0.00     0.074 A 
ATOM      4  C   LIG d   1       3.258  -0.309  -9.578  0.00  0.00    -0.008 A 
ATOM      5  C   LIG d   1       2.338  -1.143 -10.318  0.00  0.00     0.007 A 
ATOM      6  C   LIG d   1       1.460  -0.885 -11.375  0.00  0.00    -0.011 A 
ATOM      7  C   LIG d   1       0.713  -1.955 -11.843  0.00  0.00     0.121 A 
ATOM      8  C   LIG d   1       0.828  -3.226 -11.292  0.00  0.00    -0.018 A 
ATOM      9  C   LIG d   1       1.692  -3.500 -10.247  0.00  0.00    -0.034 A 
ATOM     10  C   LIG d   1       2.454  -2.441  -9.757  0.00  0.00     0.047 A 
ATOM     11  N   LIG d   1       3.381  -2.372  -8.754  0.00  0.00    -0.353 N 
ATOM     12  H   LIG d   1       3.661  -3.116  -8.199  0.00  0.00     0.166 HD
ATOM     13  C   LIG d   1       3.563   1.160  -9.738  0.00  0.00     0.015 C 
ATOM     14  C   LIG d   1       4.868   1.454  -8.984  0.00  0.00    -0.029 C 
ATOM     15  N   LIG d   1       4.792   0.894  -7.628  0.00  0.00     0.237 N 
ATOM     16  H   LIG d   1       1.367   0.101 -11.806  0.00  0.00     0.066 H 
ATOM     17  H   LIG d   1       0.224  -4.026 -11.693  0.00  0.00     0.066 H 
ATOM     18  H   LIG d   1       1.771  -4.492  -9.827  0.00  0.00     0.064 H 
ATOM     19  H   LIG d   1       3.684   1.399 -10.795  0.00  0.00     0.037 H 
ATOM     20  H   LIG d   1       2.752   1.753  -9.317  0.00  0.00     0.037 H 
ATOM     21  H   LIG d   1       5.704   1.001  -9.516  0.00  0.00     0.082 H 
ATOM     22  H   LIG d   1       5.017   2.532  -8.924  0.00  0.00     0.082 H 
ATOM     23  H   LIG d   1       3.913   1.158  -7.208  0.00  0.00     0.202 HD
ATOM     24  H   LIG d   1       5.549   1.259  -7.070  0.00  0.00     0.202 HD
ENDROOT
BRANCH   1  25
ATOM     25  C   LIG d   1       4.624  -1.145  -6.310  0.00  0.00     0.079 A 
ATOM     26  C   LIG d   1       3.803  -0.461  -5.398  0.00  0.00     0.265 A 
ATOM     27  N   LIG d   1       3.580  -0.989  -4.178  0.00  0.00    -0.261 N 
ATOM     28  O   LIG d   1       3.296   0.604  -5.706  0.00  0.00    -0.267 OA
ATOM     29  C   LIG d   1       4.140  -2.162  -3.830  0.00  0.00     0.329 A 
ATOM     30  N   LIG d   1       4.926  -2.837  -4.689  0.00  0.00    -0.320 N 
ATOM     31  O   LIG d   1       3.931  -2.621  -2.723  0.00  0.00    -0.246 OA
ATOM     32  C   LIG d   1       5.179  -2.334  -5.940  0.00  0.00    -0.020 A 
ATOM     33  H   LIG d   1       5.319  -3.682  -4.420  0.00  0.00     0.169 HD
ATOM     34  O   LIG d   1       5.971  -3.011  -6.797  0.00  0.00    -0.861 OA
BRANCH  27  35
ATOM     35  C   LIG d   1       2.724  -0.280  -3.223  0.00  0.00     0.028 C 
ATOM     36  H   LIG d   1       2.259  -0.999  -2.549  0.00  0.00     0.049 H 
ATOM     37  H   LIG d   1       1.950   0.265  -3.763  0.00  0.00     0.049 H 
BRANCH  35  38
ATOM     38  C   LIG d   1       3.571   0.704  -2.413  0.00  0.00    -0.047 C 
ATOM     39  H   LIG d   1       3.402   0.537  -1.348  0.00  0.00     0.025 H 
ATOM     40  H   LIG d   1       4.625   0.551  -2.642  0.00  0.00     0.025 H 
ATOM     41  H   LIG d   1       3.287   1.724  -2.670  0.00  0.00     0.025 H 
ENDBRANCH  35  38
ENDBRANCH  27  35
ENDBRANCH   1  25
BRANCH   7  42
ATOM     42  O   LIG d   1      -0.157  -1.757 -12.870  0.00  0.00    -0.495 OA
BRANCH  42  43
ATOM     43  C   LIG d   1      -0.990  -2.858 -13.237  0.00  0.00     0.079 C 
ATOM     44  H   LIG d   1      -0.367  -3.695 -13.553  0.00  0.00     0.066 H 
ATOM     45  H   LIG d   1      -1.594  -3.158 -12.380  0.00  0.00     0.066 H 
ATOM     46  H   LIG d   1      -1.644  -2.562 -14.056  0.00  0.00     0.066 H 
ENDBRANCH  42  43
ENDBRANCH   7  42
TORSDOF 5
ENDMDL
MODEL 2
REMARK VINA RESULT:      -6.5      1.080      2.073
REMARK  5 active torsions:
REMARK  status: ('A' for Active; 'I' for Inactive)
REMARK    1  A    between atoms: C_1  and  C_2 
REMARK    2  A    between atoms: C_2  and  N_3 
REMARK    3  A    between atoms: C_6  and  C_13 
REMARK    4  A    between atoms: C_19  and  O_25 
REMARK    5  A    between atoms: O_25  and  C_26 
ROOT
ATOM      1  C   LIG d   1       4.546  -0.134  -7.970  0.00  0.00     0.051 C 
ATOM      2  H   LIG d   1       5.519  -0.621  -8.028  0.00  0.00     0.097 H 
ATOM      3  C   LIG d   1       3.595  -0.784  -8.946  0.00  0.00     0.074 A 
ATOM      4  C   LIG d   1       3.272  -0.231 -10.138  0.00  0.00    -0.008 A 
ATOM      5  C   LIG d   1       2.344  -1.127 -10.790  0.00  0.00     0.007 A 
ATOM      6  C   LIG d   1       1.681  -1.079 -12.020  0.00  0.00    -0.011 A 
ATOM      7  C   LIG d   1       0.844  -2.143 -12.322  0.00  0.00     0.121 A 
ATOM      8  C   LIG d   1       0.670  -3.209 -11.447  0.00  0.00    -0.018 A 
ATOM      9  C   LIG d   1       1.318  -3.273 -10.226  0.00  0.00    -0.034 A 
ATOM     10  C   LIG d   1       2.165  -2.217  -9.899  0.00  0.00     0.047 A 
ATOM     11  N   LIG d   1       2.937  -1.974  -8.796  0.00  0.00    -0.353 N 
ATOM     12  H   LIG d   1       3.008  -2.558  -8.025  0.00  0.00     0.166 HD
ATOM     13  C   LIG d   1       3.832   1.086 -10.616  0.00  0.00     0.015 C 
ATOM     14  C   LIG d   1       5.046   1.426  -9.739  0.00  0.00    -0.029 C 
ATOM     15  N   LIG d   1       4.686   1.288  -8.322  0.00  0.00     0.237 N 
ATOM     16  H   LIG d   1       1.813  -0.252 -12.702  0.00  0.00     0.066 H 
ATOM     17  H   LIG d   1       0.007  -4.013 -11.729  0.00  0.00     0.066 H 
ATOM     18  H   LIG d   1       1.173  -4.108  -9.555  0.00  0.00     0.064 H 
ATOM     19  H   LIG d   1       4.142   0.998 -11.658  0.00  0.00     0.037 H 
ATOM     20  H   LIG d   1       3.077   1.865 -10.520  0.00  0.00     0.037 H 
ATOM     21  H   LIG d   1       5.864   0.746  -9.972  0.00  0.00     0.082 H 
ATOM     22  H   LIG d   1       5.359   2.452  -9.936  0.00  0.00     0.082 H 
ATOM     23  H   LIG d   1       3.810   1.762  -8.153  0.00  0.00     0.202 HD
ATOM     24  H   LIG d   1       5.404   1.705  -7.749  0.00  0.00     0.202 HD
ENDROOT
BRANCH   1  25
ATOM     25  C   LIG d   1       4.000  -0.258  -6.571  0.00  0.00     0.079 A 
ATOM     26  C   LIG d   1       4.495  -1.241  -5.697  0.00  0.00     0.265 A 
ATOM     27  N   LIG d   1       3.993  -1.336  -4.450  0.00  0.00    -0.261 N 
ATOM     28  O   LIG d   1       5.372  -2.004  -6.064  0.00  0.00    -0.267 OA
ATOM     29  C   LIG d   1       3.021  -0.499  -4.041  0.00  0.00     0.329 A 
ATOM     30  N   LIG d   1       2.536   0.453  -4.859  0.00  0.00    -0.320 N 
ATOM     31  O   LIG d   1       2.578  -0.603  -2.913  0.00  0.00    -0.246 OA
ATOM     32  C   LIG d   1       3.019   0.583  -6.136  0.00  0.00    -0.020 A 
ATOM     33  H   LIG d   1       1.838   1.048  -4.544  0.00  0.00     0.169 HD
ATOM     34  O   LIG d   1       2.527   1.536  -6.955  0.00  0.00    -0.861 OA
BRANCH  27  35
ATOM     35  C   LIG d   1       4.505  -2.359  -3.535  0.00  0.00     0.028 C 
ATOM     36  H   LIG d   1       4.803  -3.238  -4.104  0.00  0.00     0.049 H 
ATOM     37  H   LIG d   1       3.725  -2.633  -2.824  0.00  0.00     0.049 H 
BRANCH  35  38
ATOM     38  C   LIG d   1       5.714  -1.807  -2.778  0.00  0.00    -0.047 C 
ATOM     39  H   LIG d   1       5.869  -0.763  -3.052  0.00  0.00     0.025 H 
ATOM     40  H   LIG d   1       5.536  -1.878  -1.705  0.00  0.00     0.025 H 
ATOM     41  H   LIG d   1       6.600  -2.385  -3.038  0.00  0.00     0.025 H 
ENDBRANCH  35  38
ENDBRANCH  27  35
ENDBRANCH   1  25
BRANCH   7  42
ATOM     42  O   LIG d   1       0.175  -2.144 -13.506  0.00  0.00    -0.495 OA
BRANCH  42  43
ATOM     43  C   LIG d   1      -1.202  -1.763 -13.474  0.00  0.00     0.079 C 
ATOM     44  H   LIG d   1      -1.540  -1.538 -14.486  0.00  0.00     0.066 H 
ATOM     45  H   LIG d   1      -1.795  -2.582 -13.067  0.00  0.00     0.066 H 
ATOM     46  H   LIG d   1      -1.321  -0.881 -12.846  0.00  0.00     0.066 H 
ENDBRANCH  42  43
ENDBRANCH   7  42
TORSDOF 5
ENDMDL
MODEL 3
REMARK VINA RESULT:      -6.4      3.726      7.578
REMARK  5 active torsions:
REMARK  status: ('A' for Active; 'I' for Inactive)
REMARK    1  A    between atoms: C_1  and  C_2 
REMARK    2  A    between atoms: C_2  and  N_3 
REMARK    3  A    between atoms: C_6  and  C_13 
REMARK    4  A    between atoms: C_19  and  O_25 
REMARK    5  A    between atoms: O_25  and  C_26 
ROOT
ATOM      1  C   LIG d   1       4.871  -3.275  -6.444  0.00  0.00     0.051 C 
ATOM      2  H   LIG d   1       4.967  -3.191  -7.526  0.00  0.00     0.097 H 
ATOM      3  C   LIG d   1       6.219  -3.587  -5.838  0.00  0.00     0.074 A 
ATOM      4  C   LIG d   1       6.571  -4.826  -5.426  0.00  0.00    -0.008 A 
ATOM      5  C   LIG d   1       7.916  -4.739  -4.905  0.00  0.00     0.007 A 
ATOM      6  C   LIG d   1       8.784  -5.685  -4.348  0.00  0.00    -0.011 A 
ATOM      7  C   LIG d   1      10.030  -5.231  -3.946  0.00  0.00     0.121 A 
ATOM      8  C   LIG d   1      10.405  -3.900  -4.088  0.00  0.00    -0.018 A 
ATOM      9  C   LIG d   1       9.562  -2.951  -4.636  0.00  0.00    -0.034 A 
ATOM     10  C   LIG d   1       8.302  -3.382  -5.049  0.00  0.00     0.047 A 
ATOM     11  N   LIG d   1       7.251  -2.716  -5.617  0.00  0.00    -0.353 N 
ATOM     12  H   LIG d   1       7.239  -1.770  -5.831  0.00  0.00     0.166 HD
ATOM     13  C   LIG d   1       5.659  -6.023  -5.535  0.00  0.00     0.015 C 
ATOM     14  C   LIG d   1       4.520  -5.659  -6.498  0.00  0.00    -0.029 C 
ATOM     15  N   LIG d   1       3.940  -4.365  -6.113  0.00  0.00     0.237 N 
ATOM     16  H   LIG d   1       8.495  -6.720  -4.236  0.00  0.00     0.066 H 
ATOM     17  H   LIG d   1      11.388  -3.597  -3.759  0.00  0.00     0.066 H 
ATOM     18  H   LIG d   1       9.866  -1.919  -4.740  0.00  0.00     0.064 H 
ATOM     19  H   LIG d   1       6.214  -6.876  -5.924  0.00  0.00     0.037 H 
ATOM     20  H   LIG d   1       5.250  -6.265  -4.555  0.00  0.00     0.037 H 
ATOM     21  H   LIG d   1       4.911  -5.593  -7.513  0.00  0.00     0.082 H 
ATOM     22  H   LIG d   1       3.749  -6.429  -6.456  0.00  0.00     0.082 H 
ATOM     23  H   LIG d   1       3.762  -4.363  -5.120  0.00  0.00     0.202 HD
ATOM     24  H   LIG d   1       3.072  -4.225  -6.607  0.00  0.00     0.202 HD
ENDROOT
BRANCH   1  25
ATOM     25  C   LIG d   1       4.351  -1.977  -5.880  0.00  0.00     0.079 A 
ATOM     26  C   LIG d   1       4.022  -1.874  -4.517  0.00  0.00     0.265 A 
ATOM     27  N   LIG d   1       3.558  -0.705  -4.033  0.00  0.00    -0.261 N 
ATOM     28  O   LIG d   1       4.154  -2.834  -3.779  0.00  0.00    -0.267 OA
ATOM     29  C   LIG d   1       3.407   0.358  -4.845  0.00  0.00     0.329 A 
ATOM     30  N   LIG d   1       3.720   0.283  -6.151  0.00  0.00    -0.320 N 
ATOM     31  O   LIG d   1       2.983   1.403  -4.389  0.00  0.00    -0.246 OA
ATOM     32  C   LIG d   1       4.195  -0.888  -6.685  0.00  0.00    -0.020 A 
ATOM     33  H   LIG d   1       3.606   1.061  -6.718  0.00  0.00     0.169 HD
ATOM     34  O   LIG d   1       4.504  -0.961  -7.996  0.00  0.00    -0.861 OA
BRANCH  27  35
ATOM     35  C   LIG d   1       3.213  -0.591  -2.613  0.00  0.00     0.028 C 
ATOM     36  H   LIG d   1       2.906  -1.565  -2.235  0.00  0.00     0.049 H 
ATOM     37  H   LIG d   1       2.395   0.120  -2.494  0.00  0.00     0.049 H 
BRANCH  35  38
ATOM     38  C   LIG d   1       4.433  -0.101  -1.830  0.00  0.00    -0.047 C 
ATOM     39  H   LIG d   1       5.312  -0.127  -2.473  0.00  0.00     0.025 H 
ATOM     40  H   LIG d   1       4.261   0.920  -1.490  0.00  0.00     0.025 H 
ATOM     41  H   LIG d   1       4.594  -0.748  -0.968  0.00  0.00     0.025 H 
ENDBRANCH  35  38
ENDBRANCH  27  35
ENDBRANCH   1  25
BRANCH   7  42
ATOM     42  O   LIG d   1      10.910  -6.111  -3.398  0.00  0.00    -0.495 OA
BRANCH  42  43
ATOM     43  C   LIG d   1      10.498  -6.783  -2.206  0.00  0.00     0.079 C 
ATOM     44  H   LIG d   1       9.836  -6.133  -1.634  0.00  0.00     0.066 H 
ATOM     45  H   LIG d   1       9.969  -7.699  -2.470  0.00  0.00     0.066 H 
ATOM     46  H   LIG d   1      11.374  -7.029  -1.607  0.00  0.00     0.066 H 
ENDBRANCH  42  43
ENDBRANCH   7  42
TORSDOF 5
ENDMDL
MODEL 4
REMARK VINA RESULT:      -6.4      3.727      7.782
REMARK  5 active torsions:
REMARK  status: ('A' for Active; 'I' for Inactive)
REMARK    1  A    between atoms: C_1  and  C_2 
REMARK    2  A    between atoms: C_2  and  N_3 
REMARK    3  A    between atoms: C_6  and  C_13 
REMARK    4  A    between atoms: C_19  and  O_25 
REMARK    5  A    between atoms: O_25  and  C_26 
ROOT
ATOM      1  C   LIG d   1       4.906  -1.317  -4.164  0.00  0.00     0.051 C 
ATOM      2  H   LIG d   1       5.001  -2.138  -3.452  0.00  0.00     0.097 H 
ATOM      3  C   LIG d   1       6.215  -0.569  -4.252  0.00  0.00     0.074 A 
ATOM      4  C   LIG d   1       6.427   0.617  -3.637  0.00  0.00    -0.008 A 
ATOM      5  C   LIG d   1       7.778   1.026  -3.948  0.00  0.00     0.007 A 
ATOM      6  C   LIG d   1       8.537   2.147  -3.597  0.00  0.00    -0.011 A 
ATOM      7  C   LIG d   1       9.831   2.207  -4.091  0.00  0.00     0.121 A 
ATOM      8  C   LIG d   1      10.354   1.203  -4.897  0.00  0.00    -0.018 A 
ATOM      9  C   LIG d   1       9.619   0.087  -5.254  0.00  0.00    -0.034 A 
ATOM     10  C   LIG d   1       8.315   0.002  -4.770  0.00  0.00     0.047 A 
ATOM     11  N   LIG d   1       7.341  -0.945  -4.932  0.00  0.00    -0.353 N 
ATOM     12  H   LIG d   1       7.435  -1.760  -5.449  0.00  0.00     0.166 HD
ATOM     13  C   LIG d   1       5.383   1.310  -2.797  0.00  0.00     0.015 C 
ATOM     14  C   LIG d   1       4.284   0.287  -2.475  0.00  0.00    -0.029 C 
ATOM     15  N   LIG d   1       3.860  -0.388  -3.709  0.00  0.00     0.237 N 
ATOM     16  H   LIG d   1       8.133   2.930  -2.971  0.00  0.00     0.066 H 
ATOM     17  H   LIG d   1      11.368   1.297  -5.256  0.00  0.00     0.066 H 
ATOM     18  H   LIG d   1      10.038  -0.686  -5.882  0.00  0.00     0.064 H 
ATOM     19  H   LIG d   1       5.834   1.671  -1.873  0.00  0.00     0.037 H 
ATOM     20  H   LIG d   1       4.958   2.146  -3.351  0.00  0.00     0.037 H 
ATOM     21  H   LIG d   1       4.671  -0.452  -1.773  0.00  0.00     0.082 H 
ATOM     22  H   LIG d   1       3.432   0.799  -2.029  0.00  0.00     0.082 H 
ATOM     23  H   LIG d   1       3.692   0.303  -4.424  0.00  0.00     0.202 HD
ATOM     24  H   LIG d   1       3.009  -0.901  -3.536  0.00  0.00     0.202 HD
ENDROOT
BRANCH   1  25
ATOM     25  C   LIG d   1       4.542  -1.863  -5.520  0.00  0.00     0.079 A 
ATOM     26  C   LIG d   1       4.265  -0.992  -6.588  0.00  0.00     0.265 A 
ATOM     27  N   LIG d   1       3.942  -1.500  -7.794  0.00  0.00    -0.261 N 
ATOM     28  O   LIG d   1       4.315   0.215  -6.425  0.00  0.00    -0.267 OA
ATOM     29  C   LIG d   1       3.880  -2.832  -7.979  0.00  0.00     0.329 A 
ATOM     30  N   LIG d   1       4.147  -3.684  -6.972  0.00  0.00    -0.320 N 
ATOM     31  O   LIG d   1       3.582  -3.271  -9.073  0.00  0.00    -0.246 OA
ATOM     32  C   LIG d   1       4.480  -3.209  -5.729  0.00  0.00    -0.020 A 
ATOM     33  H   LIG d   1       4.100  -4.640  -7.126  0.00  0.00     0.169 HD
ATOM     34  O   LIG d   1       4.742  -4.067  -4.721  0.00  0.00    -0.861 OA
BRANCH  27  35
ATOM     35  C   LIG d   1       3.651  -0.597  -8.910  0.00  0.00     0.028 C 
ATOM     36  H   LIG d   1       3.944  -1.070  -9.846  0.00  0.00     0.049 H 
ATOM     37  H   LIG d   1       4.209   0.331  -8.782  0.00  0.00     0.049 H 
BRANCH  35  38
ATOM     38  C   LIG d   1       2.152  -0.290  -8.941  0.00  0.00    -0.047 C 
ATOM     39  H   LIG d   1       1.933   0.366  -9.784  0.00  0.00     0.025 H 
ATOM     40  H   LIG d   1       1.593  -1.219  -9.048  0.00  0.00     0.025 H 
ATOM     41  H   LIG d   1       1.864   0.204  -8.013  0.00  0.00     0.025 H 
ENDBRANCH  35  38
ENDBRANCH  27  35
ENDBRANCH   1  25
BRANCH   7  42
ATOM     42  O   LIG d   1      10.609   3.277  -3.779  0.00  0.00    -0.495 OA
BRANCH  42  43
ATOM     43  C   LIG d   1      10.019   4.296  -2.969  0.00  0.00     0.079 C 
ATOM     44  H   LIG d   1      10.027   3.980  -1.925  0.00  0.00     0.066 H 
ATOM     45  H   LIG d   1      10.589   5.219  -3.073  0.00  0.00     0.066 H 
ATOM     46  H   LIG d   1       8.991   4.465  -3.289  0.00  0.00     0.066 H 
ENDBRANCH  42  43
ENDBRANCH   7  42
TORSDOF 5
ENDMDL
MODEL 5
REMARK VINA RESULT:      -6.4      5.357      8.260
REMARK  5 active torsions:
REMARK  status: ('A' for Active; 'I' for Inactive)
REMARK    1  A    between atoms: C_1  and  C_2 
REMARK    2  A    between atoms: C_2  and  N_3 
REMARK    3  A    between atoms: C_6  and  C_13 
REMARK    4  A    between atoms: C_19  and  O_25 
REMARK    5  A    between atoms: O_25  and  C_26 
ROOT
ATOM      1  C   LIG d   1       7.604  -2.037  -5.438  0.00  0.00     0.051 C 
ATOM      2  H   LIG d   1       8.403  -1.522  -5.971  0.00  0.00     0.097 H 
ATOM      3  C   LIG d   1       8.179  -3.198  -4.661  0.00  0.00     0.074 A 
ATOM      4  C   LIG d   1       8.082  -4.481  -5.078  0.00  0.00    -0.008 A 
ATOM      5  C   LIG d   1       8.738  -5.304  -4.087  0.00  0.00     0.007 A 
ATOM      6  C   LIG d   1       8.946  -6.684  -3.984  0.00  0.00    -0.011 A 
ATOM      7  C   LIG d   1       9.633  -7.131  -2.865  0.00  0.00     0.121 A 
ATOM      8  C   LIG d   1      10.094  -6.254  -1.890  0.00  0.00    -0.018 A 
ATOM      9  C   LIG d   1       9.898  -4.887  -1.976  0.00  0.00    -0.034 A 
ATOM     10  C   LIG d   1       9.210  -4.412  -3.091  0.00  0.00     0.047 A 
ATOM     11  N   LIG d   1       8.854  -3.147  -3.473  0.00  0.00    -0.353 N 
ATOM     12  H   LIG d   1       9.051  -2.338  -2.977  0.00  0.00     0.166 HD
ATOM     13  C   LIG d   1       7.398  -4.884  -6.361  0.00  0.00     0.015 C 
ATOM     14  C   LIG d   1       7.221  -3.621  -7.215  0.00  0.00    -0.029 C 
ATOM     15  N   LIG d   1       6.620  -2.554  -6.402  0.00  0.00     0.237 N 
ATOM     16  H   LIG d   1       8.588  -7.368  -4.739  0.00  0.00     0.066 H 
ATOM     17  H   LIG d   1      10.624  -6.652  -1.038  0.00  0.00     0.066 H 
ATOM     18  H   LIG d   1      10.262  -4.217  -1.211  0.00  0.00     0.064 H 
ATOM     19  H   LIG d   1       8.013  -5.608  -6.895  0.00  0.00     0.037 H 
ATOM     20  H   LIG d   1       6.425  -5.319  -6.139  0.00  0.00     0.037 H 
ATOM     21  H   LIG d   1       8.193  -3.292  -7.582  0.00  0.00     0.082 H 
ATOM     22  H   LIG d   1       6.570  -3.843  -8.061  0.00  0.00     0.082 H 
ATOM     23  H   LIG d   1       5.825  -2.924  -5.903  0.00  0.00     0.202 HD
ATOM     24  H   LIG d   1       6.315  -1.804  -7.004  0.00  0.00     0.202 HD
ENDROOT
BRANCH   1  25
ATOM     25  C   LIG d   1       6.929  -1.079  -4.491  0.00  0.00     0.079 A 
ATOM     26  C   LIG d   1       5.784  -1.472  -3.776  0.00  0.00     0.265 A 
ATOM     27  N   LIG d   1       5.195  -0.600  -2.934  0.00  0.00    -0.261 N 
ATOM     28  O   LIG d   1       5.326  -2.592  -3.917  0.00  0.00    -0.267 OA
ATOM     29  C   LIG d   1       5.693   0.641  -2.777  0.00  0.00     0.329 A 
ATOM     30  N   LIG d   1       6.790   1.036  -3.447  0.00  0.00    -0.320 N 
ATOM     31  O   LIG d   1       5.144   1.414  -2.016  0.00  0.00    -0.246 OA
ATOM     32  C   LIG d   1       7.421   0.180  -4.315  0.00  0.00    -0.020 A 
ATOM     33  H   LIG d   1       7.136   1.933  -3.319  0.00  0.00     0.169 HD
ATOM     34  O   LIG d   1       8.519   0.582  -4.989  0.00  0.00    -0.861 OA
BRANCH  27  35
ATOM     35  C   LIG d   1       4.001  -1.004  -2.187  0.00  0.00     0.028 C 
ATOM     36  H   LIG d   1       3.946  -0.439  -1.257  0.00  0.00     0.049 H 
ATOM     37  H   LIG d   1       4.056  -2.069  -1.962  0.00  0.00     0.049 H 
BRANCH  35  38
ATOM     38  C   LIG d   1       2.753  -0.724  -3.028  0.00  0.00    -0.047 C 
ATOM     39  H   LIG d   1       2.303   0.216  -2.707  0.00  0.00     0.025 H 
ATOM     40  H   LIG d   1       3.032  -0.654  -4.079  0.00  0.00     0.025 H 
ATOM     41  H   LIG d   1       2.037  -1.534  -2.895  0.00  0.00     0.025 H 
ENDBRANCH  35  38
ENDBRANCH  27  35
ENDBRANCH   1  25
BRANCH   7  42
ATOM     42  O   LIG d   1       9.861  -8.463  -2.717  0.00  0.00    -0.495 OA
BRANCH  42  43
ATOM     43  C   LIG d   1       8.891  -9.209  -1.978  0.00  0.00     0.079 C 
ATOM     44  H   LIG d   1       7.890  -8.899  -2.277  0.00  0.00     0.066 H 
ATOM     45  H   LIG d   1       9.018 -10.272  -2.184  0.00  0.00     0.066 H 
ATOM     46  H   LIG d   1       9.026  -9.026  -0.913  0.00  0.00     0.066 H 
ENDBRANCH  42  43
ENDBRANCH   7  42
TORSDOF 5
ENDMDL
MODEL 6
REMARK VINA RESULT:      -6.1      2.104      3.261
REMARK  5 active torsions:
REMARK  status: ('A' for Active; 'I' for Inactive)
REMARK    1  A    between atoms: C_1  and  C_2 
REMARK    2  A    between atoms: C_2  and  N_3 
REMARK    3  A    between atoms: C_6  and  C_13 
REMARK    4  A    between atoms: C_19  and  O_25 
REMARK    5  A    between atoms: O_25  and  C_26 
ROOT
ATOM      1  C   LIG d   1       5.086  -2.670  -5.929  0.00  0.00     0.051 C 
ATOM      2  H   LIG d   1       4.435  -3.266  -5.290  0.00  0.00     0.097 H 
ATOM      3  C   LIG d   1       4.331  -2.244  -7.166  0.00  0.00     0.074 A 
ATOM      4  C   LIG d   1       4.490  -2.844  -8.368  0.00  0.00    -0.008 A 
ATOM      5  C   LIG d   1       3.615  -2.172  -9.302  0.00  0.00     0.007 A 
ATOM      6  C   LIG d   1       3.361  -2.353 -10.666  0.00  0.00    -0.011 A 
ATOM      7  C   LIG d   1       2.436  -1.500 -11.248  0.00  0.00     0.121 A 
ATOM      8  C   LIG d   1       1.789  -0.511 -10.516  0.00  0.00    -0.018 A 
ATOM      9  C   LIG d   1       2.028  -0.317  -9.167  0.00  0.00    -0.034 A 
ATOM     10  C   LIG d   1       2.953  -1.162  -8.558  0.00  0.00     0.047 A 
ATOM     11  N   LIG d   1       3.411  -1.237  -7.270  0.00  0.00    -0.353 N 
ATOM     12  H   LIG d   1       3.126  -0.663  -6.542  0.00  0.00     0.166 HD
ATOM     13  C   LIG d   1       5.431  -4.001  -8.596  0.00  0.00     0.015 C 
ATOM     14  C   LIG d   1       5.819  -4.568  -7.223  0.00  0.00    -0.029 C 
ATOM     15  N   LIG d   1       6.247  -3.476  -6.339  0.00  0.00     0.237 N 
ATOM     16  H   LIG d   1       3.862  -3.120 -11.238  0.00  0.00     0.066 H 
ATOM     17  H   LIG d   1       1.076   0.127 -11.016  0.00  0.00     0.066 H 
ATOM     18  H   LIG d   1       1.518   0.456  -8.610  0.00  0.00     0.064 H 
ATOM     19  H   LIG d   1       4.934  -4.769  -9.187  0.00  0.00     0.037 H 
ATOM     20  H   LIG d   1       6.323  -3.654  -9.117  0.00  0.00     0.037 H 
ATOM     21  H   LIG d   1       4.958  -5.073  -6.783  0.00  0.00     0.082 H 
ATOM     22  H   LIG d   1       6.635  -5.280  -7.342  0.00  0.00     0.082 H 
ATOM     23  H   LIG d   1       6.905  -2.889  -6.830  0.00  0.00     0.202 HD
ATOM     24  H   LIG d   1       6.693  -3.860  -5.519  0.00  0.00     0.202 HD
ENDROOT
BRANCH   1  25
ATOM     25  C   LIG d   1       5.556  -1.451  -5.178  0.00  0.00     0.079 A 
ATOM     26  C   LIG d   1       4.983  -1.113  -3.940  0.00  0.00     0.265 A 
ATOM     27  N   LIG d   1       5.418  -0.018  -3.284  0.00  0.00    -0.261 N 
ATOM     28  O   LIG d   1       4.100  -1.802  -3.462  0.00  0.00    -0.267 OA
ATOM     29  C   LIG d   1       6.391   0.750  -3.808  0.00  0.00     0.329 A 
ATOM     30  N   LIG d   1       6.956   0.442  -4.989  0.00  0.00    -0.320 N 
ATOM     31  O   LIG d   1       6.766   1.736  -3.203  0.00  0.00    -0.246 OA
ATOM     32  C   LIG d   1       6.543  -0.663  -5.690  0.00  0.00    -0.020 A 
ATOM     33  H   LIG d   1       7.657   1.007  -5.349  0.00  0.00     0.169 HD
ATOM     34  O   LIG d   1       7.110  -0.966  -6.877  0.00  0.00    -0.861 OA
BRANCH  27  35
ATOM     35  C   LIG d   1       4.825   0.340  -1.993  0.00  0.00     0.028 C 
ATOM     36  H   LIG d   1       5.566   0.854  -1.382  0.00  0.00     0.049 H 
ATOM     37  H   LIG d   1       4.497  -0.565  -1.480  0.00  0.00     0.049 H 
BRANCH  35  38
ATOM     38  C   LIG d   1       3.625   1.261  -2.221  0.00  0.00    -0.047 C 
ATOM     39  H   LIG d   1       3.960   2.299  -2.226  0.00  0.00     0.025 H 
ATOM     40  H   LIG d   1       3.161   1.024  -3.178  0.00  0.00     0.025 H 
ATOM     41  H   LIG d   1       2.900   1.118  -1.419  0.00  0.00     0.025 H 
ENDBRANCH  35  38
ENDBRANCH  27  35
ENDBRANCH   1  25
BRANCH   7  42
ATOM     42  O   LIG d   1       2.153  -1.634 -12.571  0.00  0.00    -0.495 OA
BRANCH  42  43
ATOM     43  C   LIG d   1       3.248  -1.527 -13.483  0.00  0.00     0.079 C 
ATOM     44  H   LIG d   1       2.941  -1.892 -14.463  0.00  0.00     0.066 H 
ATOM     45  H   LIG d   1       3.553  -0.483 -13.564  0.00  0.00     0.066 H 
ATOM     46  H   LIG d   1       4.084  -2.122 -13.118  0.00  0.00     0.066 H 
ENDBRANCH  42  43
ENDBRANCH   7  42
TORSDOF 5
ENDMDL
MODEL 7
REMARK VINA RESULT:      -6.1      3.364      7.930
REMARK  5 active torsions:
REMARK  status: ('A' for Active; 'I' for Inactive)
REMARK    1  A    between atoms: C_1  and  C_2 
REMARK    2  A    between atoms: C_2  and  N_3 
REMARK    3  A    between atoms: C_6  and  C_13 
REMARK    4  A    between atoms: C_19  and  O_25 
REMARK    5  A    between atoms: O_25  and  C_26 
ROOT
ATOM      1  C   LIG d   1       4.768  -1.699  -5.795  0.00  0.00     0.051 C 
ATOM      2  H   LIG d   1       5.266  -2.652  -5.971  0.00  0.00     0.097 H 
ATOM      3  C   LIG d   1       5.800  -0.630  -5.524  0.00  0.00     0.074 A 
ATOM      4  C   LIG d   1       6.077  -0.174  -4.281  0.00  0.00    -0.008 A 
ATOM      5  C   LIG d   1       7.103   0.836  -4.413  0.00  0.00     0.007 A 
ATOM      6  C   LIG d   1       7.770   1.641  -3.484  0.00  0.00    -0.011 A 
ATOM      7  C   LIG d   1       8.718   2.520  -3.985  0.00  0.00     0.121 A 
ATOM      8  C   LIG d   1       8.995   2.602  -5.345  0.00  0.00    -0.018 A 
ATOM      9  C   LIG d   1       8.345   1.814  -6.278  0.00  0.00    -0.034 A 
ATOM     10  C   LIG d   1       7.388   0.921  -5.800  0.00  0.00     0.047 A 
ATOM     11  N   LIG d   1       6.581   0.019  -6.439  0.00  0.00    -0.353 N 
ATOM     12  H   LIG d   1       6.566  -0.136  -7.397  0.00  0.00     0.166 HD
ATOM     13  C   LIG d   1       5.392  -0.690  -3.040  0.00  0.00     0.015 C 
ATOM     14  C   LIG d   1       4.685  -2.003  -3.404  0.00  0.00    -0.029 C 
ATOM     15  N   LIG d   1       3.886  -1.813  -4.622  0.00  0.00     0.237 N 
ATOM     16  H   LIG d   1       7.557   1.581  -2.427  0.00  0.00     0.066 H 
ATOM     17  H   LIG d   1       9.742   3.303  -5.684  0.00  0.00     0.066 H 
ATOM     18  H   LIG d   1       8.570   1.888  -7.332  0.00  0.00     0.064 H 
ATOM     19  H   LIG d   1       6.130  -0.871  -2.259  0.00  0.00     0.037 H 
ATOM     20  H   LIG d   1       4.660   0.039  -2.693  0.00  0.00     0.037 H 
ATOM     21  H   LIG d   1       5.430  -2.779  -3.578  0.00  0.00     0.082 H 
ATOM     22  H   LIG d   1       4.032  -2.303  -2.585  0.00  0.00     0.082 H 
ATOM     23  H   LIG d   1       3.338  -0.970  -4.533  0.00  0.00     0.202 HD
ATOM     24  H   LIG d   1       3.266  -2.600  -4.745  0.00  0.00     0.202 HD
ENDROOT
BRANCH   1  25
ATOM     25  C   LIG d   1       3.954  -1.322  -7.006  0.00  0.00     0.079 A 
ATOM     26  C   LIG d   1       3.999  -2.110  -8.169  0.00  0.00     0.265 A 
ATOM     27  N   LIG d   1       3.263  -1.756  -9.241  0.00  0.00    -0.261 N 
ATOM     28  O   LIG d   1       4.700  -3.107  -8.209  0.00  0.00    -0.267 OA
ATOM     29  C   LIG d   1       2.492  -0.653  -9.204  0.00  0.00     0.329 A 
ATOM     30  N   LIG d   1       2.429   0.113  -8.100  0.00  0.00    -0.320 N 
ATOM     31  O   LIG d   1       1.838  -0.348 -10.184  0.00  0.00    -0.246 OA
ATOM     32  C   LIG d   1       3.162  -0.213  -6.987  0.00  0.00    -0.020 A 
ATOM     33  H   LIG d   1       1.865   0.901  -8.093  0.00  0.00     0.169 HD
ATOM     34  O   LIG d   1       3.101   0.561  -5.883  0.00  0.00    -0.861 OA
BRANCH  27  35
ATOM     35  C   LIG d   1       3.307  -2.573 -10.456  0.00  0.00     0.028 C 
ATOM     36  H   LIG d   1       2.355  -2.497 -10.979  0.00  0.00     0.049 H 
ATOM     37  H   LIG d   1       3.492  -3.613 -10.188  0.00  0.00     0.049 H 
BRANCH  35  38
ATOM     38  C   LIG d   1       4.430  -2.073 -11.367  0.00  0.00    -0.047 C 
ATOM     39  H   LIG d   1       5.391  -2.216 -10.871  0.00  0.00     0.025 H 
ATOM     40  H   LIG d   1       4.416  -2.633 -12.302  0.00  0.00     0.025 H 
ATOM     41  H   LIG d   1       4.284  -1.013 -11.575  0.00  0.00     0.025 H 
ENDBRANCH  35  38
ENDBRANCH  27  35
ENDBRANCH   1  25
BRANCH   7  42
ATOM     42  O   LIG d   1       9.394   3.326  -3.124  0.00  0.00    -0.495 OA
BRANCH  42  43
ATOM     43  C   LIG d   1      10.723   2.932  -2.775  0.00  0.00     0.079 C 
ATOM     44  H   LIG d   1      10.760   1.849  -2.650  0.00  0.00     0.066 H 
ATOM     45  H   LIG d   1      11.410   3.229  -3.568  0.00  0.00     0.066 H 
ATOM     46  H   LIG d   1      11.013   3.415  -1.843  0.00  0.00     0.066 H 
ENDBRANCH  42  43
ENDBRANCH   7  42
TORSDOF 5
ENDMDL
MODEL 8
REMARK VINA RESULT:      -6.1      9.817     12.390
REMARK  5 active torsions:
REMARK  status: ('A' for Active; 'I' for Inactive)
REMARK    1  A    between atoms: C_1  and  C_2 
REMARK    2  A    between atoms: C_2  and  N_3 
REMARK    3  A    between atoms: C_6  and  C_13 
REMARK    4  A    between atoms: C_19  and  O_25 
REMARK    5  A    between atoms: O_25  and  C_26 
ROOT
ATOM      1  C   LIG d   1       9.577   6.333  -2.447  0.00  0.00     0.051 C 
ATOM      2  H   LIG d   1       8.556   6.212  -2.087  0.00  0.00     0.097 H 
ATOM      3  C   LIG d   1       9.561   6.624  -3.929  0.00  0.00     0.074 A 
ATOM      4  C   LIG d   1       9.847   5.690  -4.865  0.00  0.00    -0.008 A 
ATOM      5  C   LIG d   1       9.735   6.329  -6.156  0.00  0.00     0.007 A 
ATOM      6  C   LIG d   1       9.915   5.867  -7.464  0.00  0.00    -0.011 A 
ATOM      7  C   LIG d   1       9.718   6.785  -8.485  0.00  0.00     0.121 A 
ATOM      8  C   LIG d   1       9.359   8.103  -8.225  0.00  0.00    -0.018 A 
ATOM      9  C   LIG d   1       9.176   8.577  -6.939  0.00  0.00    -0.034 A 
ATOM     10  C   LIG d   1       9.368   7.674  -5.895  0.00  0.00     0.047 A 
ATOM     11  N   LIG d   1       9.272   7.815  -4.537  0.00  0.00    -0.353 N 
ATOM     12  H   LIG d   1       9.033   8.634  -4.076  0.00  0.00     0.166 HD
ATOM     13  C   LIG d   1      10.204   4.264  -4.526  0.00  0.00     0.015 C 
ATOM     14  C   LIG d   1       9.805   4.014  -3.065  0.00  0.00    -0.029 C 
ATOM     15  N   LIG d   1      10.332   5.091  -2.217  0.00  0.00     0.237 N 
ATOM     16  H   LIG d   1      10.195   4.844  -7.670  0.00  0.00     0.066 H 
ATOM     17  H   LIG d   1       9.217   8.778  -9.055  0.00  0.00     0.066 H 
ATOM     18  H   LIG d   1       8.897   9.604  -6.751  0.00  0.00     0.064 H 
ATOM     19  H   LIG d   1       9.659   3.583  -5.180  0.00  0.00     0.037 H 
ATOM     20  H   LIG d   1      11.276   4.113  -4.647  0.00  0.00     0.037 H 
ATOM     21  H   LIG d   1       8.718   3.990  -2.985  0.00  0.00     0.082 H 
ATOM     22  H   LIG d   1      10.215   3.059  -2.736  0.00  0.00     0.082 H 
ATOM     23  H   LIG d   1      11.304   5.245  -2.440  0.00  0.00     0.202 HD
ATOM     24  H   LIG d   1      10.253   4.827  -1.247  0.00  0.00     0.202 HD
ENDROOT
BRANCH   1  25
ATOM     25  C   LIG d   1      10.240   7.471  -1.714  0.00  0.00     0.079 A 
ATOM     26  C   LIG d   1      11.618   7.706  -1.861  0.00  0.00     0.265 A 
ATOM     27  N   LIG d   1      12.192   8.730  -1.197  0.00  0.00    -0.261 N 
ATOM     28  O   LIG d   1      12.290   6.989  -2.581  0.00  0.00    -0.267 OA
ATOM     29  C   LIG d   1      11.455   9.522  -0.396  0.00  0.00     0.329 A 
ATOM     30  N   LIG d   1      10.134   9.318  -0.246  0.00  0.00    -0.320 N 
ATOM     31  O   LIG d   1      11.992  10.438   0.197  0.00  0.00    -0.246 OA
ATOM     32  C   LIG d   1       9.510   8.288  -0.903  0.00  0.00    -0.020 A 
ATOM     33  H   LIG d   1       9.620   9.902   0.334  0.00  0.00     0.169 HD
ATOM     34  O   LIG d   1       8.185   8.084  -0.745  0.00  0.00    -0.861 OA
BRANCH  27  35
ATOM     35  C   LIG d   1      13.628   8.979  -1.345  0.00  0.00     0.028 C 
ATOM     36  H   LIG d   1      13.829  10.040  -1.203  0.00  0.00     0.049 H 
ATOM     37  H   LIG d   1      13.947   8.679  -2.344  0.00  0.00     0.049 H 
BRANCH  35  38
ATOM     38  C   LIG d   1      14.397   8.170  -0.299  0.00  0.00    -0.047 C 
ATOM     39  H   LIG d   1      14.972   7.388  -0.796  0.00  0.00     0.025 H 
ATOM     40  H   LIG d   1      15.073   8.829   0.246  0.00  0.00     0.025 H 
ATOM     41  H   LIG d   1      13.692   7.715   0.397  0.00  0.00     0.025 H 
ENDBRANCH  35  38
ENDBRANCH  27  35
ENDBRANCH   1  25
BRANCH   7  42
ATOM     42  O   LIG d   1       9.881   6.386  -9.774  0.00  0.00    -0.495 OA
BRANCH  42  43
ATOM     43  C   LIG d   1       8.707   5.976 -10.480  0.00  0.00     0.079 C 
ATOM     44  H   LIG d   1       8.305   5.073 -10.021  0.00  0.00     0.066 H 
ATOM     45  H   LIG d   1       7.961   6.769 -10.435  0.00  0.00     0.066 H 
ATOM     46  H   LIG d   1       8.961   5.774 -11.520  0.00  0.00     0.066 H 
ENDBRANCH  42  43
ENDBRANCH   7  42
TORSDOF 5
ENDMDL
MODEL 9
REMARK VINA RESULT:      -6.0      9.589     12.039
REMARK  5 active torsions:
REMARK  status: ('A' for Active; 'I' for Inactive)
REMARK    1  A    between atoms: C_1  and  C_2 
REMARK    2  A    between atoms: C_2  and  N_3 
REMARK    3  A    between atoms: C_6  and  C_13 
REMARK    4  A    between atoms: C_19  and  O_25 
REMARK    5  A    between atoms: O_25  and  C_26 
ROOT
ATOM      1  C   LIG d   1       9.910   5.507  -2.251  0.00  0.00     0.051 C 
ATOM      2  H   LIG d   1       8.934   5.503  -1.768  0.00  0.00     0.097 H 
ATOM      3  C   LIG d   1       9.786   6.087  -3.641  0.00  0.00     0.074 A 
ATOM      4  C   LIG d   1       9.764   5.323  -4.757  0.00  0.00    -0.008 A 
ATOM      5  C   LIG d   1       9.639   6.217  -5.886  0.00  0.00     0.007 A 
ATOM      6  C   LIG d   1       9.569   6.001  -7.266  0.00  0.00    -0.011 A 
ATOM      7  C   LIG d   1       9.450   7.125  -8.070  0.00  0.00     0.121 A 
ATOM      8  C   LIG d   1       9.402   8.406  -7.534  0.00  0.00    -0.018 A 
ATOM      9  C   LIG d   1       9.470   8.639  -6.172  0.00  0.00    -0.034 A 
ATOM     10  C   LIG d   1       9.589   7.526  -5.342  0.00  0.00     0.047 A 
ATOM     11  N   LIG d   1       9.680   7.407  -3.982  0.00  0.00    -0.353 N 
ATOM     12  H   LIG d   1       9.670   8.147  -3.355  0.00  0.00     0.166 HD
ATOM     13  C   LIG d   1       9.856   3.817  -4.729  0.00  0.00     0.015 C 
ATOM     14  C   LIG d   1       9.584   3.356  -3.290  0.00  0.00    -0.029 C 
ATOM     15  N   LIG d   1      10.415   4.129  -2.358  0.00  0.00     0.237 N 
ATOM     16  H   LIG d   1       9.607   5.006  -7.686  0.00  0.00     0.066 H 
ATOM     17  H   LIG d   1       9.309   9.249  -8.203  0.00  0.00     0.066 H 
ATOM     18  H   LIG d   1       9.432   9.640  -5.769  0.00  0.00     0.064 H 
ATOM     19  H   LIG d   1       9.112   3.390  -5.401  0.00  0.00     0.037 H 
ATOM     20  H   LIG d   1      10.853   3.503  -5.035  0.00  0.00     0.037 H 
ATOM     21  H   LIG d   1       8.532   3.513  -3.052  0.00  0.00     0.082 H 
ATOM     22  H   LIG d   1       9.823   2.297  -3.198  0.00  0.00     0.082 H 
ATOM     23  H   LIG d   1      11.366   4.146  -2.696  0.00  0.00     0.202 HD
ATOM     24  H   LIG d   1      10.394   3.694  -1.447  0.00  0.00     0.202 HD
ENDROOT
BRANCH   1  25
ATOM     25  C   LIG d   1      10.873   6.337  -1.441  0.00  0.00     0.079 A 
ATOM     26  C   LIG d   1      10.408   7.413  -0.665  0.00  0.00     0.265 A 
ATOM     27  N   LIG d   1      11.285   8.143   0.052  0.00  0.00    -0.261 N 
ATOM     28  O   LIG d   1       9.220   7.685  -0.642  0.00  0.00    -0.267 OA
ATOM     29  C   LIG d   1      12.598   7.850   0.027  0.00  0.00     0.329 A 
ATOM     30  N   LIG d   1      13.065   6.822  -0.705  0.00  0.00    -0.320 N 
ATOM     31  O   LIG d   1      13.374   8.523   0.678  0.00  0.00    -0.246 OA
ATOM     32  C   LIG d   1      12.206   6.053  -1.450  0.00  0.00    -0.020 A 
ATOM     33  H   LIG d   1      14.014   6.625  -0.708  0.00  0.00     0.169 HD
ATOM     34  O   LIG d   1      12.678   5.026  -2.187  0.00  0.00    -0.861 OA
BRANCH  27  35
ATOM     35  C   LIG d   1      10.806   9.266   0.863  0.00  0.00     0.028 C 
ATOM     36  H   LIG d   1      11.483   9.423   1.702  0.00  0.00     0.049 H 
ATOM     37  H   LIG d   1       9.807   9.043   1.238  0.00  0.00     0.049 H 
BRANCH  35  38
ATOM     38  C   LIG d   1      10.757  10.531   0.003  0.00  0.00    -0.047 C 
ATOM     39  H   LIG d   1       9.721  10.850  -0.114  0.00  0.00     0.025 H 
ATOM     40  H   LIG d   1      11.329  11.322   0.488  0.00  0.00     0.025 H 
ATOM     41  H   LIG d   1      11.185  10.320  -0.977  0.00  0.00     0.025 H 
ENDBRANCH  35  38
ENDBRANCH  27  35
ENDBRANCH   1  25
BRANCH   7  42
ATOM     42  O   LIG d   1       9.379   6.969  -9.419  0.00  0.00    -0.495 OA
BRANCH  42  43
ATOM     43  C   LIG d   1       8.677   5.822  -9.903  0.00  0.00     0.079 C 
ATOM     44  H   LIG d   1       9.323   4.947  -9.839  0.00  0.00     0.066 H 
ATOM     45  H   LIG d   1       7.785   5.660  -9.298  0.00  0.00     0.066 H 
ATOM     46  H   LIG d   1       8.388   5.985 -10.941  0.00  0.00     0.066 H 
ENDBRANCH  42  43
ENDBRANCH   7  42
TORSDOF 5
ENDMDL
MODEL 10
REMARK VINA RESULT:      -5.9      2.628      5.112
REMARK  5 active torsions:
REMARK  status: ('A' for Active; 'I' for Inactive)
REMARK    1  A    between atoms: C_1  and  C_2 
REMARK    2  A    between atoms: C_2  and  N_3 
REMARK    3  A    between atoms: C_6  and  C_13 
REMARK    4  A    between atoms: C_19  and  O_25 
REMARK    5  A    between atoms: O_25  and  C_26 
ROOT
ATOM      1  C   LIG d   1       3.610  -0.179  -7.363  0.00  0.00     0.051 C 
ATOM      2  H   LIG d   1       3.004   0.726  -7.327  0.00  0.00     0.097 H 
ATOM      3  C   LIG d   1       4.983   0.151  -7.899  0.00  0.00     0.074 A 
ATOM      4  C   LIG d   1       5.361  -0.115  -9.170  0.00  0.00    -0.008 A 
ATOM      5  C   LIG d   1       6.727   0.332  -9.314  0.00  0.00     0.007 A 
ATOM      6  C   LIG d   1       7.625   0.315 -10.387  0.00  0.00    -0.011 A 
ATOM      7  C   LIG d   1       8.886   0.843 -10.155  0.00  0.00     0.121 A 
ATOM      8  C   LIG d   1       9.246   1.365  -8.918  0.00  0.00    -0.018 A 
ATOM      9  C   LIG d   1       8.372   1.391  -7.847  0.00  0.00    -0.034 A 
ATOM     10  C   LIG d   1       7.097   0.867  -8.053  0.00  0.00     0.047 A 
ATOM     11  N   LIG d   1       6.017   0.740  -7.223  0.00  0.00    -0.353 N 
ATOM     12  H   LIG d   1       5.988   1.025  -6.297  0.00  0.00     0.166 HD
ATOM     13  C   LIG d   1       4.449  -0.760 -10.184  0.00  0.00     0.015 C 
ATOM     14  C   LIG d   1       3.014  -0.678  -9.646  0.00  0.00    -0.029 C 
ATOM     15  N   LIG d   1       2.977  -1.161  -8.259  0.00  0.00     0.237 N 
ATOM     16  H   LIG d   1       7.350  -0.090 -11.350  0.00  0.00     0.066 H 
ATOM     17  H   LIG d   1      10.241   1.765  -8.790  0.00  0.00     0.066 H 
ATOM     18  H   LIG d   1       8.665   1.799  -6.891  0.00  0.00     0.064 H 
ATOM     19  H   LIG d   1       4.519  -0.229 -11.133  0.00  0.00     0.037 H 
ATOM     20  H   LIG d   1       4.732  -1.803 -10.323  0.00  0.00     0.037 H 
ATOM     21  H   LIG d   1       2.674   0.357  -9.677  0.00  0.00     0.082 H 
ATOM     22  H   LIG d   1       2.359  -1.294 -10.262  0.00  0.00     0.082 H 
ATOM     23  H   LIG d   1       3.474  -2.037  -8.199  0.00  0.00     0.202 HD
ATOM     24  H   LIG d   1       2.019  -1.302  -7.976  0.00  0.00     0.202 HD
ENDROOT
BRANCH   1  25
ATOM     25  C   LIG d   1       3.733  -0.763  -5.979  0.00  0.00     0.079 A 
ATOM     26  C   LIG d   1       3.403   0.007  -4.850  0.00  0.00     0.265 A 
ATOM     27  N   LIG d   1       3.519  -0.534  -3.621  0.00  0.00    -0.261 N 
ATOM     28  O   LIG d   1       3.015   1.155  -4.980  0.00  0.00    -0.267 OA
ATOM     29  C   LIG d   1       3.951  -1.800  -3.470  0.00  0.00     0.329 A 
ATOM     30  N   LIG d   1       4.268  -2.555  -4.537  0.00  0.00    -0.320 N 
ATOM     31  O   LIG d   1       4.054  -2.268  -2.352  0.00  0.00    -0.246 OA
ATOM     32  C   LIG d   1       4.164  -2.044  -5.806  0.00  0.00    -0.020 A 
ATOM     33  H   LIG d   1       4.575  -3.466  -4.408  0.00  0.00     0.169 HD
ATOM     34  O   LIG d   1       4.487  -2.804  -6.873  0.00  0.00    -0.861 OA
BRANCH  27  35
ATOM     35  C   LIG d   1       3.177   0.263  -2.440  0.00  0.00     0.028 C 
ATOM     36  H   LIG d   1       2.764  -0.387  -1.670  0.00  0.00     0.049 H 
ATOM     37  H   LIG d   1       2.438   1.017  -2.712  0.00  0.00     0.049 H 
BRANCH  35  38
ATOM     38  C   LIG d   1       4.435   0.951  -1.906  0.00  0.00    -0.047 C 
ATOM     39  H   LIG d   1       4.261   1.282  -0.882  0.00  0.00     0.025 H 
ATOM     40  H   LIG d   1       5.269   0.249  -1.925  0.00  0.00     0.025 H 
ATOM     41  H   LIG d   1       4.671   1.812  -2.532  0.00  0.00     0.025 H 
ENDBRANCH  35  38
ENDBRANCH  27  35
ENDBRANCH   1  25
BRANCH   7  42
ATOM     42  O   LIG d   1       9.796   0.850 -11.166  0.00  0.00    -0.495 OA
BRANCH  42  43
ATOM     43  C   LIG d   1      10.672   1.977 -11.243  0.00  0.00     0.079 C 
ATOM     44  H   LIG d   1      10.112   2.849 -11.582  0.00  0.00     0.066 H 
ATOM     45  H   LIG d   1      11.094   2.178 -10.258  0.00  0.00     0.066 H 
ATOM     46  H   LIG d   1      11.476   1.765 -11.947  0.00  0.00     0.066 H 
ENDBRANCH  42  43
ENDBRANCH   7  42
TORSDOF 5
ENDMDL
