MODEL 1
REMARK VINA RESULT:      -5.3      0.000      0.000
REMARK  10 active torsions:
REMARK  status: ('A' for Active; 'I' for Inactive)
REMARK    1  A    between atoms: C_1  and  C_2 
REMARK    2  A    between atoms: C_9  and  O_27 
REMARK    3  A    between atoms: C_14  and  O_21 
REMARK    4  A    between atoms: C_15  and  O_19 
REMARK    5  A    between atoms: C_16  and  O_17 
REMARK    6  A    between atoms: O_17  and  C_18 
REMARK    7  A    between atoms: O_19  and  C_20 
REMARK    8  A    between atoms: O_21  and  C_22 
REMARK    9  A    between atoms: C_24  and  C_26 
REMARK   10  A    between atoms: O_27  and  C_28 
ROOT
ATOM      1  C   LIG d   1       4.672   0.668  -3.294  0.00  0.00    -0.037 C 
ATOM      2  H   LIG d   1       4.951   1.613  -3.761  0.00  0.00     0.030 H 
ATOM      3  C   LIG d   1       5.936  -0.114  -2.942  0.00  0.00    -0.024 C 
ATOM      4  C   LIG d   1       7.047   0.264  -3.900  0.00  0.00    -0.032 A 
ATOM      5  C   LIG d   1       7.720   1.457  -3.760  0.00  0.00    -0.012 A 
ATOM      6  C   LIG d   1       8.754   1.775  -4.630  0.00  0.00     0.170 A 
ATOM      7  C   LIG d   1       9.111   0.887  -5.640  0.00  0.00     0.208 A 
ATOM      8  C   LIG d   1       8.429  -0.312  -5.786  0.00  0.00     0.173 A 
ATOM      9  C   LIG d   1       7.377  -0.628  -4.917  0.00  0.00     0.035 A 
ATOM     10  C   LIG d   1       6.605  -1.870  -5.111  0.00  0.00     0.035 A 
ATOM     11  C   LIG d   1       5.234  -1.833  -5.355  0.00  0.00    -0.032 A 
ATOM     12  C   LIG d   1       4.506  -2.994  -5.482  0.00  0.00    -0.012 A 
ATOM     13  C   LIG d   1       5.146  -4.224  -5.401  0.00  0.00     0.166 A 
ATOM     14  C   LIG d   1       6.519  -4.279  -5.192  0.00  0.00     0.204 A 
ATOM     15  C   LIG d   1       7.251  -3.111  -5.045  0.00  0.00     0.173 A 
ATOM     16  C   LIG d   1       4.571  -0.482  -5.528  0.00  0.00    -0.024 C 
ATOM     17  C   LIG d   1       3.797  -0.129  -4.259  0.00  0.00    -0.037 C 
ATOM     18  H   LIG d   1       3.470  -1.047  -3.770  0.00  0.00     0.030 H 
ATOM     19  O   LIG d   1      10.152   1.423  -6.344  0.00  0.00    -0.449 OA
ATOM     20  C   LIG d   1      10.155   2.825  -6.016  0.00  0.00     0.233 C 
ATOM     21  O   LIG d   1       9.566   2.871  -4.703  0.00  0.00    -0.453 OA
ATOM     22  H   LIG d   1       6.238   0.125  -1.922  0.00  0.00     0.032 H 
ATOM     23  H   LIG d   1       5.737  -1.182  -3.020  0.00  0.00     0.032 H 
ATOM     24  H   LIG d   1       7.441   2.145  -2.976  0.00  0.00     0.066 H 
ATOM     25  H   LIG d   1       3.440  -2.948  -5.644  0.00  0.00     0.066 H 
ATOM     26  H   LIG d   1       5.332   0.276  -5.711  0.00  0.00     0.032 H 
ATOM     27  H   LIG d   1       3.884  -0.519  -6.373  0.00  0.00     0.032 H 
ATOM     28  H   LIG d   1      11.175   3.211  -5.991  0.00  0.00     0.117 H 
ATOM     29  H   LIG d   1       9.550   3.387  -6.728  0.00  0.00     0.117 H 
ENDROOT
BRANCH   1  30
ATOM     30  C   LIG d   1       3.881   0.952  -2.015  0.00  0.00    -0.062 C 
ATOM     31  H   LIG d   1       4.537   1.415  -1.278  0.00  0.00     0.023 H 
ATOM     32  H   LIG d   1       3.055   1.625  -2.241  0.00  0.00     0.023 H 
ATOM     33  H   LIG d   1       3.489   0.017  -1.615  0.00  0.00     0.023 H 
ENDBRANCH   1  30
BRANCH  17  34
ATOM     34  C   LIG d   1       2.570   0.705  -4.632  0.00  0.00    -0.062 C 
ATOM     35  H   LIG d   1       1.750   0.042  -4.910  0.00  0.00     0.023 H 
ATOM     36  H   LIG d   1       2.271   1.315  -3.779  0.00  0.00     0.023 H 
ATOM     37  H   LIG d   1       2.814   1.354  -5.474  0.00  0.00     0.023 H 
ENDBRANCH  17  34
BRANCH   8  38
ATOM     38  O   LIG d   1       8.780  -1.180  -6.773  0.00  0.00    -0.491 OA
BRANCH  38  39
ATOM     39  C   LIG d   1       8.302  -0.893  -8.089  0.00  0.00     0.079 C 
ATOM     40  H   LIG d   1       9.148  -0.762  -8.762  0.00  0.00     0.066 H 
ATOM     41  H   LIG d   1       7.683  -1.720  -8.438  0.00  0.00     0.066 H 
ATOM     42  H   LIG d   1       7.709   0.021  -8.068  0.00  0.00     0.066 H 
ENDBRANCH  38  39
ENDBRANCH   8  38
BRANCH  15  43
ATOM     43  O   LIG d   1       8.595  -3.169  -4.837  0.00  0.00    -0.491 OA
BRANCH  43  44
ATOM     44  C   LIG d   1       9.034  -3.514  -3.522  0.00  0.00     0.079 C 
ATOM     45  H   LIG d   1       9.075  -2.615  -2.906  0.00  0.00     0.066 H 
ATOM     46  H   LIG d   1       8.335  -4.224  -3.080  0.00  0.00     0.066 H 
ATOM     47  H   LIG d   1      10.025  -3.963  -3.576  0.00  0.00     0.066 H 
ENDBRANCH  43  44
ENDBRANCH  15  43
BRANCH  13  48
ATOM     48  O   LIG d   1       4.430  -5.373  -5.527  0.00  0.00    -0.491 OA
BRANCH  48  49
ATOM     49  C   LIG d   1       4.008  -5.733  -6.844  0.00  0.00     0.079 C 
ATOM     50  H   LIG d   1       4.864  -5.710  -7.519  0.00  0.00     0.066 H 
ATOM     51  H   LIG d   1       3.584  -6.737  -6.829  0.00  0.00     0.066 H 
ATOM     52  H   LIG d   1       3.253  -5.026  -7.189  0.00  0.00     0.066 H 
ENDBRANCH  48  49
ENDBRANCH  13  48
BRANCH  14  53
ATOM     53  O   LIG d   1       7.147  -5.485  -5.129  0.00  0.00    -0.488 OA
BRANCH  53  54
ATOM     54  C   LIG d   1       7.696  -5.994  -6.347  0.00  0.00     0.079 C 
ATOM     55  H   LIG d   1       7.288  -5.437  -7.190  0.00  0.00     0.066 H 
ATOM     56  H   LIG d   1       8.780  -5.886  -6.330  0.00  0.00     0.066 H 
ATOM     57  H   LIG d   1       7.438  -7.049  -6.449  0.00  0.00     0.066 H 
ENDBRANCH  53  54
ENDBRANCH  14  53
TORSDOF 10
ENDMDL
MODEL 2
REMARK VINA RESULT:      -5.2      2.688      4.969
REMARK  10 active torsions:
REMARK  status: ('A' for Active; 'I' for Inactive)
REMARK    1  A    between atoms: C_1  and  C_2 
REMARK    2  A    between atoms: C_9  and  O_27 
REMARK    3  A    between atoms: C_14  and  O_21 
REMARK    4  A    between atoms: C_15  and  O_19 
REMARK    5  A    between atoms: C_16  and  O_17 
REMARK    6  A    between atoms: O_17  and  C_18 
REMARK    7  A    between atoms: O_19  and  C_20 
REMARK    8  A    between atoms: O_21  and  C_22 
REMARK    9  A    between atoms: C_24  and  C_26 
REMARK   10  A    between atoms: O_27  and  C_28 
ROOT
ATOM      1  C   LIG d   1       3.819  -0.507  -3.748  0.00  0.00    -0.037 C 
ATOM      2  H   LIG d   1       2.860  -0.800  -4.174  0.00  0.00     0.030 H 
ATOM      3  C   LIG d   1       4.690   0.108  -4.842  0.00  0.00    -0.024 C 
ATOM      4  C   LIG d   1       4.305  -0.479  -6.184  0.00  0.00    -0.032 A 
ATOM      5  C   LIG d   1       3.163  -0.063  -6.830  0.00  0.00    -0.012 A 
ATOM      6  C   LIG d   1       2.840  -0.591  -8.073  0.00  0.00     0.170 A 
ATOM      7  C   LIG d   1       3.672  -1.538  -8.664  0.00  0.00     0.208 A 
ATOM      8  C   LIG d   1       4.818  -1.962  -8.010  0.00  0.00     0.173 A 
ATOM      9  C   LIG d   1       5.139  -1.440  -6.751  0.00  0.00     0.035 A 
ATOM     10  C   LIG d   1       6.321  -1.938  -6.023  0.00  0.00     0.035 A 
ATOM     11  C   LIG d   1       6.193  -2.540  -4.772  0.00  0.00    -0.032 A 
ATOM     12  C   LIG d   1       7.301  -2.955  -4.070  0.00  0.00    -0.012 A 
ATOM     13  C   LIG d   1       8.566  -2.807  -4.623  0.00  0.00     0.166 A 
ATOM     14  C   LIG d   1       8.710  -2.240  -5.885  0.00  0.00     0.204 A 
ATOM     15  C   LIG d   1       7.596  -1.803  -6.585  0.00  0.00     0.173 A 
ATOM     16  C   LIG d   1       4.800  -2.772  -4.226  0.00  0.00    -0.024 C 
ATOM     17  C   LIG d   1       4.497  -1.735  -3.145  0.00  0.00    -0.037 C 
ATOM     18  H   LIG d   1       5.429  -1.431  -2.667  0.00  0.00     0.030 H 
ATOM     19  O   LIG d   1       3.142  -1.887  -9.875  0.00  0.00    -0.449 OA
ATOM     20  C   LIG d   1       1.770  -1.455  -9.833  0.00  0.00     0.233 C 
ATOM     21  O   LIG d   1       1.786  -0.351  -8.909  0.00  0.00    -0.453 OA
ATOM     22  H   LIG d   1       4.542   1.188  -4.861  0.00  0.00     0.032 H 
ATOM     23  H   LIG d   1       5.738  -0.110  -4.637  0.00  0.00     0.032 H 
ATOM     24  H   LIG d   1       2.519   0.671  -6.370  0.00  0.00     0.066 H 
ATOM     25  H   LIG d   1       7.186  -3.395  -3.090  0.00  0.00     0.066 H 
ATOM     26  H   LIG d   1       4.072  -2.679  -5.032  0.00  0.00     0.032 H 
ATOM     27  H   LIG d   1       4.739  -3.772  -3.795  0.00  0.00     0.032 H 
ATOM     28  H   LIG d   1       1.442  -1.123 -10.819  0.00  0.00     0.117 H 
ATOM     29  H   LIG d   1       1.127  -2.254  -9.464  0.00  0.00     0.117 H 
ENDROOT
BRANCH   1  30
ATOM     30  C   LIG d   1       3.585   0.531  -2.647  0.00  0.00    -0.062 C 
ATOM     31  H   LIG d   1       4.139   1.439  -2.881  0.00  0.00     0.023 H 
ATOM     32  H   LIG d   1       2.521   0.759  -2.584  0.00  0.00     0.023 H 
ATOM     33  H   LIG d   1       3.929   0.132  -1.693  0.00  0.00     0.023 H 
ENDBRANCH   1  30
BRANCH  17  34
ATOM     34  C   LIG d   1       3.573  -2.355  -2.095  0.00  0.00    -0.062 C 
ATOM     35  H   LIG d   1       3.749  -3.430  -2.046  0.00  0.00     0.023 H 
ATOM     36  H   LIG d   1       3.778  -1.909  -1.121  0.00  0.00     0.023 H 
ATOM     37  H   LIG d   1       2.535  -2.169  -2.368  0.00  0.00     0.023 H 
ENDBRANCH  17  34
BRANCH   8  38
ATOM     38  O   LIG d   1       5.631  -2.887  -8.590  0.00  0.00    -0.491 OA
BRANCH  38  39
ATOM     39  C   LIG d   1       5.228  -4.254  -8.497  0.00  0.00     0.079 C 
ATOM     40  H   LIG d   1       6.074  -4.861  -8.179  0.00  0.00     0.066 H 
ATOM     41  H   LIG d   1       4.420  -4.346  -7.771  0.00  0.00     0.066 H 
ATOM     42  H   LIG d   1       4.881  -4.597  -9.471  0.00  0.00     0.066 H 
ENDBRANCH  38  39
ENDBRANCH   8  38
BRANCH  15  43
ATOM     43  O   LIG d   1       7.741  -1.246  -7.818  0.00  0.00    -0.491 OA
BRANCH  43  44
ATOM     44  C   LIG d   1       8.001   0.158  -7.869  0.00  0.00     0.079 C 
ATOM     45  H   LIG d   1       7.083   0.706  -7.655  0.00  0.00     0.066 H 
ATOM     46  H   LIG d   1       8.757   0.415  -7.126  0.00  0.00     0.066 H 
ATOM     47  H   LIG d   1       8.361   0.425  -8.862  0.00  0.00     0.066 H 
ENDBRANCH  43  44
ENDBRANCH  15  43
BRANCH  13  48
ATOM     48  O   LIG d   1       9.664  -3.217  -3.932  0.00  0.00    -0.491 OA
BRANCH  48  49
ATOM     49  C   LIG d   1       9.470  -4.247  -2.960  0.00  0.00     0.079 C 
ATOM     50  H   LIG d   1       8.913  -3.847  -2.113  0.00  0.00     0.066 H 
ATOM     51  H   LIG d   1       8.911  -5.069  -3.408  0.00  0.00     0.066 H 
ATOM     52  H   LIG d   1      10.440  -4.612  -2.620  0.00  0.00     0.066 H 
ENDBRANCH  48  49
ENDBRANCH  13  48
BRANCH  14  53
ATOM     53  O   LIG d   1       9.949  -2.111  -6.432  0.00  0.00    -0.488 OA
BRANCH  53  54
ATOM     54  C   LIG d   1      10.426  -3.203  -7.221  0.00  0.00     0.079 C 
ATOM     55  H   LIG d   1      11.468  -3.404  -6.972  0.00  0.00     0.066 H 
ATOM     56  H   LIG d   1       9.825  -4.089  -7.016  0.00  0.00     0.066 H 
ATOM     57  H   LIG d   1      10.348  -2.948  -8.278  0.00  0.00     0.066 H 
ENDBRANCH  53  54
ENDBRANCH  14  53
TORSDOF 10
ENDMDL
MODEL 3
REMARK VINA RESULT:      -5.2      0.820      5.819
REMARK  10 active torsions:
REMARK  status: ('A' for Active; 'I' for Inactive)
REMARK    1  A    between atoms: C_1  and  C_2 
REMARK    2  A    between atoms: C_9  and  O_27 
REMARK    3  A    between atoms: C_14  and  O_21 
REMARK    4  A    between atoms: C_15  and  O_19 
REMARK    5  A    between atoms: C_16  and  O_17 
REMARK    6  A    between atoms: O_17  and  C_18 
REMARK    7  A    between atoms: O_19  and  C_20 
REMARK    8  A    between atoms: O_21  and  C_22 
REMARK    9  A    between atoms: C_24  and  C_26 
REMARK   10  A    between atoms: O_27  and  C_28 
ROOT
ATOM      1  C   LIG d   1       3.719  -0.279  -4.497  0.00  0.00    -0.037 C 
ATOM      2  H   LIG d   1       3.357  -1.226  -4.096  0.00  0.00     0.030 H 
ATOM      3  C   LIG d   1       4.549  -0.546  -5.751  0.00  0.00    -0.024 C 
ATOM      4  C   LIG d   1       5.174  -1.922  -5.660  0.00  0.00    -0.032 A 
ATOM      5  C   LIG d   1       4.422  -3.052  -5.891  0.00  0.00    -0.012 A 
ATOM      6  C   LIG d   1       5.018  -4.305  -5.831  0.00  0.00     0.170 A 
ATOM      7  C   LIG d   1       6.374  -4.416  -5.539  0.00  0.00     0.208 A 
ATOM      8  C   LIG d   1       7.130  -3.279  -5.298  0.00  0.00     0.173 A 
ATOM      9  C   LIG d   1       6.528  -2.016  -5.347  0.00  0.00     0.035 A 
ATOM     10  C   LIG d   1       7.314  -0.810  -5.025  0.00  0.00     0.035 A 
ATOM     11  C   LIG d   1       6.951   0.023  -3.968  0.00  0.00    -0.032 A 
ATOM     12  C   LIG d   1       7.653   1.176  -3.702  0.00  0.00    -0.012 A 
ATOM     13  C   LIG d   1       8.760   1.505  -4.474  0.00  0.00     0.166 A 
ATOM     14  C   LIG d   1       9.156   0.669  -5.512  0.00  0.00     0.204 A 
ATOM     15  C   LIG d   1       8.439  -0.484  -5.792  0.00  0.00     0.173 A 
ATOM     16  C   LIG d   1       5.796  -0.399  -3.085  0.00  0.00    -0.024 C 
ATOM     17  C   LIG d   1       4.559   0.427  -3.434  0.00  0.00    -0.037 C 
ATOM     18  H   LIG d   1       4.872   1.400  -3.813  0.00  0.00     0.030 H 
ATOM     19  O   LIG d   1       6.714  -5.740  -5.549  0.00  0.00    -0.449 OA
ATOM     20  C   LIG d   1       5.469  -6.456  -5.442  0.00  0.00     0.233 C 
ATOM     21  O   LIG d   1       4.505  -5.557  -6.018  0.00  0.00    -0.453 OA
ATOM     22  H   LIG d   1       3.906  -0.496  -6.630  0.00  0.00     0.032 H 
ATOM     23  H   LIG d   1       5.335   0.205  -5.833  0.00  0.00     0.032 H 
ATOM     24  H   LIG d   1       3.370  -2.963  -6.117  0.00  0.00     0.066 H 
ATOM     25  H   LIG d   1       7.343   1.824  -2.897  0.00  0.00     0.066 H 
ATOM     26  H   LIG d   1       5.583  -1.456  -3.243  0.00  0.00     0.032 H 
ATOM     27  H   LIG d   1       6.058  -0.235  -2.039  0.00  0.00     0.032 H 
ATOM     28  H   LIG d   1       5.512  -7.387  -6.010  0.00  0.00     0.117 H 
ATOM     29  H   LIG d   1       5.232  -6.657  -4.398  0.00  0.00     0.117 H 
ENDROOT
BRANCH   1  30
ATOM     30  C   LIG d   1       2.523   0.604  -4.862  0.00  0.00    -0.062 C 
ATOM     31  H   LIG d   1       2.209   0.386  -5.881  0.00  0.00     0.023 H 
ATOM     32  H   LIG d   1       1.701   0.403  -4.175  0.00  0.00     0.023 H 
ATOM     33  H   LIG d   1       2.810   1.653  -4.786  0.00  0.00     0.023 H 
ENDBRANCH   1  30
BRANCH  17  34
ATOM     34  C   LIG d   1       3.713   0.627  -2.175  0.00  0.00    -0.062 C 
ATOM     35  H   LIG d   1       2.789   1.143  -2.436  0.00  0.00     0.023 H 
ATOM     36  H   LIG d   1       3.477  -0.343  -1.738  0.00  0.00     0.023 H 
ATOM     37  H   LIG d   1       4.271   1.224  -1.454  0.00  0.00     0.023 H 
ENDBRANCH  17  34
BRANCH   8  38
ATOM     38  O   LIG d   1       8.456  -3.390  -5.015  0.00  0.00    -0.491 OA
BRANCH  38  39
ATOM     39  C   LIG d   1       8.805  -3.764  -3.680  0.00  0.00     0.079 C 
ATOM     40  H   LIG d   1       9.701  -4.383  -3.699  0.00  0.00     0.066 H 
ATOM     41  H   LIG d   1       8.995  -2.867  -3.090  0.00  0.00     0.066 H 
ATOM     42  H   LIG d   1       7.984  -4.325  -3.235  0.00  0.00     0.066 H 
ENDBRANCH  38  39
ENDBRANCH   8  38
BRANCH  15  43
ATOM     43  O   LIG d   1       8.828  -1.298  -6.810  0.00  0.00    -0.491 OA
BRANCH  43  44
ATOM     44  C   LIG d   1       8.338  -0.985  -8.115  0.00  0.00     0.079 C 
ATOM     45  H   LIG d   1       7.356  -0.518  -8.032  0.00  0.00     0.066 H 
ATOM     46  H   LIG d   1       9.026  -0.296  -8.606  0.00  0.00     0.066 H 
ATOM     47  H   LIG d   1       8.257  -1.899  -8.702  0.00  0.00     0.066 H 
ENDBRANCH  43  44
ENDBRANCH  15  43
BRANCH  13  48
ATOM     48  O   LIG d   1       9.456   2.645  -4.215  0.00  0.00    -0.491 OA
BRANCH  48  49
ATOM     49  C   LIG d   1      10.314   2.634  -3.071  0.00  0.00     0.079 C 
ATOM     50  H   LIG d   1      10.186   1.695  -2.531  0.00  0.00     0.066 H 
ATOM     51  H   LIG d   1      11.351   2.730  -3.393  0.00  0.00     0.066 H 
ATOM     52  H   LIG d   1      10.058   3.468  -2.418  0.00  0.00     0.066 H 
ENDBRANCH  48  49
ENDBRANCH  13  48
BRANCH  14  53
ATOM     53  O   LIG d   1      10.251   0.985  -6.256  0.00  0.00    -0.488 OA
BRANCH  53  54
ATOM     54  C   LIG d   1      11.500   0.429  -5.839  0.00  0.00     0.079 C 
ATOM     55  H   LIG d   1      11.498  -0.645  -6.022  0.00  0.00     0.066 H 
ATOM     56  H   LIG d   1      12.310   0.893  -6.402  0.00  0.00     0.066 H 
ATOM     57  H   LIG d   1      11.644   0.616  -4.775  0.00  0.00     0.066 H 
ENDBRANCH  53  54
ENDBRANCH  14  53
TORSDOF 10
ENDMDL
MODEL 4
REMARK VINA RESULT:      -5.0      2.011      2.177
REMARK  10 active torsions:
REMARK  status: ('A' for Active; 'I' for Inactive)
REMARK    1  A    between atoms: C_1  and  C_2 
REMARK    2  A    between atoms: C_9  and  O_27 
REMARK    3  A    between atoms: C_14  and  O_21 
REMARK    4  A    between atoms: C_15  and  O_19 
REMARK    5  A    between atoms: C_16  and  O_17 
REMARK    6  A    between atoms: O_17  and  C_18 
REMARK    7  A    between atoms: O_19  and  C_20 
REMARK    8  A    between atoms: O_21  and  C_22 
REMARK    9  A    between atoms: C_24  and  C_26 
REMARK   10  A    between atoms: O_27  and  C_28 
ROOT
ATOM      1  C   LIG d   1       4.770  -0.775  -3.098  0.00  0.00    -0.037 C 
ATOM      2  H   LIG d   1       4.818   0.295  -2.895  0.00  0.00     0.030 H 
ATOM      3  C   LIG d   1       6.155  -1.274  -3.509  0.00  0.00    -0.024 C 
ATOM      4  C   LIG d   1       6.926  -0.144  -4.158  0.00  0.00    -0.032 A 
ATOM      5  C   LIG d   1       7.488   0.853  -3.394  0.00  0.00    -0.012 A 
ATOM      6  C   LIG d   1       8.217   1.866  -4.003  0.00  0.00     0.170 A 
ATOM      7  C   LIG d   1       8.378   1.871  -5.386  0.00  0.00     0.208 A 
ATOM      8  C   LIG d   1       7.805   0.871  -6.157  0.00  0.00     0.173 A 
ATOM      9  C   LIG d   1       7.061  -0.144  -5.545  0.00  0.00     0.035 A 
ATOM     10  C   LIG d   1       6.393  -1.171  -6.368  0.00  0.00     0.035 A 
ATOM     11  C   LIG d   1       5.010  -1.334  -6.330  0.00  0.00    -0.032 A 
ATOM     12  C   LIG d   1       4.394  -2.327  -7.057  0.00  0.00    -0.012 A 
ATOM     13  C   LIG d   1       5.153  -3.162  -7.867  0.00  0.00     0.166 A 
ATOM     14  C   LIG d   1       6.531  -2.992  -7.943  0.00  0.00     0.204 A 
ATOM     15  C   LIG d   1       7.154  -2.003  -7.197  0.00  0.00     0.173 A 
ATOM     16  C   LIG d   1       4.193  -0.358  -5.509  0.00  0.00    -0.024 C 
ATOM     17  C   LIG d   1       3.754  -1.029  -4.209  0.00  0.00    -0.037 C 
ATOM     18  H   LIG d   1       3.662  -2.103  -4.372  0.00  0.00     0.030 H 
ATOM     19  O   LIG d   1       9.135   2.956  -5.732  0.00  0.00    -0.449 OA
ATOM     20  C   LIG d   1       9.084   3.837  -4.594  0.00  0.00     0.233 C 
ATOM     21  O   LIG d   1       8.865   2.950  -3.483  0.00  0.00    -0.453 OA
ATOM     22  H   LIG d   1       6.692  -1.621  -2.626  0.00  0.00     0.032 H 
ATOM     23  H   LIG d   1       6.049  -2.095  -4.217  0.00  0.00     0.032 H 
ATOM     24  H   LIG d   1       7.362   0.848  -2.322  0.00  0.00     0.066 H 
ATOM     25  H   LIG d   1       3.324  -2.457  -6.996  0.00  0.00     0.066 H 
ATOM     26  H   LIG d   1       4.798   0.519  -5.278  0.00  0.00     0.032 H 
ATOM     27  H   LIG d   1       3.313  -0.053  -6.075  0.00  0.00     0.032 H 
ATOM     28  H   LIG d   1      10.030   4.369  -4.479  0.00  0.00     0.117 H 
ATOM     29  H   LIG d   1       8.259   4.542  -4.692  0.00  0.00     0.117 H 
ENDROOT
BRANCH   1  30
ATOM     30  C   LIG d   1       4.325  -1.510  -1.831  0.00  0.00    -0.062 C 
ATOM     31  H   LIG d   1       3.240  -1.467  -1.749  0.00  0.00     0.023 H 
ATOM     32  H   LIG d   1       4.646  -2.550  -1.884  0.00  0.00     0.023 H 
ATOM     33  H   LIG d   1       4.775  -1.035  -0.959  0.00  0.00     0.023 H 
ENDBRANCH   1  30
BRANCH  17  34
ATOM     34  C   LIG d   1       2.395  -0.468  -3.786  0.00  0.00    -0.062 C 
ATOM     35  H   LIG d   1       1.642  -1.254  -3.847  0.00  0.00     0.023 H 
ATOM     36  H   LIG d   1       2.455  -0.103  -2.760  0.00  0.00     0.023 H 
ATOM     37  H   LIG d   1       2.118   0.353  -4.447  0.00  0.00     0.023 H 
ENDBRANCH  17  34
BRANCH   8  38
ATOM     38  O   LIG d   1       7.966   0.877  -7.508  0.00  0.00    -0.491 OA
BRANCH  38  39
ATOM     39  C   LIG d   1       7.088   1.716  -8.262  0.00  0.00     0.079 C 
ATOM     40  H   LIG d   1       6.560   2.388  -7.587  0.00  0.00     0.066 H 
ATOM     41  H   LIG d   1       7.667   2.298  -8.977  0.00  0.00     0.066 H 
ATOM     42  H   LIG d   1       6.366   1.098  -8.796  0.00  0.00     0.066 H 
ENDBRANCH  38  39
ENDBRANCH   8  38
BRANCH  15  43
ATOM     43  O   LIG d   1       8.503  -1.842  -7.271  0.00  0.00    -0.491 OA
BRANCH  43  44
ATOM     44  C   LIG d   1       9.301  -2.638  -6.393  0.00  0.00     0.079 C 
ATOM     45  H   LIG d   1      10.291  -2.778  -6.828  0.00  0.00     0.066 H 
ATOM     46  H   LIG d   1       9.396  -2.135  -5.431  0.00  0.00     0.066 H 
ATOM     47  H   LIG d   1       8.827  -3.609  -6.251  0.00  0.00     0.066 H 
ENDBRANCH  43  44
ENDBRANCH  15  43
BRANCH  13  48
ATOM     48  O   LIG d   1       4.548  -4.144  -8.588  0.00  0.00    -0.491 OA
BRANCH  48  49
ATOM     49  C   LIG d   1       3.717  -5.058  -7.867  0.00  0.00     0.079 C 
ATOM     50  H   LIG d   1       3.273  -5.770  -8.563  0.00  0.00     0.066 H 
ATOM     51  H   LIG d   1       4.317  -5.594  -7.132  0.00  0.00     0.066 H 
ATOM     52  H   LIG d   1       2.927  -4.506  -7.357  0.00  0.00     0.066 H 
ENDBRANCH  48  49
ENDBRANCH  13  48
BRANCH  14  53
ATOM     53  O   LIG d   1       7.269  -3.800  -8.751  0.00  0.00    -0.488 OA
BRANCH  53  54
ATOM     54  C   LIG d   1       7.476  -3.360 -10.095  0.00  0.00     0.079 C 
ATOM     55  H   LIG d   1       6.708  -2.633 -10.361  0.00  0.00     0.066 H 
ATOM     56  H   LIG d   1       8.459  -2.897 -10.179  0.00  0.00     0.066 H 
ATOM     57  H   LIG d   1       7.418  -4.214 -10.770  0.00  0.00     0.066 H 
ENDBRANCH  53  54
ENDBRANCH  14  53
TORSDOF 10
ENDMDL
MODEL 5
REMARK VINA RESULT:      -5.0      3.079      4.930
REMARK  10 active torsions:
REMARK  status: ('A' for Active; 'I' for Inactive)
REMARK    1  A    between atoms: C_1  and  C_2 
REMARK    2  A    between atoms: C_9  and  O_27 
REMARK    3  A    between atoms: C_14  and  O_21 
REMARK    4  A    between atoms: C_15  and  O_19 
REMARK    5  A    between atoms: C_16  and  O_17 
REMARK    6  A    between atoms: O_17  and  C_18 
REMARK    7  A    between atoms: O_19  and  C_20 
REMARK    8  A    between atoms: O_21  and  C_22 
REMARK    9  A    between atoms: C_24  and  C_26 
REMARK   10  A    between atoms: O_27  and  C_28 
ROOT
ATOM      1  C   LIG d   1       3.575   1.162  -7.988  0.00  0.00    -0.037 C 
ATOM      2  H   LIG d   1       3.894   1.814  -7.176  0.00  0.00     0.030 H 
ATOM      3  C   LIG d   1       2.881  -0.068  -7.405  0.00  0.00    -0.024 C 
ATOM      4  C   LIG d   1       3.433  -0.352  -6.023  0.00  0.00    -0.032 A 
ATOM      5  C   LIG d   1       3.045   0.406  -4.942  0.00  0.00    -0.012 A 
ATOM      6  C   LIG d   1       3.540   0.114  -3.678  0.00  0.00     0.170 A 
ATOM      7  C   LIG d   1       4.426  -0.945  -3.506  0.00  0.00     0.208 A 
ATOM      8  C   LIG d   1       4.823  -1.705  -4.596  0.00  0.00     0.173 A 
ATOM      9  C   LIG d   1       4.335  -1.404  -5.873  0.00  0.00     0.035 A 
ATOM     10  C   LIG d   1       4.807  -2.166  -7.045  0.00  0.00     0.035 A 
ATOM     11  C   LIG d   1       5.460  -1.531  -8.099  0.00  0.00    -0.032 A 
ATOM     12  C   LIG d   1       5.852  -2.233  -9.215  0.00  0.00    -0.012 A 
ATOM     13  C   LIG d   1       5.627  -3.602  -9.285  0.00  0.00     0.166 A 
ATOM     14  C   LIG d   1       5.007  -4.258  -8.227  0.00  0.00     0.204 A 
ATOM     15  C   LIG d   1       4.595  -3.548  -7.110  0.00  0.00     0.173 A 
ATOM     16  C   LIG d   1       5.774  -0.055  -7.965  0.00  0.00    -0.024 C 
ATOM     17  C   LIG d   1       4.793   0.754  -8.813  0.00  0.00    -0.037 C 
ATOM     18  H   LIG d   1       4.467   0.149  -9.659  0.00  0.00     0.030 H 
ATOM     19  O   LIG d   1       4.752  -1.029  -2.182  0.00  0.00    -0.449 OA
ATOM     20  C   LIG d   1       4.383   0.242  -1.615  0.00  0.00     0.233 C 
ATOM     21  O   LIG d   1       3.316   0.699  -2.465  0.00  0.00    -0.453 OA
ATOM     22  H   LIG d   1       1.809   0.118  -7.337  0.00  0.00     0.032 H 
ATOM     23  H   LIG d   1       3.060  -0.927  -8.051  0.00  0.00     0.032 H 
ATOM     24  H   LIG d   1       2.358   1.228  -5.078  0.00  0.00     0.066 H 
ATOM     25  H   LIG d   1       6.333  -1.721 -10.035  0.00  0.00     0.066 H 
ATOM     26  H   LIG d   1       5.684   0.243  -6.921  0.00  0.00     0.032 H 
ATOM     27  H   LIG d   1       6.792   0.133  -8.310  0.00  0.00     0.032 H 
ATOM     28  H   LIG d   1       4.030   0.117  -0.590  0.00  0.00     0.117 H 
ATOM     29  H   LIG d   1       5.224   0.935  -1.647  0.00  0.00     0.117 H 
ENDROOT
BRANCH   1  30
ATOM     30  C   LIG d   1       2.591   1.918  -8.885  0.00  0.00    -0.062 C 
ATOM     31  H   LIG d   1       1.847   2.419  -8.266  0.00  0.00     0.023 H 
ATOM     32  H   LIG d   1       3.132   2.658  -9.474  0.00  0.00     0.023 H 
ATOM     33  H   LIG d   1       2.094   1.215  -9.553  0.00  0.00     0.023 H 
ENDBRANCH   1  30
BRANCH  17  34
ATOM     34  C   LIG d   1       5.493   2.011  -9.333  0.00  0.00    -0.062 C 
ATOM     35  H   LIG d   1       5.362   2.078 -10.413  0.00  0.00     0.023 H 
ATOM     36  H   LIG d   1       5.059   2.891  -8.859  0.00  0.00     0.023 H 
ATOM     37  H   LIG d   1       6.556   1.958  -9.099  0.00  0.00     0.023 H 
ENDBRANCH  17  34
BRANCH   8  38
ATOM     38  O   LIG d   1       5.688  -2.741  -4.426  0.00  0.00    -0.491 OA
BRANCH  38  39
ATOM     39  C   LIG d   1       7.068  -2.413  -4.255  0.00  0.00     0.079 C 
ATOM     40  H   LIG d   1       7.173  -1.698  -3.440  0.00  0.00     0.066 H 
ATOM     41  H   LIG d   1       7.630  -3.317  -4.022  0.00  0.00     0.066 H 
ATOM     42  H   LIG d   1       7.453  -1.973  -5.175  0.00  0.00     0.066 H 
ENDBRANCH  38  39
ENDBRANCH   8  38
BRANCH  15  43
ATOM     43  O   LIG d   1       3.985  -4.193  -6.079  0.00  0.00    -0.491 OA
BRANCH  43  44
ATOM     44  C   LIG d   1       4.684  -5.297  -5.500  0.00  0.00     0.079 C 
ATOM     45  H   LIG d   1       5.030  -5.025  -4.502  0.00  0.00     0.066 H 
ATOM     46  H   LIG d   1       4.015  -6.155  -5.431  0.00  0.00     0.066 H 
ATOM     47  H   LIG d   1       5.540  -5.552  -6.124  0.00  0.00     0.066 H 
ENDBRANCH  43  44
ENDBRANCH  15  43
BRANCH  13  48
ATOM     48  O   LIG d   1       6.014  -4.301 -10.386  0.00  0.00    -0.491 OA
BRANCH  48  49
ATOM     49  C   LIG d   1       5.307  -4.039 -11.601  0.00  0.00     0.079 C 
ATOM     50  H   LIG d   1       5.987  -3.596 -12.328  0.00  0.00     0.066 H 
ATOM     51  H   LIG d   1       4.907  -4.972 -11.997  0.00  0.00     0.066 H 
ATOM     52  H   LIG d   1       4.486  -3.349 -11.401  0.00  0.00     0.066 H 
ENDBRANCH  48  49
ENDBRANCH  13  48
BRANCH  14  53
ATOM     53  O   LIG d   1       4.803  -5.602  -8.291  0.00  0.00    -0.488 OA
BRANCH  53  54
ATOM     54  C   LIG d   1       3.594  -6.045  -8.912  0.00  0.00     0.079 C 
ATOM     55  H   LIG d   1       3.806  -6.364  -9.933  0.00  0.00     0.066 H 
ATOM     56  H   LIG d   1       3.181  -6.881  -8.349  0.00  0.00     0.066 H 
ATOM     57  H   LIG d   1       2.874  -5.227  -8.929  0.00  0.00     0.066 H 
ENDBRANCH  53  54
ENDBRANCH  14  53
TORSDOF 10
ENDMDL
MODEL 6
REMARK VINA RESULT:      -4.9      2.689      4.284
REMARK  10 active torsions:
REMARK  status: ('A' for Active; 'I' for Inactive)
REMARK    1  A    between atoms: C_1  and  C_2 
REMARK    2  A    between atoms: C_9  and  O_27 
REMARK    3  A    between atoms: C_14  and  O_21 
REMARK    4  A    between atoms: C_15  and  O_19 
REMARK    5  A    between atoms: C_16  and  O_17 
REMARK    6  A    between atoms: O_17  and  C_18 
REMARK    7  A    between atoms: O_19  and  C_20 
REMARK    8  A    between atoms: O_21  and  C_22 
REMARK    9  A    between atoms: C_24  and  C_26 
REMARK   10  A    between atoms: O_27  and  C_28 
ROOT
ATOM      1  C   LIG d   1       4.812  -1.777  -2.994  0.00  0.00    -0.037 C 
ATOM      2  H   LIG d   1       5.750  -1.541  -2.492  0.00  0.00     0.030 H 
ATOM      3  C   LIG d   1       5.064  -2.839  -4.063  0.00  0.00    -0.024 C 
ATOM      4  C   LIG d   1       6.490  -2.725  -4.562  0.00  0.00    -0.032 A 
ATOM      5  C   LIG d   1       7.538  -3.203  -3.808  0.00  0.00    -0.012 A 
ATOM      6  C   LIG d   1       8.836  -3.116  -4.293  0.00  0.00     0.170 A 
ATOM      7  C   LIG d   1       9.076  -2.547  -5.541  0.00  0.00     0.208 A 
ATOM      8  C   LIG d   1       8.021  -2.058  -6.297  0.00  0.00     0.173 A 
ATOM      9  C   LIG d   1       6.713  -2.134  -5.804  0.00  0.00     0.035 A 
ATOM     10  C   LIG d   1       5.597  -1.554  -6.574  0.00  0.00     0.035 A 
ATOM     11  C   LIG d   1       4.808  -0.537  -6.041  0.00  0.00    -0.032 A 
ATOM     12  C   LIG d   1       3.734  -0.034  -6.739  0.00  0.00    -0.012 A 
ATOM     13  C   LIG d   1       3.446  -0.519  -8.009  0.00  0.00     0.166 A 
ATOM     14  C   LIG d   1       4.244  -1.509  -8.571  0.00  0.00     0.204 A 
ATOM     15  C   LIG d   1       5.315  -2.030  -7.861  0.00  0.00     0.173 A 
ATOM     16  C   LIG d   1       5.190   0.038  -4.693  0.00  0.00    -0.024 C 
ATOM     17  C   LIG d   1       4.246  -0.505  -3.621  0.00  0.00    -0.037 C 
ATOM     18  H   LIG d   1       3.280  -0.727  -4.073  0.00  0.00     0.030 H 
ATOM     19  O   LIG d   1      10.419  -2.590  -5.788  0.00  0.00    -0.449 OA
ATOM     20  C   LIG d   1      11.038  -2.813  -4.507  0.00  0.00     0.233 C 
ATOM     21  O   LIG d   1      10.028  -3.510  -3.755  0.00  0.00    -0.453 OA
ATOM     22  H   LIG d   1       4.906  -3.829  -3.636  0.00  0.00     0.032 H 
ATOM     23  H   LIG d   1       4.376  -2.688  -4.894  0.00  0.00     0.032 H 
ATOM     24  H   LIG d   1       7.350  -3.645  -2.841  0.00  0.00     0.066 H 
ATOM     25  H   LIG d   1       3.116   0.734  -6.300  0.00  0.00     0.066 H 
ATOM     26  H   LIG d   1       6.214  -0.248  -4.453  0.00  0.00     0.032 H 
ATOM     27  H   LIG d   1       5.115   1.125  -4.726  0.00  0.00     0.032 H 
ATOM     28  H   LIG d   1      11.930  -3.431  -4.615  0.00  0.00     0.117 H 
ATOM     29  H   LIG d   1      11.285  -1.864  -4.031  0.00  0.00     0.117 H 
ENDROOT
BRANCH   1  30
ATOM     30  C   LIG d   1       3.814  -2.320  -1.969  0.00  0.00    -0.062 C 
ATOM     31  H   LIG d   1       4.169  -2.100  -0.964  0.00  0.00     0.023 H 
ATOM     32  H   LIG d   1       2.843  -1.849  -2.124  0.00  0.00     0.023 H 
ATOM     33  H   LIG d   1       3.717  -3.399  -2.092  0.00  0.00     0.023 H 
ENDBRANCH   1  30
BRANCH  17  34
ATOM     34  C   LIG d   1       4.059   0.553  -2.532  0.00  0.00    -0.062 C 
ATOM     35  H   LIG d   1       3.002   0.806  -2.448  0.00  0.00     0.023 H 
ATOM     36  H   LIG d   1       4.415   0.161  -1.579  0.00  0.00     0.023 H 
ATOM     37  H   LIG d   1       4.627   1.447  -2.791  0.00  0.00     0.023 H 
ENDBRANCH  17  34
BRANCH   8  38
ATOM     38  O   LIG d   1       8.257  -1.503  -7.517  0.00  0.00    -0.491 OA
BRANCH  38  39
ATOM     39  C   LIG d   1       8.720  -0.152  -7.536  0.00  0.00     0.079 C 
ATOM     40  H   LIG d   1       9.234   0.043  -8.476  0.00  0.00     0.066 H 
ATOM     41  H   LIG d   1       7.871   0.525  -7.438  0.00  0.00     0.066 H 
ATOM     42  H   LIG d   1       9.409   0.007  -6.706  0.00  0.00     0.066 H 
ENDBRANCH  38  39
ENDBRANCH   8  38
BRANCH  15  43
ATOM     43  O   LIG d   1       6.091  -3.002  -8.412  0.00  0.00    -0.491 OA
BRANCH  43  44
ATOM     44  C   LIG d   1       5.658  -4.353  -8.243  0.00  0.00     0.079 C 
ATOM     45  H   LIG d   1       4.783  -4.534  -8.867  0.00  0.00     0.066 H 
ATOM     46  H   LIG d   1       6.459  -5.031  -8.536  0.00  0.00     0.066 H 
ATOM     47  H   LIG d   1       5.400  -4.523  -7.198  0.00  0.00     0.066 H 
ENDBRANCH  43  44
ENDBRANCH  15  43
BRANCH  13  48
ATOM     48  O   LIG d   1       2.386  -0.024  -8.702  0.00  0.00    -0.491 OA
BRANCH  48  49
ATOM     49  C   LIG d   1       2.496   1.318  -9.184  0.00  0.00     0.079 C 
ATOM     50  H   LIG d   1       1.549   1.622  -9.630  0.00  0.00     0.066 H 
ATOM     51  H   LIG d   1       2.738   1.983  -8.355  0.00  0.00     0.066 H 
ATOM     52  H   LIG d   1       3.286   1.371  -9.934  0.00  0.00     0.066 H 
ENDBRANCH  48  49
ENDBRANCH  13  48
BRANCH  14  53
ATOM     53  O   LIG d   1       3.970  -1.971  -9.822  0.00  0.00    -0.488 OA
BRANCH  53  54
ATOM     54  C   LIG d   1       4.600  -1.296 -10.913  0.00  0.00     0.079 C 
ATOM     55  H   LIG d   1       3.843  -0.979 -11.630  0.00  0.00     0.066 H 
ATOM     56  H   LIG d   1       5.136  -0.423 -10.540  0.00  0.00     0.066 H 
ATOM     57  H   LIG d   1       5.303  -1.971 -11.401  0.00  0.00     0.066 H 
ENDBRANCH  53  54
ENDBRANCH  14  53
TORSDOF 10
ENDMDL
MODEL 7
REMARK VINA RESULT:      -4.8      2.826      4.991
REMARK  10 active torsions:
REMARK  status: ('A' for Active; 'I' for Inactive)
REMARK    1  A    between atoms: C_1  and  C_2 
REMARK    2  A    between atoms: C_9  and  O_27 
REMARK    3  A    between atoms: C_14  and  O_21 
REMARK    4  A    between atoms: C_15  and  O_19 
REMARK    5  A    between atoms: C_16  and  O_17 
REMARK    6  A    between atoms: O_17  and  C_18 
REMARK    7  A    between atoms: O_19  and  C_20 
REMARK    8  A    between atoms: O_21  and  C_22 
REMARK    9  A    between atoms: C_24  and  C_26 
REMARK   10  A    between atoms: O_27  and  C_28 
ROOT
ATOM      1  C   LIG d   1       3.223   0.364  -8.297  0.00  0.00    -0.037 C 
ATOM      2  H   LIG d   1       2.915   1.139  -7.595  0.00  0.00     0.030 H 
ATOM      3  C   LIG d   1       3.658  -0.877  -7.520  0.00  0.00    -0.024 C 
ATOM      4  C   LIG d   1       4.179  -0.464  -6.159  0.00  0.00    -0.032 A 
ATOM      5  C   LIG d   1       3.310  -0.111  -5.152  0.00  0.00    -0.012 A 
ATOM      6  C   LIG d   1       3.804   0.238  -3.902  0.00  0.00     0.170 A 
ATOM      7  C   LIG d   1       5.176   0.228  -3.669  0.00  0.00     0.208 A 
ATOM      8  C   LIG d   1       6.053  -0.120  -4.686  0.00  0.00     0.173 A 
ATOM      9  C   LIG d   1       5.557  -0.460  -5.950  0.00  0.00     0.035 A 
ATOM     10  C   LIG d   1       6.488  -0.765  -7.053  0.00  0.00     0.035 A 
ATOM     11  C   LIG d   1       6.491  -0.007  -8.221  0.00  0.00    -0.032 A 
ATOM     12  C   LIG d   1       7.322  -0.326  -9.270  0.00  0.00    -0.012 A 
ATOM     13  C   LIG d   1       8.198  -1.397  -9.157  0.00  0.00     0.166 A 
ATOM     14  C   LIG d   1       8.233  -2.145  -7.985  0.00  0.00     0.204 A 
ATOM     15  C   LIG d   1       7.383  -1.836  -6.935  0.00  0.00     0.173 A 
ATOM     16  C   LIG d   1       5.591   1.209  -8.291  0.00  0.00    -0.024 C 
ATOM     17  C   LIG d   1       4.371   0.893  -9.154  0.00  0.00    -0.037 C 
ATOM     18  H   LIG d   1       4.641   0.140  -9.895  0.00  0.00     0.030 H 
ATOM     19  O   LIG d   1       5.401   0.596  -2.372  0.00  0.00    -0.449 OA
ATOM     20  C   LIG d   1       4.183   1.229  -1.937  0.00  0.00     0.233 C 
ATOM     21  O   LIG d   1       3.168   0.618  -2.755  0.00  0.00    -0.453 OA
ATOM     22  H   LIG d   1       2.805  -1.545  -7.395  0.00  0.00     0.032 H 
ATOM     23  H   LIG d   1       4.445  -1.393  -8.069  0.00  0.00     0.032 H 
ATOM     24  H   LIG d   1       2.246  -0.104  -5.334  0.00  0.00     0.066 H 
ATOM     25  H   LIG d   1       7.292   0.256 -10.180  0.00  0.00     0.066 H 
ATOM     26  H   LIG d   1       5.265   1.479  -7.286  0.00  0.00     0.032 H 
ATOM     27  H   LIG d   1       6.140   2.043  -8.730  0.00  0.00     0.032 H 
ATOM     28  H   LIG d   1       3.999   1.023  -0.881  0.00  0.00     0.117 H 
ATOM     29  H   LIG d   1       4.224   2.303  -2.116  0.00  0.00     0.117 H 
ENDROOT
BRANCH   1  30
ATOM     30  C   LIG d   1       2.043   0.004  -9.203  0.00  0.00    -0.062 C 
ATOM     31  H   LIG d   1       1.115   0.086  -8.639  0.00  0.00     0.023 H 
ATOM     32  H   LIG d   1       2.016   0.688 -10.052  0.00  0.00     0.023 H 
ATOM     33  H   LIG d   1       2.160  -1.018  -9.564  0.00  0.00     0.023 H 
ENDBRANCH   1  30
BRANCH  17  34
ATOM     34  C   LIG d   1       3.918   2.165  -9.874  0.00  0.00    -0.062 C 
ATOM     35  H   LIG d   1       4.773   2.626 -10.369  0.00  0.00     0.023 H 
ATOM     36  H   LIG d   1       3.161   1.912 -10.617  0.00  0.00     0.023 H 
ATOM     37  H   LIG d   1       3.497   2.862  -9.149  0.00  0.00     0.023 H 
ENDBRANCH  17  34
BRANCH   8  38
ATOM     38  O   LIG d   1       7.394  -0.131  -4.456  0.00  0.00    -0.491 OA
BRANCH  38  39
ATOM     39  C   LIG d   1       8.050   1.137  -4.387  0.00  0.00     0.079 C 
ATOM     40  H   LIG d   1       9.129   0.988  -4.394  0.00  0.00     0.066 H 
ATOM     41  H   LIG d   1       7.760   1.743  -5.245  0.00  0.00     0.066 H 
ATOM     42  H   LIG d   1       7.760   1.646  -3.468  0.00  0.00     0.066 H 
ENDBRANCH  38  39
ENDBRANCH   8  38
BRANCH  15  43
ATOM     43  O   LIG d   1       7.417  -2.572  -5.790  0.00  0.00    -0.491 OA
BRANCH  43  44
ATOM     44  C   LIG d   1       6.613  -3.752  -5.753  0.00  0.00     0.079 C 
ATOM     45  H   LIG d   1       5.577  -3.493  -5.972  0.00  0.00     0.066 H 
ATOM     46  H   LIG d   1       6.974  -4.462  -6.497  0.00  0.00     0.066 H 
ATOM     47  H   LIG d   1       6.673  -4.201  -4.762  0.00  0.00     0.066 H 
ENDBRANCH  43  44
ENDBRANCH  15  43
BRANCH  13  48
ATOM     48  O   LIG d   1       9.022  -1.715 -10.192  0.00  0.00    -0.491 OA
BRANCH  48  49
ATOM     49  C   LIG d   1      10.075  -0.795 -10.488  0.00  0.00     0.079 C 
ATOM     50  H   LIG d   1      11.035  -1.310 -10.428  0.00  0.00     0.066 H 
ATOM     51  H   LIG d   1       9.939  -0.397 -11.493  0.00  0.00     0.066 H 
ATOM     52  H   LIG d   1      10.055   0.023  -9.768  0.00  0.00     0.066 H 
ENDBRANCH  48  49
ENDBRANCH  13  48
BRANCH  14  53
ATOM     53  O   LIG d   1       9.104  -3.184  -7.870  0.00  0.00    -0.488 OA
BRANCH  53  54
ATOM     54  C   LIG d   1      10.387  -2.895  -7.309  0.00  0.00     0.079 C 
ATOM     55  H   LIG d   1      11.104  -3.648  -7.637  0.00  0.00     0.066 H 
ATOM     56  H   LIG d   1      10.715  -1.910  -7.641  0.00  0.00     0.066 H 
ATOM     57  H   LIG d   1      10.319  -2.908  -6.221  0.00  0.00     0.066 H 
ENDBRANCH  53  54
ENDBRANCH  14  53
TORSDOF 10
ENDMDL
MODEL 8
REMARK VINA RESULT:      -4.8      2.064      4.423
REMARK  10 active torsions:
REMARK  status: ('A' for Active; 'I' for Inactive)
REMARK    1  A    between atoms: C_1  and  C_2 
REMARK    2  A    between atoms: C_9  and  O_27 
REMARK    3  A    between atoms: C_14  and  O_21 
REMARK    4  A    between atoms: C_15  and  O_19 
REMARK    5  A    between atoms: C_16  and  O_17 
REMARK    6  A    between atoms: O_17  and  C_18 
REMARK    7  A    between atoms: O_19  and  C_20 
REMARK    8  A    between atoms: O_21  and  C_22 
REMARK    9  A    between atoms: C_24  and  C_26 
REMARK   10  A    between atoms: O_27  and  C_28 
ROOT
ATOM      1  C   LIG d   1      10.139  -2.868  -4.888  0.00  0.00    -0.037 C 
ATOM      2  H   LIG d   1      10.642  -2.303  -4.103  0.00  0.00     0.030 H 
ATOM      3  C   LIG d   1       9.562  -1.898  -5.917  0.00  0.00    -0.024 C 
ATOM      4  C   LIG d   1       9.245  -0.578  -5.245  0.00  0.00    -0.032 A 
ATOM      5  C   LIG d   1      10.249   0.312  -4.937  0.00  0.00    -0.012 A 
ATOM      6  C   LIG d   1       9.938   1.530  -4.347  0.00  0.00     0.170 A 
ATOM      7  C   LIG d   1       8.612   1.849  -4.069  0.00  0.00     0.208 A 
ATOM      8  C   LIG d   1       7.601   0.949  -4.372  0.00  0.00     0.173 A 
ATOM      9  C   LIG d   1       7.915  -0.284  -4.956  0.00  0.00     0.035 A 
ATOM     10  C   LIG d   1       6.850  -1.271  -5.217  0.00  0.00     0.035 A 
ATOM     11  C   LIG d   1       6.878  -2.532  -4.625  0.00  0.00    -0.032 A 
ATOM     12  C   LIG d   1       5.913  -3.470  -4.912  0.00  0.00    -0.012 A 
ATOM     13  C   LIG d   1       4.874  -3.152  -5.777  0.00  0.00     0.166 A 
ATOM     14  C   LIG d   1       4.811  -1.886  -6.350  0.00  0.00     0.204 A 
ATOM     15  C   LIG d   1       5.793  -0.946  -6.077  0.00  0.00     0.173 A 
ATOM     16  C   LIG d   1       7.969  -2.829  -3.618  0.00  0.00    -0.024 C 
ATOM     17  C   LIG d   1       9.032  -3.716  -4.265  0.00  0.00    -0.037 C 
ATOM     18  H   LIG d   1       8.568  -4.325  -5.041  0.00  0.00     0.030 H 
ATOM     19  O   LIG d   1       8.573   3.093  -3.504  0.00  0.00    -0.449 OA
ATOM     20  C   LIG d   1       9.918   3.356  -3.062  0.00  0.00     0.233 C 
ATOM     21  O   LIG d   1      10.731   2.569  -3.951  0.00  0.00    -0.453 OA
ATOM     22  H   LIG d   1      10.290  -1.736  -6.712  0.00  0.00     0.032 H 
ATOM     23  H   LIG d   1       8.650  -2.318  -6.341  0.00  0.00     0.032 H 
ATOM     24  H   LIG d   1      11.277   0.062  -5.153  0.00  0.00     0.066 H 
ATOM     25  H   LIG d   1       5.965  -4.452  -4.466  0.00  0.00     0.066 H 
ATOM     26  H   LIG d   1       8.427  -1.895  -3.291  0.00  0.00     0.032 H 
ATOM     27  H   LIG d   1       7.541  -3.344  -2.758  0.00  0.00     0.032 H 
ATOM     28  H   LIG d   1      10.155   4.416  -3.164  0.00  0.00     0.117 H 
ATOM     29  H   LIG d   1      10.052   3.031  -2.030  0.00  0.00     0.117 H 
ENDROOT
BRANCH   1  30
ATOM     30  C   LIG d   1      11.152  -3.788  -5.575  0.00  0.00    -0.062 C 
ATOM     31  H   LIG d   1      10.631  -4.447  -6.268  0.00  0.00     0.023 H 
ATOM     32  H   LIG d   1      11.878  -3.185  -6.120  0.00  0.00     0.023 H 
ATOM     33  H   LIG d   1      11.668  -4.386  -4.823  0.00  0.00     0.023 H 
ENDBRANCH   1  30
BRANCH  17  34
ATOM     34  C   LIG d   1       9.638  -4.634  -3.202  0.00  0.00    -0.062 C 
ATOM     35  H   LIG d   1      10.049  -4.031  -2.392  0.00  0.00     0.023 H 
ATOM     36  H   LIG d   1       8.865  -5.294  -2.808  0.00  0.00     0.023 H 
ATOM     37  H   LIG d   1      10.433  -5.232  -3.648  0.00  0.00     0.023 H 
ENDBRANCH  17  34
BRANCH   8  38
ATOM     38  O   LIG d   1       6.306   1.264  -4.101  0.00  0.00    -0.491 OA
BRANCH  38  39
ATOM     39  C   LIG d   1       5.823   0.953  -2.792  0.00  0.00     0.079 C 
ATOM     40  H   LIG d   1       4.733   0.961  -2.796  0.00  0.00     0.066 H 
ATOM     41  H   LIG d   1       6.179  -0.034  -2.499  0.00  0.00     0.066 H 
ATOM     42  H   LIG d   1       6.189   1.697  -2.084  0.00  0.00     0.066 H 
ENDBRANCH  38  39
ENDBRANCH   8  38
BRANCH  15  43
ATOM     43  O   LIG d   1       5.730   0.290  -6.642  0.00  0.00    -0.491 OA
BRANCH  43  44
ATOM     44  C   LIG d   1       6.413   0.471  -7.884  0.00  0.00     0.079 C 
ATOM     45  H   LIG d   1       6.146  -0.336  -8.566  0.00  0.00     0.066 H 
ATOM     46  H   LIG d   1       6.125   1.427  -8.321  0.00  0.00     0.066 H 
ATOM     47  H   LIG d   1       7.489   0.459  -7.711  0.00  0.00     0.066 H 
ENDBRANCH  43  44
ENDBRANCH  15  43
BRANCH  13  48
ATOM     48  O   LIG d   1       3.918  -4.076  -6.062  0.00  0.00    -0.491 OA
BRANCH  48  49
ATOM     49  C   LIG d   1       4.326  -5.446  -6.081  0.00  0.00     0.079 C 
ATOM     50  H   LIG d   1       5.223  -5.566  -5.473  0.00  0.00     0.066 H 
ATOM     51  H   LIG d   1       3.528  -6.069  -5.678  0.00  0.00     0.066 H 
ATOM     52  H   LIG d   1       4.539  -5.747  -7.108  0.00  0.00     0.066 H 
ENDBRANCH  48  49
ENDBRANCH  13  48
BRANCH  14  53
ATOM     53  O   LIG d   1       3.783  -1.571  -7.184  0.00  0.00    -0.488 OA
BRANCH  53  54
ATOM     54  C   LIG d   1       3.881  -2.027  -8.535  0.00  0.00     0.079 C 
ATOM     55  H   LIG d   1       4.922  -1.993  -8.855  0.00  0.00     0.066 H 
ATOM     56  H   LIG d   1       3.514  -3.051  -8.601  0.00  0.00     0.066 H 
ATOM     57  H   LIG d   1       3.281  -1.385  -9.180  0.00  0.00     0.066 H 
ENDBRANCH  53  54
ENDBRANCH  14  53
TORSDOF 10
ENDMDL
MODEL 9
REMARK VINA RESULT:      -4.7      7.841     11.348
REMARK  10 active torsions:
REMARK  status: ('A' for Active; 'I' for Inactive)
REMARK    1  A    between atoms: C_1  and  C_2 
REMARK    2  A    between atoms: C_9  and  O_27 
REMARK    3  A    between atoms: C_14  and  O_21 
REMARK    4  A    between atoms: C_15  and  O_19 
REMARK    5  A    between atoms: C_16  and  O_17 
REMARK    6  A    between atoms: O_17  and  C_18 
REMARK    7  A    between atoms: O_19  and  C_20 
REMARK    8  A    between atoms: O_21  and  C_22 
REMARK    9  A    between atoms: C_24  and  C_26 
REMARK   10  A    between atoms: O_27  and  C_28 
ROOT
ATOM      1  C   LIG d   1       9.819   4.983  -4.838  0.00  0.00    -0.037 C 
ATOM      2  H   LIG d   1      10.183   5.233  -5.835  0.00  0.00     0.030 H 
ATOM      3  C   LIG d   1       9.092   6.190  -4.248  0.00  0.00    -0.024 C 
ATOM      4  C   LIG d   1       9.664   7.462  -4.838  0.00  0.00    -0.032 A 
ATOM      5  C   LIG d   1       9.330   7.857  -6.113  0.00  0.00    -0.012 A 
ATOM      6  C   LIG d   1       9.842   9.042  -6.627  0.00  0.00     0.170 A 
ATOM      7  C   LIG d   1      10.690   9.827  -5.852  0.00  0.00     0.208 A 
ATOM      8  C   LIG d   1      11.033   9.426  -4.570  0.00  0.00     0.173 A 
ATOM      9  C   LIG d   1      10.527   8.226  -4.055  0.00  0.00     0.035 A 
ATOM     10  C   LIG d   1      10.943   7.761  -2.718  0.00  0.00     0.035 A 
ATOM     11  C   LIG d   1      11.596   6.542  -2.552  0.00  0.00    -0.032 A 
ATOM     12  C   LIG d   1      11.935   6.085  -1.299  0.00  0.00    -0.012 A 
ATOM     13  C   LIG d   1      11.656   6.861  -0.181  0.00  0.00     0.166 A 
ATOM     14  C   LIG d   1      11.035   8.096  -0.331  0.00  0.00     0.204 A 
ATOM     15  C   LIG d   1      10.676   8.549  -1.591  0.00  0.00     0.173 A 
ATOM     16  C   LIG d   1      11.970   5.753  -3.789  0.00  0.00    -0.024 C 
ATOM     17  C   LIG d   1      11.002   4.583  -3.960  0.00  0.00    -0.037 C 
ATOM     18  H   LIG d   1      10.634   4.277  -2.980  0.00  0.00     0.030 H 
ATOM     19  O   LIG d   1      11.043  10.932  -6.576  0.00  0.00    -0.449 OA
ATOM     20  C   LIG d   1      10.736  10.607  -7.945  0.00  0.00     0.233 C 
ATOM     21  O   LIG d   1       9.668   9.648  -7.839  0.00  0.00    -0.453 OA
ATOM     22  H   LIG d   1       8.030   6.125  -4.485  0.00  0.00     0.032 H 
ATOM     23  H   LIG d   1       9.223   6.200  -3.167  0.00  0.00     0.032 H 
ATOM     24  H   LIG d   1       8.673   7.247  -6.713  0.00  0.00     0.066 H 
ATOM     25  H   LIG d   1      12.417   5.125  -1.185  0.00  0.00     0.066 H 
ATOM     26  H   LIG d   1      11.915   6.400  -4.664  0.00  0.00     0.032 H 
ATOM     27  H   LIG d   1      12.986   5.371  -3.684  0.00  0.00     0.032 H 
ATOM     28  H   LIG d   1      10.402  11.495  -8.483  0.00  0.00     0.117 H 
ATOM     29  H   LIG d   1      11.602  10.165  -8.437  0.00  0.00     0.117 H 
ENDROOT
BRANCH   1  30
ATOM     30  C   LIG d   1       8.845   3.806  -4.937  0.00  0.00    -0.062 C 
ATOM     31  H   LIG d   1       8.216   3.780  -4.049  0.00  0.00     0.023 H 
ATOM     32  H   LIG d   1       8.221   3.926  -5.823  0.00  0.00     0.023 H 
ATOM     33  H   LIG d   1       9.407   2.875  -5.013  0.00  0.00     0.023 H 
ENDBRANCH   1  30
BRANCH  17  34
ATOM     34  C   LIG d   1      11.738   3.410  -4.609  0.00  0.00    -0.062 C 
ATOM     35  H   LIG d   1      12.507   3.042  -3.929  0.00  0.00     0.023 H 
ATOM     36  H   LIG d   1      11.029   2.609  -4.823  0.00  0.00     0.023 H 
ATOM     37  H   LIG d   1      12.203   3.741  -5.538  0.00  0.00     0.023 H 
ENDBRANCH  17  34
BRANCH   8  38
ATOM     38  O   LIG d   1      11.860  10.196  -3.813  0.00  0.00    -0.491 OA
BRANCH  38  39
ATOM     39  C   LIG d   1      13.261  10.092  -4.073  0.00  0.00     0.079 C 
ATOM     40  H   LIG d   1      13.630   9.136  -3.701  0.00  0.00     0.066 H 
ATOM     41  H   LIG d   1      13.437  10.156  -5.147  0.00  0.00     0.066 H 
ATOM     42  H   LIG d   1      13.785  10.904  -3.570  0.00  0.00     0.066 H 
ENDBRANCH  38  39
ENDBRANCH   8  38
BRANCH  15  43
ATOM     43  O   LIG d   1      10.065   9.756  -1.733  0.00  0.00    -0.491 OA
BRANCH  43  44
ATOM     44  C   LIG d   1       8.719   9.862  -1.268  0.00  0.00     0.079 C 
ATOM     45  H   LIG d   1       8.308   8.863  -1.117  0.00  0.00     0.066 H 
ATOM     46  H   LIG d   1       8.701  10.408  -0.325  0.00  0.00     0.066 H 
ATOM     47  H   LIG d   1       8.120  10.392  -2.008  0.00  0.00     0.066 H 
ENDBRANCH  43  44
ENDBRANCH  15  43
BRANCH  13  48
ATOM     48  O   LIG d   1      11.990   6.413   1.059  0.00  0.00    -0.491 OA
BRANCH  48  49
ATOM     49  C   LIG d   1      11.009   5.640   1.755  0.00  0.00     0.079 C 
ATOM     50  H   LIG d   1      11.195   5.699   2.828  0.00  0.00     0.066 H 
ATOM     51  H   LIG d   1      10.016   6.031   1.536  0.00  0.00     0.066 H 
ATOM     52  H   LIG d   1      11.070   4.601   1.432  0.00  0.00     0.066 H 
ENDBRANCH  48  49
ENDBRANCH  13  48
BRANCH  14  53
ATOM     53  O   LIG d   1      10.777   8.861   0.765  0.00  0.00    -0.488 OA
BRANCH  53  54
ATOM     54  C   LIG d   1      11.809   9.756   1.187  0.00  0.00     0.079 C 
ATOM     55  H   LIG d   1      12.383  10.083   0.320  0.00  0.00     0.066 H 
ATOM     56  H   LIG d   1      11.362  10.622   1.675  0.00  0.00     0.066 H 
ATOM     57  H   LIG d   1      12.469   9.245   1.888  0.00  0.00     0.066 H 
ENDBRANCH  53  54
ENDBRANCH  14  53
TORSDOF 10
ENDMDL
