MODEL 1
REMARK VINA RESULT:      -6.6      0.000      0.000
REMARK  3 active torsions:
REMARK  status: ('A' for Active; 'I' for Inactive)
REMARK    1  A    between atoms: CB_1  and  CA_2 
REMARK       I    between atoms: CA_2  and  C_4 
REMARK       I    between atoms: CA_2  and  N_6 
REMARK       I    between atoms: N_6  and  C_7 
REMARK    2  A    between atoms: C_7  and  C_9 
REMARK    3  A    between atoms: C_14  and  O_15 
ROOT
ATOM      1  CA  ALA d   1       3.018   0.690  -7.703  0.00  0.00     0.060 C 
ATOM      2  HA  ALA d   1       2.193   1.386  -7.556  0.00  0.00     0.056 H 
ATOM      3  C   ALA d   1       4.054   1.319  -8.599  0.00  0.00     0.062 C 
ATOM      4  O   ALA d   1       5.180   1.484  -8.198  0.00  0.00    -0.548 OA
ATOM      5  N   ALA d   1       3.624   0.370  -6.408  0.00  0.00    -0.303 N 
ATOM      6  H   ALA d   1       4.580   0.222  -6.343  0.00  0.00     0.150 HD
ATOM      7  OXT ALA d   1       3.723   1.697  -9.845  0.00  0.00    -0.548 OA
ATOM      8  C   UNK d   0       2.852   0.282  -5.306  0.00  0.00     0.248 C 
ATOM      9  O   UNK d   0       1.653   0.468  -5.388  0.00  0.00    -0.270 OA
ENDROOT
BRANCH   8  10
ATOM     10  C   UNK d   0       3.462  -0.039  -4.002  0.00  0.00     0.078 A 
ATOM     11  C   UNK d   0       3.824  -1.359  -3.701  0.00  0.00     0.129 A 
ATOM     12  C   UNK d   0       4.398  -1.650  -2.472  0.00  0.00    -0.019 A 
ATOM     13  C   UNK d   0       4.609  -0.644  -1.550  0.00  0.00    -0.058 A 
ATOM     14  H   UNK d   0       4.679  -2.666  -2.235  0.00  0.00     0.065 H 
ATOM     15  C   UNK d   0       4.252   0.662  -1.845  0.00  0.00    -0.061 A 
ATOM     16  H   UNK d   0       5.056  -0.876  -0.595  0.00  0.00     0.062 H 
ATOM     17  C   UNK d   0       3.686   0.970  -3.063  0.00  0.00    -0.046 A 
ATOM     18  H   UNK d   0       4.422   1.443  -1.119  0.00  0.00     0.062 H 
ATOM     19  H   UNK d   0       3.414   1.991  -3.291  0.00  0.00     0.063 H 
BRANCH  11  20
ATOM     20  O   UNK d   0       3.617  -2.347  -4.607  0.00  0.00    -0.506 OA
ATOM     21  H   UNK d   0       2.837  -2.889  -4.426  0.00  0.00     0.292 HD
ENDBRANCH  11  20
ENDBRANCH   8  10
BRANCH   1  22
ATOM     22  CB  ALA d   1       2.495  -0.593  -8.352  0.00  0.00    -0.041 C 
ATOM     23  HB1 ALA d   1       1.506  -0.410  -8.773  0.00  0.00     0.025 H 
ATOM     24  HB2 ALA d   1       3.176  -0.904  -9.144  0.00  0.00     0.025 H 
ATOM     25  HB3 ALA d   1       2.429  -1.379  -7.599  0.00  0.00     0.025 H 
ENDBRANCH   1  22
TORSDOF 5
ENDMDL
MODEL 2
REMARK VINA RESULT:      -6.0      2.892      4.658
REMARK  3 active torsions:
REMARK  status: ('A' for Active; 'I' for Inactive)
REMARK    1  A    between atoms: CB_1  and  CA_2 
REMARK       I    between atoms: CA_2  and  C_4 
REMARK       I    between atoms: CA_2  and  N_6 
REMARK       I    between atoms: N_6  and  C_7 
REMARK    2  A    between atoms: C_7  and  C_9 
REMARK    3  A    between atoms: C_14  and  O_15 
ROOT
ATOM      1  CA  ALA d   1       4.667  -4.267  -6.467  0.00  0.00     0.060 C 
ATOM      2  HA  ALA d   1       5.729  -4.149  -6.678  0.00  0.00     0.056 H 
ATOM      3  C   ALA d   1       4.392  -5.691  -6.056  0.00  0.00     0.062 C 
ATOM      4  O   ALA d   1       3.922  -5.926  -4.969  0.00  0.00    -0.548 OA
ATOM      5  N   ALA d   1       4.280  -3.364  -5.381  0.00  0.00    -0.303 N 
ATOM      6  H   ALA d   1       3.607  -3.637  -4.738  0.00  0.00     0.150 HD
ATOM      7  OXT ALA d   1       4.669  -6.698  -6.900  0.00  0.00    -0.548 OA
ATOM      8  C   UNK d   0       4.860  -2.151  -5.275  0.00  0.00     0.248 C 
ATOM      9  O   UNK d   0       5.704  -1.808  -6.081  0.00  0.00    -0.270 OA
ENDROOT
BRANCH   8  10
ATOM     10  C   UNK d   0       4.471  -1.240  -4.181  0.00  0.00     0.078 A 
ATOM     11  C   UNK d   0       3.835  -0.025  -4.469  0.00  0.00     0.129 A 
ATOM     12  C   UNK d   0       3.473   0.823  -3.433  0.00  0.00    -0.019 A 
ATOM     13  C   UNK d   0       3.739   0.471  -2.125  0.00  0.00    -0.058 A 
ATOM     14  H   UNK d   0       2.982   1.760  -3.650  0.00  0.00     0.065 H 
ATOM     15  C   UNK d   0       4.368  -0.730  -1.836  0.00  0.00    -0.061 A 
ATOM     16  H   UNK d   0       3.455   1.135  -1.322  0.00  0.00     0.062 H 
ATOM     17  C   UNK d   0       4.730  -1.587  -2.853  0.00  0.00    -0.046 A 
ATOM     18  H   UNK d   0       4.572  -0.997  -0.810  0.00  0.00     0.062 H 
ATOM     19  H   UNK d   0       5.215  -2.524  -2.623  0.00  0.00     0.063 H 
BRANCH  11  20
ATOM     20  O   UNK d   0       3.573   0.319  -5.754  0.00  0.00    -0.506 OA
ATOM     21  H   UNK d   0       3.439  -0.434  -6.345  0.00  0.00     0.292 HD
ENDBRANCH  11  20
ENDBRANCH   8  10
BRANCH   1  22
ATOM     22  CB  ALA d   1       3.857  -3.933  -7.721  0.00  0.00    -0.041 C 
ATOM     23  HB1 ALA d   1       4.438  -3.270  -8.362  0.00  0.00     0.025 H 
ATOM     24  HB2 ALA d   1       3.627  -4.851  -8.261  0.00  0.00     0.025 H 
ATOM     25  HB3 ALA d   1       2.930  -3.438  -7.433  0.00  0.00     0.025 H 
ENDBRANCH   1  22
TORSDOF 5
ENDMDL
MODEL 3
REMARK VINA RESULT:      -6.0      1.500      2.199
REMARK  3 active torsions:
REMARK  status: ('A' for Active; 'I' for Inactive)
REMARK    1  A    between atoms: CB_1  and  CA_2 
REMARK       I    between atoms: CA_2  and  C_4 
REMARK       I    between atoms: CA_2  and  N_6 
REMARK       I    between atoms: N_6  and  C_7 
REMARK    2  A    between atoms: C_7  and  C_9 
REMARK    3  A    between atoms: C_14  and  O_15 
ROOT
ATOM      1  CA  ALA d   1       4.148   0.528  -8.292  0.00  0.00     0.060 C 
ATOM      2  HA  ALA d   1       3.715  -0.355  -8.762  0.00  0.00     0.056 H 
ATOM      3  C   ALA d   1       3.367   1.750  -8.700  0.00  0.00     0.062 C 
ATOM      4  O   ALA d   1       2.823   2.427  -7.862  0.00  0.00    -0.548 OA
ATOM      5  N   ALA d   1       4.097   0.381  -6.835  0.00  0.00    -0.303 N 
ATOM      6  H   ALA d   1       3.944   1.157  -6.274  0.00  0.00     0.150 HD
ATOM      7  OXT ALA d   1       3.275   2.085  -9.998  0.00  0.00    -0.548 OA
ATOM      8  C   UNK d   0       4.261  -0.835  -6.274  0.00  0.00     0.248 C 
ATOM      9  O   UNK d   0       4.452  -1.808  -6.978  0.00  0.00    -0.270 OA
ENDROOT
BRANCH   8  10
ATOM     10  C   UNK d   0       4.208  -0.983  -4.807  0.00  0.00     0.078 A 
ATOM     11  C   UNK d   0       3.057  -0.605  -4.102  0.00  0.00     0.129 A 
ATOM     12  C   UNK d   0       3.018  -0.749  -2.723  0.00  0.00    -0.019 A 
ATOM     13  C   UNK d   0       4.109  -1.262  -2.050  0.00  0.00    -0.058 A 
ATOM     14  H   UNK d   0       2.134  -0.459  -2.175  0.00  0.00     0.065 H 
ATOM     15  C   UNK d   0       5.248  -1.638  -2.744  0.00  0.00    -0.061 A 
ATOM     16  H   UNK d   0       4.074  -1.372  -0.976  0.00  0.00     0.062 H 
ATOM     17  C   UNK d   0       5.302  -1.506  -4.114  0.00  0.00    -0.046 A 
ATOM     18  H   UNK d   0       6.096  -2.038  -2.209  0.00  0.00     0.062 H 
ATOM     19  H   UNK d   0       6.191  -1.805  -4.652  0.00  0.00     0.063 H 
BRANCH  11  20
ATOM     20  O   UNK d   0       1.987  -0.102  -4.765  0.00  0.00    -0.506 OA
ATOM     21  H   UNK d   0       1.233   0.107  -4.196  0.00  0.00     0.292 HD
ENDBRANCH  11  20
ENDBRANCH   8  10
BRANCH   1  22
ATOM     22  CB  ALA d   1       5.604   0.681  -8.737  0.00  0.00    -0.041 C 
ATOM     23  HB1 ALA d   1       5.983   1.650  -8.411  0.00  0.00     0.025 H 
ATOM     24  HB2 ALA d   1       6.205  -0.113  -8.295  0.00  0.00     0.025 H 
ATOM     25  HB3 ALA d   1       5.660   0.617  -9.824  0.00  0.00     0.025 H 
ENDBRANCH   1  22
TORSDOF 5
ENDMDL
MODEL 4
REMARK VINA RESULT:      -6.0      2.108      5.460
REMARK  3 active torsions:
REMARK  status: ('A' for Active; 'I' for Inactive)
REMARK    1  A    between atoms: CB_1  and  CA_2 
REMARK       I    between atoms: CA_2  and  C_4 
REMARK       I    between atoms: CA_2  and  N_6 
REMARK       I    between atoms: N_6  and  C_7 
REMARK    2  A    between atoms: C_7  and  C_9 
REMARK    3  A    between atoms: C_14  and  O_15 
ROOT
ATOM      1  CA  ALA d   1       4.104  -0.099  -3.642  0.00  0.00     0.060 C 
ATOM      2  HA  ALA d   1       5.139  -0.428  -3.731  0.00  0.00     0.056 H 
ATOM      3  C   ALA d   1       4.042   1.137  -2.783  0.00  0.00     0.062 C 
ATOM      4  O   ALA d   1       3.599   2.166  -3.235  0.00  0.00    -0.548 OA
ATOM      5  N   ALA d   1       3.572   0.205  -4.972  0.00  0.00    -0.303 N 
ATOM      6  H   ALA d   1       2.939   0.931  -5.088  0.00  0.00     0.150 HD
ATOM      7  OXT ALA d   1       4.479   1.096  -1.514  0.00  0.00    -0.548 OA
ATOM      8  C   UNK d   0       3.960  -0.526  -6.037  0.00  0.00     0.248 C 
ATOM      9  O   UNK d   0       4.753  -1.437  -5.892  0.00  0.00    -0.270 OA
ENDROOT
BRANCH   8  10
ATOM     10  C   UNK d   0       3.424  -0.220  -7.377  0.00  0.00     0.078 A 
ATOM     11  C   UNK d   0       3.188  -1.254  -8.294  0.00  0.00     0.129 A 
ATOM     12  C   UNK d   0       2.683  -0.956  -9.551  0.00  0.00    -0.019 A 
ATOM     13  C   UNK d   0       2.416   0.354  -9.896  0.00  0.00    -0.058 A 
ATOM     14  H   UNK d   0       2.499  -1.749 -10.260  0.00  0.00     0.065 H 
ATOM     15  C   UNK d   0       2.647   1.379  -8.992  0.00  0.00    -0.061 A 
ATOM     16  H   UNK d   0       2.023   0.581 -10.876  0.00  0.00     0.062 H 
ATOM     17  C   UNK d   0       3.144   1.100  -7.737  0.00  0.00    -0.046 A 
ATOM     18  H   UNK d   0       2.435   2.400  -9.271  0.00  0.00     0.062 H 
ATOM     19  H   UNK d   0       3.318   1.901  -7.034  0.00  0.00     0.063 H 
BRANCH  11  20
ATOM     20  O   UNK d   0       3.451  -2.540  -7.953  0.00  0.00    -0.506 OA
ATOM     21  H   UNK d   0       4.352  -2.688  -7.636  0.00  0.00     0.292 HD
ENDBRANCH  11  20
ENDBRANCH   8  10
BRANCH   1  22
ATOM     22  CB  ALA d   1       3.269  -1.209  -3.000  0.00  0.00    -0.041 C 
ATOM     23  HB1 ALA d   1       3.294  -2.095  -3.635  0.00  0.00     0.025 H 
ATOM     24  HB2 ALA d   1       3.680  -1.452  -2.020  0.00  0.00     0.025 H 
ATOM     25  HB3 ALA d   1       2.239  -0.870  -2.889  0.00  0.00     0.025 H 
ENDBRANCH   1  22
TORSDOF 5
ENDMDL
MODEL 5
REMARK VINA RESULT:      -6.0      1.837      5.656
REMARK  3 active torsions:
REMARK  status: ('A' for Active; 'I' for Inactive)
REMARK    1  A    between atoms: CB_1  and  CA_2 
REMARK       I    between atoms: CA_2  and  C_4 
REMARK       I    between atoms: CA_2  and  N_6 
REMARK       I    between atoms: N_6  and  C_7 
REMARK    2  A    between atoms: C_7  and  C_9 
REMARK    3  A    between atoms: C_14  and  O_15 
ROOT
ATOM      1  CA  ALA d   1       3.799   0.043  -3.774  0.00  0.00     0.060 C 
ATOM      2  HA  ALA d   1       4.777  -0.434  -3.716  0.00  0.00     0.056 H 
ATOM      3  C   ALA d   1       3.790   1.277  -2.909  0.00  0.00     0.062 C 
ATOM      4  O   ALA d   1       3.573   2.358  -3.401  0.00  0.00    -0.548 OA
ATOM      5  N   ALA d   1       3.519   0.419  -5.161  0.00  0.00    -0.303 N 
ATOM      6  H   ALA d   1       3.023   1.230  -5.354  0.00  0.00     0.150 HD
ATOM      7  OXT ALA d   1       4.024   1.174  -1.590  0.00  0.00    -0.548 OA
ATOM      8  C   UNK d   0       3.952  -0.363  -6.172  0.00  0.00     0.248 C 
ATOM      9  O   UNK d   0       4.573  -1.379  -5.930  0.00  0.00    -0.270 OA
ENDROOT
BRANCH   8  10
ATOM     10  C   UNK d   0       3.670   0.016  -7.570  0.00  0.00     0.078 A 
ATOM     11  C   UNK d   0       4.642   0.683  -8.328  0.00  0.00     0.129 A 
ATOM     12  C   UNK d   0       4.367   1.034  -9.641  0.00  0.00    -0.019 A 
ATOM     13  C   UNK d   0       3.142   0.727 -10.198  0.00  0.00    -0.058 A 
ATOM     14  H   UNK d   0       5.113   1.548 -10.230  0.00  0.00     0.065 H 
ATOM     15  C   UNK d   0       2.179   0.067  -9.451  0.00  0.00    -0.061 A 
ATOM     16  H   UNK d   0       2.933   1.002 -11.221  0.00  0.00     0.062 H 
ATOM     17  C   UNK d   0       2.436  -0.294  -8.147  0.00  0.00    -0.046 A 
ATOM     18  H   UNK d   0       1.223  -0.169  -9.895  0.00  0.00     0.062 H 
ATOM     19  H   UNK d   0       1.685  -0.813  -7.570  0.00  0.00     0.063 H 
BRANCH  11  20
ATOM     20  O   UNK d   0       5.846   0.983  -7.780  0.00  0.00    -0.506 OA
ATOM     21  H   UNK d   0       5.790   1.510  -6.971  0.00  0.00     0.292 HD
ENDBRANCH  11  20
ENDBRANCH   8  10
BRANCH   1  22
ATOM     22  CB  ALA d   1       2.726  -0.931  -3.283  0.00  0.00    -0.041 C 
ATOM     23  HB1 ALA d   1       2.803  -1.042  -2.201  0.00  0.00     0.025 H 
ATOM     24  HB2 ALA d   1       1.740  -0.546  -3.540  0.00  0.00     0.025 H 
ATOM     25  HB3 ALA d   1       2.873  -1.901  -3.758  0.00  0.00     0.025 H 
ENDBRANCH   1  22
TORSDOF 5
ENDMDL
MODEL 6
REMARK VINA RESULT:      -5.9      1.854      2.374
REMARK  3 active torsions:
REMARK  status: ('A' for Active; 'I' for Inactive)
REMARK    1  A    between atoms: CB_1  and  CA_2 
REMARK       I    between atoms: CA_2  and  C_4 
REMARK       I    between atoms: CA_2  and  N_6 
REMARK       I    between atoms: N_6  and  C_7 
REMARK    2  A    between atoms: C_7  and  C_9 
REMARK    3  A    between atoms: C_14  and  O_15 
ROOT
ATOM      1  CA  ALA d   1       3.258   0.164  -8.756  0.00  0.00     0.060 C 
ATOM      2  HA  ALA d   1       4.310   0.104  -9.033  0.00  0.00     0.056 H 
ATOM      3  C   ALA d   1       2.434  -0.630  -9.737  0.00  0.00     0.062 C 
ATOM      4  O   ALA d   1       1.764  -1.558  -9.351  0.00  0.00    -0.548 OA
ATOM      5  N   ALA d   1       3.075  -0.385  -7.410  0.00  0.00    -0.303 N 
ATOM      6  H   ALA d   1       2.266  -0.873  -7.190  0.00  0.00     0.150 HD
ATOM      7  OXT ALA d   1       2.445  -0.306 -11.040  0.00  0.00    -0.548 OA
ATOM      8  C   UNK d   0       4.032  -0.211  -6.476  0.00  0.00     0.248 C 
ATOM      9  O   UNK d   0       5.046   0.401  -6.751  0.00  0.00    -0.270 OA
ENDROOT
BRANCH   8  10
ATOM     10  C   UNK d   0       3.848  -0.763  -5.120  0.00  0.00     0.078 A 
ATOM     11  C   UNK d   0       4.641  -1.833  -4.682  0.00  0.00     0.129 A 
ATOM     12  C   UNK d   0       4.460  -2.344  -3.406  0.00  0.00    -0.019 A 
ATOM     13  C   UNK d   0       3.503  -1.802  -2.572  0.00  0.00    -0.058 A 
ATOM     14  H   UNK d   0       5.069  -3.169  -3.063  0.00  0.00     0.065 H 
ATOM     15  C   UNK d   0       2.718  -0.743  -3.001  0.00  0.00    -0.061 A 
ATOM     16  H   UNK d   0       3.366  -2.203  -1.579  0.00  0.00     0.062 H 
ATOM     17  C   UNK d   0       2.888  -0.220  -4.264  0.00  0.00    -0.046 A 
ATOM     18  H   UNK d   0       1.972  -0.325  -2.342  0.00  0.00     0.062 H 
ATOM     19  H   UNK d   0       2.277   0.608  -4.593  0.00  0.00     0.063 H 
BRANCH  11  20
ATOM     20  O   UNK d   0       5.581  -2.365  -5.502  0.00  0.00    -0.506 OA
ATOM     21  H   UNK d   0       5.291  -2.469  -6.419  0.00  0.00     0.292 HD
ENDBRANCH  11  20
ENDBRANCH   8  10
BRANCH   1  22
ATOM     22  CB  ALA d   1       2.806   1.625  -8.777  0.00  0.00    -0.041 C 
ATOM     23  HB1 ALA d   1       2.565   1.945  -7.763  0.00  0.00     0.025 H 
ATOM     24  HB2 ALA d   1       3.608   2.248  -9.174  0.00  0.00     0.025 H 
ATOM     25  HB3 ALA d   1       1.923   1.723  -9.408  0.00  0.00     0.025 H 
ENDBRANCH   1  22
TORSDOF 5
ENDMDL
MODEL 7
REMARK VINA RESULT:      -5.8      2.530      3.649
REMARK  3 active torsions:
REMARK  status: ('A' for Active; 'I' for Inactive)
REMARK    1  A    between atoms: CB_1  and  CA_2 
REMARK       I    between atoms: CA_2  and  C_4 
REMARK       I    between atoms: CA_2  and  N_6 
REMARK       I    between atoms: N_6  and  C_7 
REMARK    2  A    between atoms: C_7  and  C_9 
REMARK    3  A    between atoms: C_14  and  O_15 
ROOT
ATOM      1  CA  ALA d   1       4.594  -3.565  -6.532  0.00  0.00     0.060 C 
ATOM      2  HA  ALA d   1       4.038  -4.370  -6.051  0.00  0.00     0.056 H 
ATOM      3  C   ALA d   1       4.085  -3.371  -7.937  0.00  0.00     0.062 C 
ATOM      4  O   ALA d   1       3.619  -2.308  -8.269  0.00  0.00    -0.548 OA
ATOM      5  N   ALA d   1       4.414  -2.325  -5.773  0.00  0.00    -0.303 N 
ATOM      6  H   ALA d   1       4.370  -1.474  -6.236  0.00  0.00     0.150 HD
ATOM      7  OXT ALA d   1       4.148  -4.382  -8.819  0.00  0.00    -0.548 OA
ATOM      8  C   UNK d   0       4.309  -2.367  -4.429  0.00  0.00     0.248 C 
ATOM      9  O   UNK d   0       4.364  -3.434  -3.848  0.00  0.00    -0.270 OA
ENDROOT
BRANCH   8  10
ATOM     10  C   UNK d   0       4.127  -1.119  -3.664  0.00  0.00     0.078 A 
ATOM     11  C   UNK d   0       3.368  -0.069  -4.201  0.00  0.00     0.129 A 
ATOM     12  C   UNK d   0       3.203   1.101  -3.473  0.00  0.00    -0.019 A 
ATOM     13  C   UNK d   0       3.784   1.229  -2.227  0.00  0.00    -0.058 A 
ATOM     14  H   UNK d   0       2.620   1.912  -3.882  0.00  0.00     0.065 H 
ATOM     15  C   UNK d   0       4.534   0.192  -1.694  0.00  0.00    -0.061 A 
ATOM     16  H   UNK d   0       3.653   2.141  -1.665  0.00  0.00     0.062 H 
ATOM     17  C   UNK d   0       4.704  -0.978  -2.400  0.00  0.00    -0.046 A 
ATOM     18  H   UNK d   0       4.984   0.302  -0.719  0.00  0.00     0.062 H 
ATOM     19  H   UNK d   0       5.286  -1.785  -1.979  0.00  0.00     0.063 H 
BRANCH  11  20
ATOM     20  O   UNK d   0       2.798  -0.196  -5.424  0.00  0.00    -0.506 OA
ATOM     21  H   UNK d   0       3.326  -0.706  -6.054  0.00  0.00     0.292 HD
ENDBRANCH  11  20
ENDBRANCH   8  10
BRANCH   1  22
ATOM     22  CB  ALA d   1       6.081  -3.925  -6.574  0.00  0.00    -0.041 C 
ATOM     23  HB1 ALA d   1       6.271  -4.760  -5.899  0.00  0.00     0.025 H 
ATOM     24  HB2 ALA d   1       6.358  -4.209  -7.589  0.00  0.00     0.025 H 
ATOM     25  HB3 ALA d   1       6.672  -3.064  -6.263  0.00  0.00     0.025 H 
ENDBRANCH   1  22
TORSDOF 5
ENDMDL
MODEL 8
REMARK VINA RESULT:      -5.6      4.196      5.099
REMARK  3 active torsions:
REMARK  status: ('A' for Active; 'I' for Inactive)
REMARK    1  A    between atoms: CB_1  and  CA_2 
REMARK       I    between atoms: CA_2  and  C_4 
REMARK       I    between atoms: CA_2  and  N_6 
REMARK       I    between atoms: N_6  and  C_7 
REMARK    2  A    between atoms: C_7  and  C_9 
REMARK    3  A    between atoms: C_14  and  O_15 
ROOT
ATOM      1  CA  ALA d   1       5.713  -4.592  -5.605  0.00  0.00     0.060 C 
ATOM      2  HA  ALA d   1       6.388  -5.083  -4.904  0.00  0.00     0.056 H 
ATOM      3  C   ALA d   1       4.641  -5.560  -6.033  0.00  0.00     0.062 C 
ATOM      4  O   ALA d   1       3.479  -5.308  -5.818  0.00  0.00    -0.548 OA
ATOM      5  N   ALA d   1       5.094  -3.434  -4.957  0.00  0.00    -0.303 N 
ATOM      6  H   ALA d   1       4.179  -3.192  -5.166  0.00  0.00     0.150 HD
ATOM      7  OXT ALA d   1       4.976  -6.703  -6.653  0.00  0.00    -0.548 OA
ATOM      8  C   UNK d   0       5.798  -2.703  -4.068  0.00  0.00     0.248 C 
ATOM      9  O   UNK d   0       6.946  -3.006  -3.806  0.00  0.00    -0.270 OA
ENDROOT
BRANCH   8  10
ATOM     10  C   UNK d   0       5.174  -1.536  -3.415  0.00  0.00     0.078 A 
ATOM     11  C   UNK d   0       5.950  -0.415  -3.086  0.00  0.00     0.129 A 
ATOM     12  C   UNK d   0       5.353   0.676  -2.472  0.00  0.00    -0.019 A 
ATOM     13  C   UNK d   0       4.002   0.657  -2.187  0.00  0.00    -0.058 A 
ATOM     14  H   UNK d   0       5.946   1.542  -2.217  0.00  0.00     0.065 H 
ATOM     15  C   UNK d   0       3.233  -0.448  -2.512  0.00  0.00    -0.061 A 
ATOM     16  H   UNK d   0       3.543   1.510  -1.709  0.00  0.00     0.062 H 
ATOM     17  C   UNK d   0       3.808  -1.539  -3.127  0.00  0.00    -0.046 A 
ATOM     18  H   UNK d   0       2.177  -0.454  -2.286  0.00  0.00     0.062 H 
ATOM     19  H   UNK d   0       3.203  -2.398  -3.382  0.00  0.00     0.063 H 
BRANCH  11  20
ATOM     20  O   UNK d   0       7.276  -0.398  -3.367  0.00  0.00    -0.506 OA
ATOM     21  H   UNK d   0       7.540   0.300  -3.981  0.00  0.00     0.292 HD
ENDBRANCH  11  20
ENDBRANCH   8  10
BRANCH   1  22
ATOM     22  CB  ALA d   1       6.501  -4.129  -6.832  0.00  0.00    -0.041 C 
ATOM     23  HB1 ALA d   1       7.358  -4.786  -6.983  0.00  0.00     0.025 H 
ATOM     24  HB2 ALA d   1       5.858  -4.162  -7.711  0.00  0.00     0.025 H 
ATOM     25  HB3 ALA d   1       6.850  -3.108  -6.675  0.00  0.00     0.025 H 
ENDBRANCH   1  22
TORSDOF 5
ENDMDL
MODEL 9
REMARK VINA RESULT:      -5.6      4.487      6.391
REMARK  3 active torsions:
REMARK  status: ('A' for Active; 'I' for Inactive)
REMARK    1  A    between atoms: CB_1  and  CA_2 
REMARK       I    between atoms: CA_2  and  C_4 
REMARK       I    between atoms: CA_2  and  N_6 
REMARK       I    between atoms: N_6  and  C_7 
REMARK    2  A    between atoms: C_7  and  C_9 
REMARK    3  A    between atoms: C_14  and  O_15 
ROOT
ATOM      1  CA  ALA d   1       9.005  -3.336  -4.060  0.00  0.00     0.060 C 
ATOM      2  HA  ALA d   1       9.645  -2.600  -4.547  0.00  0.00     0.056 H 
ATOM      3  C   ALA d   1       9.809  -4.110  -3.047  0.00  0.00     0.062 C 
ATOM      4  O   ALA d   1       9.491  -4.091  -1.882  0.00  0.00    -0.548 OA
ATOM      5  N   ALA d   1       7.899  -2.652  -3.386  0.00  0.00    -0.303 N 
ATOM      6  H   ALA d   1       7.553  -2.998  -2.548  0.00  0.00     0.150 HD
ATOM      7  OXT ALA d   1      10.879  -4.820  -3.439  0.00  0.00    -0.548 OA
ATOM      8  C   UNK d   0       7.362  -1.542  -3.930  0.00  0.00     0.248 C 
ATOM      9  O   UNK d   0       7.795  -1.109  -4.980  0.00  0.00    -0.270 OA
ENDROOT
BRANCH   8  10
ATOM     10  C   UNK d   0       6.248  -0.853  -3.251  0.00  0.00     0.078 A 
ATOM     11  C   UNK d   0       6.230   0.547  -3.170  0.00  0.00     0.129 A 
ATOM     12  C   UNK d   0       5.178   1.184  -2.529  0.00  0.00    -0.019 A 
ATOM     13  C   UNK d   0       4.154   0.443  -1.974  0.00  0.00    -0.058 A 
ATOM     14  H   UNK d   0       5.160   2.263  -2.464  0.00  0.00     0.065 H 
ATOM     15  C   UNK d   0       4.168  -0.940  -2.053  0.00  0.00    -0.061 A 
ATOM     16  H   UNK d   0       3.337   0.945  -1.477  0.00  0.00     0.062 H 
ATOM     17  C   UNK d   0       5.202  -1.590  -2.690  0.00  0.00    -0.046 A 
ATOM     18  H   UNK d   0       3.363  -1.511  -1.617  0.00  0.00     0.062 H 
ATOM     19  H   UNK d   0       5.207  -2.669  -2.754  0.00  0.00     0.063 H 
BRANCH  11  20
ATOM     20  O   UNK d   0       7.237   1.274  -3.716  0.00  0.00    -0.506 OA
ATOM     21  H   UNK d   0       6.996   2.187  -3.921  0.00  0.00     0.292 HD
ENDBRANCH  11  20
ENDBRANCH   8  10
BRANCH   1  22
ATOM     22  CB  ALA d   1       8.445  -4.299  -5.109  0.00  0.00    -0.041 C 
ATOM     23  HB1 ALA d   1       7.789  -5.023  -4.624  0.00  0.00     0.025 H 
ATOM     24  HB2 ALA d   1       7.881  -3.738  -5.854  0.00  0.00     0.025 H 
ATOM     25  HB3 ALA d   1       9.268  -4.824  -5.595  0.00  0.00     0.025 H 
ENDBRANCH   1  22
TORSDOF 5
ENDMDL
MODEL 10
REMARK VINA RESULT:      -5.6      4.600      5.458
REMARK  3 active torsions:
REMARK  status: ('A' for Active; 'I' for Inactive)
REMARK    1  A    between atoms: CB_1  and  CA_2 
REMARK       I    between atoms: CA_2  and  C_4 
REMARK       I    between atoms: CA_2  and  N_6 
REMARK       I    between atoms: N_6  and  C_7 
REMARK    2  A    between atoms: C_7  and  C_9 
REMARK    3  A    between atoms: C_14  and  O_15 
ROOT
ATOM      1  CA  ALA d   1       9.313   2.295  -4.523  0.00  0.00     0.060 C 
ATOM      2  HA  ALA d   1       8.866   2.651  -5.451  0.00  0.00     0.056 H 
ATOM      3  C   ALA d   1       9.948   3.452  -3.795  0.00  0.00     0.062 C 
ATOM      4  O   ALA d   1       9.573   3.746  -2.686  0.00  0.00    -0.548 OA
ATOM      5  N   ALA d   1       8.277   1.697  -3.679  0.00  0.00    -0.303 N 
ATOM      6  H   ALA d   1       8.324   1.789  -2.714  0.00  0.00     0.150 HD
ATOM      7  OXT ALA d   1      10.931   4.155  -4.380  0.00  0.00    -0.548 OA
ATOM      8  C   UNK d   0       7.256   1.019  -4.242  0.00  0.00     0.248 C 
ATOM      9  O   UNK d   0       7.198   0.904  -5.451  0.00  0.00    -0.270 OA
ENDROOT
BRANCH   8  10
ATOM     10  C   UNK d   0       6.212   0.417  -3.391  0.00  0.00     0.078 A 
ATOM     11  C   UNK d   0       6.073  -0.976  -3.326  0.00  0.00     0.129 A 
ATOM     12  C   UNK d   0       5.088  -1.532  -2.523  0.00  0.00    -0.019 A 
ATOM     13  C   UNK d   0       4.249  -0.714  -1.792  0.00  0.00    -0.058 A 
ATOM     14  H   UNK d   0       4.977  -2.605  -2.469  0.00  0.00     0.065 H 
ATOM     15  C   UNK d   0       4.384   0.663  -1.853  0.00  0.00    -0.061 A 
ATOM     16  H   UNK d   0       3.484  -1.152  -1.168  0.00  0.00     0.062 H 
ATOM     17  C   UNK d   0       5.360   1.232  -2.642  0.00  0.00    -0.046 A 
ATOM     18  H   UNK d   0       3.724   1.294  -1.277  0.00  0.00     0.062 H 
ATOM     19  H   UNK d   0       5.465   2.306  -2.683  0.00  0.00     0.063 H 
BRANCH  11  20
ATOM     20  O   UNK d   0       6.898  -1.778  -4.045  0.00  0.00    -0.506 OA
ATOM     21  H   UNK d   0       7.600  -1.304  -4.510  0.00  0.00     0.292 HD
ENDBRANCH  11  20
ENDBRANCH   8  10
BRANCH   1  22
ATOM     22  CB  ALA d   1      10.380   1.245  -4.841  0.00  0.00    -0.041 C 
ATOM     23  HB1 ALA d   1      11.180   1.705  -5.422  0.00  0.00     0.025 H 
ATOM     24  HB2 ALA d   1      10.787   0.848  -3.911  0.00  0.00     0.025 H 
ATOM     25  HB3 ALA d   1       9.932   0.436  -5.417  0.00  0.00     0.025 H 
ENDBRANCH   1  22
TORSDOF 5
ENDMDL
