MODEL 1
REMARK VINA RESULT:      -5.3      0.000      0.000
REMARK  4 active torsions:
REMARK  status: ('A' for Active; 'I' for Inactive)
REMARK    1  A    between atoms: C_1  and  C_2 
REMARK    2  A    between atoms: C_2  and  O_3 
REMARK    3  A    between atoms: O_3  and  C_4 
REMARK    4  A    between atoms: C_8  and  C_15 
ROOT
ATOM      1  C   LIG d   1       4.988  -1.321  -2.617  0.00  0.00     0.124 A 
ATOM      2  C   LIG d   1       6.319  -1.089  -2.964  0.00  0.00    -0.019 A 
ATOM      3  C   LIG d   1       6.954  -1.907  -3.852  0.00  0.00    -0.047 A 
ATOM      4  C   LIG d   1       6.267  -2.987  -4.418  0.00  0.00     0.021 A 
ATOM      5  C   LIG d   1       6.924  -3.883  -5.372  0.00  0.00    -0.033 A 
ATOM      6  C   LIG d   1       6.203  -4.913  -5.887  0.00  0.00     0.026 A 
ATOM      7  C   LIG d   1       4.861  -5.094  -5.496  0.00  0.00     0.338 A 
ATOM      8  O   LIG d   1       4.226  -6.023  -5.964  0.00  0.00    -0.245 OA
ATOM      9  O   LIG d   1       4.265  -4.270  -4.620  0.00  0.00    -0.422 OA
ATOM     10  C   LIG d   1       4.924  -3.227  -4.071  0.00  0.00     0.143 A 
ATOM     11  C   LIG d   1       4.293  -2.385  -3.168  0.00  0.00     0.023 A 
ATOM     12  H   LIG d   1       6.849  -0.256  -2.528  0.00  0.00     0.065 H 
ATOM     13  H   LIG d   1       7.985  -1.723  -4.116  0.00  0.00     0.063 H 
ATOM     14  H   LIG d   1       6.658  -5.592  -6.593  0.00  0.00     0.069 H 
ATOM     15  H   LIG d   1       3.263  -2.558  -2.894  0.00  0.00     0.069 H 
ENDROOT
BRANCH   1  16
ATOM     16  O   LIG d   1       4.369  -0.495  -1.738  0.00  0.00    -0.492 OA
BRANCH  16  17
ATOM     17  C   LIG d   1       4.655   0.901  -1.845  0.00  0.00     0.087 C 
ATOM     18  H   LIG d   1       4.599   1.360  -0.857  0.00  0.00     0.069 H 
ATOM     19  H   LIG d   1       5.658   1.036  -2.251  0.00  0.00     0.069 H 
BRANCH  17  20
ATOM     20  C   LIG d   1       3.635   1.562  -2.773  0.00  0.00    -0.031 C 
ATOM     21  H   LIG d   1       2.637   1.459  -2.349  0.00  0.00     0.026 H 
ATOM     22  H   LIG d   1       3.876   2.619  -2.883  0.00  0.00     0.026 H 
ATOM     23  H   LIG d   1       3.667   1.079  -3.751  0.00  0.00     0.026 H 
ENDBRANCH  17  20
ENDBRANCH  16  17
ENDBRANCH   1  16
BRANCH   5  24
ATOM     24  C   LIG d   1       8.360  -3.666  -5.773  0.00  0.00    -0.039 C 
ATOM     25  H   LIG d   1       8.706  -4.516  -6.362  0.00  0.00     0.028 H 
ATOM     26  H   LIG d   1       8.439  -2.757  -6.367  0.00  0.00     0.028 H 
ATOM     27  H   LIG d   1       8.977  -3.571  -4.879  0.00  0.00     0.028 H 
ENDBRANCH   5  24
TORSDOF 4
ENDMDL
MODEL 2
REMARK VINA RESULT:      -5.3      3.561      5.033
REMARK  4 active torsions:
REMARK  status: ('A' for Active; 'I' for Inactive)
REMARK    1  A    between atoms: C_1  and  C_2 
REMARK    2  A    between atoms: C_2  and  O_3 
REMARK    3  A    between atoms: O_3  and  C_4 
REMARK    4  A    between atoms: C_8  and  C_15 
ROOT
ATOM      1  C   LIG d   1       3.007  -0.092  -6.594  0.00  0.00     0.124 A 
ATOM      2  C   LIG d   1       2.487   0.554  -5.473  0.00  0.00    -0.019 A 
ATOM      3  C   LIG d   1       3.139   0.491  -4.276  0.00  0.00    -0.047 A 
ATOM      4  C   LIG d   1       4.336  -0.226  -4.172  0.00  0.00     0.021 A 
ATOM      5  C   LIG d   1       5.056  -0.312  -2.900  0.00  0.00    -0.033 A 
ATOM      6  C   LIG d   1       6.213  -1.023  -2.864  0.00  0.00     0.026 A 
ATOM      7  C   LIG d   1       6.686  -1.653  -4.033  0.00  0.00     0.338 A 
ATOM      8  O   LIG d   1       7.724  -2.289  -3.986  0.00  0.00    -0.245 OA
ATOM      9  O   LIG d   1       6.020  -1.572  -5.196  0.00  0.00    -0.422 OA
ATOM     10  C   LIG d   1       4.865  -0.880  -5.300  0.00  0.00     0.143 A 
ATOM     11  C   LIG d   1       4.191  -0.806  -6.510  0.00  0.00     0.023 A 
ATOM     12  H   LIG d   1       1.564   1.107  -5.553  0.00  0.00     0.065 H 
ATOM     13  H   LIG d   1       2.732   0.992  -3.411  0.00  0.00     0.063 H 
ATOM     14  H   LIG d   1       6.769  -1.106  -1.941  0.00  0.00     0.069 H 
ATOM     15  H   LIG d   1       4.586  -1.304  -7.383  0.00  0.00     0.069 H 
ENDROOT
BRANCH   1  16
ATOM     16  O   LIG d   1       2.350  -0.015  -7.779  0.00  0.00    -0.492 OA
BRANCH  16  17
ATOM     17  C   LIG d   1       3.042   0.601  -8.867  0.00  0.00     0.087 C 
ATOM     18  H   LIG d   1       4.103   0.353  -8.809  0.00  0.00     0.069 H 
ATOM     19  H   LIG d   1       2.635   0.237  -9.810  0.00  0.00     0.069 H 
BRANCH  17  20
ATOM     20  C   LIG d   1       2.869   2.119  -8.788  0.00  0.00    -0.031 C 
ATOM     21  H   LIG d   1       2.546   2.396  -7.786  0.00  0.00     0.026 H 
ATOM     22  H   LIG d   1       3.819   2.604  -9.011  0.00  0.00     0.026 H 
ATOM     23  H   LIG d   1       2.119   2.437  -9.514  0.00  0.00     0.026 H 
ENDBRANCH  17  20
ENDBRANCH  16  17
ENDBRANCH   1  16
BRANCH   5  24
ATOM     24  C   LIG d   1       4.528   0.371  -1.665  0.00  0.00    -0.039 C 
ATOM     25  H   LIG d   1       4.405  -0.363  -0.868  0.00  0.00     0.028 H 
ATOM     26  H   LIG d   1       5.232   1.139  -1.346  0.00  0.00     0.028 H 
ATOM     27  H   LIG d   1       3.565   0.830  -1.888  0.00  0.00     0.028 H 
ENDBRANCH   5  24
TORSDOF 4
ENDMDL
MODEL 3
REMARK VINA RESULT:      -5.1      3.755      4.400
REMARK  4 active torsions:
REMARK  status: ('A' for Active; 'I' for Inactive)
REMARK    1  A    between atoms: C_1  and  C_2 
REMARK    2  A    between atoms: C_2  and  O_3 
REMARK    3  A    between atoms: O_3  and  C_4 
REMARK    4  A    between atoms: C_8  and  C_15 
ROOT
ATOM      1  C   LIG d   1       3.308  -0.605  -4.003  0.00  0.00     0.124 A 
ATOM      2  C   LIG d   1       2.436   0.301  -4.606  0.00  0.00    -0.019 A 
ATOM      3  C   LIG d   1       2.522   0.558  -5.943  0.00  0.00    -0.047 A 
ATOM      4  C   LIG d   1       3.491  -0.093  -6.716  0.00  0.00     0.021 A 
ATOM      5  C   LIG d   1       3.606   0.163  -8.153  0.00  0.00    -0.033 A 
ATOM      6  C   LIG d   1       4.567  -0.500  -8.848  0.00  0.00     0.026 A 
ATOM      7  C   LIG d   1       5.418  -1.405  -8.180  0.00  0.00     0.338 A 
ATOM      8  O   LIG d   1       6.276  -1.992  -8.815  0.00  0.00    -0.245 OA
ATOM      9  O   LIG d   1       5.307  -1.634  -6.863  0.00  0.00    -0.422 OA
ATOM     10  C   LIG d   1       4.373  -1.009  -6.113  0.00  0.00     0.143 A 
ATOM     11  C   LIG d   1       4.273  -1.258  -4.753  0.00  0.00     0.023 A 
ATOM     12  H   LIG d   1       1.689   0.803  -4.010  0.00  0.00     0.065 H 
ATOM     13  H   LIG d   1       1.845   1.261  -6.404  0.00  0.00     0.063 H 
ATOM     14  H   LIG d   1       4.679  -0.334  -9.910  0.00  0.00     0.069 H 
ATOM     15  H   LIG d   1       4.944  -1.959  -4.279  0.00  0.00     0.069 H 
ENDROOT
BRANCH   1  16
ATOM     16  O   LIG d   1       3.207  -0.853  -2.674  0.00  0.00    -0.492 OA
BRANCH  16  17
ATOM     17  C   LIG d   1       4.374  -0.632  -1.880  0.00  0.00     0.087 C 
ATOM     18  H   LIG d   1       4.254  -1.121  -0.913  0.00  0.00     0.069 H 
ATOM     19  H   LIG d   1       5.244  -1.047  -2.390  0.00  0.00     0.069 H 
BRANCH  17  20
ATOM     20  C   LIG d   1       4.573   0.870  -1.671  0.00  0.00    -0.031 C 
ATOM     21  H   LIG d   1       3.611   1.377  -1.741  0.00  0.00     0.026 H 
ATOM     22  H   LIG d   1       5.006   1.045  -0.687  0.00  0.00     0.026 H 
ATOM     23  H   LIG d   1       5.245   1.258  -2.438  0.00  0.00     0.026 H 
ENDBRANCH  17  20
ENDBRANCH  16  17
ENDBRANCH   1  16
BRANCH   5  24
ATOM     24  C   LIG d   1       2.684   1.136  -8.842  0.00  0.00    -0.039 C 
ATOM     25  H   LIG d   1       1.837   0.596  -9.266  0.00  0.00     0.028 H 
ATOM     26  H   LIG d   1       2.324   1.868  -8.120  0.00  0.00     0.028 H 
ATOM     27  H   LIG d   1       3.225   1.647  -9.639  0.00  0.00     0.028 H 
ENDBRANCH   5  24
TORSDOF 4
ENDMDL
MODEL 4
REMARK VINA RESULT:      -5.0      3.954      5.637
REMARK  4 active torsions:
REMARK  status: ('A' for Active; 'I' for Inactive)
REMARK    1  A    between atoms: C_1  and  C_2 
REMARK    2  A    between atoms: C_2  and  O_3 
REMARK    3  A    between atoms: O_3  and  C_4 
REMARK    4  A    between atoms: C_8  and  C_15 
ROOT
ATOM      1  C   LIG d   1       3.012  -0.191  -7.556  0.00  0.00     0.124 A 
ATOM      2  C   LIG d   1       3.914  -1.253  -7.518  0.00  0.00    -0.019 A 
ATOM      3  C   LIG d   1       4.538  -1.588  -6.351  0.00  0.00    -0.047 A 
ATOM      4  C   LIG d   1       4.270  -0.860  -5.186  0.00  0.00     0.021 A 
ATOM      5  C   LIG d   1       4.926  -1.196  -3.920  0.00  0.00    -0.033 A 
ATOM      6  C   LIG d   1       4.624  -0.451  -2.824  0.00  0.00     0.026 A 
ATOM      7  C   LIG d   1       3.703   0.611  -2.929  0.00  0.00     0.338 A 
ATOM      8  O   LIG d   1       3.443   1.271  -1.939  0.00  0.00    -0.245 OA
ATOM      9  O   LIG d   1       3.107   0.914  -4.092  0.00  0.00    -0.422 OA
ATOM     10  C   LIG d   1       3.361   0.214  -5.219  0.00  0.00     0.143 A 
ATOM     11  C   LIG d   1       2.736   0.540  -6.413  0.00  0.00     0.023 A 
ATOM     12  H   LIG d   1       4.120  -1.815  -8.416  0.00  0.00     0.065 H 
ATOM     13  H   LIG d   1       5.236  -2.411  -6.326  0.00  0.00     0.063 H 
ATOM     14  H   LIG d   1       5.090  -0.672  -1.874  0.00  0.00     0.069 H 
ATOM     15  H   LIG d   1       2.036   1.362  -6.451  0.00  0.00     0.069 H 
ENDROOT
BRANCH   1  16
ATOM     16  O   LIG d   1       2.396   0.126  -8.723  0.00  0.00    -0.492 OA
BRANCH  16  17
ATOM     17  C   LIG d   1       3.227   0.564  -9.799  0.00  0.00     0.087 C 
ATOM     18  H   LIG d   1       4.185   0.044  -9.753  0.00  0.00     0.069 H 
ATOM     19  H   LIG d   1       2.740   0.344 -10.749  0.00  0.00     0.069 H 
BRANCH  17  20
ATOM     20  C   LIG d   1       3.460   2.072  -9.683  0.00  0.00    -0.031 C 
ATOM     21  H   LIG d   1       2.594   2.539  -9.216  0.00  0.00     0.026 H 
ATOM     22  H   LIG d   1       4.345   2.256  -9.074  0.00  0.00     0.026 H 
ATOM     23  H   LIG d   1       3.609   2.494 -10.678  0.00  0.00     0.026 H 
ENDBRANCH  17  20
ENDBRANCH  16  17
ENDBRANCH   1  16
BRANCH   5  24
ATOM     24  C   LIG d   1       5.907  -2.336  -3.836  0.00  0.00    -0.039 C 
ATOM     25  H   LIG d   1       5.964  -2.839  -4.802  0.00  0.00     0.028 H 
ATOM     26  H   LIG d   1       6.890  -1.950  -3.569  0.00  0.00     0.028 H 
ATOM     27  H   LIG d   1       5.576  -3.045  -3.076  0.00  0.00     0.028 H 
ENDBRANCH   5  24
TORSDOF 4
ENDMDL
MODEL 5
REMARK VINA RESULT:      -4.9      3.161      4.830
REMARK  4 active torsions:
REMARK  status: ('A' for Active; 'I' for Inactive)
REMARK    1  A    between atoms: C_1  and  C_2 
REMARK    2  A    between atoms: C_2  and  O_3 
REMARK    3  A    between atoms: O_3  and  C_4 
REMARK    4  A    between atoms: C_8  and  C_15 
ROOT
ATOM      1  C   LIG d   1       8.153   0.548  -5.215  0.00  0.00     0.124 A 
ATOM      2  C   LIG d   1       7.784   1.524  -4.291  0.00  0.00    -0.019 A 
ATOM      3  C   LIG d   1       6.753   1.301  -3.424  0.00  0.00    -0.047 A 
ATOM      4  C   LIG d   1       6.063   0.084  -3.464  0.00  0.00     0.021 A 
ATOM      5  C   LIG d   1       4.952  -0.183  -2.548  0.00  0.00    -0.033 A 
ATOM      6  C   LIG d   1       4.322  -1.384  -2.636  0.00  0.00     0.026 A 
ATOM      7  C   LIG d   1       4.744  -2.329  -3.593  0.00  0.00     0.338 A 
ATOM      8  O   LIG d   1       4.169  -3.401  -3.662  0.00  0.00    -0.245 OA
ATOM      9  O   LIG d   1       5.762  -2.077  -4.431  0.00  0.00    -0.422 OA
ATOM     10  C   LIG d   1       6.431  -0.905  -4.395  0.00  0.00     0.143 A 
ATOM     11  C   LIG d   1       7.481  -0.662  -5.268  0.00  0.00     0.023 A 
ATOM     12  H   LIG d   1       8.316   2.463  -4.260  0.00  0.00     0.065 H 
ATOM     13  H   LIG d   1       6.471   2.060  -2.711  0.00  0.00     0.063 H 
ATOM     14  H   LIG d   1       3.498  -1.613  -1.975  0.00  0.00     0.069 H 
ATOM     15  H   LIG d   1       7.773  -1.412  -5.988  0.00  0.00     0.069 H 
ENDROOT
BRANCH   1  16
ATOM     16  O   LIG d   1       9.184   0.784  -6.066  0.00  0.00    -0.492 OA
BRANCH  16  17
ATOM     17  C   LIG d   1       9.179   2.031  -6.763  0.00  0.00     0.087 C 
ATOM     18  H   LIG d   1       8.877   2.827  -6.081  0.00  0.00     0.069 H 
ATOM     19  H   LIG d   1      10.178   2.239  -7.144  0.00  0.00     0.069 H 
BRANCH  17  20
ATOM     20  C   LIG d   1       8.193   1.960  -7.930  0.00  0.00    -0.031 C 
ATOM     21  H   LIG d   1       8.327   2.829  -8.573  0.00  0.00     0.026 H 
ATOM     22  H   LIG d   1       8.375   1.052  -8.504  0.00  0.00     0.026 H 
ATOM     23  H   LIG d   1       7.173   1.947  -7.544  0.00  0.00     0.026 H 
ENDBRANCH  17  20
ENDBRANCH  16  17
ENDBRANCH   1  16
BRANCH   5  24
ATOM     24  C   LIG d   1       4.521   0.845  -1.534  0.00  0.00    -0.039 C 
ATOM     25  H   LIG d   1       3.935   1.620  -2.029  0.00  0.00     0.028 H 
ATOM     26  H   LIG d   1       3.915   0.366  -0.766  0.00  0.00     0.028 H 
ATOM     27  H   LIG d   1       5.402   1.294  -1.075  0.00  0.00     0.028 H 
ENDBRANCH   5  24
TORSDOF 4
ENDMDL
MODEL 6
REMARK VINA RESULT:      -4.7      3.251      5.440
REMARK  4 active torsions:
REMARK  status: ('A' for Active; 'I' for Inactive)
REMARK    1  A    between atoms: C_1  and  C_2 
REMARK    2  A    between atoms: C_2  and  O_3 
REMARK    3  A    between atoms: O_3  and  C_4 
REMARK    4  A    between atoms: C_8  and  C_15 
ROOT
ATOM      1  C   LIG d   1       8.591   0.908  -4.526  0.00  0.00     0.124 A 
ATOM      2  C   LIG d   1       8.443  -0.437  -4.863  0.00  0.00    -0.019 A 
ATOM      3  C   LIG d   1       7.326  -1.124  -4.485  0.00  0.00    -0.047 A 
ATOM      4  C   LIG d   1       6.323  -0.475  -3.756  0.00  0.00     0.021 A 
ATOM      5  C   LIG d   1       5.114  -1.188  -3.336  0.00  0.00    -0.033 A 
ATOM      6  C   LIG d   1       4.177  -0.503  -2.631  0.00  0.00     0.026 A 
ATOM      7  C   LIG d   1       4.387   0.857  -2.323  0.00  0.00     0.338 A 
ATOM      8  O   LIG d   1       3.539   1.459  -1.688  0.00  0.00    -0.245 OA
ATOM      9  O   LIG d   1       5.497   1.504  -2.709  0.00  0.00    -0.422 OA
ATOM     10  C   LIG d   1       6.467   0.882  -3.413  0.00  0.00     0.143 A 
ATOM     11  C   LIG d   1       7.608   1.566  -3.805  0.00  0.00     0.023 A 
ATOM     12  H   LIG d   1       9.216  -0.937  -5.425  0.00  0.00     0.065 H 
ATOM     13  H   LIG d   1       7.216  -2.165  -4.747  0.00  0.00     0.063 H 
ATOM     14  H   LIG d   1       3.274  -0.999  -2.306  0.00  0.00     0.069 H 
ATOM     15  H   LIG d   1       7.731   2.608  -3.549  0.00  0.00     0.069 H 
ENDROOT
BRANCH   1  16
ATOM     16  O   LIG d   1       9.705   1.579  -4.914  0.00  0.00    -0.492 OA
BRANCH  16  17
ATOM     17  C   LIG d   1       9.517   2.880  -5.474  0.00  0.00     0.087 C 
ATOM     18  H   LIG d   1       8.670   3.366  -4.989  0.00  0.00     0.069 H 
ATOM     19  H   LIG d   1      10.415   3.477  -5.318  0.00  0.00     0.069 H 
BRANCH  17  20
ATOM     20  C   LIG d   1       9.242   2.755  -6.974  0.00  0.00    -0.031 C 
ATOM     21  H   LIG d   1      10.181   2.608  -7.505  0.00  0.00     0.026 H 
ATOM     22  H   LIG d   1       8.585   1.904  -7.153  0.00  0.00     0.026 H 
ATOM     23  H   LIG d   1       8.760   3.666  -7.332  0.00  0.00     0.026 H 
ENDBRANCH  17  20
ENDBRANCH  16  17
ENDBRANCH   1  16
BRANCH   5  24
ATOM     24  C   LIG d   1       4.916  -2.642  -3.679  0.00  0.00    -0.039 C 
ATOM     25  H   LIG d   1       5.209  -2.815  -4.715  0.00  0.00     0.028 H 
ATOM     26  H   LIG d   1       5.529  -3.257  -3.021  0.00  0.00     0.028 H 
ATOM     27  H   LIG d   1       3.866  -2.906  -3.550  0.00  0.00     0.028 H 
ENDBRANCH   5  24
TORSDOF 4
ENDMDL
MODEL 7
REMARK VINA RESULT:      -4.6      2.094      5.659
REMARK  4 active torsions:
REMARK  status: ('A' for Active; 'I' for Inactive)
REMARK    1  A    between atoms: C_1  and  C_2 
REMARK    2  A    between atoms: C_2  and  O_3 
REMARK    3  A    between atoms: O_3  and  C_4 
REMARK    4  A    between atoms: C_8  and  C_15 
ROOT
ATOM      1  C   LIG d   1       5.314  -3.323  -4.544  0.00  0.00     0.124 A 
ATOM      2  C   LIG d   1       4.386  -2.989  -3.558  0.00  0.00    -0.019 A 
ATOM      3  C   LIG d   1       4.419  -1.759  -2.967  0.00  0.00    -0.047 A 
ATOM      4  C   LIG d   1       5.390  -0.827  -3.353  0.00  0.00     0.021 A 
ATOM      5  C   LIG d   1       5.449   0.499  -2.736  0.00  0.00    -0.033 A 
ATOM      6  C   LIG d   1       6.415   1.358  -3.154  0.00  0.00     0.026 A 
ATOM      7  C   LIG d   1       7.324   0.960  -4.156  0.00  0.00     0.338 A 
ATOM      8  O   LIG d   1       8.185   1.740  -4.520  0.00  0.00    -0.245 OA
ATOM      9  O   LIG d   1       7.264  -0.258  -4.717  0.00  0.00    -0.422 OA
ATOM     10  C   LIG d   1       6.329  -1.159  -4.348  0.00  0.00     0.143 A 
ATOM     11  C   LIG d   1       6.281  -2.413  -4.938  0.00  0.00     0.023 A 
ATOM     12  H   LIG d   1       3.638  -3.707  -3.260  0.00  0.00     0.065 H 
ATOM     13  H   LIG d   1       3.699  -1.505  -2.204  0.00  0.00     0.063 H 
ATOM     14  H   LIG d   1       6.487   2.345  -2.719  0.00  0.00     0.069 H 
ATOM     15  H   LIG d   1       6.996  -2.680  -5.702  0.00  0.00     0.069 H 
ENDROOT
BRANCH   1  16
ATOM     16  O   LIG d   1       5.265  -4.548  -5.126  0.00  0.00    -0.492 OA
BRANCH  16  17
ATOM     17  C   LIG d   1       6.331  -4.888  -6.014  0.00  0.00     0.087 C 
ATOM     18  H   LIG d   1       5.945  -4.964  -7.031  0.00  0.00     0.069 H 
ATOM     19  H   LIG d   1       7.099  -4.116  -5.974  0.00  0.00     0.069 H 
BRANCH  17  20
ATOM     20  C   LIG d   1       6.935  -6.231  -5.597  0.00  0.00    -0.031 C 
ATOM     21  H   LIG d   1       6.642  -6.458  -4.572  0.00  0.00     0.026 H 
ATOM     22  H   LIG d   1       6.571  -7.014  -6.261  0.00  0.00     0.026 H 
ATOM     23  H   LIG d   1       8.022  -6.175  -5.661  0.00  0.00     0.026 H 
ENDBRANCH  17  20
ENDBRANCH  16  17
ENDBRANCH   1  16
BRANCH   5  24
ATOM     24  C   LIG d   1       4.466   0.900  -1.667  0.00  0.00    -0.039 C 
ATOM     25  H   LIG d   1       4.884   1.715  -1.076  0.00  0.00     0.028 H 
ATOM     26  H   LIG d   1       3.537   1.227  -2.132  0.00  0.00     0.028 H 
ATOM     27  H   LIG d   1       4.267   0.046  -1.018  0.00  0.00     0.028 H 
ENDBRANCH   5  24
TORSDOF 4
ENDMDL
MODEL 8
REMARK VINA RESULT:      -4.6      4.363      5.156
REMARK  4 active torsions:
REMARK  status: ('A' for Active; 'I' for Inactive)
REMARK    1  A    between atoms: C_1  and  C_2 
REMARK    2  A    between atoms: C_2  and  O_3 
REMARK    3  A    between atoms: O_3  and  C_4 
REMARK    4  A    between atoms: C_8  and  C_15 
ROOT
ATOM      1  C   LIG d   1       5.084  -1.761  -5.114  0.00  0.00     0.124 A 
ATOM      2  C   LIG d   1       4.886  -2.858  -5.951  0.00  0.00    -0.019 A 
ATOM      3  C   LIG d   1       4.263  -2.704  -7.156  0.00  0.00    -0.047 A 
ATOM      4  C   LIG d   1       3.820  -1.437  -7.553  0.00  0.00     0.021 A 
ATOM      5  C   LIG d   1       3.147  -1.242  -8.839  0.00  0.00    -0.033 A 
ATOM      6  C   LIG d   1       2.741   0.012  -9.167  0.00  0.00     0.026 A 
ATOM      7  C   LIG d   1       2.972   1.080  -8.276  0.00  0.00     0.338 A 
ATOM      8  O   LIG d   1       2.601   2.199  -8.583  0.00  0.00    -0.245 OA
ATOM      9  O   LIG d   1       3.588   0.894  -7.099  0.00  0.00    -0.422 OA
ATOM     10  C   LIG d   1       4.017  -0.326  -6.712  0.00  0.00     0.143 A 
ATOM     11  C   LIG d   1       4.652  -0.500  -5.491  0.00  0.00     0.023 A 
ATOM     12  H   LIG d   1       5.227  -3.835  -5.645  0.00  0.00     0.065 H 
ATOM     13  H   LIG d   1       4.111  -3.557  -7.800  0.00  0.00     0.063 H 
ATOM     14  H   LIG d   1       2.242   0.190 -10.109  0.00  0.00     0.069 H 
ATOM     15  H   LIG d   1       4.810   0.344  -4.837  0.00  0.00     0.069 H 
ENDROOT
BRANCH   1  16
ATOM     16  O   LIG d   1       5.710  -1.930  -3.922  0.00  0.00    -0.492 OA
BRANCH  16  17
ATOM     17  C   LIG d   1       5.096  -1.337  -2.776  0.00  0.00     0.087 C 
ATOM     18  H   LIG d   1       5.803  -1.336  -1.945  0.00  0.00     0.069 H 
ATOM     19  H   LIG d   1       4.807  -0.312  -3.007  0.00  0.00     0.069 H 
BRANCH  17  20
ATOM     20  C   LIG d   1       3.855  -2.142  -2.388  0.00  0.00    -0.031 C 
ATOM     21  H   LIG d   1       3.753  -2.997  -3.055  0.00  0.00     0.026 H 
ATOM     22  H   LIG d   1       3.956  -2.492  -1.360  0.00  0.00     0.026 H 
ATOM     23  H   LIG d   1       2.970  -1.509  -2.470  0.00  0.00     0.026 H 
ENDBRANCH  17  20
ENDBRANCH  16  17
ENDBRANCH   1  16
BRANCH   5  24
ATOM     24  C   LIG d   1       2.913  -2.402  -9.773  0.00  0.00    -0.039 C 
ATOM     25  H   LIG d   1       3.866  -2.736 -10.184  0.00  0.00     0.028 H 
ATOM     26  H   LIG d   1       2.447  -3.220  -9.226  0.00  0.00     0.028 H 
ATOM     27  H   LIG d   1       2.258  -2.087 -10.585  0.00  0.00     0.028 H 
ENDBRANCH   5  24
TORSDOF 4
ENDMDL
MODEL 9
REMARK VINA RESULT:      -4.5     15.383     17.410
REMARK  4 active torsions:
REMARK  status: ('A' for Active; 'I' for Inactive)
REMARK    1  A    between atoms: C_1  and  C_2 
REMARK    2  A    between atoms: C_2  and  O_3 
REMARK    3  A    between atoms: O_3  and  C_4 
REMARK    4  A    between atoms: C_8  and  C_15 
ROOT
ATOM      1  C   LIG d   1      -4.998   5.743 -14.104  0.00  0.00     0.124 A 
ATOM      2  C   LIG d   1      -5.767   6.875 -14.370  0.00  0.00    -0.019 A 
ATOM      3  C   LIG d   1      -5.169   8.049 -14.726  0.00  0.00    -0.047 A 
ATOM      4  C   LIG d   1      -3.775   8.116 -14.827  0.00  0.00     0.021 A 
ATOM      5  C   LIG d   1      -3.105   9.362 -15.206  0.00  0.00    -0.033 A 
ATOM      6  C   LIG d   1      -1.749   9.364 -15.286  0.00  0.00     0.026 A 
ATOM      7  C   LIG d   1      -1.028   8.185 -15.006  0.00  0.00     0.338 A 
ATOM      8  O   LIG d   1       0.187   8.201 -15.080  0.00  0.00    -0.245 OA
ATOM      9  O   LIG d   1      -1.648   7.047 -14.657  0.00  0.00    -0.422 OA
ATOM     10  C   LIG d   1      -2.993   6.977 -14.560  0.00  0.00     0.143 A 
ATOM     11  C   LIG d   1      -3.617   5.792 -14.199  0.00  0.00     0.023 A 
ATOM     12  H   LIG d   1      -6.843   6.823 -14.293  0.00  0.00     0.065 H 
ATOM     13  H   LIG d   1      -5.769   8.922 -14.930  0.00  0.00     0.063 H 
ATOM     14  H   LIG d   1      -1.224  10.267 -15.563  0.00  0.00     0.069 H 
ATOM     15  H   LIG d   1      -3.029   4.910 -13.992  0.00  0.00     0.069 H 
ENDROOT
BRANCH   1  16
ATOM     16  O   LIG d   1      -5.608   4.582 -13.757  0.00  0.00    -0.492 OA
BRANCH  16  17
ATOM     17  C   LIG d   1      -4.824   3.624 -13.043  0.00  0.00     0.087 C 
ATOM     18  H   LIG d   1      -4.814   2.682 -13.592  0.00  0.00     0.069 H 
ATOM     19  H   LIG d   1      -3.804   3.994 -12.938  0.00  0.00     0.069 H 
BRANCH  17  20
ATOM     20  C   LIG d   1      -5.430   3.400 -11.656  0.00  0.00    -0.031 C 
ATOM     21  H   LIG d   1      -6.253   4.097 -11.502  0.00  0.00     0.026 H 
ATOM     22  H   LIG d   1      -5.801   2.378 -11.584  0.00  0.00     0.026 H 
ATOM     23  H   LIG d   1      -4.667   3.564 -10.895  0.00  0.00     0.026 H 
ENDBRANCH  17  20
ENDBRANCH  16  17
ENDBRANCH   1  16
BRANCH   5  24
ATOM     24  C   LIG d   1      -3.900  10.608 -15.500  0.00  0.00    -0.039 C 
ATOM     25  H   LIG d   1      -3.524  11.073 -16.412  0.00  0.00     0.028 H 
ATOM     26  H   LIG d   1      -4.949  10.347 -15.632  0.00  0.00     0.028 H 
ATOM     27  H   LIG d   1      -3.801  11.307 -14.669  0.00  0.00     0.028 H 
ENDBRANCH   5  24
TORSDOF 4
ENDMDL
MODEL 10
REMARK VINA RESULT:      -4.4      9.418     12.780
REMARK  4 active torsions:
REMARK  status: ('A' for Active; 'I' for Inactive)
REMARK    1  A    between atoms: C_1  and  C_2 
REMARK    2  A    between atoms: C_2  and  O_3 
REMARK    3  A    between atoms: O_3  and  C_4 
REMARK    4  A    between atoms: C_8  and  C_15 
ROOT
ATOM      1  C   LIG d   1      10.367   5.579  -1.551  0.00  0.00     0.124 A 
ATOM      2  C   LIG d   1       9.754   6.601  -2.274  0.00  0.00    -0.019 A 
ATOM      3  C   LIG d   1       9.769   7.884  -1.808  0.00  0.00    -0.047 A 
ATOM      4  C   LIG d   1      10.405   8.175  -0.596  0.00  0.00     0.021 A 
ATOM      5  C   LIG d   1      10.437   9.542  -0.070  0.00  0.00    -0.033 A 
ATOM      6  C   LIG d   1      11.070   9.760   1.112  0.00  0.00     0.026 A 
ATOM      7  C   LIG d   1      11.673   8.683   1.795  0.00  0.00     0.338 A 
ATOM      8  O   LIG d   1      12.236   8.893   2.854  0.00  0.00    -0.245 OA
ATOM      9  O   LIG d   1      11.639   7.433   1.308  0.00  0.00    -0.422 OA
ATOM     10  C   LIG d   1      11.027   7.148   0.139  0.00  0.00     0.143 A 
ATOM     11  C   LIG d   1      11.002   5.850  -0.350  0.00  0.00     0.023 A 
ATOM     12  H   LIG d   1       9.263   6.377  -3.209  0.00  0.00     0.065 H 
ATOM     13  H   LIG d   1       9.292   8.671  -2.371  0.00  0.00     0.063 H 
ATOM     14  H   LIG d   1      11.112  10.756   1.528  0.00  0.00     0.069 H 
ATOM     15  H   LIG d   1      11.475   5.053   0.204  0.00  0.00     0.069 H 
ENDROOT
BRANCH   1  16
ATOM     16  O   LIG d   1      10.348   4.311  -2.031  0.00  0.00    -0.492 OA
BRANCH  16  17
ATOM     17  C   LIG d   1       9.877   4.129  -3.368  0.00  0.00     0.087 C 
ATOM     18  H   LIG d   1       9.139   4.898  -3.600  0.00  0.00     0.069 H 
ATOM     19  H   LIG d   1      10.713   4.207  -4.063  0.00  0.00     0.069 H 
BRANCH  17  20
ATOM     20  C   LIG d   1       9.232   2.748  -3.499  0.00  0.00    -0.031 C 
ATOM     21  H   LIG d   1       9.488   2.143  -2.630  0.00  0.00     0.026 H 
ATOM     22  H   LIG d   1       8.149   2.857  -3.559  0.00  0.00     0.026 H 
ATOM     23  H   LIG d   1       9.599   2.260  -4.403  0.00  0.00     0.026 H 
ENDBRANCH  17  20
ENDBRANCH  16  17
ENDBRANCH   1  16
BRANCH   5  24
ATOM     24  C   LIG d   1       9.785  10.674  -0.820  0.00  0.00    -0.039 C 
ATOM     25  H   LIG d   1      10.554  11.341  -1.212  0.00  0.00     0.028 H 
ATOM     26  H   LIG d   1       9.198  10.273  -1.645  0.00  0.00     0.028 H 
ATOM     27  H   LIG d   1       9.133  11.229  -0.146  0.00  0.00     0.028 H 
ENDBRANCH   5  24
TORSDOF 4
ENDMDL
