MODEL 1
REMARK VINA RESULT:      -6.1      0.000      0.000
REMARK  7 active torsions:
REMARK  status: ('A' for Active; 'I' for Inactive)
REMARK    1  A    between atoms: C_1  and  C_2 
REMARK    2  A    between atoms: C_2  and  C_3 
REMARK       I    between atoms: C_3  and  N_5 
REMARK       I    between atoms: N_5  and  C_6 
REMARK       I    between atoms: C_6  and  N_7 
REMARK       I    between atoms: C_6  and  N_8 
REMARK    3  A    between atoms: N_8  and  C_9 
REMARK    4  A    between atoms: C_11  and  C_22 
REMARK    5  A    between atoms: C_15  and  O_19 
REMARK    6  A    between atoms: O_19  and  C_20 
REMARK    7  A    between atoms: C_20  and  C_21 
ROOT
ATOM      1  C   LIG d   1       5.147  -4.946  -6.251  0.00  0.00     0.293 A 
ATOM      2  N   LIG d   1       6.473  -4.844  -6.316  0.00  0.00    -0.203 NA
ATOM      3  C   LIG d   1       7.141  -4.024  -5.531  0.00  0.00     0.052 A 
ATOM      4  C   LIG d   1       6.422  -3.245  -4.607  0.00  0.00     0.022 A 
ATOM      5  C   LIG d   1       7.061  -2.348  -3.737  0.00  0.00    -0.047 A 
ATOM      6  C   LIG d   1       6.322  -1.615  -2.861  0.00  0.00    -0.019 A 
ATOM      7  C   LIG d   1       4.929  -1.744  -2.814  0.00  0.00     0.122 A 
ATOM      8  C   LIG d   1       4.273  -2.615  -3.654  0.00  0.00     0.006 A 
ATOM      9  C   LIG d   1       5.010  -3.380  -4.567  0.00  0.00     0.081 A 
ATOM     10  N   LIG d   1       4.420  -4.238  -5.410  0.00  0.00    -0.198 NA
ATOM     11  H   LIG d   1       8.136  -2.240  -3.763  0.00  0.00     0.063 H 
ATOM     12  H   LIG d   1       6.817  -0.926  -2.193  0.00  0.00     0.065 H 
ATOM     13  H   LIG d   1       3.197  -2.708  -3.610  0.00  0.00     0.068 H 
ENDROOT
BRANCH   1  14
ATOM     14  N   LIG d   1       4.504  -5.829  -7.107  0.00  0.00    -0.210 N 
ATOM     15  C   LIG d   1       4.403  -7.151  -6.776  0.00  0.00     0.419 C 
ATOM     16  N   LIG d   1       4.825  -7.571  -5.592  0.00  0.00    -0.002 NA
ATOM     17  N   LIG d   1       3.869  -8.036  -7.664  0.00  0.00    -0.128 NA
ATOM     18  C   LIG d   1       4.727  -8.861  -5.269  0.00  0.00     0.310 C 
ATOM     19  O   LIG d   1       4.250  -9.650  -6.061  0.00  0.00    -0.254 OA
ATOM     20  H   LIG d   1       3.494  -7.719  -8.499  0.00  0.00     0.306 HD
ATOM     21  H   LIG d   1       4.125  -5.507  -7.941  0.00  0.00     0.268 HD
BRANCH  18  22
ATOM     22  C   LIG d   1       5.206  -9.339  -3.923  0.00  0.00     0.040 C 
ATOM     23  H   LIG d   1       5.501  -8.482  -3.317  0.00  0.00     0.037 H 
ATOM     24  H   LIG d   1       6.062 -10.001  -4.056  0.00  0.00     0.037 H 
BRANCH  22  25
ATOM     25  C   LIG d   1       4.078 -10.098  -3.220  0.00  0.00    -0.056 C 
ATOM     26  H   LIG d   1       4.130 -11.154  -3.486  0.00  0.00     0.024 H 
ATOM     27  H   LIG d   1       4.186  -9.989  -2.141  0.00  0.00     0.024 H 
ATOM     28  H   LIG d   1       3.117  -9.690  -3.533  0.00  0.00     0.024 H 
ENDBRANCH  22  25
ENDBRANCH  18  22
ENDBRANCH   1  14
BRANCH   3  29
ATOM     29  C   LIG d   1       8.643  -3.924  -5.620  0.00  0.00    -0.021 C 
ATOM     30  H   LIG d   1       8.964  -4.182  -6.629  0.00  0.00     0.029 H 
ATOM     31  H   LIG d   1       8.953  -2.906  -5.388  0.00  0.00     0.029 H 
ATOM     32  H   LIG d   1       9.095  -4.614  -4.907  0.00  0.00     0.029 H 
ENDBRANCH   3  29
BRANCH   7  33
ATOM     33  O   LIG d   1       4.218  -1.000  -1.929  0.00  0.00    -0.492 OA
BRANCH  33  34
ATOM     34  C   LIG d   1       4.626   0.358  -1.745  0.00  0.00     0.087 C 
ATOM     35  H   LIG d   1       4.675   0.580  -0.678  0.00  0.00     0.069 H 
ATOM     36  H   LIG d   1       5.609   0.505  -2.191  0.00  0.00     0.069 H 
BRANCH  34  37
ATOM     37  C   LIG d   1       3.615   1.290  -2.414  0.00  0.00    -0.031 C 
ATOM     38  H   LIG d   1       2.610   0.887  -2.288  0.00  0.00     0.026 H 
ATOM     39  H   LIG d   1       3.671   2.277  -1.954  0.00  0.00     0.026 H 
ATOM     40  H   LIG d   1       3.843   1.371  -3.477  0.00  0.00     0.026 H 
ENDBRANCH  34  37
ENDBRANCH  33  34
ENDBRANCH   7  33
TORSDOF 7
ENDMDL
MODEL 2
REMARK VINA RESULT:      -6.0      4.995      8.105
REMARK  7 active torsions:
REMARK  status: ('A' for Active; 'I' for Inactive)
REMARK    1  A    between atoms: C_1  and  C_2 
REMARK    2  A    between atoms: C_2  and  C_3 
REMARK       I    between atoms: C_3  and  N_5 
REMARK       I    between atoms: N_5  and  C_6 
REMARK       I    between atoms: C_6  and  N_7 
REMARK       I    between atoms: C_6  and  N_8 
REMARK    3  A    between atoms: N_8  and  C_9 
REMARK    4  A    between atoms: C_11  and  C_22 
REMARK    5  A    between atoms: C_15  and  O_19 
REMARK    6  A    between atoms: O_19  and  C_20 
REMARK    7  A    between atoms: C_20  and  C_21 
ROOT
ATOM      1  C   LIG d   1       5.200  -0.334  -7.257  0.00  0.00     0.293 A 
ATOM      2  N   LIG d   1       4.601   0.821  -7.540  0.00  0.00    -0.203 NA
ATOM      3  C   LIG d   1       3.534   0.875  -8.309  0.00  0.00     0.052 A 
ATOM      4  C   LIG d   1       3.026  -0.325  -8.838  0.00  0.00     0.022 A 
ATOM      5  C   LIG d   1       1.894  -0.351  -9.667  0.00  0.00    -0.047 A 
ATOM      6  C   LIG d   1       1.441  -1.537 -10.155  0.00  0.00    -0.019 A 
ATOM      7  C   LIG d   1       2.091  -2.737  -9.841  0.00  0.00     0.122 A 
ATOM      8  C   LIG d   1       3.203  -2.745  -9.030  0.00  0.00     0.006 A 
ATOM      9  C   LIG d   1       3.691  -1.537  -8.516  0.00  0.00     0.081 A 
ATOM     10  N   LIG d   1       4.773  -1.489  -7.728  0.00  0.00    -0.198 NA
ATOM     11  H   LIG d   1       1.383   0.569  -9.916  0.00  0.00     0.063 H 
ATOM     12  H   LIG d   1       0.569  -1.553 -10.792  0.00  0.00     0.065 H 
ATOM     13  H   LIG d   1       3.697  -3.676  -8.793  0.00  0.00     0.068 H 
ENDROOT
BRANCH   1  14
ATOM     14  N   LIG d   1       6.321  -0.321  -6.440  0.00  0.00    -0.210 N 
ATOM     15  C   LIG d   1       6.189  -0.076  -5.102  0.00  0.00     0.419 C 
ATOM     16  N   LIG d   1       4.983   0.046  -4.567  0.00  0.00    -0.002 NA
ATOM     17  N   LIG d   1       7.298   0.044  -4.320  0.00  0.00    -0.128 NA
ATOM     18  C   LIG d   1       4.855   0.285  -3.262  0.00  0.00     0.310 C 
ATOM     19  O   LIG d   1       5.843   0.392  -2.565  0.00  0.00    -0.254 OA
ATOM     20  H   LIG d   1       8.177  -0.116  -4.696  0.00  0.00     0.306 HD
ATOM     21  H   LIG d   1       7.200  -0.487  -6.819  0.00  0.00     0.268 HD
BRANCH  18  22
ATOM     22  C   LIG d   1       3.483   0.423  -2.653  0.00  0.00     0.040 C 
ATOM     23  H   LIG d   1       3.005   1.324  -3.036  0.00  0.00     0.037 H 
ATOM     24  H   LIG d   1       3.571   0.491  -1.569  0.00  0.00     0.037 H 
BRANCH  22  25
ATOM     25  C   LIG d   1       2.637  -0.799  -3.020  0.00  0.00    -0.056 C 
ATOM     26  H   LIG d   1       3.271  -1.686  -3.043  0.00  0.00     0.024 H 
ATOM     27  H   LIG d   1       1.852  -0.933  -2.276  0.00  0.00     0.024 H 
ATOM     28  H   LIG d   1       2.187  -0.647  -4.001  0.00  0.00     0.024 H 
ENDBRANCH  22  25
ENDBRANCH  18  22
ENDBRANCH   1  14
BRANCH   3  29
ATOM     29  C   LIG d   1       2.870   2.194  -8.616  0.00  0.00    -0.021 C 
ATOM     30  H   LIG d   1       3.542   3.009  -8.348  0.00  0.00     0.029 H 
ATOM     31  H   LIG d   1       2.641   2.245  -9.680  0.00  0.00     0.029 H 
ATOM     32  H   LIG d   1       1.948   2.278  -8.041  0.00  0.00     0.029 H 
ENDBRANCH   3  29
BRANCH   7  33
ATOM     33  O   LIG d   1       1.616  -3.906 -10.342  0.00  0.00    -0.492 OA
BRANCH  33  34
ATOM     34  C   LIG d   1       0.411  -3.843 -11.108  0.00  0.00     0.087 C 
ATOM     35  H   LIG d   1       0.037  -2.819 -11.112  0.00  0.00     0.069 H 
ATOM     36  H   LIG d   1       0.614  -4.159 -12.131  0.00  0.00     0.069 H 
BRANCH  34  37
ATOM     37  C   LIG d   1      -0.638  -4.767 -10.486  0.00  0.00    -0.031 C 
ATOM     38  H   LIG d   1      -0.407  -4.920  -9.431  0.00  0.00     0.026 H 
ATOM     39  H   LIG d   1      -1.624  -4.313 -10.579  0.00  0.00     0.026 H 
ATOM     40  H   LIG d   1      -0.629  -5.727 -11.002  0.00  0.00     0.026 H 
ENDBRANCH  34  37
ENDBRANCH  33  34
ENDBRANCH   7  33
TORSDOF 7
ENDMDL
MODEL 3
REMARK VINA RESULT:      -5.7      4.638      7.967
REMARK  7 active torsions:
REMARK  status: ('A' for Active; 'I' for Inactive)
REMARK    1  A    between atoms: C_1  and  C_2 
REMARK    2  A    between atoms: C_2  and  C_3 
REMARK       I    between atoms: C_3  and  N_5 
REMARK       I    between atoms: N_5  and  C_6 
REMARK       I    between atoms: C_6  and  N_7 
REMARK       I    between atoms: C_6  and  N_8 
REMARK    3  A    between atoms: N_8  and  C_9 
REMARK    4  A    between atoms: C_11  and  C_22 
REMARK    5  A    between atoms: C_15  and  O_19 
REMARK    6  A    between atoms: O_19  and  C_20 
REMARK    7  A    between atoms: C_20  and  C_21 
ROOT
ATOM      1  C   LIG d   1       7.170   0.840  -4.311  0.00  0.00     0.293 A 
ATOM      2  N   LIG d   1       6.442   1.380  -3.337  0.00  0.00    -0.203 NA
ATOM      3  C   LIG d   1       5.466   0.715  -2.755  0.00  0.00     0.052 A 
ATOM      4  C   LIG d   1       5.198  -0.597  -3.184  0.00  0.00     0.022 A 
ATOM      5  C   LIG d   1       4.175  -1.370  -2.615  0.00  0.00    -0.047 A 
ATOM      6  C   LIG d   1       3.954  -2.635  -3.065  0.00  0.00    -0.019 A 
ATOM      7  C   LIG d   1       4.736  -3.178  -4.091  0.00  0.00     0.122 A 
ATOM      8  C   LIG d   1       5.748  -2.445  -4.670  0.00  0.00     0.006 A 
ATOM      9  C   LIG d   1       5.995  -1.140  -4.226  0.00  0.00     0.081 A 
ATOM     10  N   LIG d   1       6.963  -0.383  -4.759  0.00  0.00    -0.198 NA
ATOM     11  H   LIG d   1       3.565  -0.962  -1.821  0.00  0.00     0.063 H 
ATOM     12  H   LIG d   1       3.166  -3.227  -2.624  0.00  0.00     0.065 H 
ATOM     13  H   LIG d   1       6.346  -2.873  -5.461  0.00  0.00     0.068 H 
ENDROOT
BRANCH   1  14
ATOM     14  N   LIG d   1       8.184   1.595  -4.883  0.00  0.00    -0.210 N 
ATOM     15  C   LIG d   1       8.177   1.844  -6.227  0.00  0.00     0.419 C 
ATOM     16  N   LIG d   1       7.149   1.455  -6.967  0.00  0.00    -0.002 NA
ATOM     17  N   LIG d   1       9.228   2.490  -6.804  0.00  0.00    -0.128 NA
ATOM     18  C   LIG d   1       7.142   1.698  -8.277  0.00  0.00     0.310 C 
ATOM     19  O   LIG d   1       8.079   2.274  -8.792  0.00  0.00    -0.254 OA
ATOM     20  H   LIG d   1       9.946   2.839  -6.254  0.00  0.00     0.306 HD
ATOM     21  H   LIG d   1       8.899   1.946  -4.328  0.00  0.00     0.268 HD
BRANCH  18  22
ATOM     22  C   LIG d   1       5.973   1.256  -9.119  0.00  0.00     0.040 C 
ATOM     23  H   LIG d   1       5.520   0.370  -8.675  0.00  0.00     0.037 H 
ATOM     24  H   LIG d   1       6.317   1.023 -10.126  0.00  0.00     0.037 H 
BRANCH  22  25
ATOM     25  C   LIG d   1       4.937   2.381  -9.182  0.00  0.00    -0.056 C 
ATOM     26  H   LIG d   1       5.006   2.990  -8.281  0.00  0.00     0.024 H 
ATOM     27  H   LIG d   1       5.130   3.003 -10.056  0.00  0.00     0.024 H 
ATOM     28  H   LIG d   1       3.938   1.951  -9.256  0.00  0.00     0.024 H 
ENDBRANCH  22  25
ENDBRANCH  18  22
ENDBRANCH   1  14
BRANCH   3  29
ATOM     29  C   LIG d   1       4.653   1.346  -1.652  0.00  0.00    -0.021 C 
ATOM     30  H   LIG d   1       5.301   1.966  -1.034  0.00  0.00     0.029 H 
ATOM     31  H   LIG d   1       3.867   1.961  -2.088  0.00  0.00     0.029 H 
ATOM     32  H   LIG d   1       4.205   0.563  -1.039  0.00  0.00     0.029 H 
ENDBRANCH   3  29
BRANCH   7  33
ATOM     33  O   LIG d   1       4.493  -4.443  -4.519  0.00  0.00    -0.492 OA
BRANCH  33  34
ATOM     34  C   LIG d   1       4.855  -4.753  -5.867  0.00  0.00     0.087 C 
ATOM     35  H   LIG d   1       3.952  -4.876  -6.466  0.00  0.00     0.069 H 
ATOM     36  H   LIG d   1       5.455  -3.942  -6.278  0.00  0.00     0.069 H 
BRANCH  34  37
ATOM     37  C   LIG d   1       5.664  -6.051  -5.892  0.00  0.00    -0.031 C 
ATOM     38  H   LIG d   1       6.706  -5.834  -5.650  0.00  0.00     0.026 H 
ATOM     39  H   LIG d   1       5.259  -6.746  -5.157  0.00  0.00     0.026 H 
ATOM     40  H   LIG d   1       5.607  -6.497  -6.885  0.00  0.00     0.026 H 
ENDBRANCH  34  37
ENDBRANCH  33  34
ENDBRANCH   7  33
TORSDOF 7
ENDMDL
MODEL 4
REMARK VINA RESULT:      -5.7      5.634      8.103
REMARK  7 active torsions:
REMARK  status: ('A' for Active; 'I' for Inactive)
REMARK    1  A    between atoms: C_1  and  C_2 
REMARK    2  A    between atoms: C_2  and  C_3 
REMARK       I    between atoms: C_3  and  N_5 
REMARK       I    between atoms: N_5  and  C_6 
REMARK       I    between atoms: C_6  and  N_7 
REMARK       I    between atoms: C_6  and  N_8 
REMARK    3  A    between atoms: N_8  and  C_9 
REMARK    4  A    between atoms: C_11  and  C_22 
REMARK    5  A    between atoms: C_15  and  O_19 
REMARK    6  A    between atoms: O_19  and  C_20 
REMARK    7  A    between atoms: C_20  and  C_21 
ROOT
ATOM      1  C   LIG d   1       7.039  -0.658  -4.260  0.00  0.00     0.293 A 
ATOM      2  N   LIG d   1       6.498  -0.246  -3.116  0.00  0.00    -0.203 NA
ATOM      3  C   LIG d   1       5.236   0.124  -3.043  0.00  0.00     0.052 A 
ATOM      4  C   LIG d   1       4.455   0.078  -4.210  0.00  0.00     0.022 A 
ATOM      5  C   LIG d   1       3.103   0.457  -4.215  0.00  0.00    -0.047 A 
ATOM      6  C   LIG d   1       2.389   0.396  -5.371  0.00  0.00    -0.019 A 
ATOM      7  C   LIG d   1       2.983  -0.042  -6.560  0.00  0.00     0.122 A 
ATOM      8  C   LIG d   1       4.306  -0.422  -6.588  0.00  0.00     0.006 A 
ATOM      9  C   LIG d   1       5.066  -0.366  -5.413  0.00  0.00     0.081 A 
ATOM     10  N   LIG d   1       6.358  -0.718  -5.387  0.00  0.00    -0.198 NA
ATOM     11  H   LIG d   1       2.633   0.796  -3.303  0.00  0.00     0.063 H 
ATOM     12  H   LIG d   1       1.349   0.688  -5.370  0.00  0.00     0.065 H 
ATOM     13  H   LIG d   1       4.756  -0.759  -7.511  0.00  0.00     0.068 H 
ENDROOT
BRANCH   1  14
ATOM     14  N   LIG d   1       8.374  -1.035  -4.269  0.00  0.00    -0.210 N 
ATOM     15  C   LIG d   1       9.323  -0.178  -4.751  0.00  0.00     0.419 C 
ATOM     16  N   LIG d   1       8.984   1.051  -5.112  0.00  0.00    -0.002 NA
ATOM     17  N   LIG d   1      10.618  -0.589  -4.861  0.00  0.00    -0.128 NA
ATOM     18  C   LIG d   1       9.909   1.886  -5.583  0.00  0.00     0.310 C 
ATOM     19  O   LIG d   1      11.064   1.521  -5.681  0.00  0.00    -0.254 OA
ATOM     20  H   LIG d   1      10.880  -1.461  -4.530  0.00  0.00     0.306 HD
ATOM     21  H   LIG d   1       8.634  -1.908  -3.932  0.00  0.00     0.268 HD
BRANCH  18  22
ATOM     22  C   LIG d   1       9.523   3.284  -5.993  0.00  0.00     0.040 C 
ATOM     23  H   LIG d   1       8.636   3.245  -6.624  0.00  0.00     0.037 H 
ATOM     24  H   LIG d   1      10.344   3.740  -6.547  0.00  0.00     0.037 H 
BRANCH  22  25
ATOM     25  C   LIG d   1       9.226   4.118  -4.745  0.00  0.00    -0.056 C 
ATOM     26  H   LIG d   1       8.151   4.271  -4.657  0.00  0.00     0.024 H 
ATOM     27  H   LIG d   1       9.591   3.592  -3.862  0.00  0.00     0.024 H 
ATOM     28  H   LIG d   1       9.726   5.084  -4.826  0.00  0.00     0.024 H 
ENDBRANCH  22  25
ENDBRANCH  18  22
ENDBRANCH   1  14
BRANCH   3  29
ATOM     29  C   LIG d   1       4.643   0.587  -1.736  0.00  0.00    -0.021 C 
ATOM     30  H   LIG d   1       5.331   0.357  -0.923  0.00  0.00     0.029 H 
ATOM     31  H   LIG d   1       4.472   1.662  -1.776  0.00  0.00     0.029 H 
ATOM     32  H   LIG d   1       3.696   0.074  -1.566  0.00  0.00     0.029 H 
ENDBRANCH   3  29
BRANCH   7  33
ATOM     33  O   LIG d   1       2.245  -0.094  -7.698  0.00  0.00    -0.492 OA
BRANCH  33  34
ATOM     34  C   LIG d   1       2.810   0.505  -8.867  0.00  0.00     0.087 C 
ATOM     35  H   LIG d   1       3.847   0.187  -8.972  0.00  0.00     0.069 H 
ATOM     36  H   LIG d   1       2.244   0.194  -9.744  0.00  0.00     0.069 H 
BRANCH  34  37
ATOM     37  C   LIG d   1       2.754   2.029  -8.737  0.00  0.00    -0.031 C 
ATOM     38  H   LIG d   1       1.858   2.403  -9.234  0.00  0.00     0.026 H 
ATOM     39  H   LIG d   1       2.725   2.302  -7.682  0.00  0.00     0.026 H 
ATOM     40  H   LIG d   1       3.637   2.466  -9.202  0.00  0.00     0.026 H 
ENDBRANCH  34  37
ENDBRANCH  33  34
ENDBRANCH   7  33
TORSDOF 7
ENDMDL
MODEL 5
REMARK VINA RESULT:      -5.6      3.867      5.616
REMARK  7 active torsions:
REMARK  status: ('A' for Active; 'I' for Inactive)
REMARK    1  A    between atoms: C_1  and  C_2 
REMARK    2  A    between atoms: C_2  and  C_3 
REMARK       I    between atoms: C_3  and  N_5 
REMARK       I    between atoms: N_5  and  C_6 
REMARK       I    between atoms: C_6  and  N_7 
REMARK       I    between atoms: C_6  and  N_8 
REMARK    3  A    between atoms: N_8  and  C_9 
REMARK    4  A    between atoms: C_11  and  C_22 
REMARK    5  A    between atoms: C_15  and  O_19 
REMARK    6  A    between atoms: O_19  and  C_20 
REMARK    7  A    between atoms: C_20  and  C_21 
ROOT
ATOM      1  C   LIG d   1       6.940  -0.831  -4.128  0.00  0.00     0.293 A 
ATOM      2  N   LIG d   1       6.365  -0.414  -3.002  0.00  0.00    -0.203 NA
ATOM      3  C   LIG d   1       5.118   0.008  -2.980  0.00  0.00     0.052 A 
ATOM      4  C   LIG d   1       4.389   0.012  -4.182  0.00  0.00     0.022 A 
ATOM      5  C   LIG d   1       3.056   0.448  -4.240  0.00  0.00    -0.047 A 
ATOM      6  C   LIG d   1       2.393   0.434  -5.428  0.00  0.00    -0.019 A 
ATOM      7  C   LIG d   1       3.022  -0.010  -6.596  0.00  0.00     0.122 A 
ATOM      8  C   LIG d   1       4.328  -0.445  -6.572  0.00  0.00     0.006 A 
ATOM      9  C   LIG d   1       5.035  -0.439  -5.363  0.00  0.00     0.081 A 
ATOM     10  N   LIG d   1       6.309  -0.845  -5.285  0.00  0.00    -0.198 NA
ATOM     11  H   LIG d   1       2.559   0.793  -3.345  0.00  0.00     0.063 H 
ATOM     12  H   LIG d   1       1.367   0.770  -5.469  0.00  0.00     0.065 H 
ATOM     13  H   LIG d   1       4.805  -0.787  -7.479  0.00  0.00     0.068 H 
ENDROOT
BRANCH   1  14
ATOM     14  N   LIG d   1       8.258  -1.263  -4.084  0.00  0.00    -0.210 N 
ATOM     15  C   LIG d   1       8.557  -2.572  -4.338  0.00  0.00     0.419 C 
ATOM     16  N   LIG d   1       7.604  -3.405  -4.730  0.00  0.00    -0.002 NA
ATOM     17  N   LIG d   1       9.835  -3.019  -4.188  0.00  0.00    -0.128 NA
ATOM     18  C   LIG d   1       7.896  -4.681  -4.978  0.00  0.00     0.310 C 
ATOM     19  O   LIG d   1       9.036  -5.080  -4.844  0.00  0.00    -0.254 OA
ATOM     20  H   LIG d   1      10.546  -2.396  -3.972  0.00  0.00     0.306 HD
ATOM     21  H   LIG d   1       8.968  -0.635  -3.871  0.00  0.00     0.268 HD
BRANCH  18  22
ATOM     22  C   LIG d   1       6.813  -5.629  -5.425  0.00  0.00     0.040 C 
ATOM     23  H   LIG d   1       6.573  -5.440  -6.471  0.00  0.00     0.037 H 
ATOM     24  H   LIG d   1       5.922  -5.476  -4.815  0.00  0.00     0.037 H 
BRANCH  22  25
ATOM     25  C   LIG d   1       7.299  -7.071  -5.265  0.00  0.00    -0.056 C 
ATOM     26  H   LIG d   1       6.916  -7.677  -6.086  0.00  0.00     0.024 H 
ATOM     27  H   LIG d   1       8.389  -7.089  -5.277  0.00  0.00     0.024 H 
ATOM     28  H   LIG d   1       6.939  -7.472  -4.317  0.00  0.00     0.024 H 
ENDBRANCH  22  25
ENDBRANCH  18  22
ENDBRANCH   1  14
BRANCH   3  29
ATOM     29  C   LIG d   1       4.486   0.476  -1.693  0.00  0.00    -0.021 C 
ATOM     30  H   LIG d   1       5.152   1.182  -1.197  0.00  0.00     0.029 H 
ATOM     31  H   LIG d   1       3.536   0.963  -1.912  0.00  0.00     0.029 H 
ATOM     32  H   LIG d   1       4.313  -0.381  -1.042  0.00  0.00     0.029 H 
ENDBRANCH   3  29
BRANCH   7  33
ATOM     33  O   LIG d   1       2.335  -0.014  -7.767  0.00  0.00    -0.492 OA
BRANCH  33  34
ATOM     34  C   LIG d   1       2.958   0.616  -8.888  0.00  0.00     0.087 C 
ATOM     35  H   LIG d   1       4.005   0.317  -8.936  0.00  0.00     0.069 H 
ATOM     36  H   LIG d   1       2.452   0.312  -9.804  0.00  0.00     0.069 H 
BRANCH  34  37
ATOM     37  C   LIG d   1       2.868   2.136  -8.735  0.00  0.00    -0.031 C 
ATOM     38  H   LIG d   1       2.517   2.575  -9.670  0.00  0.00     0.026 H 
ATOM     39  H   LIG d   1       2.169   2.379  -7.935  0.00  0.00     0.026 H 
ATOM     40  H   LIG d   1       3.852   2.536  -8.493  0.00  0.00     0.026 H 
ENDBRANCH  34  37
ENDBRANCH  33  34
ENDBRANCH   7  33
TORSDOF 7
ENDMDL
MODEL 6
REMARK VINA RESULT:      -5.6      3.043      4.917
REMARK  7 active torsions:
REMARK  status: ('A' for Active; 'I' for Inactive)
REMARK    1  A    between atoms: C_1  and  C_2 
REMARK    2  A    between atoms: C_2  and  C_3 
REMARK       I    between atoms: C_3  and  N_5 
REMARK       I    between atoms: N_5  and  C_6 
REMARK       I    between atoms: C_6  and  N_7 
REMARK       I    between atoms: C_6  and  N_8 
REMARK    3  A    between atoms: N_8  and  C_9 
REMARK    4  A    between atoms: C_11  and  C_22 
REMARK    5  A    between atoms: C_15  and  O_19 
REMARK    6  A    between atoms: O_19  and  C_20 
REMARK    7  A    between atoms: C_20  and  C_21 
ROOT
ATOM      1  C   LIG d   1       4.916  -3.292  -4.484  0.00  0.00     0.293 A 
ATOM      2  N   LIG d   1       3.887  -2.671  -3.911  0.00  0.00    -0.203 NA
ATOM      3  C   LIG d   1       3.982  -1.430  -3.481  0.00  0.00     0.052 A 
ATOM      4  C   LIG d   1       5.206  -0.757  -3.639  0.00  0.00     0.022 A 
ATOM      5  C   LIG d   1       5.387   0.566  -3.207  0.00  0.00    -0.047 A 
ATOM      6  C   LIG d   1       6.591   1.175  -3.382  0.00  0.00    -0.019 A 
ATOM      7  C   LIG d   1       7.656   0.498  -3.988  0.00  0.00     0.122 A 
ATOM      8  C   LIG d   1       7.510  -0.800  -4.424  0.00  0.00     0.006 A 
ATOM      9  C   LIG d   1       6.282  -1.450  -4.254  0.00  0.00     0.081 A 
ATOM     10  N   LIG d   1       6.089  -2.714  -4.654  0.00  0.00    -0.198 NA
ATOM     11  H   LIG d   1       4.572   1.099  -2.738  0.00  0.00     0.063 H 
ATOM     12  H   LIG d   1       6.727   2.193  -3.048  0.00  0.00     0.065 H 
ATOM     13  H   LIG d   1       8.338  -1.313  -4.891  0.00  0.00     0.068 H 
ENDROOT
BRANCH   1  14
ATOM     14  N   LIG d   1       4.750  -4.600  -4.915  0.00  0.00    -0.210 N 
ATOM     15  C   LIG d   1       4.288  -4.852  -6.175  0.00  0.00     0.419 C 
ATOM     16  N   LIG d   1       4.098  -3.851  -7.023  0.00  0.00    -0.002 NA
ATOM     17  N   LIG d   1       4.022  -6.131  -6.560  0.00  0.00    -0.128 NA
ATOM     18  C   LIG d   1       3.647  -4.096  -8.253  0.00  0.00     0.310 C 
ATOM     19  O   LIG d   1       3.410  -5.237  -8.596  0.00  0.00    -0.254 OA
ATOM     20  H   LIG d   1       4.229  -6.870  -5.967  0.00  0.00     0.306 HD
ATOM     21  H   LIG d   1       4.962  -5.338  -4.319  0.00  0.00     0.268 HD
BRANCH  18  22
ATOM     22  C   LIG d   1       3.432  -2.958  -9.217  0.00  0.00     0.040 C 
ATOM     23  H   LIG d   1       2.488  -3.101  -9.742  0.00  0.00     0.037 H 
ATOM     24  H   LIG d   1       4.249  -2.933  -9.938  0.00  0.00     0.037 H 
BRANCH  22  25
ATOM     25  C   LIG d   1       3.392  -1.637  -8.446  0.00  0.00    -0.056 C 
ATOM     26  H   LIG d   1       3.575  -0.810  -9.131  0.00  0.00     0.024 H 
ATOM     27  H   LIG d   1       2.412  -1.516  -7.983  0.00  0.00     0.024 H 
ATOM     28  H   LIG d   1       4.161  -1.645  -7.672  0.00  0.00     0.024 H 
ENDBRANCH  22  25
ENDBRANCH  18  22
ENDBRANCH   1  14
BRANCH   3  29
ATOM     29  C   LIG d   1       2.804  -0.746  -2.835  0.00  0.00    -0.021 C 
ATOM     30  H   LIG d   1       1.898  -0.979  -3.393  0.00  0.00     0.029 H 
ATOM     31  H   LIG d   1       2.700  -1.095  -1.809  0.00  0.00     0.029 H 
ATOM     32  H   LIG d   1       2.965   0.333  -2.838  0.00  0.00     0.029 H 
ENDBRANCH   3  29
BRANCH   7  33
ATOM     33  O   LIG d   1       8.846   1.131  -4.150  0.00  0.00    -0.492 OA
BRANCH  33  34
ATOM     34  C   LIG d   1       8.920   2.495  -3.726  0.00  0.00     0.087 C 
ATOM     35  H   LIG d   1       8.837   3.149  -4.594  0.00  0.00     0.069 H 
ATOM     36  H   LIG d   1       8.105   2.704  -3.034  0.00  0.00     0.069 H 
BRANCH  34  37
ATOM     37  C   LIG d   1      10.259   2.740  -3.028  0.00  0.00    -0.031 C 
ATOM     38  H   LIG d   1      10.238   3.713  -2.536  0.00  0.00     0.026 H 
ATOM     39  H   LIG d   1      10.429   1.961  -2.285  0.00  0.00     0.026 H 
ATOM     40  H   LIG d   1      11.062   2.723  -3.765  0.00  0.00     0.026 H 
ENDBRANCH  34  37
ENDBRANCH  33  34
ENDBRANCH   7  33
TORSDOF 7
ENDMDL
MODEL 7
REMARK VINA RESULT:      -5.6      2.681      4.104
REMARK  7 active torsions:
REMARK  status: ('A' for Active; 'I' for Inactive)
REMARK    1  A    between atoms: C_1  and  C_2 
REMARK    2  A    between atoms: C_2  and  C_3 
REMARK       I    between atoms: C_3  and  N_5 
REMARK       I    between atoms: N_5  and  C_6 
REMARK       I    between atoms: C_6  and  N_7 
REMARK       I    between atoms: C_6  and  N_8 
REMARK    3  A    between atoms: N_8  and  C_9 
REMARK    4  A    between atoms: C_11  and  C_22 
REMARK    5  A    between atoms: C_15  and  O_19 
REMARK    6  A    between atoms: O_19  and  C_20 
REMARK    7  A    between atoms: C_20  and  C_21 
ROOT
ATOM      1  C   LIG d   1       4.848  -4.775  -6.249  0.00  0.00     0.293 A 
ATOM      2  N   LIG d   1       6.170  -4.810  -6.392  0.00  0.00    -0.203 NA
ATOM      3  C   LIG d   1       6.965  -4.066  -5.649  0.00  0.00     0.052 A 
ATOM      4  C   LIG d   1       6.387  -3.221  -4.687  0.00  0.00     0.022 A 
ATOM      5  C   LIG d   1       7.165  -2.398  -3.858  0.00  0.00    -0.047 A 
ATOM      6  C   LIG d   1       6.559  -1.596  -2.942  0.00  0.00    -0.019 A 
ATOM      7  C   LIG d   1       5.165  -1.579  -2.812  0.00  0.00     0.122 A 
ATOM      8  C   LIG d   1       4.374  -2.376  -3.610  0.00  0.00     0.006 A 
ATOM      9  C   LIG d   1       4.972  -3.209  -4.563  0.00  0.00     0.081 A 
ATOM     10  N   LIG d   1       4.248  -3.998  -5.367  0.00  0.00    -0.198 NA
ATOM     11  H   LIG d   1       8.242  -2.401  -3.948  0.00  0.00     0.063 H 
ATOM     12  H   LIG d   1       7.161  -0.964  -2.305  0.00  0.00     0.065 H 
ATOM     13  H   LIG d   1       3.299  -2.357  -3.502  0.00  0.00     0.068 H 
ENDROOT
BRANCH   1  14
ATOM     14  N   LIG d   1       4.067  -5.583  -7.063  0.00  0.00    -0.210 N 
ATOM     15  C   LIG d   1       3.406  -5.044  -8.130  0.00  0.00     0.419 C 
ATOM     16  N   LIG d   1       3.593  -3.772  -8.451  0.00  0.00    -0.002 NA
ATOM     17  N   LIG d   1       2.554  -5.815  -8.862  0.00  0.00    -0.128 NA
ATOM     18  C   LIG d   1       2.948  -3.246  -9.492  0.00  0.00     0.310 C 
ATOM     19  O   LIG d   1       2.189  -3.933 -10.146  0.00  0.00    -0.254 OA
ATOM     20  H   LIG d   1       2.472  -6.762  -8.674  0.00  0.00     0.306 HD
ATOM     21  H   LIG d   1       3.990  -6.532  -6.873  0.00  0.00     0.268 HD
BRANCH  18  22
ATOM     22  C   LIG d   1       3.161  -1.799  -9.857  0.00  0.00     0.040 C 
ATOM     23  H   LIG d   1       3.253  -1.708 -10.939  0.00  0.00     0.037 H 
ATOM     24  H   LIG d   1       4.073  -1.435  -9.383  0.00  0.00     0.037 H 
BRANCH  22  25
ATOM     25  C   LIG d   1       1.969  -0.971  -9.374  0.00  0.00    -0.056 C 
ATOM     26  H   LIG d   1       1.069  -1.289  -9.899  0.00  0.00     0.024 H 
ATOM     27  H   LIG d   1       1.835  -1.119  -8.302  0.00  0.00     0.024 H 
ATOM     28  H   LIG d   1       2.155   0.085  -9.575  0.00  0.00     0.024 H 
ENDBRANCH  22  25
ENDBRANCH  18  22
ENDBRANCH   1  14
BRANCH   3  29
ATOM     29  C   LIG d   1       8.461  -4.121  -5.828  0.00  0.00    -0.021 C 
ATOM     30  H   LIG d   1       8.708  -4.855  -6.594  0.00  0.00     0.029 H 
ATOM     31  H   LIG d   1       8.827  -3.141  -6.130  0.00  0.00     0.029 H 
ATOM     32  H   LIG d   1       8.928  -4.409  -4.885  0.00  0.00     0.029 H 
ENDBRANCH   3  29
BRANCH   7  33
ATOM     33  O   LIG d   1       4.588  -0.769  -1.889  0.00  0.00    -0.492 OA
BRANCH  33  34
ATOM     34  C   LIG d   1       3.505   0.053  -2.331  0.00  0.00     0.087 C 
ATOM     35  H   LIG d   1       3.120  -0.332  -3.275  0.00  0.00     0.069 H 
ATOM     36  H   LIG d   1       2.713   0.043  -1.584  0.00  0.00     0.069 H 
BRANCH  34  37
ATOM     37  C   LIG d   1       4.002   1.486  -2.529  0.00  0.00    -0.031 C 
ATOM     38  H   LIG d   1       3.896   1.766  -3.578  0.00  0.00     0.026 H 
ATOM     39  H   LIG d   1       3.412   2.164  -1.912  0.00  0.00     0.026 H 
ATOM     40  H   LIG d   1       5.051   1.552  -2.240  0.00  0.00     0.026 H 
ENDBRANCH  34  37
ENDBRANCH  33  34
ENDBRANCH   7  33
TORSDOF 7
ENDMDL
MODEL 8
REMARK VINA RESULT:      -5.5      5.141      7.335
REMARK  7 active torsions:
REMARK  status: ('A' for Active; 'I' for Inactive)
REMARK    1  A    between atoms: C_1  and  C_2 
REMARK    2  A    between atoms: C_2  and  C_3 
REMARK       I    between atoms: C_3  and  N_5 
REMARK       I    between atoms: N_5  and  C_6 
REMARK       I    between atoms: C_6  and  N_7 
REMARK       I    between atoms: C_6  and  N_8 
REMARK    3  A    between atoms: N_8  and  C_9 
REMARK    4  A    between atoms: C_11  and  C_22 
REMARK    5  A    between atoms: C_15  and  O_19 
REMARK    6  A    between atoms: O_19  and  C_20 
REMARK    7  A    between atoms: C_20  and  C_21 
ROOT
ATOM      1  C   LIG d   1       6.672   0.297  -6.305  0.00  0.00     0.293 A 
ATOM      2  N   LIG d   1       7.050   0.909  -7.425  0.00  0.00    -0.203 NA
ATOM      3  C   LIG d   1       7.922   1.896  -7.411  0.00  0.00     0.052 A 
ATOM      4  C   LIG d   1       8.458   2.301  -6.176  0.00  0.00     0.022 A 
ATOM      5  C   LIG d   1       9.392   3.344  -6.078  0.00  0.00    -0.047 A 
ATOM      6  C   LIG d   1       9.881   3.700  -4.859  0.00  0.00    -0.019 A 
ATOM      7  C   LIG d   1       9.466   3.038  -3.698  0.00  0.00     0.122 A 
ATOM      8  C   LIG d   1       8.552   2.010  -3.761  0.00  0.00     0.006 A 
ATOM      9  C   LIG d   1       8.031   1.625  -5.002  0.00  0.00     0.081 A 
ATOM     10  N   LIG d   1       7.136   0.636  -5.118  0.00  0.00    -0.198 NA
ATOM     11  H   LIG d   1       9.720   3.863  -6.967  0.00  0.00     0.063 H 
ATOM     12  H   LIG d   1      10.599   4.504  -4.788  0.00  0.00     0.065 H 
ATOM     13  H   LIG d   1       8.239   1.504  -2.859  0.00  0.00     0.068 H 
ENDROOT
BRANCH   1  14
ATOM     14  N   LIG d   1       5.749  -0.736  -6.389  0.00  0.00    -0.210 N 
ATOM     15  C   LIG d   1       4.749  -0.836  -5.464  0.00  0.00     0.419 C 
ATOM     16  N   LIG d   1       4.595   0.111  -4.549  0.00  0.00    -0.002 NA
ATOM     17  N   LIG d   1       3.910  -1.909  -5.482  0.00  0.00    -0.128 NA
ATOM     18  C   LIG d   1       3.620   0.014  -3.647  0.00  0.00     0.310 C 
ATOM     19  O   LIG d   1       2.871  -0.943  -3.663  0.00  0.00    -0.254 OA
ATOM     20  H   LIG d   1       3.975  -2.565  -6.193  0.00  0.00     0.306 HD
ATOM     21  H   LIG d   1       5.815  -1.388  -7.105  0.00  0.00     0.268 HD
BRANCH  18  22
ATOM     22  C   LIG d   1       3.445   1.091  -2.608  0.00  0.00     0.040 C 
ATOM     23  H   LIG d   1       2.494   0.950  -2.095  0.00  0.00     0.037 H 
ATOM     24  H   LIG d   1       3.455   2.068  -3.091  0.00  0.00     0.037 H 
BRANCH  22  25
ATOM     25  C   LIG d   1       4.588   1.012  -1.594  0.00  0.00    -0.056 C 
ATOM     26  H   LIG d   1       5.052   1.992  -1.491  0.00  0.00     0.024 H 
ATOM     27  H   LIG d   1       4.196   0.692  -0.628  0.00  0.00     0.024 H 
ATOM     28  H   LIG d   1       5.331   0.292  -1.940  0.00  0.00     0.024 H 
ENDBRANCH  22  25
ENDBRANCH  18  22
ENDBRANCH   1  14
BRANCH   3  29
ATOM     29  C   LIG d   1       8.337   2.576  -8.691  0.00  0.00    -0.021 C 
ATOM     30  H   LIG d   1       7.515   2.537  -9.406  0.00  0.00     0.029 H 
ATOM     31  H   LIG d   1       8.590   3.615  -8.484  0.00  0.00     0.029 H 
ATOM     32  H   LIG d   1       9.206   2.065  -9.108  0.00  0.00     0.029 H 
ENDBRANCH   3  29
BRANCH   7  33
ATOM     33  O   LIG d   1       9.972   3.414  -2.496  0.00  0.00    -0.492 OA
BRANCH  33  34
ATOM     34  C   LIG d   1      10.905   4.497  -2.494  0.00  0.00     0.087 C 
ATOM     35  H   LIG d   1      11.847   4.162  -2.060  0.00  0.00     0.069 H 
ATOM     36  H   LIG d   1      11.075   4.832  -3.516  0.00  0.00     0.069 H 
BRANCH  34  37
ATOM     37  C   LIG d   1      10.343   5.653  -1.664  0.00  0.00    -0.031 C 
ATOM     38  H   LIG d   1       9.299   5.818  -1.932  0.00  0.00     0.026 H 
ATOM     39  H   LIG d   1      10.411   5.407  -0.605  0.00  0.00     0.026 H 
ATOM     40  H   LIG d   1      10.916   6.558  -1.865  0.00  0.00     0.026 H 
ENDBRANCH  34  37
ENDBRANCH  33  34
ENDBRANCH   7  33
TORSDOF 7
ENDMDL
MODEL 9
REMARK VINA RESULT:      -5.5     11.630     15.580
REMARK  7 active torsions:
REMARK  status: ('A' for Active; 'I' for Inactive)
REMARK    1  A    between atoms: C_1  and  C_2 
REMARK    2  A    between atoms: C_2  and  C_3 
REMARK       I    between atoms: C_3  and  N_5 
REMARK       I    between atoms: N_5  and  C_6 
REMARK       I    between atoms: C_6  and  N_7 
REMARK       I    between atoms: C_6  and  N_8 
REMARK    3  A    between atoms: N_8  and  C_9 
REMARK    4  A    between atoms: C_11  and  C_22 
REMARK    5  A    between atoms: C_15  and  O_19 
REMARK    6  A    between atoms: O_19  and  C_20 
REMARK    7  A    between atoms: C_20  and  C_21 
ROOT
ATOM      1  C   LIG d   1       9.227   9.440  -1.079  0.00  0.00     0.293 A 
ATOM      2  N   LIG d   1      10.024   9.713  -0.049  0.00  0.00    -0.203 NA
ATOM      3  C   LIG d   1      10.863   8.818   0.431  0.00  0.00     0.052 A 
ATOM      4  C   LIG d   1      10.905   7.548  -0.170  0.00  0.00     0.022 A 
ATOM      5  C   LIG d   1      11.771   6.541   0.284  0.00  0.00    -0.047 A 
ATOM      6  C   LIG d   1      11.775   5.327  -0.330  0.00  0.00    -0.019 A 
ATOM      7  C   LIG d   1      10.926   5.067  -1.412  0.00  0.00     0.122 A 
ATOM      8  C   LIG d   1      10.066   6.034  -1.881  0.00  0.00     0.006 A 
ATOM      9  C   LIG d   1      10.040   7.292  -1.266  0.00  0.00     0.081 A 
ATOM     10  N   LIG d   1       9.218   8.266  -1.679  0.00  0.00    -0.198 NA
ATOM     11  H   LIG d   1      12.432   6.729   1.118  0.00  0.00     0.063 H 
ATOM     12  H   LIG d   1      12.442   4.554   0.022  0.00  0.00     0.065 H 
ATOM     13  H   LIG d   1       9.414   5.824  -2.717  0.00  0.00     0.068 H 
ENDROOT
BRANCH   1  14
ATOM     14  N   LIG d   1       8.365  10.427  -1.537  0.00  0.00    -0.210 N 
ATOM     15  C   LIG d   1       8.653  11.106  -2.686  0.00  0.00     0.419 C 
ATOM     16  N   LIG d   1       9.698  10.752  -3.421  0.00  0.00    -0.002 NA
ATOM     17  N   LIG d   1       7.867  12.148  -3.076  0.00  0.00    -0.128 NA
ATOM     18  C   LIG d   1       9.979  11.414  -4.543  0.00  0.00     0.310 C 
ATOM     19  O   LIG d   1       9.277  12.343  -4.891  0.00  0.00    -0.254 OA
ATOM     20  H   LIG d   1       7.062  12.361  -2.580  0.00  0.00     0.306 HD
ATOM     21  H   LIG d   1       7.558  10.635  -1.039  0.00  0.00     0.268 HD
BRANCH  18  22
ATOM     22  C   LIG d   1      11.166  11.011  -5.379  0.00  0.00     0.040 C 
ATOM     23  H   LIG d   1      12.079  11.387  -4.918  0.00  0.00     0.037 H 
ATOM     24  H   LIG d   1      11.065  11.430  -6.380  0.00  0.00     0.037 H 
BRANCH  22  25
ATOM     25  C   LIG d   1      11.231   9.484  -5.469  0.00  0.00    -0.056 C 
ATOM     26  H   LIG d   1      10.309   9.107  -5.912  0.00  0.00     0.024 H 
ATOM     27  H   LIG d   1      12.078   9.194  -6.090  0.00  0.00     0.024 H 
ATOM     28  H   LIG d   1      11.352   9.066  -4.469  0.00  0.00     0.024 H 
ENDBRANCH  22  25
ENDBRANCH  18  22
ENDBRANCH   1  14
BRANCH   3  29
ATOM     29  C   LIG d   1      11.758   9.149   1.598  0.00  0.00    -0.021 C 
ATOM     30  H   LIG d   1      12.086   8.227   2.076  0.00  0.00     0.029 H 
ATOM     31  H   LIG d   1      12.625   9.705   1.244  0.00  0.00     0.029 H 
ATOM     32  H   LIG d   1      11.206   9.755   2.318  0.00  0.00     0.029 H 
ENDBRANCH   3  29
BRANCH   7  33
ATOM     33  O   LIG d   1      10.952   3.847  -2.005  0.00  0.00    -0.492 OA
BRANCH  33  34
ATOM     34  C   LIG d   1      10.433   3.759  -3.335  0.00  0.00     0.087 C 
ATOM     35  H   LIG d   1       9.896   4.676  -3.575  0.00  0.00     0.069 H 
ATOM     36  H   LIG d   1      11.256   3.626  -4.037  0.00  0.00     0.069 H 
BRANCH  34  37
ATOM     37  C   LIG d   1       9.480   2.567  -3.433  0.00  0.00    -0.031 C 
ATOM     38  H   LIG d   1       8.511   2.842  -3.014  0.00  0.00     0.026 H 
ATOM     39  H   LIG d   1       9.356   2.286  -4.479  0.00  0.00     0.026 H 
ATOM     40  H   LIG d   1       9.890   1.725  -2.876  0.00  0.00     0.026 H 
ENDBRANCH  34  37
ENDBRANCH  33  34
ENDBRANCH   7  33
TORSDOF 7
ENDMDL
MODEL 10
REMARK VINA RESULT:      -5.5      4.500      7.452
REMARK  7 active torsions:
REMARK  status: ('A' for Active; 'I' for Inactive)
REMARK    1  A    between atoms: C_1  and  C_2 
REMARK    2  A    between atoms: C_2  and  C_3 
REMARK       I    between atoms: C_3  and  N_5 
REMARK       I    between atoms: N_5  and  C_6 
REMARK       I    between atoms: C_6  and  N_7 
REMARK       I    between atoms: C_6  and  N_8 
REMARK    3  A    between atoms: N_8  and  C_9 
REMARK    4  A    between atoms: C_11  and  C_22 
REMARK    5  A    between atoms: C_15  and  O_19 
REMARK    6  A    between atoms: O_19  and  C_20 
REMARK    7  A    between atoms: C_20  and  C_21 
ROOT
ATOM      1  C   LIG d   1       3.611  -0.378  -6.035  0.00  0.00     0.293 A 
ATOM      2  N   LIG d   1       3.464   0.304  -4.902  0.00  0.00    -0.203 NA
ATOM      3  C   LIG d   1       4.241   0.088  -3.860  0.00  0.00     0.052 A 
ATOM      4  C   LIG d   1       5.246  -0.889  -3.964  0.00  0.00     0.022 A 
ATOM      5  C   LIG d   1       6.114  -1.178  -2.899  0.00  0.00    -0.047 A 
ATOM      6  C   LIG d   1       7.070  -2.133  -3.047  0.00  0.00    -0.019 A 
ATOM      7  C   LIG d   1       7.203  -2.835  -4.251  0.00  0.00     0.122 A 
ATOM      8  C   LIG d   1       6.369  -2.574  -5.315  0.00  0.00     0.006 A 
ATOM      9  C   LIG d   1       5.374  -1.597  -5.188  0.00  0.00     0.081 A 
ATOM     10  N   LIG d   1       4.532  -1.310  -6.189  0.00  0.00    -0.198 NA
ATOM     11  H   LIG d   1       6.021  -0.643  -1.965  0.00  0.00     0.063 H 
ATOM     12  H   LIG d   1       7.736  -2.353  -2.226  0.00  0.00     0.065 H 
ATOM     13  H   LIG d   1       6.479  -3.121  -6.240  0.00  0.00     0.068 H 
ENDROOT
BRANCH   1  14
ATOM     14  N   LIG d   1       2.759  -0.103  -7.095  0.00  0.00    -0.210 N 
ATOM     15  C   LIG d   1       3.178   0.701  -8.118  0.00  0.00     0.419 C 
ATOM     16  N   LIG d   1       4.431   1.131  -8.151  0.00  0.00    -0.002 NA
ATOM     17  N   LIG d   1       2.307   1.059  -9.102  0.00  0.00    -0.128 NA
ATOM     18  C   LIG d   1       4.839   1.915  -9.149  0.00  0.00     0.310 C 
ATOM     19  O   LIG d   1       4.063   2.235 -10.026  0.00  0.00    -0.254 OA
ATOM     20  H   LIG d   1       1.412   0.687  -9.118  0.00  0.00     0.306 HD
ATOM     21  H   LIG d   1       1.865  -0.481  -7.110  0.00  0.00     0.268 HD
BRANCH  18  22
ATOM     22  C   LIG d   1       6.264   2.404  -9.187  0.00  0.00     0.040 C 
ATOM     23  H   LIG d   1       6.296   3.454  -8.897  0.00  0.00     0.037 H 
ATOM     24  H   LIG d   1       6.659   2.295 -10.197  0.00  0.00     0.037 H 
BRANCH  22  25
ATOM     25  C   LIG d   1       7.113   1.580  -8.216  0.00  0.00    -0.056 C 
ATOM     26  H   LIG d   1       6.627   0.621  -8.033  0.00  0.00     0.024 H 
ATOM     27  H   LIG d   1       8.099   1.411  -8.649  0.00  0.00     0.024 H 
ATOM     28  H   LIG d   1       7.216   2.121  -7.275  0.00  0.00     0.024 H 
ENDBRANCH  22  25
ENDBRANCH  18  22
ENDBRANCH   1  14
BRANCH   3  29
ATOM     29  C   LIG d   1       4.057   0.872  -2.586  0.00  0.00    -0.021 C 
ATOM     30  H   LIG d   1       4.809   0.566  -1.859  0.00  0.00     0.029 H 
ATOM     31  H   LIG d   1       4.165   1.936  -2.795  0.00  0.00     0.029 H 
ATOM     32  H   LIG d   1       3.062   0.680  -2.182  0.00  0.00     0.029 H 
ENDBRANCH   3  29
BRANCH   7  33
ATOM     33  O   LIG d   1       8.168  -3.782  -4.371  0.00  0.00    -0.492 OA
BRANCH  33  34
ATOM     34  C   LIG d   1       9.076  -3.928  -3.276  0.00  0.00     0.087 C 
ATOM     35  H   LIG d   1       8.838  -3.191  -2.508  0.00  0.00     0.069 H 
ATOM     36  H   LIG d   1       8.983  -4.930  -2.859  0.00  0.00     0.069 H 
BRANCH  34  37
ATOM     37  C   LIG d   1      10.507  -3.709  -3.768  0.00  0.00    -0.031 C 
ATOM     38  H   LIG d   1      10.641  -4.208  -4.729  0.00  0.00     0.026 H 
ATOM     39  H   LIG d   1      10.693  -2.642  -3.884  0.00  0.00     0.026 H 
ATOM     40  H   LIG d   1      11.208  -4.123  -3.044  0.00  0.00     0.026 H 
ENDBRANCH  34  37
ENDBRANCH  33  34
ENDBRANCH   7  33
TORSDOF 7
ENDMDL
