MODEL 1
REMARK VINA RESULT:      -7.5      0.000      0.000
REMARK  8 active torsions:
REMARK  status: ('A' for Active; 'I' for Inactive)
REMARK    1  A    between atoms: C_1  and  O_2 
REMARK    2  A    between atoms: O_2  and  C_3 
REMARK    3  A    between atoms: C_3  and  C_5 
REMARK    4  A    between atoms: C_21  and  C_31 
REMARK    5  A    between atoms: C_24  and  N_27 
REMARK    6  A    between atoms: N_27  and  C_28 
REMARK    7  A    between atoms: C_34  and  O_37 
REMARK    8  A    between atoms: O_37  and  C_38 
ROOT
ATOM      1  C   LIG d   1       5.785  -4.149  -5.771  0.00  0.00     0.113 C 
ATOM      2  H   LIG d   1       6.089  -3.466  -6.564  0.00  0.00     0.058 H 
ATOM      3  C   LIG d   1       6.917  -5.146  -5.491  0.00  0.00     0.001 C 
ATOM      4  C   LIG d   1       8.033  -4.407  -4.796  0.00  0.00    -0.016 A 
ATOM      5  C   LIG d   1       9.410  -4.803  -4.600  0.00  0.00     0.003 A 
ATOM      6  C   LIG d   1      10.133  -5.942  -4.969  0.00  0.00    -0.052 A 
ATOM      7  C   LIG d   1      11.457  -5.981  -4.608  0.00  0.00    -0.061 A 
ATOM      8  C   LIG d   1      12.060  -4.947  -3.910  0.00  0.00    -0.060 A 
ATOM      9  C   LIG d   1      11.369  -3.809  -3.532  0.00  0.00    -0.038 A 
ATOM     10  C   LIG d   1      10.023  -3.741  -3.886  0.00  0.00     0.047 A 
ATOM     11  N   LIG d   1       9.069  -2.787  -3.678  0.00  0.00    -0.356 N 
ATOM     12  H   LIG d   1       9.212  -1.948  -3.212  0.00  0.00     0.166 HD
ATOM     13  C   LIG d   1       7.883  -3.190  -4.226  0.00  0.00     0.038 A 
ATOM     14  C   LIG d   1       6.573  -2.441  -4.231  0.00  0.00     0.057 C 
ATOM     15  H   LIG d   1       6.606  -1.653  -4.983  0.00  0.00     0.053 H 
ATOM     16  N   LIG d   1       5.493  -3.385  -4.553  0.00  0.00    -0.274 N 
ATOM     17  C   LIG d   1       4.201  -2.693  -4.641  0.00  0.00     0.042 C 
ATOM     18  H   LIG d   1       3.425  -3.406  -4.920  0.00  0.00     0.051 H 
ATOM     19  C   LIG d   1       3.864  -2.078  -3.279  0.00  0.00     0.010 C 
ATOM     20  C   LIG d   1       4.969  -1.100  -2.874  0.00  0.00    -0.019 C 
ATOM     21  H   LIG d   1       5.011  -0.282  -3.593  0.00  0.00     0.085 H 
ATOM     22  C   LIG d   1       6.318  -1.825  -2.854  0.00  0.00     0.011 C 
ATOM     23  H   LIG d   1       6.551  -5.948  -4.849  0.00  0.00     0.033 H 
ATOM     24  H   LIG d   1       7.281  -5.563  -6.430  0.00  0.00     0.033 H 
ATOM     25  H   LIG d   1       9.672  -6.752  -5.513  0.00  0.00     0.062 H 
ATOM     26  H   LIG d   1      12.047  -6.844  -4.876  0.00  0.00     0.062 H 
ATOM     27  H   LIG d   1      13.106  -5.032  -3.652  0.00  0.00     0.062 H 
ATOM     28  H   LIG d   1      11.852  -3.010  -2.988  0.00  0.00     0.064 H 
ATOM     29  H   LIG d   1       2.914  -1.548  -3.346  0.00  0.00     0.034 H 
ATOM     30  H   LIG d   1       3.787  -2.869  -2.533  0.00  0.00     0.034 H 
ATOM     31  H   LIG d   1       6.292  -2.612  -2.101  0.00  0.00     0.034 H 
ATOM     32  H   LIG d   1       7.114  -1.118  -2.618  0.00  0.00     0.034 H 
ENDROOT
BRANCH  17  33
ATOM     33  C   LIG d   1       4.282  -1.605  -5.680  0.00  0.00    -0.030 A 
ATOM     34  C   LIG d   1       5.326  -1.595  -6.587  0.00  0.00    -0.054 A 
ATOM     35  C   LIG d   1       5.401  -0.602  -7.545  0.00  0.00    -0.019 A 
ATOM     36  H   LIG d   1       6.083  -2.365  -6.549  0.00  0.00     0.062 H 
ATOM     37  C   LIG d   1       4.433   0.391  -7.589  0.00  0.00     0.130 A 
ATOM     38  H   LIG d   1       6.214  -0.596  -8.254  0.00  0.00     0.065 H 
ATOM     39  C   LIG d   1       3.389   0.380  -6.675  0.00  0.00    -0.019 A 
ATOM     40  C   LIG d   1       3.316  -0.617  -5.723  0.00  0.00    -0.054 A 
ATOM     41  H   LIG d   1       2.634   1.152  -6.708  0.00  0.00     0.065 H 
ATOM     42  H   LIG d   1       2.505  -0.626  -5.011  0.00  0.00     0.062 H 
BRANCH  37  43
ATOM     43  O   LIG d   1       4.506   1.371  -8.527  0.00  0.00    -0.406 OA
BRANCH  43  44
ATOM     44  C   LIG d   1       3.467   1.411  -9.507  0.00  0.00     0.575 C 
ATOM     45  F   LIG d   1       3.965   1.960 -10.693  0.00  0.00    -0.133 F 
ATOM     46  F   LIG d   1       3.007   0.113  -9.752  0.00  0.00    -0.133 F 
ATOM     47  F   LIG d   1       2.412   2.200  -9.035  0.00  0.00    -0.133 F 
ENDBRANCH  43  44
ENDBRANCH  37  43
ENDBRANCH  17  33
BRANCH   1  48
ATOM     48  C   LIG d   1       4.550  -4.899  -6.201  0.00  0.00     0.325 C 
ATOM     49  O   LIG d   1       4.044  -5.707  -5.457  0.00  0.00    -0.249 OA
BRANCH  48  50
ATOM     50  O   LIG d   1       4.011  -4.669  -7.408  0.00  0.00    -0.467 OA
BRANCH  50  51
ATOM     51  C   LIG d   1       3.830  -5.798  -8.265  0.00  0.00     0.082 C 
ATOM     52  H   LIG d   1       3.774  -6.705  -7.664  0.00  0.00     0.066 H 
ATOM     53  H   LIG d   1       2.907  -5.679  -8.832  0.00  0.00     0.066 H 
ATOM     54  H   LIG d   1       4.673  -5.869  -8.953  0.00  0.00     0.066 H 
ENDBRANCH  50  51
ENDBRANCH  48  50
ENDBRANCH   1  48
BRANCH  20  55
ATOM     55  N   LIG d   1       4.681  -0.562  -1.538  0.00  0.00     0.231 N 
ATOM     56  H   LIG d   1       3.800  -0.929  -1.209  0.00  0.00     0.202 HD
ATOM     57  H   LIG d   1       5.416  -0.830  -0.900  0.00  0.00     0.202 HD
BRANCH  55  58
ATOM     58  C   LIG d   1       4.605   0.904  -1.607  0.00  0.00    -0.022 A 
ATOM     59  C   LIG d   1       4.912   1.565  -2.953  0.00  0.00    -0.005 A 
ATOM     60  C   LIG d   1       3.473   1.513  -2.438  0.00  0.00    -0.005 A 
ATOM     61  H   LIG d   1       5.419   2.529  -2.935  0.00  0.00     0.032 H 
ATOM     62  H   LIG d   1       5.172   0.912  -3.786  0.00  0.00     0.032 H 
ATOM     63  H   LIG d   1       2.786   0.826  -2.932  0.00  0.00     0.032 H 
ATOM     64  H   LIG d   1       3.032   2.444  -2.081  0.00  0.00     0.032 H 
ATOM     65  H   LIG d   1       4.909   1.434  -0.704  0.00  0.00     0.085 H 
ENDBRANCH  55  58
ENDBRANCH  20  55
TORSDOF 8
ENDMDL
MODEL 2
REMARK VINA RESULT:      -7.3      3.557      6.852
REMARK  8 active torsions:
REMARK  status: ('A' for Active; 'I' for Inactive)
REMARK    1  A    between atoms: C_1  and  O_2 
REMARK    2  A    between atoms: O_2  and  C_3 
REMARK    3  A    between atoms: C_3  and  C_5 
REMARK    4  A    between atoms: C_21  and  C_31 
REMARK    5  A    between atoms: C_24  and  N_27 
REMARK    6  A    between atoms: N_27  and  C_28 
REMARK    7  A    between atoms: C_34  and  O_37 
REMARK    8  A    between atoms: O_37  and  C_38 
ROOT
ATOM      1  C   LIG d   1       4.199  -4.401  -6.921  0.00  0.00     0.113 C 
ATOM      2  H   LIG d   1       3.631  -3.786  -6.222  0.00  0.00     0.058 H 
ATOM      3  C   LIG d   1       3.376  -4.619  -8.197  0.00  0.00     0.001 C 
ATOM      4  C   LIG d   1       3.336  -3.317  -8.958  0.00  0.00    -0.016 A 
ATOM      5  C   LIG d   1       2.461  -2.913 -10.036  0.00  0.00     0.003 A 
ATOM      6  C   LIG d   1       1.412  -3.556 -10.699  0.00  0.00    -0.052 A 
ATOM      7  C   LIG d   1       0.785  -2.854 -11.699  0.00  0.00    -0.061 A 
ATOM      8  C   LIG d   1       1.166  -1.567 -12.044  0.00  0.00    -0.060 A 
ATOM      9  C   LIG d   1       2.200  -0.907 -11.403  0.00  0.00    -0.038 A 
ATOM     10  C   LIG d   1       2.854  -1.595 -10.384  0.00  0.00     0.047 A 
ATOM     11  N   LIG d   1       3.890  -1.249  -9.565  0.00  0.00    -0.356 N 
ATOM     12  H   LIG d   1       4.356  -0.398  -9.583  0.00  0.00     0.166 HD
ATOM     13  C   LIG d   1       4.173  -2.282  -8.714  0.00  0.00     0.038 A 
ATOM     14  C   LIG d   1       5.236  -2.325  -7.644  0.00  0.00     0.057 C 
ATOM     15  H   LIG d   1       4.904  -1.755  -6.777  0.00  0.00     0.053 H 
ATOM     16  N   LIG d   1       5.457  -3.726  -7.257  0.00  0.00    -0.274 N 
ATOM     17  C   LIG d   1       6.435  -3.820  -6.167  0.00  0.00     0.042 C 
ATOM     18  H   LIG d   1       6.551  -4.863  -5.871  0.00  0.00     0.051 H 
ATOM     19  C   LIG d   1       7.782  -3.272  -6.647  0.00  0.00     0.010 C 
ATOM     20  C   LIG d   1       7.612  -1.817  -7.089  0.00  0.00    -0.019 C 
ATOM     21  H   LIG d   1       7.306  -1.211  -6.237  0.00  0.00     0.085 H 
ATOM     22  C   LIG d   1       6.540  -1.732  -8.180  0.00  0.00     0.011 C 
ATOM     23  H   LIG d   1       3.845  -5.389  -8.811  0.00  0.00     0.033 H 
ATOM     24  H   LIG d   1       2.363  -4.923  -7.935  0.00  0.00     0.033 H 
ATOM     25  H   LIG d   1       1.108  -4.559 -10.439  0.00  0.00     0.062 H 
ATOM     26  H   LIG d   1      -0.029  -3.318 -12.234  0.00  0.00     0.062 H 
ATOM     27  H   LIG d   1       0.637  -1.062 -12.840  0.00  0.00     0.062 H 
ATOM     28  H   LIG d   1       2.486   0.098 -11.682  0.00  0.00     0.064 H 
ATOM     29  H   LIG d   1       8.505  -3.324  -5.833  0.00  0.00     0.034 H 
ATOM     30  H   LIG d   1       8.137  -3.868  -7.487  0.00  0.00     0.034 H 
ATOM     31  H   LIG d   1       6.868  -2.297  -9.052  0.00  0.00     0.034 H 
ATOM     32  H   LIG d   1       6.379  -0.690  -8.459  0.00  0.00     0.034 H 
ENDROOT
BRANCH  17  33
ATOM     33  C   LIG d   1       5.953  -3.014  -4.988  0.00  0.00    -0.030 A 
ATOM     34  C   LIG d   1       6.859  -2.560  -4.047  0.00  0.00    -0.054 A 
ATOM     35  C   LIG d   1       6.421  -1.816  -2.968  0.00  0.00    -0.019 A 
ATOM     36  H   LIG d   1       7.911  -2.784  -4.157  0.00  0.00     0.062 H 
ATOM     37  C   LIG d   1       5.071  -1.534  -2.824  0.00  0.00     0.130 A 
ATOM     38  H   LIG d   1       7.130  -1.459  -2.236  0.00  0.00     0.065 H 
ATOM     39  C   LIG d   1       4.164  -1.995  -3.767  0.00  0.00    -0.019 A 
ATOM     40  C   LIG d   1       4.607  -2.734  -4.847  0.00  0.00    -0.054 A 
ATOM     41  H   LIG d   1       3.112  -1.776  -3.657  0.00  0.00     0.065 H 
ATOM     42  H   LIG d   1       3.902  -3.094  -5.581  0.00  0.00     0.062 H 
BRANCH  37  43
ATOM     43  O   LIG d   1       4.637  -0.806  -1.761  0.00  0.00    -0.406 OA
BRANCH  43  44
ATOM     44  C   LIG d   1       4.378   0.581  -1.987  0.00  0.00     0.575 C 
ATOM     45  F   LIG d   1       4.742   1.314  -0.853  0.00  0.00    -0.133 F 
ATOM     46  F   LIG d   1       5.122   1.022  -3.086  0.00  0.00    -0.133 F 
ATOM     47  F   LIG d   1       3.014   0.764  -2.243  0.00  0.00    -0.133 F 
ENDBRANCH  43  44
ENDBRANCH  37  43
ENDBRANCH  17  33
BRANCH   1  48
ATOM     48  C   LIG d   1       4.500  -5.734  -6.284  0.00  0.00     0.325 C 
ATOM     49  O   LIG d   1       4.082  -5.984  -5.178  0.00  0.00    -0.249 OA
BRANCH  48  50
ATOM     50  O   LIG d   1       5.232  -6.644  -6.945  0.00  0.00    -0.467 OA
BRANCH  50  51
ATOM     51  C   LIG d   1       4.679  -7.957  -7.069  0.00  0.00     0.082 C 
ATOM     52  H   LIG d   1       5.393  -8.605  -7.576  0.00  0.00     0.066 H 
ATOM     53  H   LIG d   1       4.467  -8.355  -6.076  0.00  0.00     0.066 H 
ATOM     54  H   LIG d   1       3.756  -7.909  -7.646  0.00  0.00     0.066 H 
ENDBRANCH  50  51
ENDBRANCH  48  50
ENDBRANCH   1  48
BRANCH  20  55
ATOM     55  N   LIG d   1       8.888  -1.313  -7.615  0.00  0.00     0.231 N 
ATOM     56  H   LIG d   1       9.627  -1.959  -7.382  0.00  0.00     0.202 HD
ATOM     57  H   LIG d   1       8.826  -1.219  -8.617  0.00  0.00     0.202 HD
BRANCH  55  58
ATOM     58  C   LIG d   1       9.179  -0.002  -7.018  0.00  0.00    -0.022 A 
ATOM     59  C   LIG d   1       8.850   0.187  -5.535  0.00  0.00    -0.005 A 
ATOM     60  C   LIG d   1      10.307   0.068  -5.986  0.00  0.00    -0.005 A 
ATOM     61  H   LIG d   1       8.499   1.169  -5.219  0.00  0.00     0.032 H 
ATOM     62  H   LIG d   1       8.418  -0.660  -5.003  0.00  0.00     0.032 H 
ATOM     63  H   LIG d   1      10.832  -0.857  -5.751  0.00  0.00     0.032 H 
ATOM     64  H   LIG d   1      10.915   0.973  -5.967  0.00  0.00     0.032 H 
ATOM     65  H   LIG d   1       9.044   0.856  -7.676  0.00  0.00     0.085 H 
ENDBRANCH  55  58
ENDBRANCH  20  55
TORSDOF 8
ENDMDL
MODEL 3
REMARK VINA RESULT:      -6.9      4.141      7.637
REMARK  8 active torsions:
REMARK  status: ('A' for Active; 'I' for Inactive)
REMARK    1  A    between atoms: C_1  and  O_2 
REMARK    2  A    between atoms: O_2  and  C_3 
REMARK    3  A    between atoms: C_3  and  C_5 
REMARK    4  A    between atoms: C_21  and  C_31 
REMARK    5  A    between atoms: C_24  and  N_27 
REMARK    6  A    between atoms: N_27  and  C_28 
REMARK    7  A    between atoms: C_34  and  O_37 
REMARK    8  A    between atoms: O_37  and  C_38 
ROOT
ATOM      1  C   LIG d   1       5.303  -3.308  -6.901  0.00  0.00     0.113 C 
ATOM      2  H   LIG d   1       4.577  -4.027  -6.521  0.00  0.00     0.058 H 
ATOM      3  C   LIG d   1       4.838  -1.884  -6.567  0.00  0.00     0.001 C 
ATOM      4  C   LIG d   1       5.003  -1.673  -5.083  0.00  0.00    -0.016 A 
ATOM      5  C   LIG d   1       4.439  -0.645  -4.236  0.00  0.00     0.003 A 
ATOM      6  C   LIG d   1       3.594   0.439  -4.493  0.00  0.00    -0.052 A 
ATOM      7  C   LIG d   1       3.252   1.227  -3.421  0.00  0.00    -0.061 A 
ATOM      8  C   LIG d   1       3.715   0.970  -2.141  0.00  0.00    -0.060 A 
ATOM      9  C   LIG d   1       4.551  -0.096  -1.859  0.00  0.00    -0.038 A 
ATOM     10  C   LIG d   1       4.915  -0.914  -2.927  0.00  0.00     0.047 A 
ATOM     11  N   LIG d   1       5.705  -2.025  -3.001  0.00  0.00    -0.356 N 
ATOM     12  H   LIG d   1       6.164  -2.434  -2.250  0.00  0.00     0.166 HD
ATOM     13  C   LIG d   1       5.752  -2.475  -4.291  0.00  0.00     0.038 A 
ATOM     14  C   LIG d   1       6.502  -3.673  -4.819  0.00  0.00     0.057 C 
ATOM     15  H   LIG d   1       5.960  -4.584  -4.564  0.00  0.00     0.053 H 
ATOM     16  N   LIG d   1       6.608  -3.556  -6.280  0.00  0.00    -0.274 N 
ATOM     17  C   LIG d   1       7.270  -4.734  -6.854  0.00  0.00     0.042 C 
ATOM     18  H   LIG d   1       7.300  -4.642  -7.940  0.00  0.00     0.051 H 
ATOM     19  C   LIG d   1       8.698  -4.827  -6.309  0.00  0.00     0.010 C 
ATOM     20  C   LIG d   1       8.656  -4.927  -4.783  0.00  0.00    -0.019 C 
ATOM     21  H   LIG d   1       8.142  -5.844  -4.492  0.00  0.00     0.085 H 
ATOM     22  C   LIG d   1       7.903  -3.723  -4.207  0.00  0.00     0.011 C 
ATOM     23  H   LIG d   1       5.446  -1.161  -7.111  0.00  0.00     0.033 H 
ATOM     24  H   LIG d   1       3.790  -1.765  -6.841  0.00  0.00     0.033 H 
ATOM     25  H   LIG d   1       3.229   0.649  -5.486  0.00  0.00     0.062 H 
ATOM     26  H   LIG d   1       2.602   2.074  -3.581  0.00  0.00     0.062 H 
ATOM     27  H   LIG d   1       3.413   1.624  -1.336  0.00  0.00     0.062 H 
ATOM     28  H   LIG d   1       4.905  -0.286  -0.855  0.00  0.00     0.064 H 
ATOM     29  H   LIG d   1       9.185  -5.712  -6.719  0.00  0.00     0.034 H 
ATOM     30  H   LIG d   1       9.256  -3.938  -6.599  0.00  0.00     0.034 H 
ATOM     31  H   LIG d   1       8.443  -2.810  -4.456  0.00  0.00     0.034 H 
ATOM     32  H   LIG d   1       7.825  -3.819  -3.124  0.00  0.00     0.034 H 
ENDROOT
BRANCH  17  33
ATOM     33  C   LIG d   1       6.503  -5.975  -6.476  0.00  0.00    -0.030 A 
ATOM     34  C   LIG d   1       5.349  -5.870  -5.721  0.00  0.00    -0.054 A 
ATOM     35  C   LIG d   1       4.640  -7.005  -5.378  0.00  0.00    -0.019 A 
ATOM     36  H   LIG d   1       4.999  -4.898  -5.403  0.00  0.00     0.062 H 
ATOM     37  C   LIG d   1       5.094  -8.252  -5.782  0.00  0.00     0.130 A 
ATOM     38  H   LIG d   1       3.738  -6.921  -4.791  0.00  0.00     0.065 H 
ATOM     39  C   LIG d   1       6.254  -8.355  -6.535  0.00  0.00    -0.019 A 
ATOM     40  C   LIG d   1       6.956  -7.217  -6.880  0.00  0.00    -0.054 A 
ATOM     41  H   LIG d   1       6.609  -9.326  -6.851  0.00  0.00     0.065 H 
ATOM     42  H   LIG d   1       7.860  -7.296  -7.466  0.00  0.00     0.062 H 
BRANCH  37  43
ATOM     43  O   LIG d   1       4.401  -9.371  -5.441  0.00  0.00    -0.406 OA
BRANCH  43  44
ATOM     44  C   LIG d   1       4.576  -9.863  -4.111  0.00  0.00     0.575 C 
ATOM     45  F   LIG d   1       4.543 -11.261  -4.122  0.00  0.00    -0.133 F 
ATOM     46  F   LIG d   1       5.809  -9.430  -3.612  0.00  0.00    -0.133 F 
ATOM     47  F   LIG d   1       3.546  -9.378  -3.296  0.00  0.00    -0.133 F 
ENDBRANCH  43  44
ENDBRANCH  37  43
ENDBRANCH  17  33
BRANCH   1  48
ATOM     48  C   LIG d   1       5.422  -3.459  -8.397  0.00  0.00     0.325 C 
ATOM     49  O   LIG d   1       6.084  -2.671  -9.032  0.00  0.00    -0.249 OA
BRANCH  48  50
ATOM     50  O   LIG d   1       4.795  -4.467  -9.022  0.00  0.00    -0.467 OA
BRANCH  50  51
ATOM     51  C   LIG d   1       3.435  -4.711  -8.658  0.00  0.00     0.082 C 
ATOM     52  H   LIG d   1       3.228  -5.779  -8.723  0.00  0.00     0.066 H 
ATOM     53  H   LIG d   1       3.266  -4.369  -7.636  0.00  0.00     0.066 H 
ATOM     54  H   LIG d   1       2.775  -4.170  -9.337  0.00  0.00     0.066 H 
ENDBRANCH  50  51
ENDBRANCH  48  50
ENDBRANCH   1  48
BRANCH  20  55
ATOM     55  N   LIG d   1      10.026  -4.947  -4.254  0.00  0.00     0.231 N 
ATOM     56  H   LIG d   1      10.585  -5.595  -4.791  0.00  0.00     0.202 HD
ATOM     57  H   LIG d   1      10.427  -4.023  -4.320  0.00  0.00     0.202 HD
BRANCH  55  58
ATOM     58  C   LIG d   1      10.003  -5.372  -2.848  0.00  0.00    -0.022 A 
ATOM     59  C   LIG d   1       9.426  -6.755  -2.537  0.00  0.00    -0.005 A 
ATOM     60  C   LIG d   1      10.934  -6.516  -2.441  0.00  0.00    -0.005 A 
ATOM     61  H   LIG d   1       8.873  -6.872  -1.605  0.00  0.00     0.032 H 
ATOM     62  H   LIG d   1       9.064  -7.349  -3.376  0.00  0.00     0.032 H 
ATOM     63  H   LIG d   1      11.563  -6.953  -3.216  0.00  0.00     0.032 H 
ATOM     64  H   LIG d   1      11.374  -6.476  -1.444  0.00  0.00     0.032 H 
ATOM     65  H   LIG d   1       9.830  -4.579  -2.120  0.00  0.00     0.085 H 
ENDBRANCH  55  58
ENDBRANCH  20  55
TORSDOF 8
ENDMDL
MODEL 4
REMARK VINA RESULT:      -6.8      3.889      6.063
REMARK  8 active torsions:
REMARK  status: ('A' for Active; 'I' for Inactive)
REMARK    1  A    between atoms: C_1  and  O_2 
REMARK    2  A    between atoms: O_2  and  C_3 
REMARK    3  A    between atoms: C_3  and  C_5 
REMARK    4  A    between atoms: C_21  and  C_31 
REMARK    5  A    between atoms: C_24  and  N_27 
REMARK    6  A    between atoms: N_27  and  C_28 
REMARK    7  A    between atoms: C_34  and  O_37 
REMARK    8  A    between atoms: O_37  and  C_38 
ROOT
ATOM      1  C   LIG d   1       7.307  -4.710  -5.719  0.00  0.00     0.113 C 
ATOM      2  H   LIG d   1       6.899  -4.347  -4.776  0.00  0.00     0.058 H 
ATOM      3  C   LIG d   1       7.933  -6.095  -5.507  0.00  0.00     0.001 C 
ATOM      4  C   LIG d   1       6.818  -7.088  -5.298  0.00  0.00    -0.016 A 
ATOM      5  C   LIG d   1       6.876  -8.431  -4.764  0.00  0.00     0.003 A 
ATOM      6  C   LIG d   1       7.928  -9.218  -4.286  0.00  0.00    -0.052 A 
ATOM      7  C   LIG d   1       7.609 -10.479  -3.844  0.00  0.00    -0.061 A 
ATOM      8  C   LIG d   1       6.310 -10.959  -3.867  0.00  0.00    -0.060 A 
ATOM      9  C   LIG d   1       5.250 -10.201  -4.334  0.00  0.00    -0.038 A 
ATOM     10  C   LIG d   1       5.543  -8.917  -4.788  0.00  0.00     0.047 A 
ATOM     11  N   LIG d   1       4.757  -7.927  -5.301  0.00  0.00    -0.356 N 
ATOM     12  H   LIG d   1       3.798  -7.987  -5.432  0.00  0.00     0.166 HD
ATOM     13  C   LIG d   1       5.524  -6.835  -5.602  0.00  0.00     0.038 A 
ATOM     14  C   LIG d   1       5.063  -5.521  -6.184  0.00  0.00     0.057 C 
ATOM     15  H   LIG d   1       4.591  -4.923  -5.404  0.00  0.00     0.053 H 
ATOM     16  N   LIG d   1       6.233  -4.805  -6.713  0.00  0.00    -0.274 N 
ATOM     17  C   LIG d   1       5.850  -3.485  -7.229  0.00  0.00     0.042 C 
ATOM     18  H   LIG d   1       6.739  -2.959  -7.578  0.00  0.00     0.051 H 
ATOM     19  C   LIG d   1       4.871  -3.662  -8.393  0.00  0.00     0.010 C 
ATOM     20  C   LIG d   1       3.636  -4.427  -7.910  0.00  0.00    -0.019 C 
ATOM     21  H   LIG d   1       3.123  -3.843  -7.146  0.00  0.00     0.085 H 
ATOM     22  C   LIG d   1       4.064  -5.772  -7.314  0.00  0.00     0.011 C 
ATOM     23  H   LIG d   1       8.515  -6.375  -6.387  0.00  0.00     0.033 H 
ATOM     24  H   LIG d   1       8.579  -6.076  -4.630  0.00  0.00     0.033 H 
ATOM     25  H   LIG d   1       8.943  -8.853  -4.265  0.00  0.00     0.062 H 
ATOM     26  H   LIG d   1       8.395 -11.116  -3.468  0.00  0.00     0.062 H 
ATOM     27  H   LIG d   1       6.117 -11.960  -3.507  0.00  0.00     0.062 H 
ATOM     28  H   LIG d   1       4.241 -10.588  -4.345  0.00  0.00     0.064 H 
ATOM     29  H   LIG d   1       4.570  -2.683  -8.766  0.00  0.00     0.034 H 
ATOM     30  H   LIG d   1       5.355  -4.223  -9.192  0.00  0.00     0.034 H 
ATOM     31  H   LIG d   1       4.533  -6.376  -8.090  0.00  0.00     0.034 H 
ATOM     32  H   LIG d   1       3.192  -6.296  -6.920  0.00  0.00     0.034 H 
ENDROOT
BRANCH  17  33
ATOM     33  C   LIG d   1       5.192  -2.688  -6.132  0.00  0.00    -0.030 A 
ATOM     34  C   LIG d   1       4.709  -1.419  -6.397  0.00  0.00    -0.054 A 
ATOM     35  C   LIG d   1       4.100  -0.688  -5.395  0.00  0.00    -0.019 A 
ATOM     36  H   LIG d   1       4.805  -1.000  -7.388  0.00  0.00     0.062 H 
ATOM     37  C   LIG d   1       3.983  -1.224  -4.121  0.00  0.00     0.130 A 
ATOM     38  H   LIG d   1       3.720   0.301  -5.603  0.00  0.00     0.065 H 
ATOM     39  C   LIG d   1       4.472  -2.495  -3.858  0.00  0.00    -0.019 A 
ATOM     40  C   LIG d   1       5.075  -3.224  -4.863  0.00  0.00    -0.054 A 
ATOM     41  H   LIG d   1       4.381  -2.914  -2.866  0.00  0.00     0.065 H 
ATOM     42  H   LIG d   1       5.457  -4.213  -4.659  0.00  0.00     0.062 H 
BRANCH  37  43
ATOM     43  O   LIG d   1       3.388  -0.505  -3.133  0.00  0.00    -0.406 OA
BRANCH  43  44
ATOM     44  C   LIG d   1       4.248   0.139  -2.191  0.00  0.00     0.575 C 
ATOM     45  F   LIG d   1       5.470   0.436  -2.802  0.00  0.00    -0.133 F 
ATOM     46  F   LIG d   1       3.650   1.323  -1.746  0.00  0.00    -0.133 F 
ATOM     47  F   LIG d   1       4.466  -0.712  -1.101  0.00  0.00    -0.133 F 
ENDBRANCH  43  44
ENDBRANCH  37  43
ENDBRANCH  17  33
BRANCH   1  48
ATOM     48  C   LIG d   1       8.362  -3.751  -6.211  0.00  0.00     0.325 C 
ATOM     49  O   LIG d   1       8.957  -3.983  -7.237  0.00  0.00    -0.249 OA
BRANCH  48  50
ATOM     50  O   LIG d   1       8.640  -2.642  -5.510  0.00  0.00    -0.467 OA
BRANCH  50  51
ATOM     51  C   LIG d   1       8.522  -2.725  -4.088  0.00  0.00     0.082 C 
ATOM     52  H   LIG d   1       7.597  -3.240  -3.830  0.00  0.00     0.066 H 
ATOM     53  H   LIG d   1       9.372  -3.277  -3.685  0.00  0.00     0.066 H 
ATOM     54  H   LIG d   1       8.508  -1.720  -3.666  0.00  0.00     0.066 H 
ENDBRANCH  50  51
ENDBRANCH  48  50
ENDBRANCH   1  48
BRANCH  20  55
ATOM     55  N   LIG d   1       2.728  -4.658  -9.041  0.00  0.00     0.231 N 
ATOM     56  H   LIG d   1       3.121  -5.361  -9.650  0.00  0.00     0.202 HD
ATOM     57  H   LIG d   1       1.834  -4.973  -8.697  0.00  0.00     0.202 HD
BRANCH  55  58
ATOM     58  C   LIG d   1       2.552  -3.406  -9.790  0.00  0.00    -0.022 A 
ATOM     59  C   LIG d   1       2.344  -3.511 -11.303  0.00  0.00    -0.005 A 
ATOM     60  C   LIG d   1       1.172  -3.134 -10.395  0.00  0.00    -0.005 A 
ATOM     61  H   LIG d   1       2.772  -2.726 -11.925  0.00  0.00     0.032 H 
ATOM     62  H   LIG d   1       2.339  -4.509 -11.742  0.00  0.00     0.032 H 
ATOM     63  H   LIG d   1       0.397  -3.883 -10.236  0.00  0.00     0.032 H 
ATOM     64  H   LIG d   1       0.829  -2.100 -10.419  0.00  0.00     0.032 H 
ATOM     65  H   LIG d   1       3.116  -2.551  -9.418  0.00  0.00     0.085 H 
ENDBRANCH  55  58
ENDBRANCH  20  55
TORSDOF 8
ENDMDL
MODEL 5
REMARK VINA RESULT:      -6.8      3.531      6.273
REMARK  8 active torsions:
REMARK  status: ('A' for Active; 'I' for Inactive)
REMARK    1  A    between atoms: C_1  and  O_2 
REMARK    2  A    between atoms: O_2  and  C_3 
REMARK    3  A    between atoms: C_3  and  C_5 
REMARK    4  A    between atoms: C_21  and  C_31 
REMARK    5  A    between atoms: C_24  and  N_27 
REMARK    6  A    between atoms: N_27  and  C_28 
REMARK    7  A    between atoms: C_34  and  O_37 
REMARK    8  A    between atoms: O_37  and  C_38 
ROOT
ATOM      1  C   LIG d   1       5.902  -1.877  -7.928  0.00  0.00     0.113 C 
ATOM      2  H   LIG d   1       4.963  -1.460  -8.291  0.00  0.00     0.058 H 
ATOM      3  C   LIG d   1       6.353  -1.110  -6.677  0.00  0.00     0.001 C 
ATOM      4  C   LIG d   1       5.437  -1.485  -5.541  0.00  0.00    -0.016 A 
ATOM      5  C   LIG d   1       5.243  -0.830  -4.266  0.00  0.00     0.003 A 
ATOM      6  C   LIG d   1       5.808   0.312  -3.690  0.00  0.00    -0.052 A 
ATOM      7  C   LIG d   1       5.376   0.651  -2.431  0.00  0.00    -0.061 A 
ATOM      8  C   LIG d   1       4.427  -0.096  -1.753  0.00  0.00    -0.060 A 
ATOM      9  C   LIG d   1       3.851  -1.230  -2.300  0.00  0.00    -0.038 A 
ATOM     10  C   LIG d   1       4.269  -1.598  -3.577  0.00  0.00     0.047 A 
ATOM     11  N   LIG d   1       3.915  -2.633  -4.392  0.00  0.00    -0.356 N 
ATOM     12  H   LIG d   1       3.264  -3.319  -4.173  0.00  0.00     0.166 HD
ATOM     13  C   LIG d   1       4.615  -2.560  -5.565  0.00  0.00     0.038 A 
ATOM     14  C   LIG d   1       4.531  -3.498  -6.745  0.00  0.00     0.057 C 
ATOM     15  H   LIG d   1       3.628  -3.283  -7.317  0.00  0.00     0.053 H 
ATOM     16  N   LIG d   1       5.713  -3.292  -7.594  0.00  0.00    -0.274 N 
ATOM     17  C   LIG d   1       5.647  -4.132  -8.796  0.00  0.00     0.042 C 
ATOM     18  H   LIG d   1       6.513  -3.932  -9.427  0.00  0.00     0.051 H 
ATOM     19  C   LIG d   1       5.645  -5.606  -8.383  0.00  0.00     0.010 C 
ATOM     20  C   LIG d   1       4.446  -5.880  -7.473  0.00  0.00    -0.019 C 
ATOM     21  H   LIG d   1       3.523  -5.700  -8.024  0.00  0.00     0.085 H 
ATOM     22  C   LIG d   1       4.497  -4.947  -6.258  0.00  0.00     0.011 C 
ATOM     23  H   LIG d   1       7.379  -1.384  -6.428  0.00  0.00     0.033 H 
ATOM     24  H   LIG d   1       6.292  -0.038  -6.861  0.00  0.00     0.033 H 
ATOM     25  H   LIG d   1       6.549   0.900  -4.209  0.00  0.00     0.062 H 
ATOM     26  H   LIG d   1       5.790   1.526  -1.954  0.00  0.00     0.062 H 
ATOM     27  H   LIG d   1       4.125   0.217  -0.763  0.00  0.00     0.062 H 
ATOM     28  H   LIG d   1       3.110  -1.803  -1.760  0.00  0.00     0.064 H 
ATOM     29  H   LIG d   1       5.577  -6.232  -9.273  0.00  0.00     0.034 H 
ATOM     30  H   LIG d   1       6.566  -5.834  -7.848  0.00  0.00     0.034 H 
ATOM     31  H   LIG d   1       5.396  -5.160  -5.680  0.00  0.00     0.034 H 
ATOM     32  H   LIG d   1       3.615  -5.102  -5.635  0.00  0.00     0.034 H 
ENDROOT
BRANCH  17  33
ATOM     33  C   LIG d   1       4.385  -3.819  -9.559  0.00  0.00    -0.030 A 
ATOM     34  C   LIG d   1       3.500  -2.876  -9.070  0.00  0.00    -0.054 A 
ATOM     35  C   LIG d   1       2.345  -2.584  -9.770  0.00  0.00    -0.019 A 
ATOM     36  H   LIG d   1       3.712  -2.366  -8.142  0.00  0.00     0.062 H 
ATOM     37  C   LIG d   1       2.070  -3.245 -10.958  0.00  0.00     0.130 A 
ATOM     38  H   LIG d   1       1.656  -1.845  -9.389  0.00  0.00     0.065 H 
ATOM     39  C   LIG d   1       2.958  -4.193 -11.443  0.00  0.00    -0.019 A 
ATOM     40  C   LIG d   1       4.113  -4.478 -10.743  0.00  0.00    -0.054 A 
ATOM     41  H   LIG d   1       2.745  -4.708 -12.369  0.00  0.00     0.065 H 
ATOM     42  H   LIG d   1       4.805  -5.217 -11.120  0.00  0.00     0.062 H 
BRANCH  37  43
ATOM     43  O   LIG d   1       0.932  -2.961 -11.646  0.00  0.00    -0.406 OA
BRANCH  43  44
ATOM     44  C   LIG d   1       0.910  -1.742 -12.390  0.00  0.00     0.575 C 
ATOM     45  F   LIG d   1       0.444  -0.706 -11.574  0.00  0.00    -0.133 F 
ATOM     46  F   LIG d   1       2.203  -1.441 -12.831  0.00  0.00    -0.133 F 
ATOM     47  F   LIG d   1       0.061  -1.885 -13.494  0.00  0.00    -0.133 F 
ENDBRANCH  43  44
ENDBRANCH  37  43
ENDBRANCH  17  33
BRANCH   1  48
ATOM     48  C   LIG d   1       6.954  -1.751  -9.001  0.00  0.00     0.325 C 
ATOM     49  O   LIG d   1       8.092  -2.090  -8.773  0.00  0.00    -0.249 OA
BRANCH  48  50
ATOM     50  O   LIG d   1       6.628  -1.264 -10.208  0.00  0.00    -0.467 OA
BRANCH  50  51
ATOM     51  C   LIG d   1       5.723  -0.158 -10.239  0.00  0.00     0.082 C 
ATOM     52  H   LIG d   1       5.654   0.226 -11.256  0.00  0.00     0.066 H 
ATOM     53  H   LIG d   1       4.737  -0.487  -9.906  0.00  0.00     0.066 H 
ATOM     54  H   LIG d   1       6.087   0.627  -9.576  0.00  0.00     0.066 H 
ENDBRANCH  50  51
ENDBRANCH  48  50
ENDBRANCH   1  48
BRANCH  20  55
ATOM     55  N   LIG d   1       4.482  -7.277  -7.020  0.00  0.00     0.231 N 
ATOM     56  H   LIG d   1       3.550  -7.665  -7.052  0.00  0.00     0.202 HD
ATOM     57  H   LIG d   1       5.089  -7.811  -7.622  0.00  0.00     0.202 HD
BRANCH  55  58
ATOM     58  C   LIG d   1       4.987  -7.331  -5.642  0.00  0.00    -0.022 A 
ATOM     59  C   LIG d   1       4.883  -8.668  -4.904  0.00  0.00    -0.005 A 
ATOM     60  C   LIG d   1       6.245  -8.165  -5.384  0.00  0.00    -0.005 A 
ATOM     61  H   LIG d   1       4.683  -8.637  -3.833  0.00  0.00     0.032 H 
ATOM     62  H   LIG d   1       4.439  -9.506  -5.441  0.00  0.00     0.032 H 
ATOM     63  H   LIG d   1       6.697  -8.670  -6.237  0.00  0.00     0.032 H 
ATOM     64  H   LIG d   1       6.942  -7.801  -4.629  0.00  0.00     0.032 H 
ATOM     65  H   LIG d   1       4.857  -6.422  -5.056  0.00  0.00     0.085 H 
ENDBRANCH  55  58
ENDBRANCH  20  55
TORSDOF 8
ENDMDL
MODEL 6
REMARK VINA RESULT:      -6.8      4.021      5.235
REMARK  8 active torsions:
REMARK  status: ('A' for Active; 'I' for Inactive)
REMARK    1  A    between atoms: C_1  and  O_2 
REMARK    2  A    between atoms: O_2  and  C_3 
REMARK    3  A    between atoms: C_3  and  C_5 
REMARK    4  A    between atoms: C_21  and  C_31 
REMARK    5  A    between atoms: C_24  and  N_27 
REMARK    6  A    between atoms: N_27  and  C_28 
REMARK    7  A    between atoms: C_34  and  O_37 
REMARK    8  A    between atoms: O_37  and  C_38 
ROOT
ATOM      1  C   LIG d   1       9.631  -0.219  -5.857  0.00  0.00     0.113 C 
ATOM      2  H   LIG d   1       9.328   0.447  -6.665  0.00  0.00     0.058 H 
ATOM      3  C   LIG d   1      10.881   0.347  -5.169  0.00  0.00     0.001 C 
ATOM      4  C   LIG d   1      10.471   1.563  -4.377  0.00  0.00    -0.016 A 
ATOM      5  C   LIG d   1      11.295   2.610  -3.815  0.00  0.00     0.003 A 
ATOM      6  C   LIG d   1      12.675   2.838  -3.818  0.00  0.00    -0.052 A 
ATOM      7  C   LIG d   1      13.120   3.963  -3.170  0.00  0.00    -0.061 A 
ATOM      8  C   LIG d   1      12.253   4.840  -2.538  0.00  0.00    -0.060 A 
ATOM      9  C   LIG d   1      10.884   4.639  -2.519  0.00  0.00    -0.038 A 
ATOM     10  C   LIG d   1      10.403   3.505  -3.170  0.00  0.00     0.047 A 
ATOM     11  N   LIG d   1       9.140   3.016  -3.343  0.00  0.00    -0.356 N 
ATOM     12  H   LIG d   1       8.330   3.429  -3.004  0.00  0.00     0.166 HD
ATOM     13  C   LIG d   1       9.187   1.856  -4.066  0.00  0.00     0.038 A 
ATOM     14  C   LIG d   1       8.026   0.989  -4.488  0.00  0.00     0.057 C 
ATOM     15  H   LIG d   1       7.517   1.449  -5.335  0.00  0.00     0.053 H 
ATOM     16  N   LIG d   1       8.542  -0.330  -4.880  0.00  0.00    -0.274 N 
ATOM     17  C   LIG d   1       7.459  -1.193  -5.368  0.00  0.00     0.042 C 
ATOM     18  H   LIG d   1       7.873  -2.149  -5.690  0.00  0.00     0.051 H 
ATOM     19  C   LIG d   1       6.452  -1.425  -4.239  0.00  0.00     0.010 C 
ATOM     20  C   LIG d   1       5.894  -0.081  -3.767  0.00  0.00    -0.019 C 
ATOM     21  H   LIG d   1       5.353   0.396  -4.585  0.00  0.00     0.085 H 
ATOM     22  C   LIG d   1       7.045   0.829  -3.326  0.00  0.00     0.011 C 
ATOM     23  H   LIG d   1      11.304  -0.403  -4.500  0.00  0.00     0.033 H 
ATOM     24  H   LIG d   1      11.618   0.629  -5.920  0.00  0.00     0.033 H 
ATOM     25  H   LIG d   1      13.359   2.161  -4.307  0.00  0.00     0.062 H 
ATOM     26  H   LIG d   1      14.179   4.172  -3.151  0.00  0.00     0.062 H 
ATOM     27  H   LIG d   1      12.660   5.710  -2.042  0.00  0.00     0.062 H 
ATOM     28  H   LIG d   1      10.219   5.331  -2.023  0.00  0.00     0.064 H 
ATOM     29  H   LIG d   1       5.636  -2.050  -4.603  0.00  0.00     0.034 H 
ATOM     30  H   LIG d   1       6.948  -1.924  -3.407  0.00  0.00     0.034 H 
ATOM     31  H   LIG d   1       7.556   0.376  -2.476  0.00  0.00     0.034 H 
ATOM     32  H   LIG d   1       6.655   1.807  -3.040  0.00  0.00     0.034 H 
ENDROOT
BRANCH  17  33
ATOM     33  C   LIG d   1       6.770  -0.526  -6.530  0.00  0.00    -0.030 A 
ATOM     34  C   LIG d   1       7.297   0.632  -7.073  0.00  0.00    -0.054 A 
ATOM     35  C   LIG d   1       6.670   1.243  -8.142  0.00  0.00    -0.019 A 
ATOM     36  H   LIG d   1       8.201   1.058  -6.662  0.00  0.00     0.062 H 
ATOM     37  C   LIG d   1       5.505   0.699  -8.664  0.00  0.00     0.130 A 
ATOM     38  H   LIG d   1       7.084   2.145  -8.567  0.00  0.00     0.065 H 
ATOM     39  C   LIG d   1       4.977  -0.459  -8.114  0.00  0.00    -0.019 A 
ATOM     40  C   LIG d   1       5.609  -1.069  -7.049  0.00  0.00    -0.054 A 
ATOM     41  H   LIG d   1       4.070  -0.884  -8.520  0.00  0.00     0.065 H 
ATOM     42  H   LIG d   1       5.198  -1.971  -6.621  0.00  0.00     0.062 H 
BRANCH  37  43
ATOM     43  O   LIG d   1       4.885   1.301  -9.713  0.00  0.00    -0.406 OA
BRANCH  43  44
ATOM     44  C   LIG d   1       4.085   2.449  -9.422  0.00  0.00     0.575 C 
ATOM     45  F   LIG d   1       3.284   2.189  -8.305  0.00  0.00    -0.133 F 
ATOM     46  F   LIG d   1       4.916   3.541  -9.155  0.00  0.00    -0.133 F 
ATOM     47  F   LIG d   1       3.270   2.740 -10.522  0.00  0.00    -0.133 F 
ENDBRANCH  43  44
ENDBRANCH  37  43
ENDBRANCH  17  33
BRANCH   1  48
ATOM     48  C   LIG d   1       9.942  -1.582  -6.420  0.00  0.00     0.325 C 
ATOM     49  O   LIG d   1       9.844  -1.782  -7.608  0.00  0.00    -0.249 OA
BRANCH  48  50
ATOM     50  O   LIG d   1      10.328  -2.574  -5.602  0.00  0.00    -0.467 OA
BRANCH  50  51
ATOM     51  C   LIG d   1      10.009  -3.908  -6.004  0.00  0.00     0.082 C 
ATOM     52  H   LIG d   1       8.939  -3.983  -6.198  0.00  0.00     0.066 H 
ATOM     53  H   LIG d   1      10.562  -4.156  -6.910  0.00  0.00     0.066 H 
ATOM     54  H   LIG d   1      10.284  -4.601  -5.209  0.00  0.00     0.066 H 
ENDBRANCH  50  51
ENDBRANCH  48  50
ENDBRANCH   1  48
BRANCH  20  55
ATOM     55  N   LIG d   1       4.980  -0.298  -2.638  0.00  0.00     0.231 N 
ATOM     56  H   LIG d   1       4.873  -1.289  -2.477  0.00  0.00     0.202 HD
ATOM     57  H   LIG d   1       5.357   0.138  -1.810  0.00  0.00     0.202 HD
BRANCH  55  58
ATOM     58  C   LIG d   1       3.670   0.291  -2.948  0.00  0.00    -0.022 A 
ATOM     59  C   LIG d   1       3.126   0.097  -4.366  0.00  0.00    -0.005 A 
ATOM     60  C   LIG d   1       2.505  -0.670  -3.197  0.00  0.00    -0.005 A 
ATOM     61  H   LIG d   1       2.547   0.913  -4.798  0.00  0.00     0.032 H 
ATOM     62  H   LIG d   1       3.741  -0.467  -5.067  0.00  0.00     0.032 H 
ATOM     63  H   LIG d   1       2.711  -1.737  -3.129  0.00  0.00     0.032 H 
ATOM     64  H   LIG d   1       1.516  -0.359  -2.859  0.00  0.00     0.032 H 
ATOM     65  H   LIG d   1       3.447   1.234  -2.448  0.00  0.00     0.085 H 
ENDBRANCH  55  58
ENDBRANCH  20  55
TORSDOF 8
ENDMDL
MODEL 7
REMARK VINA RESULT:      -6.5      4.221      6.797
REMARK  8 active torsions:
REMARK  status: ('A' for Active; 'I' for Inactive)
REMARK    1  A    between atoms: C_1  and  O_2 
REMARK    2  A    between atoms: O_2  and  C_3 
REMARK    3  A    between atoms: C_3  and  C_5 
REMARK    4  A    between atoms: C_21  and  C_31 
REMARK    5  A    between atoms: C_24  and  N_27 
REMARK    6  A    between atoms: N_27  and  C_28 
REMARK    7  A    between atoms: C_34  and  O_37 
REMARK    8  A    between atoms: O_37  and  C_38 
ROOT
ATOM      1  C   LIG d   1       5.426  -0.324  -8.237  0.00  0.00     0.113 C 
ATOM      2  H   LIG d   1       4.397  -0.000  -8.401  0.00  0.00     0.058 H 
ATOM      3  C   LIG d   1       5.863   0.061  -6.818  0.00  0.00     0.001 C 
ATOM      4  C   LIG d   1       5.141  -0.835  -5.844  0.00  0.00    -0.016 A 
ATOM      5  C   LIG d   1       4.966  -0.685  -4.416  0.00  0.00     0.003 A 
ATOM      6  C   LIG d   1       5.385   0.291  -3.506  0.00  0.00    -0.052 A 
ATOM      7  C   LIG d   1       5.030   0.107  -2.192  0.00  0.00    -0.061 A 
ATOM      8  C   LIG d   1       4.293  -0.989  -1.776  0.00  0.00    -0.060 A 
ATOM      9  C   LIG d   1       3.865  -1.969  -2.655  0.00  0.00    -0.038 A 
ATOM     10  C   LIG d   1       4.210  -1.809  -3.995  0.00  0.00     0.047 A 
ATOM     11  N   LIG d   1       3.957  -2.567  -5.101  0.00  0.00    -0.356 N 
ATOM     12  H   LIG d   1       3.456  -3.398  -5.106  0.00  0.00     0.166 HD
ATOM     13  C   LIG d   1       4.514  -1.980  -6.204  0.00  0.00     0.038 A 
ATOM     14  C   LIG d   1       4.472  -2.476  -7.628  0.00  0.00     0.057 C 
ATOM     15  H   LIG d   1       3.494  -2.263  -8.060  0.00  0.00     0.053 H 
ATOM     16  N   LIG d   1       5.512  -1.779  -8.399  0.00  0.00    -0.274 N 
ATOM     17  C   LIG d   1       5.470  -2.174  -9.813  0.00  0.00     0.042 C 
ATOM     18  H   LIG d   1       6.222  -1.615 -10.369  0.00  0.00     0.051 H 
ATOM     19  C   LIG d   1       5.758  -3.673  -9.927  0.00  0.00     0.010 C 
ATOM     20  C   LIG d   1       4.719  -4.456  -9.122  0.00  0.00    -0.019 C 
ATOM     21  H   LIG d   1       3.729  -4.287  -9.544  0.00  0.00     0.085 H 
ATOM     22  C   LIG d   1       4.733  -3.982  -7.664  0.00  0.00     0.011 C 
ATOM     23  H   LIG d   1       6.940  -0.076  -6.714  0.00  0.00     0.033 H 
ATOM     24  H   LIG d   1       5.603   1.101  -6.622  0.00  0.00     0.033 H 
ATOM     25  H   LIG d   1       5.961   1.148  -3.821  0.00  0.00     0.062 H 
ATOM     26  H   LIG d   1       5.335   0.840  -1.461  0.00  0.00     0.062 H 
ATOM     27  H   LIG d   1       4.042  -1.082  -0.728  0.00  0.00     0.062 H 
ATOM     28  H   LIG d   1       3.290  -2.818  -2.316  0.00  0.00     0.064 H 
ATOM     29  H   LIG d   1       5.708  -3.973 -10.974  0.00  0.00     0.034 H 
ATOM     30  H   LIG d   1       6.753  -3.882  -9.536  0.00  0.00     0.034 H 
ATOM     31  H   LIG d   1       5.707  -4.195  -7.227  0.00  0.00     0.034 H 
ATOM     32  H   LIG d   1       3.956  -4.500  -7.100  0.00  0.00     0.034 H 
ENDROOT
BRANCH  17  33
ATOM     33  C   LIG d   1       4.104  -1.877 -10.376  0.00  0.00    -0.030 A 
ATOM     34  C   LIG d   1       3.007  -1.823  -9.535  0.00  0.00    -0.054 A 
ATOM     35  C   LIG d   1       1.755  -1.546 -10.048  0.00  0.00    -0.019 A 
ATOM     36  H   LIG d   1       3.131  -1.994  -8.475  0.00  0.00     0.062 H 
ATOM     37  C   LIG d   1       1.596  -1.333 -11.410  0.00  0.00     0.130 A 
ATOM     38  H   LIG d   1       0.900  -1.501  -9.390  0.00  0.00     0.065 H 
ATOM     39  C   LIG d   1       2.697  -1.393 -12.251  0.00  0.00    -0.019 A 
ATOM     40  C   LIG d   1       3.948  -1.665 -11.734  0.00  0.00    -0.054 A 
ATOM     41  H   LIG d   1       2.575  -1.227 -13.312  0.00  0.00     0.065 H 
ATOM     42  H   LIG d   1       4.805  -1.712 -12.388  0.00  0.00     0.062 H 
BRANCH  37  43
ATOM     43  O   LIG d   1       0.364  -1.065 -11.917  0.00  0.00    -0.406 OA
BRANCH  43  44
ATOM     44  C   LIG d   1      -0.212  -2.050 -12.777  0.00  0.00     0.575 C 
ATOM     45  F   LIG d   1      -1.589  -1.830 -12.882  0.00  0.00    -0.133 F 
ATOM     46  F   LIG d   1       0.372  -1.960 -14.045  0.00  0.00    -0.133 F 
ATOM     47  F   LIG d   1       0.018  -3.325 -12.246  0.00  0.00    -0.133 F 
ENDBRANCH  43  44
ENDBRANCH  37  43
ENDBRANCH  17  33
BRANCH   1  48
ATOM     48  C   LIG d   1       6.329   0.347  -9.241  0.00  0.00     0.325 C 
ATOM     49  O   LIG d   1       7.522   0.157  -9.201  0.00  0.00    -0.249 OA
BRANCH  48  50
ATOM     50  O   LIG d   1       5.809   1.154 -10.178  0.00  0.00    -0.467 OA
BRANCH  50  51
ATOM     51  C   LIG d   1       4.527   1.724  -9.906  0.00  0.00     0.082 C 
ATOM     52  H   LIG d   1       4.504   2.754 -10.260  0.00  0.00     0.066 H 
ATOM     53  H   LIG d   1       3.757   1.145 -10.419  0.00  0.00     0.066 H 
ATOM     54  H   LIG d   1       4.341   1.703  -8.832  0.00  0.00     0.066 H 
ENDBRANCH  50  51
ENDBRANCH  48  50
ENDBRANCH   1  48
BRANCH  20  55
ATOM     55  N   LIG d   1       5.035  -5.889  -9.174  0.00  0.00     0.231 N 
ATOM     56  H   LIG d   1       4.999  -6.207 -10.132  0.00  0.00     0.202 HD
ATOM     57  H   LIG d   1       5.960  -6.045  -8.803  0.00  0.00     0.202 HD
BRANCH  55  58
ATOM     58  C   LIG d   1       4.055  -6.636  -8.375  0.00  0.00    -0.022 A 
ATOM     59  C   LIG d   1       3.736  -8.070  -8.806  0.00  0.00    -0.005 A 
ATOM     60  C   LIG d   1       4.570  -7.818  -7.549  0.00  0.00    -0.005 A 
ATOM     61  H   LIG d   1       2.713  -8.420  -8.671  0.00  0.00     0.032 H 
ATOM     62  H   LIG d   1       4.254  -8.458  -9.684  0.00  0.00     0.032 H 
ATOM     63  H   LIG d   1       5.636  -8.039  -7.599  0.00  0.00     0.032 H 
ATOM     64  H   LIG d   1       4.096  -8.002  -6.585  0.00  0.00     0.032 H 
ATOM     65  H   LIG d   1       3.241  -6.045  -7.954  0.00  0.00     0.085 H 
ENDBRANCH  55  58
ENDBRANCH  20  55
TORSDOF 8
ENDMDL
MODEL 8
REMARK VINA RESULT:      -6.4      5.373      8.580
REMARK  8 active torsions:
REMARK  status: ('A' for Active; 'I' for Inactive)
REMARK    1  A    between atoms: C_1  and  O_2 
REMARK    2  A    between atoms: O_2  and  C_3 
REMARK    3  A    between atoms: C_3  and  C_5 
REMARK    4  A    between atoms: C_21  and  C_31 
REMARK    5  A    between atoms: C_24  and  N_27 
REMARK    6  A    between atoms: N_27  and  C_28 
REMARK    7  A    between atoms: C_34  and  O_37 
REMARK    8  A    between atoms: O_37  and  C_38 
ROOT
ATOM      1  C   LIG d   1       9.083   2.888  -5.448  0.00  0.00     0.113 C 
ATOM      2  H   LIG d   1       8.295   2.425  -4.854  0.00  0.00     0.058 H 
ATOM      3  C   LIG d   1       9.240   4.357  -5.034  0.00  0.00     0.001 C 
ATOM      4  C   LIG d   1       9.877   4.394  -3.668  0.00  0.00    -0.016 A 
ATOM      5  C   LIG d   1       9.955   5.487  -2.723  0.00  0.00     0.003 A 
ATOM      6  C   LIG d   1       9.491   6.806  -2.756  0.00  0.00    -0.052 A 
ATOM      7  C   LIG d   1       9.751   7.583  -1.654  0.00  0.00    -0.061 A 
ATOM      8  C   LIG d   1      10.440   7.095  -0.556  0.00  0.00    -0.060 A 
ATOM      9  C   LIG d   1      10.910   5.795  -0.496  0.00  0.00    -0.038 A 
ATOM     10  C   LIG d   1      10.660   4.982  -1.600  0.00  0.00     0.047 A 
ATOM     11  N   LIG d   1      10.974   3.681  -1.868  0.00  0.00    -0.356 N 
ATOM     12  H   LIG d   1      11.459   3.089  -1.271  0.00  0.00     0.166 HD
ATOM     13  C   LIG d   1      10.502   3.335  -3.104  0.00  0.00     0.038 A 
ATOM     14  C   LIG d   1      10.622   1.997  -3.791  0.00  0.00     0.057 C 
ATOM     15  H   LIG d   1       9.899   1.302  -3.365  0.00  0.00     0.053 H 
ATOM     16  N   LIG d   1      10.346   2.178  -5.224  0.00  0.00    -0.274 N 
ATOM     17  C   LIG d   1      10.381   0.891  -5.931  0.00  0.00     0.042 C 
ATOM     18  H   LIG d   1      10.135   1.047  -6.981  0.00  0.00     0.051 H 
ATOM     19  C   LIG d   1      11.786   0.291  -5.819  0.00  0.00     0.010 C 
ATOM     20  C   LIG d   1      12.143   0.101  -4.343  0.00  0.00    -0.019 C 
ATOM     21  H   LIG d   1      11.454  -0.612  -3.891  0.00  0.00     0.085 H 
ATOM     22  C   LIG d   1      12.036   1.442  -3.609  0.00  0.00     0.011 C 
ATOM     23  H   LIG d   1       9.878   4.876  -5.751  0.00  0.00     0.033 H 
ATOM     24  H   LIG d   1       8.262   4.836  -4.997  0.00  0.00     0.033 H 
ATOM     25  H   LIG d   1       8.954   7.195  -3.607  0.00  0.00     0.062 H 
ATOM     26  H   LIG d   1       9.408   8.606  -1.643  0.00  0.00     0.062 H 
ATOM     27  H   LIG d   1      10.616   7.753   0.284  0.00  0.00     0.062 H 
ATOM     28  H   LIG d   1      11.445   5.427   0.367  0.00  0.00     0.064 H 
ATOM     29  H   LIG d   1      11.809  -0.673  -6.326  0.00  0.00     0.034 H 
ATOM     30  H   LIG d   1      12.506   0.965  -6.283  0.00  0.00     0.034 H 
ATOM     31  H   LIG d   1      12.759   2.140  -4.029  0.00  0.00     0.034 H 
ATOM     32  H   LIG d   1      12.237   1.299  -2.547  0.00  0.00     0.034 H 
ENDROOT
BRANCH  17  33
ATOM     33  C   LIG d   1       9.379  -0.049  -5.312  0.00  0.00    -0.030 A 
ATOM     34  C   LIG d   1       9.405  -1.394  -5.636  0.00  0.00    -0.054 A 
ATOM     35  C   LIG d   1       8.491  -2.260  -5.067  0.00  0.00    -0.019 A 
ATOM     36  H   LIG d   1      10.142  -1.768  -6.332  0.00  0.00     0.062 H 
ATOM     37  C   LIG d   1       7.542  -1.778  -4.178  0.00  0.00     0.130 A 
ATOM     38  H   LIG d   1       8.514  -3.310  -5.318  0.00  0.00     0.065 H 
ATOM     39  C   LIG d   1       7.516  -0.428  -3.859  0.00  0.00    -0.019 A 
ATOM     40  C   LIG d   1       8.434   0.433  -4.427  0.00  0.00    -0.054 A 
ATOM     41  H   LIG d   1       6.777  -0.051  -3.167  0.00  0.00     0.065 H 
ATOM     42  H   LIG d   1       8.414   1.484  -4.180  0.00  0.00     0.062 H 
BRANCH  37  43
ATOM     43  O   LIG d   1       6.639  -2.627  -3.621  0.00  0.00    -0.406 OA
BRANCH  43  44
ATOM     44  C   LIG d   1       5.258  -2.364  -3.874  0.00  0.00     0.575 C 
ATOM     45  F   LIG d   1       4.543  -3.567  -3.858  0.00  0.00    -0.133 F 
ATOM     46  F   LIG d   1       4.756  -1.512  -2.884  0.00  0.00    -0.133 F 
ATOM     47  F   LIG d   1       5.121  -1.757  -5.127  0.00  0.00    -0.133 F 
ENDBRANCH  43  44
ENDBRANCH  37  43
ENDBRANCH  17  33
BRANCH   1  48
ATOM     48  C   LIG d   1       8.719   2.815  -6.910  0.00  0.00     0.325 C 
ATOM     49  O   LIG d   1       9.402   3.380  -7.731  0.00  0.00    -0.249 OA
BRANCH  48  50
ATOM     50  O   LIG d   1       7.638   2.121  -7.298  0.00  0.00    -0.467 OA
BRANCH  50  51
ATOM     51  C   LIG d   1       7.418   1.995  -8.705  0.00  0.00     0.082 C 
ATOM     52  H   LIG d   1       8.341   2.223  -9.239  0.00  0.00     0.066 H 
ATOM     53  H   LIG d   1       7.108   0.975  -8.933  0.00  0.00     0.066 H 
ATOM     54  H   LIG d   1       6.638   2.690  -9.013  0.00  0.00     0.066 H 
ENDBRANCH  50  51
ENDBRANCH  48  50
ENDBRANCH   1  48
BRANCH  20  55
ATOM     55  N   LIG d   1      13.516  -0.409  -4.233  0.00  0.00     0.231 N 
ATOM     56  H   LIG d   1      13.495  -1.361  -3.896  0.00  0.00     0.202 HD
ATOM     57  H   LIG d   1      13.960  -0.383  -5.138  0.00  0.00     0.202 HD
BRANCH  55  58
ATOM     58  C   LIG d   1      14.274   0.426  -3.291  0.00  0.00    -0.022 A 
ATOM     59  C   LIG d   1      15.138  -0.290  -2.249  0.00  0.00    -0.005 A 
ATOM     60  C   LIG d   1      15.799   0.433  -3.424  0.00  0.00    -0.005 A 
ATOM     61  H   LIG d   1      15.221   0.169  -1.264  0.00  0.00     0.032 H 
ATOM     62  H   LIG d   1      15.142  -1.380  -2.263  0.00  0.00     0.032 H 
ATOM     63  H   LIG d   1      16.238  -0.181  -4.210  0.00  0.00     0.032 H 
ATOM     64  H   LIG d   1      16.318   1.368  -3.212  0.00  0.00     0.032 H 
ATOM     65  H   LIG d   1      13.791   1.355  -2.991  0.00  0.00     0.085 H 
ENDBRANCH  55  58
ENDBRANCH  20  55
TORSDOF 8
ENDMDL
MODEL 9
REMARK VINA RESULT:      -6.4      4.072      7.183
REMARK  8 active torsions:
REMARK  status: ('A' for Active; 'I' for Inactive)
REMARK    1  A    between atoms: C_1  and  O_2 
REMARK    2  A    between atoms: O_2  and  C_3 
REMARK    3  A    between atoms: C_3  and  C_5 
REMARK    4  A    between atoms: C_21  and  C_31 
REMARK    5  A    between atoms: C_24  and  N_27 
REMARK    6  A    between atoms: N_27  and  C_28 
REMARK    7  A    between atoms: C_34  and  O_37 
REMARK    8  A    between atoms: O_37  and  C_38 
ROOT
ATOM      1  C   LIG d   1       3.043  -0.904  -7.996  0.00  0.00     0.113 C 
ATOM      2  H   LIG d   1       2.599  -1.849  -7.680  0.00  0.00     0.058 H 
ATOM      3  C   LIG d   1       2.932   0.120  -6.859  0.00  0.00     0.001 C 
ATOM      4  C   LIG d   1       3.897  -0.280  -5.771  0.00  0.00    -0.016 A 
ATOM      5  C   LIG d   1       3.959   0.159  -4.395  0.00  0.00     0.003 A 
ATOM      6  C   LIG d   1       3.185   1.053  -3.648  0.00  0.00    -0.052 A 
ATOM      7  C   LIG d   1       3.538   1.232  -2.333  0.00  0.00    -0.061 A 
ATOM      8  C   LIG d   1       4.609   0.565  -1.762  0.00  0.00    -0.060 A 
ATOM      9  C   LIG d   1       5.391  -0.325  -2.477  0.00  0.00    -0.038 A 
ATOM     10  C   LIG d   1       5.056  -0.528  -3.815  0.00  0.00     0.047 A 
ATOM     11  N   LIG d   1       5.601  -1.317  -4.785  0.00  0.00    -0.356 N 
ATOM     12  H   LIG d   1       6.368  -1.899  -4.666  0.00  0.00     0.166 HD
ATOM     13  C   LIG d   1       4.904  -1.166  -5.952  0.00  0.00     0.038 A 
ATOM     14  C   LIG d   1       5.161  -1.852  -7.271  0.00  0.00     0.057 C 
ATOM     15  H   LIG d   1       4.789  -2.876  -7.229  0.00  0.00     0.053 H 
ATOM     16  N   LIG d   1       4.456  -1.115  -8.330  0.00  0.00    -0.274 N 
ATOM     17  C   LIG d   1       4.616  -1.782  -9.628  0.00  0.00     0.042 C 
ATOM     18  H   LIG d   1       4.052  -1.240 -10.387  0.00  0.00     0.051 H 
ATOM     19  C   LIG d   1       6.099  -1.799 -10.008  0.00  0.00     0.010 C 
ATOM     20  C   LIG d   1       6.894  -2.534  -8.927  0.00  0.00    -0.019 C 
ATOM     21  H   LIG d   1       6.565  -3.572  -8.876  0.00  0.00     0.085 H 
ATOM     22  C   LIG d   1       6.661  -1.864  -7.569  0.00  0.00     0.011 C 
ATOM     23  H   LIG d   1       3.189   1.112  -7.231  0.00  0.00     0.033 H 
ATOM     24  H   LIG d   1       1.916   0.124  -6.466  0.00  0.00     0.033 H 
ATOM     25  H   LIG d   1       2.349   1.579  -4.084  0.00  0.00     0.062 H 
ATOM     26  H   LIG d   1       2.964   1.914  -1.725  0.00  0.00     0.062 H 
ATOM     27  H   LIG d   1       4.842   0.745  -0.722  0.00  0.00     0.062 H 
ATOM     28  H   LIG d   1       6.224  -0.840  -2.019  0.00  0.00     0.064 H 
ATOM     29  H   LIG d   1       6.223  -2.311 -10.962  0.00  0.00     0.034 H 
ATOM     30  H   LIG d   1       6.463  -0.776 -10.094  0.00  0.00     0.034 H 
ATOM     31  H   LIG d   1       7.035  -0.841  -7.605  0.00  0.00     0.034 H 
ATOM     32  H   LIG d   1       7.184  -2.418  -6.788  0.00  0.00     0.034 H 
ENDROOT
BRANCH  17  33
ATOM     33  C   LIG d   1       4.102  -3.196  -9.534  0.00  0.00    -0.030 A 
ATOM     34  C   LIG d   1       3.877  -3.926 -10.687  0.00  0.00    -0.054 A 
ATOM     35  C   LIG d   1       3.412  -5.224 -10.603  0.00  0.00    -0.019 A 
ATOM     36  H   LIG d   1       4.068  -3.482 -11.653  0.00  0.00     0.062 H 
ATOM     37  C   LIG d   1       3.160  -5.791  -9.362  0.00  0.00     0.130 A 
ATOM     38  H   LIG d   1       3.239  -5.794 -11.504  0.00  0.00     0.065 H 
ATOM     39  C   LIG d   1       3.383  -5.055  -8.208  0.00  0.00    -0.019 A 
ATOM     40  C   LIG d   1       3.853  -3.759  -8.296  0.00  0.00    -0.054 A 
ATOM     41  H   LIG d   1       3.188  -5.495  -7.241  0.00  0.00     0.065 H 
ATOM     42  H   LIG d   1       4.026  -3.185  -7.398  0.00  0.00     0.062 H 
BRANCH  37  43
ATOM     43  O   LIG d   1       2.698  -7.066  -9.278  0.00  0.00    -0.406 OA
BRANCH  43  44
ATOM     44  C   LIG d   1       3.659  -8.088  -9.004  0.00  0.00     0.575 C 
ATOM     45  F   LIG d   1       4.888  -7.738  -9.572  0.00  0.00    -0.133 F 
ATOM     46  F   LIG d   1       3.808  -8.228  -7.620  0.00  0.00    -0.133 F 
ATOM     47  F   LIG d   1       3.220  -9.299  -9.551  0.00  0.00    -0.133 F 
ENDBRANCH  43  44
ENDBRANCH  37  43
ENDBRANCH  17  33
BRANCH   1  48
ATOM     48  C   LIG d   1       2.313  -0.388  -9.210  0.00  0.00     0.325 C 
ATOM     49  O   LIG d   1       2.570   0.709  -9.648  0.00  0.00    -0.249 OA
BRANCH  48  50
ATOM     50  O   LIG d   1       1.379  -1.146  -9.805  0.00  0.00    -0.467 OA
BRANCH  50  51
ATOM     51  C   LIG d   1       1.315  -1.099 -11.232  0.00  0.00     0.082 C 
ATOM     52  H   LIG d   1       2.049  -1.786 -11.651  0.00  0.00     0.066 H 
ATOM     53  H   LIG d   1       0.316  -1.388 -11.560  0.00  0.00     0.066 H 
ATOM     54  H   LIG d   1       1.530  -0.085 -11.571  0.00  0.00     0.066 H 
ENDBRANCH  50  51
ENDBRANCH  48  50
ENDBRANCH   1  48
BRANCH  20  55
ATOM     55  N   LIG d   1       8.325  -2.491  -9.256  0.00  0.00     0.231 N 
ATOM     56  H   LIG d   1       8.730  -3.406  -9.118  0.00  0.00     0.202 HD
ATOM     57  H   LIG d   1       8.442  -2.213 -10.219  0.00  0.00     0.202 HD
BRANCH  55  58
ATOM     58  C   LIG d   1       8.999  -1.522  -8.381  0.00  0.00    -0.022 A 
ATOM     59  C   LIG d   1      10.521  -1.623  -8.254  0.00  0.00    -0.005 A 
ATOM     60  C   LIG d   1       9.895  -0.474  -9.047  0.00  0.00    -0.005 A 
ATOM     61  H   LIG d   1      10.961  -1.386  -7.286  0.00  0.00     0.032 H 
ATOM     62  H   LIG d   1      11.022  -2.410  -8.819  0.00  0.00     0.032 H 
ATOM     63  H   LIG d   1       9.984  -0.505 -10.133  0.00  0.00     0.032 H 
ATOM     64  H   LIG d   1       9.924   0.520  -8.601  0.00  0.00     0.032 H 
ATOM     65  H   LIG d   1       8.439  -1.216  -7.497  0.00  0.00     0.085 H 
ENDBRANCH  55  58
ENDBRANCH  20  55
TORSDOF 8
ENDMDL
MODEL 10
REMARK VINA RESULT:      -6.3      4.281      7.599
REMARK  8 active torsions:
REMARK  status: ('A' for Active; 'I' for Inactive)
REMARK    1  A    between atoms: C_1  and  O_2 
REMARK    2  A    between atoms: O_2  and  C_3 
REMARK    3  A    between atoms: C_3  and  C_5 
REMARK    4  A    between atoms: C_21  and  C_31 
REMARK    5  A    between atoms: C_24  and  N_27 
REMARK    6  A    between atoms: N_27  and  C_28 
REMARK    7  A    between atoms: C_34  and  O_37 
REMARK    8  A    between atoms: O_37  and  C_38 
ROOT
ATOM      1  C   LIG d   1       4.644  -4.196  -8.712  0.00  0.00     0.113 C 
ATOM      2  H   LIG d   1       4.211  -4.065  -7.720  0.00  0.00     0.058 H 
ATOM      3  C   LIG d   1       3.857  -5.271  -9.475  0.00  0.00     0.001 C 
ATOM      4  C   LIG d   1       2.512  -4.697  -9.843  0.00  0.00    -0.016 A 
ATOM      5  C   LIG d   1       1.314  -5.378 -10.281  0.00  0.00     0.003 A 
ATOM      6  C   LIG d   1       1.015  -6.727 -10.500  0.00  0.00    -0.052 A 
ATOM      7  C   LIG d   1      -0.257  -7.020 -10.925  0.00  0.00    -0.061 A 
ATOM      8  C   LIG d   1      -1.208  -6.034 -11.132  0.00  0.00    -0.060 A 
ATOM      9  C   LIG d   1      -0.940  -4.693 -10.924  0.00  0.00    -0.038 A 
ATOM     10  C   LIG d   1       0.344  -4.365 -10.491  0.00  0.00     0.047 A 
ATOM     11  N   LIG d   1       0.932  -3.170 -10.194  0.00  0.00    -0.356 N 
ATOM     12  H   LIG d   1       0.497  -2.304 -10.250  0.00  0.00     0.166 HD
ATOM     13  C   LIG d   1       2.227  -3.374  -9.806  0.00  0.00     0.038 A 
ATOM     14  C   LIG d   1       3.236  -2.333  -9.387  0.00  0.00     0.057 C 
ATOM     15  H   LIG d   1       3.024  -2.009  -8.368  0.00  0.00     0.053 H 
ATOM     16  N   LIG d   1       4.579  -2.928  -9.446  0.00  0.00    -0.274 N 
ATOM     17  C   LIG d   1       5.595  -1.976  -8.980  0.00  0.00     0.042 C 
ATOM     18  H   LIG d   1       6.575  -2.454  -8.995  0.00  0.00     0.051 H 
ATOM     19  C   LIG d   1       5.606  -0.756  -9.905  0.00  0.00     0.010 C 
ATOM     20  C   LIG d   1       4.222  -0.103  -9.906  0.00  0.00    -0.019 C 
ATOM     21  H   LIG d   1       3.989   0.257  -8.904  0.00  0.00     0.085 H 
ATOM     22  C   LIG d   1       3.168  -1.131 -10.331  0.00  0.00     0.011 C 
ATOM     23  H   LIG d   1       4.398  -5.549 -10.381  0.00  0.00     0.033 H 
ATOM     24  H   LIG d   1       3.723  -6.147  -8.843  0.00  0.00     0.033 H 
ATOM     25  H   LIG d   1       1.750  -7.502 -10.342  0.00  0.00     0.062 H 
ATOM     26  H   LIG d   1      -0.525  -8.049 -11.104  0.00  0.00     0.062 H 
ATOM     27  H   LIG d   1      -2.195  -6.323 -11.468  0.00  0.00     0.062 H 
ATOM     28  H   LIG d   1      -1.691  -3.934 -11.088  0.00  0.00     0.064 H 
ATOM     29  H   LIG d   1       6.346  -0.039  -9.549  0.00  0.00     0.034 H 
ATOM     30  H   LIG d   1       5.860  -1.070 -10.917  0.00  0.00     0.034 H 
ATOM     31  H   LIG d   1       3.373  -1.455 -11.350  0.00  0.00     0.034 H 
ATOM     32  H   LIG d   1       2.174  -0.684 -10.281  0.00  0.00     0.034 H 
ENDROOT
BRANCH  17  33
ATOM     33  C   LIG d   1       5.269  -1.541  -7.574  0.00  0.00    -0.030 A 
ATOM     34  C   LIG d   1       6.258  -1.533  -6.607  0.00  0.00    -0.054 A 
ATOM     35  C   LIG d   1       5.963  -1.130  -5.319  0.00  0.00    -0.019 A 
ATOM     36  H   LIG d   1       7.263  -1.840  -6.861  0.00  0.00     0.062 H 
ATOM     37  C   LIG d   1       4.672  -0.743  -4.994  0.00  0.00     0.130 A 
ATOM     38  H   LIG d   1       6.737  -1.121  -4.567  0.00  0.00     0.065 H 
ATOM     39  C   LIG d   1       3.681  -0.756  -5.964  0.00  0.00    -0.019 A 
ATOM     40  C   LIG d   1       3.981  -1.155  -7.252  0.00  0.00    -0.054 A 
ATOM     41  H   LIG d   1       2.674  -0.454  -5.712  0.00  0.00     0.065 H 
ATOM     42  H   LIG d   1       3.210  -1.166  -8.008  0.00  0.00     0.062 H 
BRANCH  37  43
ATOM     43  O   LIG d   1       4.379  -0.350  -3.726  0.00  0.00    -0.406 OA
BRANCH  43  44
ATOM     44  C   LIG d   1       3.758  -1.314  -2.874  0.00  0.00     0.575 C 
ATOM     45  F   LIG d   1       2.372  -1.131  -2.894  0.00  0.00    -0.133 F 
ATOM     46  F   LIG d   1       4.064  -2.602  -3.328  0.00  0.00    -0.133 F 
ATOM     47  F   LIG d   1       4.231  -1.155  -1.567  0.00  0.00    -0.133 F 
ENDBRANCH  43  44
ENDBRANCH  37  43
ENDBRANCH  17  33
BRANCH   1  48
ATOM     48  C   LIG d   1       6.083  -4.626  -8.579  0.00  0.00     0.325 C 
ATOM     49  O   LIG d   1       6.547  -4.850  -7.486  0.00  0.00    -0.249 OA
BRANCH  48  50
ATOM     50  O   LIG d   1       6.847  -4.761  -9.674  0.00  0.00    -0.467 OA
BRANCH  50  51
ATOM     51  C   LIG d   1       8.253  -4.568  -9.512  0.00  0.00     0.082 C 
ATOM     52  H   LIG d   1       8.441  -4.018  -8.591  0.00  0.00     0.066 H 
ATOM     53  H   LIG d   1       8.750  -5.538  -9.465  0.00  0.00     0.066 H 
ATOM     54  H   LIG d   1       8.641  -4.002 -10.359  0.00  0.00     0.066 H 
ENDBRANCH  50  51
ENDBRANCH  48  50
ENDBRANCH   1  48
BRANCH  20  55
ATOM     55  N   LIG d   1       4.213   1.025 -10.846  0.00  0.00     0.231 N 
ATOM     56  H   LIG d   1       5.162   1.274 -11.083  0.00  0.00     0.202 HD
ATOM     57  H   LIG d   1       3.715   0.764 -11.683  0.00  0.00     0.202 HD
BRANCH  55  58
ATOM     58  C   LIG d   1       3.548   2.177 -10.221  0.00  0.00    -0.022 A 
ATOM     59  C   LIG d   1       3.204   2.072  -8.733  0.00  0.00    -0.005 A 
ATOM     60  C   LIG d   1       4.347   2.980  -9.191  0.00  0.00    -0.005 A 
ATOM     61  H   LIG d   1       2.286   2.551  -8.394  0.00  0.00     0.032 H 
ATOM     62  H   LIG d   1       3.471   1.149  -8.219  0.00  0.00     0.032 H 
ATOM     63  H   LIG d   1       5.365   2.654  -8.979  0.00  0.00     0.032 H 
ATOM     64  H   LIG d   1       4.181   4.056  -9.154  0.00  0.00     0.032 H 
ATOM     65  H   LIG d   1       2.856   2.725 -10.860  0.00  0.00     0.085 H 
ENDBRANCH  55  58
ENDBRANCH  20  55
TORSDOF 8
ENDMDL
