MODEL 1
REMARK VINA RESULT:      -7.0      0.000      0.000
REMARK  3 active torsions:
REMARK  status: ('A' for Active; 'I' for Inactive)
REMARK    1  A    between atoms: C_1  and  C_2 
REMARK    2  A    between atoms: C_13  and  C_14 
REMARK    3  A    between atoms: C_13  and  O_16 
ROOT
ATOM      1  C   LIG d   1       2.661  -0.642 -11.049  0.00  0.00    -0.070 C 
ATOM      2  C   LIG d   1       1.682  -1.229 -11.322  0.00  0.00    -0.116 C 
ATOM      3  H   LIG d   1       0.806  -1.755 -11.565  0.00  0.00     0.123 H 
ENDROOT
BRANCH   1   4
ATOM      4  C   LIG d   1       3.890   0.095 -10.708  0.00  0.00     0.132 C 
ATOM      5  C   LIG d   1       3.962   0.336  -9.205  0.00  0.00     0.011 C 
ATOM      6  C   LIG d   1       4.709  -0.921  -8.678  0.00  0.00    -0.029 C 
ATOM      7  C   LIG d   1       2.640   0.436  -8.475  0.00  0.00    -0.043 C 
ATOM      8  C   LIG d   1       5.122  -0.596  -7.236  0.00  0.00    -0.031 C 
ATOM      9  H   LIG d   1       4.056  -1.793  -8.700  0.00  0.00     0.031 H 
ATOM     10  C   LIG d   1       5.846  -1.053  -9.697  0.00  0.00    -0.046 C 
ATOM     11  C   LIG d   1       3.820  -0.465  -6.442  0.00  0.00    -0.017 C 
ATOM     12  H   LIG d   1       5.696   0.328  -7.174  0.00  0.00     0.031 H 
ATOM     13  C   LIG d   1       5.910  -1.750  -6.610  0.00  0.00    -0.046 C 
ATOM     14  C   LIG d   1       2.945   0.657  -6.981  0.00  0.00    -0.046 C 
ATOM     15  H   LIG d   1       3.268  -1.400  -6.554  0.00  0.00     0.035 H 
ATOM     16  C   LIG d   1       4.116  -0.278  -4.972  0.00  0.00    -0.066 C 
ATOM     17  H   LIG d   1       3.463   1.607  -6.856  0.00  0.00     0.027 H 
ATOM     18  H   LIG d   1       2.009   0.683  -6.423  0.00  0.00     0.027 H 
ATOM     19  C   LIG d   1       5.211  -0.689  -4.428  0.00  0.00    -0.063 C 
ATOM     20  C   LIG d   1       3.020   0.427  -4.202  0.00  0.00    -0.025 C 
ATOM     21  C   LIG d   1       6.347  -1.300  -5.221  0.00  0.00    -0.031 C 
ATOM     22  C   LIG d   1       5.479  -0.609  -2.936  0.00  0.00     0.027 C 
ATOM     23  H   LIG d   1       6.734  -2.161  -4.677  0.00  0.00     0.031 H 
ATOM     24  H   LIG d   1       7.143  -0.563  -5.324  0.00  0.00     0.031 H 
ATOM     25  C   LIG d   1       4.488   0.264  -2.263  0.00  0.00     0.138 C 
ATOM     26  H   LIG d   1       5.464  -1.615  -2.516  0.00  0.00     0.039 H 
ATOM     27  H   LIG d   1       6.462  -0.168  -2.771  0.00  0.00     0.039 H 
ATOM     28  C   LIG d   1       3.053   0.082  -2.718  0.00  0.00     0.010 C 
ATOM     29  O   LIG d   1       4.788   1.050  -1.395  0.00  0.00    -0.297 OA
ATOM     30  H   LIG d   1       2.397   0.754  -2.164  0.00  0.00     0.035 H 
ATOM     31  H   LIG d   1       2.743  -0.952  -2.569  0.00  0.00     0.035 H 
ATOM     32  H   LIG d   1       3.144   1.504  -4.318  0.00  0.00     0.031 H 
ATOM     33  H   LIG d   1       2.054   0.136  -4.614  0.00  0.00     0.031 H 
ATOM     34  H   LIG d   1       5.275  -2.633  -6.531  0.00  0.00     0.027 H 
ATOM     35  H   LIG d   1       6.784  -1.975  -7.219  0.00  0.00     0.027 H 
ATOM     36  C   LIG d   1       5.138  -0.757 -11.047  0.00  0.00    -0.012 C 
ATOM     37  H   LIG d   1       6.626  -0.318  -9.502  0.00  0.00     0.027 H 
ATOM     38  H   LIG d   1       6.255  -2.063  -9.690  0.00  0.00     0.027 H 
ATOM     39  H   LIG d   1       5.804  -0.199 -11.705  0.00  0.00     0.030 H 
ATOM     40  H   LIG d   1       4.837  -1.690 -11.524  0.00  0.00     0.030 H 
ATOM     41  H   LIG d   1       2.068   1.279  -8.863  0.00  0.00     0.027 H 
ATOM     42  H   LIG d   1       2.074  -0.486  -8.604  0.00  0.00     0.027 H 
BRANCH   5  43
ATOM     43  C   LIG d   1       4.800   1.586  -8.926  0.00  0.00    -0.056 C 
ATOM     44  H   LIG d   1       5.590   1.667  -9.672  0.00  0.00     0.024 H 
ATOM     45  H   LIG d   1       4.162   2.468  -8.973  0.00  0.00     0.024 H 
ATOM     46  H   LIG d   1       5.244   1.510  -7.933  0.00  0.00     0.024 H 
ENDBRANCH   5  43
BRANCH   4  47
ATOM     47  O   LIG d   1       3.932   1.339 -11.412  0.00  0.00    -0.376 OA
ATOM     48  H   LIG d   1       3.539   1.304 -12.294  0.00  0.00     0.211 HD
ENDBRANCH   4  47
ENDBRANCH   1   4
TORSDOF 3
ENDMDL
MODEL 2
REMARK VINA RESULT:      -6.3      4.145      5.490
REMARK  3 active torsions:
REMARK  status: ('A' for Active; 'I' for Inactive)
REMARK    1  A    between atoms: C_1  and  C_2 
REMARK    2  A    between atoms: C_13  and  C_14 
REMARK    3  A    between atoms: C_13  and  O_16 
ROOT
ATOM      1  C   LIG d   1       6.228  -7.241  -5.742  0.00  0.00    -0.070 C 
ATOM      2  C   LIG d   1       5.778  -8.138  -5.132  0.00  0.00    -0.116 C 
ATOM      3  H   LIG d   1       5.376  -8.940  -4.585  0.00  0.00     0.123 H 
ENDROOT
BRANCH   1   4
ATOM      4  C   LIG d   1       6.791  -6.117  -6.508  0.00  0.00     0.132 C 
ATOM      5  C   LIG d   1       6.177  -4.801  -6.046  0.00  0.00     0.011 C 
ATOM      6  C   LIG d   1       7.125  -4.346  -4.903  0.00  0.00    -0.029 C 
ATOM      7  C   LIG d   1       4.771  -4.875  -5.488  0.00  0.00    -0.043 C 
ATOM      8  C   LIG d   1       6.777  -2.878  -4.621  0.00  0.00    -0.031 C 
ATOM      9  H   LIG d   1       6.970  -4.952  -4.010  0.00  0.00     0.031 H 
ATOM     10  C   LIG d   1       8.502  -4.611  -5.522  0.00  0.00    -0.046 C 
ATOM     11  C   LIG d   1       5.351  -2.880  -4.065  0.00  0.00    -0.017 C 
ATOM     12  H   LIG d   1       6.830  -2.265  -5.521  0.00  0.00     0.031 H 
ATOM     13  C   LIG d   1       7.678  -2.292  -3.531  0.00  0.00    -0.046 C 
ATOM     14  C   LIG d   1       4.358  -3.451  -5.068  0.00  0.00    -0.046 C 
ATOM     15  H   LIG d   1       5.340  -3.524  -3.184  0.00  0.00     0.035 H 
ATOM     16  C   LIG d   1       4.955  -1.490  -3.625  0.00  0.00    -0.066 C 
ATOM     17  H   LIG d   1       4.331  -2.810  -5.949  0.00  0.00     0.027 H 
ATOM     18  H   LIG d   1       3.368  -3.482  -4.615  0.00  0.00     0.027 H 
ATOM     19  C   LIG d   1       5.821  -0.599  -3.282  0.00  0.00    -0.063 C 
ATOM     20  C   LIG d   1       3.462  -1.241  -3.622  0.00  0.00    -0.025 C 
ATOM     21  C   LIG d   1       7.316  -0.819  -3.387  0.00  0.00    -0.031 C 
ATOM     22  C   LIG d   1       5.440   0.764  -2.733  0.00  0.00     0.027 C 
ATOM     23  H   LIG d   1       7.795  -0.424  -2.490  0.00  0.00     0.031 H 
ATOM     24  H   LIG d   1       7.694  -0.277  -4.253  0.00  0.00     0.031 H 
ATOM     25  C   LIG d   1       3.998   1.038  -2.943  0.00  0.00     0.138 C 
ATOM     26  H   LIG d   1       5.697   0.808  -1.674  0.00  0.00     0.039 H 
ATOM     27  H   LIG d   1       5.995   1.535  -3.267  0.00  0.00     0.039 H 
ATOM     28  C   LIG d   1       3.072  -0.128  -2.656  0.00  0.00     0.010 C 
ATOM     29  O   LIG d   1       3.579   2.116  -3.292  0.00  0.00    -0.297 OA
ATOM     30  H   LIG d   1       2.036   0.167  -2.826  0.00  0.00     0.035 H 
ATOM     31  H   LIG d   1       3.202  -0.464  -1.627  0.00  0.00     0.035 H 
ATOM     32  H   LIG d   1       3.147  -0.964  -4.628  0.00  0.00     0.031 H 
ATOM     33  H   LIG d   1       2.950  -2.158  -3.332  0.00  0.00     0.031 H 
ATOM     34  H   LIG d   1       7.503  -2.810  -2.587  0.00  0.00     0.027 H 
ATOM     35  H   LIG d   1       8.723  -2.391  -3.821  0.00  0.00     0.027 H 
ATOM     36  C   LIG d   1       8.308  -5.982  -6.225  0.00  0.00    -0.012 C 
ATOM     37  H   LIG d   1       8.754  -3.838  -6.247  0.00  0.00     0.027 H 
ATOM     38  H   LIG d   1       9.266  -4.679  -4.748  0.00  0.00     0.027 H 
ATOM     39  H   LIG d   1       8.867  -6.005  -7.161  0.00  0.00     0.030 H 
ATOM     40  H   LIG d   1       8.641  -6.788  -5.571  0.00  0.00     0.030 H 
ATOM     41  H   LIG d   1       4.089  -5.245  -6.254  0.00  0.00     0.027 H 
ATOM     42  H   LIG d   1       4.750  -5.536  -4.622  0.00  0.00     0.027 H 
BRANCH   5  43
ATOM     43  C   LIG d   1       6.224  -3.784  -7.188  0.00  0.00    -0.056 C 
ATOM     44  H   LIG d   1       6.696  -4.239  -8.060  0.00  0.00     0.024 H 
ATOM     45  H   LIG d   1       5.210  -3.476  -7.443  0.00  0.00     0.024 H 
ATOM     46  H   LIG d   1       6.801  -2.914  -6.876  0.00  0.00     0.024 H 
ENDBRANCH   5  43
BRANCH   4  47
ATOM     47  O   LIG d   1       6.563  -6.308  -7.906  0.00  0.00    -0.376 OA
ATOM     48  H   LIG d   1       6.414  -5.487  -8.395  0.00  0.00     0.211 HD
ENDBRANCH   4  47
ENDBRANCH   1   4
TORSDOF 3
ENDMDL
MODEL 3
REMARK VINA RESULT:      -6.2      1.459      6.519
REMARK  3 active torsions:
REMARK  status: ('A' for Active; 'I' for Inactive)
REMARK    1  A    between atoms: C_1  and  C_2 
REMARK    2  A    between atoms: C_13  and  C_14 
REMARK    3  A    between atoms: C_13  and  O_16 
ROOT
ATOM      1  C   LIG d   1       4.549   0.036  -2.344  0.00  0.00    -0.070 C 
ATOM      2  C   LIG d   1       4.298   1.040  -1.788  0.00  0.00    -0.116 C 
ATOM      3  H   LIG d   1       4.073   1.937  -1.291  0.00  0.00     0.123 H 
ENDROOT
BRANCH   1   4
ATOM      4  C   LIG d   1       4.865  -1.221  -3.040  0.00  0.00     0.132 C 
ATOM      5  C   LIG d   1       4.607  -1.077  -4.536  0.00  0.00     0.011 C 
ATOM      6  C   LIG d   1       5.968  -0.566  -5.085  0.00  0.00    -0.029 C 
ATOM      7  C   LIG d   1       3.537  -0.087  -4.941  0.00  0.00    -0.043 C 
ATOM      8  C   LIG d   1       5.898  -0.723  -6.609  0.00  0.00    -0.031 C 
ATOM      9  H   LIG d   1       6.124   0.478  -4.816  0.00  0.00     0.031 H 
ATOM     10  C   LIG d   1       6.957  -1.480  -4.352  0.00  0.00    -0.046 C 
ATOM     11  C   LIG d   1       4.814   0.247  -7.085  0.00  0.00    -0.017 C 
ATOM     12  H   LIG d   1       5.647  -1.742  -6.904  0.00  0.00     0.031 H 
ATOM     13  C   LIG d   1       7.206  -0.289  -7.275  0.00  0.00    -0.046 C 
ATOM     14  C   LIG d   1       3.458  -0.085  -6.480  0.00  0.00    -0.046 C 
ATOM     15  H   LIG d   1       5.093   1.247  -6.747  0.00  0.00     0.035 H 
ATOM     16  C   LIG d   1       4.755   0.272  -8.595  0.00  0.00    -0.066 C 
ATOM     17  H   LIG d   1       3.143  -1.070  -6.825  0.00  0.00     0.027 H 
ATOM     18  H   LIG d   1       2.729   0.657  -6.803  0.00  0.00     0.027 H 
ATOM     19  C   LIG d   1       5.765  -0.041  -9.333  0.00  0.00    -0.063 C 
ATOM     20  C   LIG d   1       3.415   0.695  -9.158  0.00  0.00    -0.025 C 
ATOM     21  C   LIG d   1       7.070  -0.563  -8.767  0.00  0.00    -0.031 C 
ATOM     22  C   LIG d   1       5.760   0.084 -10.846  0.00  0.00     0.027 C 
ATOM     23  H   LIG d   1       7.897  -0.086  -9.291  0.00  0.00     0.031 H 
ATOM     24  H   LIG d   1       7.122  -1.638  -8.934  0.00  0.00     0.031 H 
ATOM     25  C   LIG d   1       4.385   0.294 -11.358  0.00  0.00     0.138 C 
ATOM     26  H   LIG d   1       6.417   0.902 -11.140  0.00  0.00     0.039 H 
ATOM     27  H   LIG d   1       6.127  -0.844 -11.284  0.00  0.00     0.039 H 
ATOM     28  C   LIG d   1       3.543   1.273 -10.562  0.00  0.00     0.010 C 
ATOM     29  O   LIG d   1       3.963  -0.249 -12.351  0.00  0.00    -0.297 OA
ATOM     30  H   LIG d   1       2.557   1.374 -11.016  0.00  0.00     0.035 H 
ATOM     31  H   LIG d   1       4.038   2.244 -10.521  0.00  0.00     0.035 H 
ATOM     32  H   LIG d   1       2.755  -0.172  -9.190  0.00  0.00     0.031 H 
ATOM     33  H   LIG d   1       2.976   1.447  -8.502  0.00  0.00     0.031 H 
ATOM     34  H   LIG d   1       7.372   0.776  -7.107  0.00  0.00     0.027 H 
ATOM     35  H   LIG d   1       8.038  -0.863  -6.867  0.00  0.00     0.027 H 
ATOM     36  C   LIG d   1       6.376  -1.540  -2.914  0.00  0.00    -0.012 C 
ATOM     37  H   LIG d   1       6.973  -2.472  -4.803  0.00  0.00     0.027 H 
ATOM     38  H   LIG d   1       7.955  -1.043  -4.347  0.00  0.00     0.027 H 
ATOM     39  H   LIG d   1       6.514  -2.537  -2.495  0.00  0.00     0.030 H 
ATOM     40  H   LIG d   1       6.863  -0.797  -2.282  0.00  0.00     0.030 H 
ATOM     41  H   LIG d   1       2.576  -0.390  -4.523  0.00  0.00     0.027 H 
ATOM     42  H   LIG d   1       3.799   0.909  -4.584  0.00  0.00     0.027 H 
BRANCH   5  43
ATOM     43  C   LIG d   1       4.293  -2.448  -5.137  0.00  0.00    -0.056 C 
ATOM     44  H   LIG d   1       4.602  -3.229  -4.441  0.00  0.00     0.024 H 
ATOM     45  H   LIG d   1       3.222  -2.528  -5.321  0.00  0.00     0.024 H 
ATOM     46  H   LIG d   1       4.833  -2.565  -6.076  0.00  0.00     0.024 H 
ENDBRANCH   5  43
BRANCH   4  47
ATOM     47  O   LIG d   1       4.085  -2.293  -2.505  0.00  0.00    -0.376 OA
ATOM     48  H   LIG d   1       4.018  -2.286  -1.541  0.00  0.00     0.211 HD
ENDBRANCH   4  47
ENDBRANCH   1   4
TORSDOF 3
ENDMDL
MODEL 4
REMARK VINA RESULT:      -6.1      4.167      6.500
REMARK  3 active torsions:
REMARK  status: ('A' for Active; 'I' for Inactive)
REMARK    1  A    between atoms: C_1  and  C_2 
REMARK    2  A    between atoms: C_13  and  C_14 
REMARK    3  A    between atoms: C_13  and  O_16 
ROOT
ATOM      1  C   LIG d   1       3.051   0.817  -4.299  0.00  0.00    -0.070 C 
ATOM      2  C   LIG d   1       2.403   1.109  -5.234  0.00  0.00    -0.116 C 
ATOM      3  H   LIG d   1       1.825   1.371  -6.070  0.00  0.00     0.123 H 
ENDROOT
BRANCH   1   4
ATOM      4  C   LIG d   1       3.862   0.450  -3.127  0.00  0.00     0.132 C 
ATOM      5  C   LIG d   1       4.514  -0.911  -3.339  0.00  0.00     0.011 C 
ATOM      6  C   LIG d   1       5.866  -0.557  -4.018  0.00  0.00    -0.029 C 
ATOM      7  C   LIG d   1       3.775  -1.877  -4.240  0.00  0.00    -0.043 C 
ATOM      8  C   LIG d   1       6.721  -1.829  -3.951  0.00  0.00    -0.031 C 
ATOM      9  H   LIG d   1       5.709  -0.258  -5.054  0.00  0.00     0.031 H 
ATOM     10  C   LIG d   1       6.339   0.625  -3.164  0.00  0.00    -0.046 C 
ATOM     11  C   LIG d   1       6.015  -2.860  -4.836  0.00  0.00    -0.017 C 
ATOM     12  H   LIG d   1       6.814  -2.207  -2.933  0.00  0.00     0.031 H 
ATOM     13  C   LIG d   1       8.108  -1.600  -4.557  0.00  0.00    -0.046 C 
ATOM     14  C   LIG d   1       4.613  -3.168  -4.330  0.00  0.00    -0.046 C 
ATOM     15  H   LIG d   1       5.922  -2.432  -5.834  0.00  0.00     0.035 H 
ATOM     16  C   LIG d   1       6.849  -4.116  -4.950  0.00  0.00    -0.066 C 
ATOM     17  H   LIG d   1       4.680  -3.623  -3.342  0.00  0.00     0.027 H 
ATOM     18  H   LIG d   1       4.129  -3.864  -5.014  0.00  0.00     0.027 H 
ATOM     19  C   LIG d   1       8.128  -4.115  -4.787  0.00  0.00    -0.063 C 
ATOM     20  C   LIG d   1       6.054  -5.363  -5.270  0.00  0.00    -0.025 C 
ATOM     21  C   LIG d   1       8.905  -2.885  -4.365  0.00  0.00    -0.031 C 
ATOM     22  C   LIG d   1       8.995  -5.342  -5.007  0.00  0.00     0.027 C 
ATOM     23  H   LIG d   1       9.819  -2.825  -4.956  0.00  0.00     0.031 H 
ATOM     24  H   LIG d   1       9.173  -2.980  -3.314  0.00  0.00     0.031 H 
ATOM     25  C   LIG d   1       8.167  -6.567  -5.109  0.00  0.00     0.138 C 
ATOM     26  H   LIG d   1       9.597  -5.199  -5.904  0.00  0.00     0.039 H 
ATOM     27  H   LIG d   1       9.656  -5.471  -4.150  0.00  0.00     0.039 H 
ATOM     28  C   LIG d   1       6.910  -6.427  -5.946  0.00  0.00     0.010 C 
ATOM     29  O   LIG d   1       8.476  -7.613  -4.590  0.00  0.00    -0.297 OA
ATOM     30  H   LIG d   1       6.373  -7.376  -5.975  0.00  0.00     0.035 H 
ATOM     31  H   LIG d   1       7.167  -6.112  -6.957  0.00  0.00     0.035 H 
ATOM     32  H   LIG d   1       5.647  -5.771  -4.344  0.00  0.00     0.031 H 
ATOM     33  H   LIG d   1       5.229  -5.098  -5.931  0.00  0.00     0.031 H 
ATOM     34  H   LIG d   1       8.016  -1.377  -5.620  0.00  0.00     0.027 H 
ATOM     35  H   LIG d   1       8.604  -0.776  -4.045  0.00  0.00     0.027 H 
ATOM     36  C   LIG d   1       5.037   1.445  -2.955  0.00  0.00    -0.012 C 
ATOM     37  H   LIG d   1       6.734   0.278  -2.209  0.00  0.00     0.027 H 
ATOM     38  H   LIG d   1       7.084   1.214  -3.699  0.00  0.00     0.027 H 
ATOM     39  H   LIG d   1       5.022   1.874  -1.953  0.00  0.00     0.030 H 
ATOM     40  H   LIG d   1       4.970   2.237  -3.702  0.00  0.00     0.030 H 
ATOM     41  H   LIG d   1       2.796  -2.103  -3.815  0.00  0.00     0.027 H 
ATOM     42  H   LIG d   1       3.658  -1.443  -5.232  0.00  0.00     0.027 H 
BRANCH   5  43
ATOM     43  C   LIG d   1       4.777  -1.570  -1.983  0.00  0.00    -0.056 C 
ATOM     44  H   LIG d   1       5.460  -2.410  -2.115  0.00  0.00     0.024 H 
ATOM     45  H   LIG d   1       5.222  -0.842  -1.305  0.00  0.00     0.024 H 
ATOM     46  H   LIG d   1       3.836  -1.929  -1.566  0.00  0.00     0.024 H 
ENDBRANCH   5  43
BRANCH   4  47
ATOM     47  O   LIG d   1       3.051   0.434  -1.950  0.00  0.00    -0.376 OA
ATOM     48  H   LIG d   1       2.130   0.681  -2.104  0.00  0.00     0.211 HD
ENDBRANCH   4  47
ENDBRANCH   1   4
TORSDOF 3
ENDMDL
MODEL 5
REMARK VINA RESULT:      -6.1      3.921      6.609
REMARK  3 active torsions:
REMARK  status: ('A' for Active; 'I' for Inactive)
REMARK    1  A    between atoms: C_1  and  C_2 
REMARK    2  A    between atoms: C_13  and  C_14 
REMARK    3  A    between atoms: C_13  and  O_16 
ROOT
ATOM      1  C   LIG d   1       2.685  -0.017  -4.223  0.00  0.00    -0.070 C 
ATOM      2  C   LIG d   1       1.913   0.325  -5.040  0.00  0.00    -0.116 C 
ATOM      3  H   LIG d   1       1.222   0.630  -5.769  0.00  0.00     0.123 H 
ENDROOT
BRANCH   1   4
ATOM      4  C   LIG d   1       3.654  -0.444  -3.201  0.00  0.00     0.132 C 
ATOM      5  C   LIG d   1       5.038  -0.607  -3.818  0.00  0.00     0.011 C 
ATOM      6  C   LIG d   1       5.668   0.804  -3.660  0.00  0.00    -0.029 C 
ATOM      7  C   LIG d   1       5.080  -0.978  -5.286  0.00  0.00    -0.043 C 
ATOM      8  C   LIG d   1       7.167   0.635  -3.941  0.00  0.00    -0.031 C 
ATOM      9  H   LIG d   1       5.225   1.505  -4.367  0.00  0.00     0.031 H 
ATOM     10  C   LIG d   1       5.282   1.153  -2.218  0.00  0.00    -0.046 C 
ATOM     11  C   LIG d   1       7.279   0.241  -5.416  0.00  0.00    -0.017 C 
ATOM     12  H   LIG d   1       7.617  -0.133  -3.311  0.00  0.00     0.031 H 
ATOM     13  C   LIG d   1       7.918   1.958  -3.776  0.00  0.00    -0.046 C 
ATOM     14  C   LIG d   1       6.561  -1.069  -5.704  0.00  0.00    -0.046 C 
ATOM     15  H   LIG d   1       6.796   1.022  -6.005  0.00  0.00     0.035 H 
ATOM     16  C   LIG d   1       8.729   0.180  -5.836  0.00  0.00    -0.066 C 
ATOM     17  H   LIG d   1       7.042  -1.872  -5.147  0.00  0.00     0.027 H 
ATOM     18  H   LIG d   1       6.621  -1.285  -6.770  0.00  0.00     0.027 H 
ATOM     19  C   LIG d   1       9.654   0.847  -5.233  0.00  0.00    -0.063 C 
ATOM     20  C   LIG d   1       8.997  -0.727  -7.018  0.00  0.00    -0.025 C 
ATOM     21  C   LIG d   1       9.399   1.670  -3.988  0.00  0.00    -0.031 C 
ATOM     22  C   LIG d   1      11.096   0.885  -5.708  0.00  0.00     0.027 C 
ATOM     23  H   LIG d   1       9.933   2.616  -4.074  0.00  0.00     0.031 H 
ATOM     24  H   LIG d   1       9.780   1.129  -3.122  0.00  0.00     0.031 H 
ATOM     25  C   LIG d   1      11.350  -0.165  -6.723  0.00  0.00     0.138 C 
ATOM     26  H   LIG d   1      11.316   1.875  -6.106  0.00  0.00     0.039 H 
ATOM     27  H   LIG d   1      11.756   0.684  -4.865  0.00  0.00     0.039 H 
ATOM     28  C   LIG d   1      10.263  -0.330  -7.767  0.00  0.00     0.010 C 
ATOM     29  O   LIG d   1      12.359  -0.830  -6.741  0.00  0.00    -0.297 OA
ATOM     30  H   LIG d   1      10.539  -1.112  -8.475  0.00  0.00     0.035 H 
ATOM     31  H   LIG d   1      10.105   0.612  -8.293  0.00  0.00     0.035 H 
ATOM     32  H   LIG d   1       9.103  -1.752  -6.661  0.00  0.00     0.031 H 
ATOM     33  H   LIG d   1       8.149  -0.678  -7.702  0.00  0.00     0.031 H 
ATOM     34  H   LIG d   1       7.570   2.677  -4.519  0.00  0.00     0.027 H 
ATOM     35  H   LIG d   1       7.757   2.353  -2.774  0.00  0.00     0.027 H 
ATOM     36  C   LIG d   1       3.815   0.656  -2.121  0.00  0.00    -0.012 C 
ATOM     37  H   LIG d   1       5.917   0.621  -1.509  0.00  0.00     0.027 H 
ATOM     38  H   LIG d   1       5.336   2.229  -2.053  0.00  0.00     0.027 H 
ATOM     39  H   LIG d   1       3.625   0.239  -1.132  0.00  0.00     0.030 H 
ATOM     40  H   LIG d   1       3.127   1.478  -2.320  0.00  0.00     0.030 H 
ATOM     41  H   LIG d   1       4.594  -1.942  -5.437  0.00  0.00     0.027 H 
ATOM     42  H   LIG d   1       4.576  -0.212  -5.876  0.00  0.00     0.027 H 
BRANCH   5  43
ATOM     43  C   LIG d   1       5.845  -1.624  -3.008  0.00  0.00    -0.056 C 
ATOM     44  H   LIG d   1       5.942  -2.548  -3.579  0.00  0.00     0.024 H 
ATOM     45  H   LIG d   1       6.834  -1.219  -2.799  0.00  0.00     0.024 H 
ATOM     46  H   LIG d   1       5.330  -1.830  -2.070  0.00  0.00     0.024 H 
ENDBRANCH   5  43
BRANCH   4  47
ATOM     47  O   LIG d   1       3.232  -1.671  -2.600  0.00  0.00    -0.376 OA
ATOM     48  H   LIG d   1       3.507  -1.773  -1.680  0.00  0.00     0.211 HD
ENDBRANCH   4  47
ENDBRANCH   1   4
TORSDOF 3
ENDMDL
MODEL 6
REMARK VINA RESULT:      -5.7      1.719      3.109
REMARK  3 active torsions:
REMARK  status: ('A' for Active; 'I' for Inactive)
REMARK    1  A    between atoms: C_1  and  C_2 
REMARK    2  A    between atoms: C_13  and  C_14 
REMARK    3  A    between atoms: C_13  and  O_16 
ROOT
ATOM      1  C   LIG d   1       5.198  -1.235 -11.761  0.00  0.00    -0.070 C 
ATOM      2  C   LIG d   1       6.256  -0.924 -12.164  0.00  0.00    -0.116 C 
ATOM      3  H   LIG d   1       7.203  -0.647 -12.523  0.00  0.00     0.123 H 
ENDROOT
BRANCH   1   4
ATOM      4  C   LIG d   1       3.870  -1.623 -11.257  0.00  0.00     0.132 C 
ATOM      5  C   LIG d   1       3.916  -1.825  -9.747  0.00  0.00     0.011 C 
ATOM      6  C   LIG d   1       3.588  -0.414  -9.187  0.00  0.00    -0.029 C 
ATOM      7  C   LIG d   1       5.245  -2.263  -9.167  0.00  0.00    -0.043 C 
ATOM      8  C   LIG d   1       3.279  -0.609  -7.697  0.00  0.00    -0.031 C 
ATOM      9  H   LIG d   1       4.437   0.258  -9.315  0.00  0.00     0.031 H 
ATOM     10  C   LIG d   1       2.412   0.003 -10.076  0.00  0.00    -0.046 C 
ATOM     11  C   LIG d   1       4.587  -1.070  -7.050  0.00  0.00    -0.017 C 
ATOM     12  H   LIG d   1       2.497  -1.351  -7.535  0.00  0.00     0.031 H 
ATOM     13  C   LIG d   1       2.896   0.715  -7.030  0.00  0.00    -0.046 C 
ATOM     14  C   LIG d   1       5.072  -2.385  -7.641  0.00  0.00    -0.046 C 
ATOM     15  H   LIG d   1       5.345  -0.313  -7.258  0.00  0.00     0.035 H 
ATOM     16  C   LIG d   1       4.429  -1.163  -5.550  0.00  0.00    -0.066 C 
ATOM     17  H   LIG d   1       4.344  -3.167  -7.423  0.00  0.00     0.027 H 
ATOM     18  H   LIG d   1       6.028  -2.651  -7.191  0.00  0.00     0.027 H 
ATOM     19  C   LIG d   1       3.550  -0.476  -4.902  0.00  0.00    -0.063 C 
ATOM     20  C   LIG d   1       5.388  -2.124  -4.882  0.00  0.00    -0.025 C 
ATOM     21  C   LIG d   1       2.525   0.405  -5.585  0.00  0.00    -0.031 C 
ATOM     22  C   LIG d   1       3.450  -0.472  -3.387  0.00  0.00     0.027 C 
ATOM     23  H   LIG d   1       2.441   1.341  -5.034  0.00  0.00     0.031 H 
ATOM     24  H   LIG d   1       1.559  -0.099  -5.570  0.00  0.00     0.031 H 
ATOM     25  C   LIG d   1       4.253  -1.570  -2.798  0.00  0.00     0.138 C 
ATOM     26  H   LIG d   1       3.774   0.498  -3.010  0.00  0.00     0.039 H 
ATOM     27  H   LIG d   1       2.413  -0.640  -3.096  0.00  0.00     0.039 H 
ATOM     28  C   LIG d   1       5.622  -1.772  -3.418  0.00  0.00     0.010 C 
ATOM     29  O   LIG d   1       3.865  -2.243  -1.872  0.00  0.00    -0.297 OA
ATOM     30  H   LIG d   1       6.143  -2.588  -2.916  0.00  0.00     0.035 H 
ATOM     31  H   LIG d   1       6.205  -0.854  -3.344  0.00  0.00     0.035 H 
ATOM     32  H   LIG d   1       4.978  -3.132  -4.943  0.00  0.00     0.031 H 
ATOM     33  H   LIG d   1       6.342  -2.099  -5.410  0.00  0.00     0.031 H 
ATOM     34  H   LIG d   1       3.743   1.402  -7.056  0.00  0.00     0.027 H 
ATOM     35  H   LIG d   1       2.044   1.157  -7.545  0.00  0.00     0.027 H 
ATOM     36  C   LIG d   1       2.853  -0.476 -11.485  0.00  0.00    -0.012 C 
ATOM     37  H   LIG d   1       1.496  -0.500  -9.767  0.00  0.00     0.027 H 
ATOM     38  H   LIG d   1       2.281   1.085 -10.061  0.00  0.00     0.027 H 
ATOM     39  H   LIG d   1       1.992  -0.846 -12.042  0.00  0.00     0.030 H 
ATOM     40  H   LIG d   1       3.327   0.342 -12.028  0.00  0.00     0.030 H 
ATOM     41  H   LIG d   1       5.529  -3.229  -9.585  0.00  0.00     0.027 H 
ATOM     42  H   LIG d   1       6.010  -1.521  -9.394  0.00  0.00     0.027 H 
BRANCH   5  43
ATOM     43  C   LIG d   1       2.823  -2.811  -9.328  0.00  0.00    -0.056 C 
ATOM     44  H   LIG d   1       3.255  -3.806  -9.219  0.00  0.00     0.024 H 
ATOM     45  H   LIG d   1       2.393  -2.495  -8.378  0.00  0.00     0.024 H 
ATOM     46  H   LIG d   1       2.044  -2.834 -10.090  0.00  0.00     0.024 H 
ENDBRANCH   5  43
BRANCH   4  47
ATOM     47  O   LIG d   1       3.425  -2.817 -11.904  0.00  0.00    -0.376 OA
ATOM     48  H   LIG d   1       2.483  -2.818 -12.122  0.00  0.00     0.211 HD
ENDBRANCH   4  47
ENDBRANCH   1   4
TORSDOF 3
ENDMDL
MODEL 7
REMARK VINA RESULT:      -5.5      3.694      6.822
REMARK  3 active torsions:
REMARK  status: ('A' for Active; 'I' for Inactive)
REMARK    1  A    between atoms: C_1  and  C_2 
REMARK    2  A    between atoms: C_13  and  C_14 
REMARK    3  A    between atoms: C_13  and  O_16 
ROOT
ATOM      1  C   LIG d   1       4.450   0.458  -2.527  0.00  0.00    -0.070 C 
ATOM      2  C   LIG d   1       4.629   1.023  -1.513  0.00  0.00    -0.116 C 
ATOM      3  H   LIG d   1       4.788   1.527  -0.606  0.00  0.00     0.123 H 
ENDROOT
BRANCH   1   4
ATOM      4  C   LIG d   1       4.227  -0.248  -3.799  0.00  0.00     0.132 C 
ATOM      5  C   LIG d   1       5.557  -0.521  -4.492  0.00  0.00     0.011 C 
ATOM      6  C   LIG d   1       5.975  -1.908  -3.929  0.00  0.00    -0.029 C 
ATOM      7  C   LIG d   1       6.677   0.457  -4.209  0.00  0.00    -0.043 C 
ATOM      8  C   LIG d   1       7.117  -2.404  -4.825  0.00  0.00    -0.031 C 
ATOM      9  H   LIG d   1       6.313  -1.817  -2.897  0.00  0.00     0.031 H 
ATOM     10  C   LIG d   1       4.657  -2.685  -4.015  0.00  0.00    -0.046 C 
ATOM     11  C   LIG d   1       8.285  -1.441  -4.596  0.00  0.00    -0.017 C 
ATOM     12  H   LIG d   1       6.837  -2.412  -5.879  0.00  0.00     0.031 H 
ATOM     13  C   LIG d   1       7.597  -3.794  -4.397  0.00  0.00    -0.046 C 
ATOM     14  C   LIG d   1       7.921  -0.016  -4.985  0.00  0.00    -0.046 C 
ATOM     15  H   LIG d   1       8.514  -1.446  -3.529  0.00  0.00     0.035 H 
ATOM     16  C   LIG d   1       9.514  -1.919  -5.333  0.00  0.00    -0.066 C 
ATOM     17  H   LIG d   1       7.713   0.022  -6.055  0.00  0.00     0.027 H 
ATOM     18  H   LIG d   1       8.758   0.644  -4.760  0.00  0.00     0.027 H 
ATOM     19  C   LIG d   1       9.699  -3.157  -5.643  0.00  0.00    -0.063 C 
ATOM     20  C   LIG d   1      10.501  -0.822  -5.672  0.00  0.00    -0.025 C 
ATOM     21  C   LIG d   1       8.663  -4.233  -5.394  0.00  0.00    -0.031 C 
ATOM     22  C   LIG d   1      10.976  -3.672  -6.283  0.00  0.00     0.027 C 
ATOM     23  H   LIG d   1       9.162  -5.121  -5.008  0.00  0.00     0.031 H 
ATOM     24  H   LIG d   1       8.180  -4.484  -6.338  0.00  0.00     0.031 H 
ATOM     25  C   LIG d   1      11.811  -2.553  -6.781  0.00  0.00     0.138 C 
ATOM     26  H   LIG d   1      11.522  -4.276  -5.558  0.00  0.00     0.039 H 
ATOM     27  H   LIG d   1      10.721  -4.291  -7.143  0.00  0.00     0.039 H 
ATOM     28  C   LIG d   1      11.915  -1.362  -5.849  0.00  0.00     0.010 C 
ATOM     29  O   LIG d   1      12.391  -2.588  -7.840  0.00  0.00    -0.297 OA
ATOM     30  H   LIG d   1      12.554  -0.596  -6.290  0.00  0.00     0.035 H 
ATOM     31  H   LIG d   1      12.317  -1.676  -4.885  0.00  0.00     0.035 H 
ATOM     32  H   LIG d   1      10.188  -0.338  -6.598  0.00  0.00     0.031 H 
ATOM     33  H   LIG d   1      10.500  -0.083  -4.871  0.00  0.00     0.031 H 
ATOM     34  H   LIG d   1       8.025  -3.745  -3.395  0.00  0.00     0.027 H 
ATOM     35  H   LIG d   1       6.764  -4.495  -4.413  0.00  0.00     0.027 H 
ATOM     36  C   LIG d   1       3.608  -1.644  -3.537  0.00  0.00    -0.012 C 
ATOM     37  H   LIG d   1       4.456  -2.991  -5.041  0.00  0.00     0.027 H 
ATOM     38  H   LIG d   1       4.674  -3.548  -3.350  0.00  0.00     0.027 H 
ATOM     39  H   LIG d   1       2.684  -1.756  -4.103  0.00  0.00     0.030 H 
ATOM     40  H   LIG d   1       3.413  -1.772  -2.472  0.00  0.00     0.030 H 
ATOM     41  H   LIG d   1       6.389   1.454  -4.544  0.00  0.00     0.027 H 
ATOM     42  H   LIG d   1       6.893   0.474  -3.141  0.00  0.00     0.027 H 
BRANCH   5  43
ATOM     43  C   LIG d   1       5.336  -0.626  -6.003  0.00  0.00    -0.056 C 
ATOM     44  H   LIG d   1       4.892  -1.594  -6.238  0.00  0.00     0.024 H 
ATOM     45  H   LIG d   1       4.668   0.170  -6.329  0.00  0.00     0.024 H 
ATOM     46  H   LIG d   1       6.293  -0.531  -6.516  0.00  0.00     0.024 H 
ENDBRANCH   5  43
BRANCH   4  47
ATOM     47  O   LIG d   1       3.374   0.520  -4.650  0.00  0.00    -0.376 OA
ATOM     48  H   LIG d   1       2.437   0.466  -4.419  0.00  0.00     0.211 HD
ENDBRANCH   4  47
ENDBRANCH   1   4
TORSDOF 3
ENDMDL
MODEL 8
REMARK VINA RESULT:      -5.5      9.612     11.495
REMARK  3 active torsions:
REMARK  status: ('A' for Active; 'I' for Inactive)
REMARK    1  A    between atoms: C_1  and  C_2 
REMARK    2  A    between atoms: C_13  and  C_14 
REMARK    3  A    between atoms: C_13  and  O_16 
ROOT
ATOM      1  C   LIG d   1      12.584  -7.371  -3.982  0.00  0.00    -0.070 C 
ATOM      2  C   LIG d   1      13.173  -7.699  -4.944  0.00  0.00    -0.116 C 
ATOM      3  H   LIG d   1      13.699  -7.993  -5.804  0.00  0.00     0.123 H 
ENDROOT
BRANCH   1   4
ATOM      4  C   LIG d   1      11.847  -6.959  -2.776  0.00  0.00     0.132 C 
ATOM      5  C   LIG d   1      10.369  -7.302  -2.916  0.00  0.00     0.011 C 
ATOM      6  C   LIG d   1      10.281  -8.742  -2.338  0.00  0.00    -0.029 C 
ATOM      7  C   LIG d   1       9.815  -7.328  -4.325  0.00  0.00    -0.043 C 
ATOM      8  C   LIG d   1       8.787  -9.024  -2.127  0.00  0.00    -0.031 C 
ATOM      9  H   LIG d   1      10.710  -9.463  -3.033  0.00  0.00     0.031 H 
ATOM     10  C   LIG d   1      11.133  -8.616  -1.070  0.00  0.00    -0.046 C 
ATOM     11  C   LIG d   1       8.160  -9.048  -3.524  0.00  0.00    -0.017 C 
ATOM     12  H   LIG d   1       8.309  -8.261  -1.513  0.00  0.00     0.031 H 
ATOM     13  C   LIG d   1       8.563 -10.410  -1.516  0.00  0.00    -0.046 C 
ATOM     14  C   LIG d   1       8.326  -7.714  -4.236  0.00  0.00    -0.046 C 
ATOM     15  H   LIG d   1       8.684  -9.805  -4.109  0.00  0.00     0.035 H 
ATOM     16  C   LIG d   1       6.707  -9.454  -3.442  0.00  0.00    -0.066 C 
ATOM     17  H   LIG d   1       7.788  -6.943  -3.684  0.00  0.00     0.027 H 
ATOM     18  H   LIG d   1       7.913  -7.789  -5.241  0.00  0.00     0.027 H 
ATOM     19  C   LIG d   1       6.239 -10.160  -2.469  0.00  0.00    -0.063 C 
ATOM     20  C   LIG d   1       5.858  -8.963  -4.595  0.00  0.00    -0.025 C 
ATOM     21  C   LIG d   1       7.068 -10.560  -1.267  0.00  0.00    -0.031 C 
ATOM     22  C   LIG d   1       4.810 -10.671  -2.425  0.00  0.00     0.027 C 
ATOM     23  H   LIG d   1       6.854 -11.600  -1.021  0.00  0.00     0.031 H 
ATOM     24  H   LIG d   1       6.788  -9.934  -0.420  0.00  0.00     0.031 H 
ATOM     25  C   LIG d   1       3.973 -10.001  -3.450  0.00  0.00     0.138 C 
ATOM     26  H   LIG d   1       4.811 -11.751  -2.567  0.00  0.00     0.039 H 
ATOM     27  H   LIG d   1       4.375 -10.438  -1.453  0.00  0.00     0.039 H 
ATOM     28  C   LIG d   1       4.627  -9.835  -4.808  0.00  0.00     0.010 C 
ATOM     29  O   LIG d   1       2.842  -9.633  -3.236  0.00  0.00    -0.297 OA
ATOM     30  H   LIG d   1       3.938  -9.346  -5.497  0.00  0.00     0.035 H 
ATOM     31  H   LIG d   1       4.922 -10.808  -5.202  0.00  0.00     0.035 H 
ATOM     32  H   LIG d   1       5.538  -7.942  -4.389  0.00  0.00     0.031 H 
ATOM     33  H   LIG d   1       6.459  -8.968  -5.505  0.00  0.00     0.031 H 
ATOM     34  H   LIG d   1       8.902 -11.180  -2.210  0.00  0.00     0.027 H 
ATOM     35  H   LIG d   1       9.107 -10.492  -0.576  0.00  0.00     0.027 H 
ATOM     36  C   LIG d   1      12.340  -7.762  -1.546  0.00  0.00    -0.012 C 
ATOM     37  H   LIG d   1      10.583  -8.101  -0.284  0.00  0.00     0.027 H 
ATOM     38  H   LIG d   1      11.466  -9.597  -0.730  0.00  0.00     0.027 H 
ATOM     39  H   LIG d   1      12.651  -7.081  -0.755  0.00  0.00     0.030 H 
ATOM     40  H   LIG d   1      13.169  -8.411  -1.830  0.00  0.00     0.030 H 
ATOM     41  H   LIG d   1       9.914  -6.342  -4.779  0.00  0.00     0.027 H 
ATOM     42  H   LIG d   1      10.353  -8.066  -4.921  0.00  0.00     0.027 H 
BRANCH   5  43
ATOM     43  C   LIG d   1       9.538  -6.350  -2.055  0.00  0.00    -0.056 C 
ATOM     44  H   LIG d   1       9.245  -5.484  -2.649  0.00  0.00     0.024 H 
ATOM     45  H   LIG d   1       8.645  -6.866  -1.700  0.00  0.00     0.024 H 
ATOM     46  H   LIG d   1      10.131  -6.021  -1.202  0.00  0.00     0.024 H 
ENDBRANCH   5  43
BRANCH   4  47
ATOM     47  O   LIG d   1      12.011  -5.557  -2.551  0.00  0.00    -0.376 OA
ATOM     48  H   LIG d   1      11.629  -5.001  -3.243  0.00  0.00     0.211 HD
ENDBRANCH   4  47
ENDBRANCH   1   4
TORSDOF 3
ENDMDL
MODEL 9
REMARK VINA RESULT:      -5.4      9.989     13.002
REMARK  3 active torsions:
REMARK  status: ('A' for Active; 'I' for Inactive)
REMARK    1  A    between atoms: C_1  and  C_2 
REMARK    2  A    between atoms: C_13  and  C_14 
REMARK    3  A    between atoms: C_13  and  O_16 
ROOT
ATOM      1  C   LIG d   1      11.133  -9.365   1.209  0.00  0.00    -0.070 C 
ATOM      2  C   LIG d   1      10.871  -8.934   2.269  0.00  0.00    -0.116 C 
ATOM      3  H   LIG d   1      10.638  -8.549   3.218  0.00  0.00     0.123 H 
ENDROOT
BRANCH   1   4
ATOM      4  C   LIG d   1      11.460  -9.903  -0.122  0.00  0.00     0.132 C 
ATOM      5  C   LIG d   1      10.184 -10.172  -0.911  0.00  0.00     0.011 C 
ATOM      6  C   LIG d   1       9.929  -8.827  -1.647  0.00  0.00    -0.029 C 
ATOM      7  C   LIG d   1       8.949 -10.505  -0.101  0.00  0.00    -0.043 C 
ATOM      8  C   LIG d   1       8.870  -9.122  -2.717  0.00  0.00    -0.031 C 
ATOM      9  H   LIG d   1       9.566  -8.071  -0.951  0.00  0.00     0.031 H 
ATOM     10  C   LIG d   1      11.333  -8.485  -2.156  0.00  0.00    -0.046 C 
ATOM     11  C   LIG d   1       7.591  -9.484  -1.959  0.00  0.00    -0.017 C 
ATOM     12  H   LIG d   1       9.166  -9.943  -3.370  0.00  0.00     0.031 H 
ATOM     13  C   LIG d   1       8.556  -7.875  -3.548  0.00  0.00    -0.046 C 
ATOM     14  C   LIG d   1       7.784 -10.717  -1.088  0.00  0.00    -0.046 C 
ATOM     15  H   LIG d   1       7.347  -8.648  -1.302  0.00  0.00     0.035 H 
ATOM     16  C   LIG d   1       6.440  -9.663  -2.922  0.00  0.00    -0.066 C 
ATOM     17  H   LIG d   1       8.003 -11.574  -1.724  0.00  0.00     0.027 H 
ATOM     18  H   LIG d   1       6.870 -10.909  -0.528  0.00  0.00     0.027 H 
ATOM     19  C   LIG d   1       6.412  -9.097  -4.080  0.00  0.00    -0.063 C 
ATOM     20  C   LIG d   1       5.333 -10.558  -2.408  0.00  0.00    -0.025 C 
ATOM     21  C   LIG d   1       7.568  -8.288  -4.631  0.00  0.00    -0.031 C 
ATOM     22  C   LIG d   1       5.218  -9.175  -5.015  0.00  0.00     0.027 C 
ATOM     23  H   LIG d   1       7.174  -7.392  -5.110  0.00  0.00     0.031 H 
ATOM     24  H   LIG d   1       8.092  -8.884  -5.378  0.00  0.00     0.031 H 
ATOM     25  C   LIG d   1       4.261 -10.216  -4.570  0.00  0.00     0.138 C 
ATOM     26  H   LIG d   1       4.738  -8.197  -5.065  0.00  0.00     0.039 H 
ATOM     27  H   LIG d   1       5.560  -9.456  -6.010  0.00  0.00     0.039 H 
ATOM     28  C   LIG d   1       3.998 -10.255  -3.077  0.00  0.00     0.010 C 
ATOM     29  O   LIG d   1       3.705 -10.967  -5.336  0.00  0.00    -0.297 OA
ATOM     30  H   LIG d   1       3.277 -11.039  -2.845  0.00  0.00     0.035 H 
ATOM     31  H   LIG d   1       3.622  -9.288  -2.739  0.00  0.00     0.035 H 
ATOM     32  H   LIG d   1       5.599 -11.597  -2.602  0.00  0.00     0.031 H 
ATOM     33  H   LIG d   1       5.232 -10.415  -1.332  0.00  0.00     0.031 H 
ATOM     34  H   LIG d   1       8.111  -7.109  -2.912  0.00  0.00     0.027 H 
ATOM     35  H   LIG d   1       9.469  -7.494  -4.004  0.00  0.00     0.027 H 
ATOM     36  C   LIG d   1      12.240  -8.852  -0.950  0.00  0.00    -0.012 C 
ATOM     37  H   LIG d   1      11.586  -9.089  -3.027  0.00  0.00     0.027 H 
ATOM     38  H   LIG d   1      11.411  -7.422  -2.388  0.00  0.00     0.027 H 
ATOM     39  H   LIG d   1      13.180  -9.276  -1.303  0.00  0.00     0.030 H 
ATOM     40  H   LIG d   1      12.433  -7.966  -0.344  0.00  0.00     0.030 H 
ATOM     41  H   LIG d   1       9.119 -11.418   0.470  0.00  0.00     0.027 H 
ATOM     42  H   LIG d   1       8.717  -9.683   0.574  0.00  0.00     0.027 H 
BRANCH   5  43
ATOM     43  C   LIG d   1      10.439 -11.278  -1.938  0.00  0.00    -0.056 C 
ATOM     44  H   LIG d   1       9.509 -11.810  -2.137  0.00  0.00     0.024 H 
ATOM     45  H   LIG d   1      10.812 -10.837  -2.862  0.00  0.00     0.024 H 
ATOM     46  H   LIG d   1      11.178 -11.976  -1.543  0.00  0.00     0.024 H 
ENDBRANCH   5  43
BRANCH   4  47
ATOM     47  O   LIG d   1      12.226 -11.103   0.005  0.00  0.00    -0.376 OA
ATOM     48  H   LIG d   1      12.748 -11.152   0.817  0.00  0.00     0.211 HD
ENDBRANCH   4  47
ENDBRANCH   1   4
TORSDOF 3
ENDMDL
MODEL 10
REMARK VINA RESULT:      -5.4      1.515      6.768
REMARK  3 active torsions:
REMARK  status: ('A' for Active; 'I' for Inactive)
REMARK    1  A    between atoms: C_1  and  C_2 
REMARK    2  A    between atoms: C_13  and  C_14 
REMARK    3  A    between atoms: C_13  and  O_16 
ROOT
ATOM      1  C   LIG d   1       3.994  -1.531  -2.461  0.00  0.00    -0.070 C 
ATOM      2  C   LIG d   1       3.543  -2.481  -1.937  0.00  0.00    -0.116 C 
ATOM      3  H   LIG d   1       3.140  -3.330  -1.469  0.00  0.00     0.123 H 
ENDROOT
BRANCH   1   4
ATOM      4  C   LIG d   1       4.558  -0.340  -3.117  0.00  0.00     0.132 C 
ATOM      5  C   LIG d   1       4.771  -0.605  -4.602  0.00  0.00     0.011 C 
ATOM      6  C   LIG d   1       3.420  -0.173  -5.240  0.00  0.00    -0.029 C 
ATOM      7  C   LIG d   1       5.038  -2.042  -4.998  0.00  0.00    -0.043 C 
ATOM      8  C   LIG d   1       3.672  -0.085  -6.750  0.00  0.00    -0.031 C 
ATOM      9  H   LIG d   1       2.643  -0.906  -5.025  0.00  0.00     0.031 H 
ATOM     10  C   LIG d   1       3.150   1.151  -4.517  0.00  0.00    -0.046 C 
ATOM     11  C   LIG d   1       3.966  -1.514  -7.214  0.00  0.00    -0.017 C 
ATOM     12  H   LIG d   1       4.512   0.568  -6.988  0.00  0.00     0.031 H 
ATOM     13  C   LIG d   1       2.418   0.375  -7.498  0.00  0.00    -0.046 C 
ATOM     14  C   LIG d   1       5.200  -2.084  -6.530  0.00  0.00    -0.046 C 
ATOM     15  H   LIG d   1       3.114  -2.135  -6.935  0.00  0.00     0.035 H 
ATOM     16  C   LIG d   1       4.097  -1.563  -8.719  0.00  0.00    -0.066 C 
ATOM     17  H   LIG d   1       6.072  -1.496  -6.815  0.00  0.00     0.027 H 
ATOM     18  H   LIG d   1       5.343  -3.116  -6.848  0.00  0.00     0.027 H 
ATOM     19  C   LIG d   1       3.539  -0.694  -9.492  0.00  0.00    -0.063 C 
ATOM     20  C   LIG d   1       4.933  -2.715  -9.234  0.00  0.00    -0.025 C 
ATOM     21  C   LIG d   1       2.791   0.515  -8.968  0.00  0.00    -0.031 C 
ATOM     22  C   LIG d   1       3.566  -0.789 -11.006  0.00  0.00     0.027 C 
ATOM     23  H   LIG d   1       1.880   0.646  -9.552  0.00  0.00     0.031 H 
ATOM     24  H   LIG d   1       3.417   1.398  -9.091  0.00  0.00     0.031 H 
ATOM     25  C   LIG d   1       4.556  -1.795 -11.459  0.00  0.00     0.138 C 
ATOM     26  H   LIG d   1       2.567  -1.032 -11.368  0.00  0.00     0.039 H 
ATOM     27  H   LIG d   1       3.871   0.172 -11.421  0.00  0.00     0.039 H 
ATOM     28  C   LIG d   1       4.571  -3.088 -10.666  0.00  0.00     0.010 C 
ATOM     29  O   LIG d   1       5.286  -1.618 -12.406  0.00  0.00    -0.297 OA
ATOM     30  H   LIG d   1       5.318  -3.769 -11.075  0.00  0.00     0.035 H 
ATOM     31  H   LIG d   1       3.585  -3.553 -10.693  0.00  0.00     0.035 H 
ATOM     32  H   LIG d   1       5.985  -2.433  -9.196  0.00  0.00     0.031 H 
ATOM     33  H   LIG d   1       4.777  -3.582  -8.591  0.00  0.00     0.031 H 
ATOM     34  H   LIG d   1       1.626  -0.367  -7.385  0.00  0.00     0.027 H 
ATOM     35  H   LIG d   1       2.085   1.336  -7.107  0.00  0.00     0.027 H 
ATOM     36  C   LIG d   1       3.551   0.836  -3.051  0.00  0.00    -0.012 C 
ATOM     37  H   LIG d   1       3.773   1.947  -4.925  0.00  0.00     0.027 H 
ATOM     38  H   LIG d   1       2.095   1.416  -4.580  0.00  0.00     0.027 H 
ATOM     39  H   LIG d   1       4.023   1.707  -2.596  0.00  0.00     0.030 H 
ATOM     40  H   LIG d   1       2.672   0.544  -2.477  0.00  0.00     0.030 H 
ATOM     41  H   LIG d   1       5.953  -2.392  -4.521  0.00  0.00     0.027 H 
ATOM     42  H   LIG d   1       4.199  -2.670  -4.698  0.00  0.00     0.027 H 
BRANCH   5  43
ATOM     43  C   LIG d   1       5.895   0.290  -5.127  0.00  0.00    -0.056 C 
ATOM     44  H   LIG d   1       6.270   0.915  -4.316  0.00  0.00     0.024 H 
ATOM     45  H   LIG d   1       6.705  -0.331  -5.511  0.00  0.00     0.024 H 
ATOM     46  H   LIG d   1       5.512   0.924  -5.926  0.00  0.00     0.024 H 
ENDBRANCH   5  43
BRANCH   4  47
ATOM     47  O   LIG d   1       5.792   0.028  -2.497  0.00  0.00    -0.376 OA
ATOM     48  H   LIG d   1       5.693   0.650  -1.764  0.00  0.00     0.211 HD
ENDBRANCH   4  47
ENDBRANCH   1   4
TORSDOF 3
ENDMDL
