MODEL 1
REMARK VINA RESULT:      -6.0      0.000      0.000
REMARK  11 active torsions:
REMARK  status: ('A' for Active; 'I' for Inactive)
REMARK    1  A    between atoms: C_1  and  C_2 
REMARK    2  A    between atoms: C_2  and  C_3 
REMARK    3  A    between atoms: C_2  and  C_4 
REMARK    4  A    between atoms: C_4  and  N_5 
REMARK    5  A    between atoms: C_9  and  C_11 
REMARK    6  A    between atoms: C_13  and  C_16 
REMARK    7  A    between atoms: C_18  and  O_22 
REMARK    8  A    between atoms: O_22  and  C_23 
REMARK    9  A    between atoms: C_23  and  C_24 
REMARK   10  A    between atoms: C_24  and  O_25 
REMARK   11  A    between atoms: O_25  and  C_26 
ROOT
ATOM      1  N   LIG d   1       4.976  -1.370  -3.615  0.00  0.00     0.244 N 
ATOM      2  C   LIG d   1       4.887  -2.784  -4.038  0.00  0.00    -0.031 C 
ATOM      3  C   LIG d   1       6.310  -3.135  -4.545  0.00  0.00    -0.007 C 
ATOM      4  C   LIG d   1       7.200  -2.347  -3.549  0.00  0.00     0.004 C 
ATOM      5  C   LIG d   1       6.382  -1.065  -3.289  0.00  0.00     0.059 C 
ATOM      6  H   LIG d   1       6.466  -0.778  -2.241  0.00  0.00     0.095 H 
ATOM      7  H   LIG d   1       4.620  -3.417  -3.193  0.00  0.00     0.082 H 
ATOM      8  H   LIG d   1       4.160  -2.894  -4.843  0.00  0.00     0.082 H 
ATOM      9  H   LIG d   1       6.496  -4.207  -4.473  0.00  0.00     0.032 H 
ATOM     10  H   LIG d   1       6.458  -2.782  -5.565  0.00  0.00     0.032 H 
ATOM     11  H   LIG d   1       7.337  -2.910  -2.626  0.00  0.00     0.033 H 
ATOM     12  H   LIG d   1       8.162  -2.106  -4.000  0.00  0.00     0.033 H 
ATOM     13  H   LIG d   1       4.664  -0.772  -4.365  0.00  0.00     0.204 HD
ENDROOT
BRANCH   5  14
ATOM     14  C   LIG d   1       6.882   0.050  -4.172  0.00  0.00     0.276 A 
ATOM     15  O   LIG d   1       6.527   0.259  -5.446  0.00  0.00    -0.332 OA
ATOM     16  N   LIG d   1       7.236   1.410  -5.876  0.00  0.00    -0.054 NA
ATOM     17  C   LIG d   1       7.959   1.804  -4.857  0.00  0.00     0.221 A 
ATOM     18  N   LIG d   1       7.736   0.969  -3.826  0.00  0.00    -0.185 NA
BRANCH  17  19
ATOM     19  C   LIG d   1       8.870   2.976  -4.842  0.00  0.00     0.115 A 
ATOM     20  N   LIG d   1       9.428   3.389  -5.974  0.00  0.00    -0.252 NA
ATOM     21  C   LIG d   1      10.237   4.429  -6.009  0.00  0.00     0.032 A 
ATOM     22  C   LIG d   1      10.548   5.126  -4.859  0.00  0.00    -0.002 A 
ATOM     23  H   LIG d   1      10.667   4.735  -6.951  0.00  0.00     0.083 H 
ATOM     24  C   LIG d   1       9.991   4.724  -3.647  0.00  0.00     0.124 A 
ATOM     25  H   LIG d   1      11.218   5.973  -4.898  0.00  0.00     0.067 H 
ATOM     26  C   LIG d   1       9.136   3.627  -3.644  0.00  0.00     0.009 A 
ATOM     27  H   LIG d   1       8.684   3.287  -2.724  0.00  0.00     0.068 H 
BRANCH  24  28
ATOM     28  O   LIG d   1      10.277   5.387  -2.497  0.00  0.00    -0.490 OA
BRANCH  28  29
ATOM     29  C   LIG d   1      10.011   6.791  -2.475  0.00  0.00     0.113 C 
ATOM     30  H   LIG d   1      10.831   7.323  -2.959  0.00  0.00     0.072 H 
ATOM     31  H   LIG d   1       9.082   6.995  -3.006  0.00  0.00     0.072 H 
BRANCH  29  32
ATOM     32  C   LIG d   1       9.885   7.263  -1.025  0.00  0.00     0.081 C 
ATOM     33  H   LIG d   1       9.958   6.406  -0.356  0.00  0.00     0.059 H 
ATOM     34  H   LIG d   1      10.689   7.966  -0.801  0.00  0.00     0.059 H 
BRANCH  32  35
ATOM     35  O   LIG d   1       8.624   7.908  -0.841  0.00  0.00    -0.380 OA
BRANCH  35  36
ATOM     36  C   LIG d   1       8.704   9.333  -0.770  0.00  0.00     0.037 C 
ATOM     37  H   LIG d   1       9.689   9.658  -1.102  0.00  0.00     0.052 H 
ATOM     38  H   LIG d   1       7.941   9.771  -1.412  0.00  0.00     0.052 H 
ATOM     39  H   LIG d   1       8.541   9.655   0.259  0.00  0.00     0.052 H 
ENDBRANCH  35  36
ENDBRANCH  32  35
ENDBRANCH  29  32
ENDBRANCH  28  29
ENDBRANCH  24  28
ENDBRANCH  17  19
ENDBRANCH   5  14
BRANCH   1  40
ATOM     40  C   LIG d   1       4.137  -1.156  -2.429  0.00  0.00    -0.029 C 
ATOM     41  H   LIG d   1       4.771  -0.963  -1.564  0.00  0.00     0.082 H 
ATOM     42  H   LIG d   1       3.534  -2.045  -2.245  0.00  0.00     0.082 H 
BRANCH  40  43
ATOM     43  C   LIG d   1       3.217   0.043  -2.665  0.00  0.00    -0.006 C 
ATOM     44  H   LIG d   1       2.285  -0.101  -2.117  0.00  0.00     0.035 H 
BRANCH  43  45
ATOM     45  C   LIG d   1       3.905   1.319  -2.175  0.00  0.00    -0.058 C 
ATOM     46  H   LIG d   1       3.218   2.160  -2.265  0.00  0.00     0.023 H 
ATOM     47  H   LIG d   1       4.197   1.197  -1.132  0.00  0.00     0.023 H 
ATOM     48  H   LIG d   1       4.791   1.508  -2.781  0.00  0.00     0.023 H 
ENDBRANCH  43  45
BRANCH  43  49
ATOM     49  C   LIG d   1       2.915   0.168  -4.160  0.00  0.00    -0.058 C 
ATOM     50  H   LIG d   1       2.336  -0.696  -4.487  0.00  0.00     0.023 H 
ATOM     51  H   LIG d   1       2.343   1.078  -4.341  0.00  0.00     0.023 H 
ATOM     52  H   LIG d   1       3.851   0.210  -4.717  0.00  0.00     0.023 H 
ENDBRANCH  43  49
ENDBRANCH  40  43
ENDBRANCH   1  40
TORSDOF 11
ENDMDL
MODEL 2
REMARK VINA RESULT:      -5.9      2.049      2.683
REMARK  11 active torsions:
REMARK  status: ('A' for Active; 'I' for Inactive)
REMARK    1  A    between atoms: C_1  and  C_2 
REMARK    2  A    between atoms: C_2  and  C_3 
REMARK    3  A    between atoms: C_2  and  C_4 
REMARK    4  A    between atoms: C_4  and  N_5 
REMARK    5  A    between atoms: C_9  and  C_11 
REMARK    6  A    between atoms: C_13  and  C_16 
REMARK    7  A    between atoms: C_18  and  O_22 
REMARK    8  A    between atoms: O_22  and  C_23 
REMARK    9  A    between atoms: C_23  and  C_24 
REMARK   10  A    between atoms: C_24  and  O_25 
REMARK   11  A    between atoms: O_25  and  C_26 
ROOT
ATOM      1  N   LIG d   1       3.807   0.266  -4.969  0.00  0.00     0.244 N 
ATOM      2  C   LIG d   1       2.727   0.137  -5.969  0.00  0.00    -0.031 C 
ATOM      3  C   LIG d   1       3.435  -0.363  -7.254  0.00  0.00    -0.007 C 
ATOM      4  C   LIG d   1       4.503  -1.324  -6.669  0.00  0.00     0.004 C 
ATOM      5  C   LIG d   1       4.914  -0.630  -5.354  0.00  0.00     0.059 C 
ATOM      6  H   LIG d   1       5.077  -1.375  -4.576  0.00  0.00     0.095 H 
ATOM      7  H   LIG d   1       1.987  -0.592  -5.637  0.00  0.00     0.082 H 
ATOM      8  H   LIG d   1       2.256   1.103  -6.146  0.00  0.00     0.082 H 
ATOM      9  H   LIG d   1       2.739  -0.898  -7.900  0.00  0.00     0.032 H 
ATOM     10  H   LIG d   1       3.904   0.464  -7.786  0.00  0.00     0.032 H 
ATOM     11  H   LIG d   1       4.071  -2.304  -6.468  0.00  0.00     0.033 H 
ATOM     12  H   LIG d   1       5.355  -1.409  -7.344  0.00  0.00     0.033 H 
ATOM     13  H   LIG d   1       4.135   1.219  -4.946  0.00  0.00     0.204 HD
ENDROOT
BRANCH   5  14
ATOM     14  C   LIG d   1       6.171   0.174  -5.570  0.00  0.00     0.276 A 
ATOM     15  O   LIG d   1       6.438   0.939  -6.636  0.00  0.00    -0.332 OA
ATOM     16  N   LIG d   1       7.721   1.504  -6.413  0.00  0.00    -0.054 NA
ATOM     17  C   LIG d   1       8.133   1.044  -5.258  0.00  0.00     0.221 A 
ATOM     18  N   LIG d   1       7.184   0.236  -4.754  0.00  0.00    -0.185 NA
BRANCH  17  19
ATOM     19  C   LIG d   1       9.432   1.363  -4.613  0.00  0.00     0.115 A 
ATOM     20  N   LIG d   1      10.512   0.658  -4.927  0.00  0.00    -0.252 NA
ATOM     21  C   LIG d   1      11.687   0.911  -4.385  0.00  0.00     0.032 A 
ATOM     22  C   LIG d   1      11.837   1.918  -3.453  0.00  0.00    -0.002 A 
ATOM     23  H   LIG d   1      12.543   0.318  -4.670  0.00  0.00     0.083 H 
ATOM     24  C   LIG d   1      10.728   2.680  -3.087  0.00  0.00     0.124 A 
ATOM     25  H   LIG d   1      12.803   2.113  -3.010  0.00  0.00     0.067 H 
ATOM     26  C   LIG d   1       9.505   2.393  -3.682  0.00  0.00     0.009 A 
ATOM     27  H   LIG d   1       8.624   2.962  -3.425  0.00  0.00     0.068 H 
BRANCH  24  28
ATOM     28  O   LIG d   1      10.842   3.677  -2.174  0.00  0.00    -0.490 OA
BRANCH  28  29
ATOM     29  C   LIG d   1      10.138   4.890  -2.446  0.00  0.00     0.113 C 
ATOM     30  H   LIG d   1      10.204   5.117  -3.510  0.00  0.00     0.072 H 
ATOM     31  H   LIG d   1       9.092   4.775  -2.163  0.00  0.00     0.072 H 
BRANCH  29  32
ATOM     32  C   LIG d   1      10.762   6.033  -1.642  0.00  0.00     0.081 C 
ATOM     33  H   LIG d   1      11.834   5.865  -1.544  0.00  0.00     0.059 H 
ATOM     34  H   LIG d   1      10.589   6.977  -2.161  0.00  0.00     0.059 H 
BRANCH  32  35
ATOM     35  O   LIG d   1      10.165   6.086  -0.346  0.00  0.00    -0.380 OA
BRANCH  35  36
ATOM     36  C   LIG d   1      11.082   5.861   0.726  0.00  0.00     0.037 C 
ATOM     37  H   LIG d   1      12.102   5.879   0.341  0.00  0.00     0.052 H 
ATOM     38  H   LIG d   1      10.963   6.642   1.477  0.00  0.00     0.052 H 
ATOM     39  H   LIG d   1      10.881   4.890   1.179  0.00  0.00     0.052 H 
ENDBRANCH  35  36
ENDBRANCH  32  35
ENDBRANCH  29  32
ENDBRANCH  28  29
ENDBRANCH  24  28
ENDBRANCH  17  19
ENDBRANCH   5  14
BRANCH   1  40
ATOM     40  C   LIG d   1       3.302  -0.116  -3.643  0.00  0.00    -0.029 C 
ATOM     41  H   LIG d   1       2.752  -1.054  -3.720  0.00  0.00     0.082 H 
ATOM     42  H   LIG d   1       2.639   0.663  -3.269  0.00  0.00     0.082 H 
BRANCH  40  43
ATOM     43  C   LIG d   1       4.478  -0.291  -2.680  0.00  0.00    -0.006 C 
ATOM     44  H   LIG d   1       5.408  -0.332  -3.247  0.00  0.00     0.035 H 
BRANCH  43  45
ATOM     45  C   LIG d   1       4.523   0.891  -1.710  0.00  0.00    -0.058 C 
ATOM     46  H   LIG d   1       4.704   1.811  -2.266  0.00  0.00     0.023 H 
ATOM     47  H   LIG d   1       3.571   0.966  -1.183  0.00  0.00     0.023 H 
ATOM     48  H   LIG d   1       5.326   0.739  -0.989  0.00  0.00     0.023 H 
ENDBRANCH  43  45
BRANCH  43  49
ATOM     49  C   LIG d   1       4.303  -1.591  -1.892  0.00  0.00    -0.058 C 
ATOM     50  H   LIG d   1       5.187  -1.767  -1.280  0.00  0.00     0.023 H 
ATOM     51  H   LIG d   1       3.426  -1.512  -1.250  0.00  0.00     0.023 H 
ATOM     52  H   LIG d   1       4.170  -2.421  -2.586  0.00  0.00     0.023 H 
ENDBRANCH  43  49
ENDBRANCH  40  43
ENDBRANCH   1  40
TORSDOF 11
ENDMDL
MODEL 3
REMARK VINA RESULT:      -5.8      1.910      2.655
REMARK  11 active torsions:
REMARK  status: ('A' for Active; 'I' for Inactive)
REMARK    1  A    between atoms: C_1  and  C_2 
REMARK    2  A    between atoms: C_2  and  C_3 
REMARK    3  A    between atoms: C_2  and  C_4 
REMARK    4  A    between atoms: C_4  and  N_5 
REMARK    5  A    between atoms: C_9  and  C_11 
REMARK    6  A    between atoms: C_13  and  C_16 
REMARK    7  A    between atoms: C_18  and  O_22 
REMARK    8  A    between atoms: O_22  and  C_23 
REMARK    9  A    between atoms: C_23  and  C_24 
REMARK   10  A    between atoms: C_24  and  O_25 
REMARK   11  A    between atoms: O_25  and  C_26 
ROOT
ATOM      1  N   LIG d   1       4.040  -0.323  -4.176  0.00  0.00     0.244 N 
ATOM      2  C   LIG d   1       3.410  -1.309  -3.273  0.00  0.00    -0.031 C 
ATOM      3  C   LIG d   1       4.226  -1.220  -1.959  0.00  0.00    -0.007 C 
ATOM      4  C   LIG d   1       4.526   0.300  -1.879  0.00  0.00     0.004 C 
ATOM      5  C   LIG d   1       4.724   0.695  -3.357  0.00  0.00     0.059 C 
ATOM      6  H   LIG d   1       4.287   1.675  -3.541  0.00  0.00     0.095 H 
ATOM      7  H   LIG d   1       2.368  -1.045  -3.090  0.00  0.00     0.082 H 
ATOM      8  H   LIG d   1       3.480  -2.310  -3.697  0.00  0.00     0.082 H 
ATOM      9  H   LIG d   1       3.630  -1.547  -1.106  0.00  0.00     0.032 H 
ATOM     10  H   LIG d   1       5.148  -1.796  -2.033  0.00  0.00     0.032 H 
ATOM     11  H   LIG d   1       3.680   0.837  -1.447  0.00  0.00     0.033 H 
ATOM     12  H   LIG d   1       5.434   0.484  -1.305  0.00  0.00     0.033 H 
ATOM     13  H   LIG d   1       4.710  -0.787  -4.769  0.00  0.00     0.204 HD
ENDROOT
BRANCH   5  14
ATOM     14  C   LIG d   1       6.195   0.715  -3.688  0.00  0.00     0.276 A 
ATOM     15  O   LIG d   1       6.884  -0.285  -4.252  0.00  0.00    -0.332 OA
ATOM     16  N   LIG d   1       8.222   0.172  -4.378  0.00  0.00    -0.054 NA
ATOM     17  C   LIG d   1       8.248   1.386  -3.886  0.00  0.00     0.221 A 
ATOM     18  N   LIG d   1       7.010   1.706  -3.469  0.00  0.00    -0.185 NA
BRANCH  17  19
ATOM     19  C   LIG d   1       9.444   2.262  -3.804  0.00  0.00     0.115 A 
ATOM     20  N   LIG d   1      10.655   1.734  -3.936  0.00  0.00    -0.252 NA
ATOM     21  C   LIG d   1      11.745   2.474  -3.877  0.00  0.00     0.032 A 
ATOM     22  C   LIG d   1      11.667   3.836  -3.662  0.00  0.00    -0.002 A 
ATOM     23  H   LIG d   1      12.711   2.007  -3.993  0.00  0.00     0.083 H 
ATOM     24  C   LIG d   1      10.416   4.432  -3.513  0.00  0.00     0.124 A 
ATOM     25  H   LIG d   1      12.566   4.432  -3.610  0.00  0.00     0.067 H 
ATOM     26  C   LIG d   1       9.286   3.625  -3.586  0.00  0.00     0.009 A 
ATOM     27  H   LIG d   1       8.300   4.052  -3.476  0.00  0.00     0.068 H 
BRANCH  24  28
ATOM     28  O   LIG d   1      10.305   5.768  -3.300  0.00  0.00    -0.490 OA
BRANCH  28  29
ATOM     29  C   LIG d   1       9.772   6.184  -2.042  0.00  0.00     0.113 C 
ATOM     30  H   LIG d   1       9.411   7.209  -2.121  0.00  0.00     0.072 H 
ATOM     31  H   LIG d   1       8.947   5.529  -1.762  0.00  0.00     0.072 H 
BRANCH  29  32
ATOM     32  C   LIG d   1      10.866   6.110  -0.975  0.00  0.00     0.081 C 
ATOM     33  H   LIG d   1      11.321   5.120  -0.989  0.00  0.00     0.059 H 
ATOM     34  H   LIG d   1      11.628   6.862  -1.185  0.00  0.00     0.059 H 
BRANCH  32  35
ATOM     35  O   LIG d   1      10.296   6.356   0.312  0.00  0.00    -0.380 OA
BRANCH  35  36
ATOM     36  C   LIG d   1      11.056   5.820   1.397  0.00  0.00     0.037 C 
ATOM     37  H   LIG d   1      11.621   4.954   1.051  0.00  0.00     0.052 H 
ATOM     38  H   LIG d   1      11.745   6.579   1.767  0.00  0.00     0.052 H 
ATOM     39  H   LIG d   1      10.382   5.519   2.198  0.00  0.00     0.052 H 
ENDBRANCH  35  36
ENDBRANCH  32  35
ENDBRANCH  29  32
ENDBRANCH  28  29
ENDBRANCH  24  28
ENDBRANCH  17  19
ENDBRANCH   5  14
BRANCH   1  40
ATOM     40  C   LIG d   1       3.010   0.320  -5.003  0.00  0.00    -0.029 C 
ATOM     41  H   LIG d   1       3.168   1.399  -5.008  0.00  0.00     0.082 H 
ATOM     42  H   LIG d   1       2.025   0.101  -4.591  0.00  0.00     0.082 H 
BRANCH  40  43
ATOM     43  C   LIG d   1       3.095  -0.215  -6.433  0.00  0.00    -0.006 C 
ATOM     44  H   LIG d   1       2.346  -0.994  -6.574  0.00  0.00     0.035 H 
BRANCH  43  45
ATOM     45  C   LIG d   1       2.839   0.925  -7.421  0.00  0.00    -0.058 C 
ATOM     46  H   LIG d   1       1.927   0.721  -7.982  0.00  0.00     0.023 H 
ATOM     47  H   LIG d   1       2.728   1.861  -6.874  0.00  0.00     0.023 H 
ATOM     48  H   LIG d   1       3.679   1.003  -8.110  0.00  0.00     0.023 H 
ENDBRANCH  43  45
BRANCH  43  49
ATOM     49  C   LIG d   1       4.490  -0.798  -6.676  0.00  0.00    -0.058 C 
ATOM     50  H   LIG d   1       4.735  -1.499  -5.878  0.00  0.00     0.023 H 
ATOM     51  H   LIG d   1       4.503  -1.319  -7.634  0.00  0.00     0.023 H 
ATOM     52  H   LIG d   1       5.222   0.009  -6.691  0.00  0.00     0.023 H 
ENDBRANCH  43  49
ENDBRANCH  40  43
ENDBRANCH   1  40
TORSDOF 11
ENDMDL
MODEL 4
REMARK VINA RESULT:      -5.6      1.981      2.278
REMARK  11 active torsions:
REMARK  status: ('A' for Active; 'I' for Inactive)
REMARK    1  A    between atoms: C_1  and  C_2 
REMARK    2  A    between atoms: C_2  and  C_3 
REMARK    3  A    between atoms: C_2  and  C_4 
REMARK    4  A    between atoms: C_4  and  N_5 
REMARK    5  A    between atoms: C_9  and  C_11 
REMARK    6  A    between atoms: C_13  and  C_16 
REMARK    7  A    between atoms: C_18  and  O_22 
REMARK    8  A    between atoms: O_22  and  C_23 
REMARK    9  A    between atoms: C_23  and  C_24 
REMARK   10  A    between atoms: C_24  and  O_25 
REMARK   11  A    between atoms: O_25  and  C_26 
ROOT
ATOM      1  N   LIG d   1       4.874  -1.395  -3.798  0.00  0.00     0.244 N 
ATOM      2  C   LIG d   1       4.822  -2.734  -4.421  0.00  0.00    -0.031 C 
ATOM      3  C   LIG d   1       6.287  -3.039  -4.826  0.00  0.00    -0.007 C 
ATOM      4  C   LIG d   1       7.075  -2.412  -3.646  0.00  0.00     0.004 C 
ATOM      5  C   LIG d   1       6.240  -1.164  -3.293  0.00  0.00     0.059 C 
ATOM      6  H   LIG d   1       6.218  -1.025  -2.213  0.00  0.00     0.095 H 
ATOM      7  H   LIG d   1       4.467  -3.473  -3.703  0.00  0.00     0.082 H 
ATOM      8  H   LIG d   1       4.181  -2.719  -5.302  0.00  0.00     0.082 H 
ATOM      9  H   LIG d   1       6.460  -4.113  -4.885  0.00  0.00     0.032 H 
ATOM     10  H   LIG d   1       6.540  -2.551  -5.767  0.00  0.00     0.032 H 
ATOM     11  H   LIG d   1       7.114  -3.100  -2.800  0.00  0.00     0.033 H 
ATOM     12  H   LIG d   1       8.079  -2.129  -3.960  0.00  0.00     0.033 H 
ATOM     13  H   LIG d   1       4.643  -0.693  -4.485  0.00  0.00     0.204 HD
ENDROOT
BRANCH   5  14
ATOM     14  C   LIG d   1       6.833   0.053  -3.958  0.00  0.00     0.276 A 
ATOM     15  O   LIG d   1       6.589   0.458  -5.211  0.00  0.00    -0.332 OA
ATOM     16  N   LIG d   1       7.353   1.638  -5.407  0.00  0.00    -0.054 NA
ATOM     17  C   LIG d   1       7.996   1.854  -4.286  0.00  0.00     0.221 A 
ATOM     18  N   LIG d   1       7.672   0.885  -3.411  0.00  0.00    -0.185 NA
BRANCH  17  19
ATOM     19  C   LIG d   1       8.925   2.983  -4.024  0.00  0.00     0.115 A 
ATOM     20  N   LIG d   1       9.646   2.995  -2.910  0.00  0.00    -0.252 NA
ATOM     21  C   LIG d   1      10.488   3.973  -2.640  0.00  0.00     0.032 A 
ATOM     22  C   LIG d   1      10.644   5.036  -3.507  0.00  0.00    -0.002 A 
ATOM     23  H   LIG d   1      11.060   3.945  -1.725  0.00  0.00     0.083 H 
ATOM     24  C   LIG d   1       9.903   5.067  -4.687  0.00  0.00     0.124 A 
ATOM     25  H   LIG d   1      11.333   5.835  -3.274  0.00  0.00     0.067 H 
ATOM     26  C   LIG d   1       9.028   4.018  -4.946  0.00  0.00     0.009 A 
ATOM     27  H   LIG d   1       8.437   4.007  -5.850  0.00  0.00     0.068 H 
BRANCH  24  28
ATOM     28  O   LIG d   1      10.032   6.098  -5.561  0.00  0.00    -0.490 OA
BRANCH  28  29
ATOM     29  C   LIG d   1       9.228   7.254  -5.325  0.00  0.00     0.113 C 
ATOM     30  H   LIG d   1       8.225   7.086  -5.720  0.00  0.00     0.072 H 
ATOM     31  H   LIG d   1       9.170   7.445  -4.254  0.00  0.00     0.072 H 
BRANCH  29  32
ATOM     32  C   LIG d   1       9.853   8.462  -6.026  0.00  0.00     0.081 C 
ATOM     33  H   LIG d   1      10.927   8.474  -5.840  0.00  0.00     0.059 H 
ATOM     34  H   LIG d   1       9.672   8.393  -7.100  0.00  0.00     0.059 H 
BRANCH  32  35
ATOM     35  O   LIG d   1       9.267   9.663  -5.522  0.00  0.00    -0.380 OA
BRANCH  35  36
ATOM     36  C   LIG d   1       9.928  10.856  -5.948  0.00  0.00     0.037 C 
ATOM     37  H   LIG d   1      10.323  11.383  -5.079  0.00  0.00     0.052 H 
ATOM     38  H   LIG d   1      10.748  10.597  -6.618  0.00  0.00     0.052 H 
ATOM     39  H   LIG d   1       9.219  11.497  -6.472  0.00  0.00     0.052 H 
ENDBRANCH  35  36
ENDBRANCH  32  35
ENDBRANCH  29  32
ENDBRANCH  28  29
ENDBRANCH  24  28
ENDBRANCH  17  19
ENDBRANCH   5  14
BRANCH   1  40
ATOM     40  C   LIG d   1       3.918  -1.330  -2.684  0.00  0.00    -0.029 C 
ATOM     41  H   LIG d   1       4.461  -1.323  -1.739  0.00  0.00     0.082 H 
ATOM     42  H   LIG d   1       3.262  -2.199  -2.718  0.00  0.00     0.082 H 
BRANCH  40  43
ATOM     43  C   LIG d   1       3.082  -0.055  -2.803  0.00  0.00    -0.006 C 
ATOM     44  H   LIG d   1       2.121  -0.204  -2.309  0.00  0.00     0.035 H 
BRANCH  43  45
ATOM     45  C   LIG d   1       3.824   1.106  -2.136  0.00  0.00    -0.058 C 
ATOM     46  H   LIG d   1       3.453   2.050  -2.534  0.00  0.00     0.023 H 
ATOM     47  H   LIG d   1       3.656   1.074  -1.059  0.00  0.00     0.023 H 
ATOM     48  H   LIG d   1       4.891   1.019  -2.340  0.00  0.00     0.023 H 
ENDBRANCH  43  45
BRANCH  43  49
ATOM     49  C   LIG d   1       2.852   0.269  -4.281  0.00  0.00    -0.058 C 
ATOM     50  H   LIG d   1       3.812   0.432  -4.771  0.00  0.00     0.023 H 
ATOM     51  H   LIG d   1       2.337  -0.565  -4.759  0.00  0.00     0.023 H 
ATOM     52  H   LIG d   1       2.243   1.168  -4.365  0.00  0.00     0.023 H 
ENDBRANCH  43  49
ENDBRANCH  40  43
ENDBRANCH   1  40
TORSDOF 11
ENDMDL
MODEL 5
REMARK VINA RESULT:      -5.6      5.199      9.715
REMARK  11 active torsions:
REMARK  status: ('A' for Active; 'I' for Inactive)
REMARK    1  A    between atoms: C_1  and  C_2 
REMARK    2  A    between atoms: C_2  and  C_3 
REMARK    3  A    between atoms: C_2  and  C_4 
REMARK    4  A    between atoms: C_4  and  N_5 
REMARK    5  A    between atoms: C_9  and  C_11 
REMARK    6  A    between atoms: C_13  and  C_16 
REMARK    7  A    between atoms: C_18  and  O_22 
REMARK    8  A    between atoms: O_22  and  C_23 
REMARK    9  A    between atoms: C_23  and  C_24 
REMARK   10  A    between atoms: C_24  and  O_25 
REMARK   11  A    between atoms: O_25  and  C_26 
ROOT
ATOM      1  N   LIG d   1       5.162  -0.529  -3.636  0.00  0.00     0.244 N 
ATOM      2  C   LIG d   1       5.313   0.174  -2.344  0.00  0.00    -0.031 C 
ATOM      3  C   LIG d   1       3.989   0.961  -2.165  0.00  0.00    -0.007 C 
ATOM      4  C   LIG d   1       2.953  -0.032  -2.755  0.00  0.00     0.004 C 
ATOM      5  C   LIG d   1       3.724  -0.690  -3.918  0.00  0.00     0.059 C 
ATOM      6  H   LIG d   1       3.473  -1.749  -3.977  0.00  0.00     0.095 H 
ATOM      7  H   LIG d   1       5.439  -0.544  -1.534  0.00  0.00     0.082 H 
ATOM      8  H   LIG d   1       6.159   0.859  -2.381  0.00  0.00     0.082 H 
ATOM      9  H   LIG d   1       3.790   1.154  -1.111  0.00  0.00     0.032 H 
ATOM     10  H   LIG d   1       4.009   1.889  -2.735  0.00  0.00     0.032 H 
ATOM     11  H   LIG d   1       2.667  -0.777  -2.012  0.00  0.00     0.033 H 
ATOM     12  H   LIG d   1       2.077   0.501  -3.125  0.00  0.00     0.033 H 
ATOM     13  H   LIG d   1       5.593   0.014  -4.368  0.00  0.00     0.204 HD
ENDROOT
BRANCH   5  14
ATOM     14  C   LIG d   1       3.377  -0.004  -5.215  0.00  0.00     0.276 A 
ATOM     15  O   LIG d   1       2.926   1.250  -5.342  0.00  0.00    -0.332 OA
ATOM     16  N   LIG d   1       2.737   1.470  -6.731  0.00  0.00    -0.054 NA
ATOM     17  C   LIG d   1       3.073   0.355  -7.332  0.00  0.00     0.221 A 
ATOM     18  N   LIG d   1       3.460  -0.535  -6.402  0.00  0.00    -0.185 NA
BRANCH  17  19
ATOM     19  C   LIG d   1       3.034   0.116  -8.797  0.00  0.00     0.115 A 
ATOM     20  N   LIG d   1       3.811   0.832  -9.601  0.00  0.00    -0.252 NA
ATOM     21  C   LIG d   1       3.814   0.649 -10.907  0.00  0.00     0.032 A 
ATOM     22  C   LIG d   1       2.994  -0.294 -11.493  0.00  0.00    -0.002 A 
ATOM     23  H   LIG d   1       4.464   1.249 -11.526  0.00  0.00     0.083 H 
ATOM     24  C   LIG d   1       2.156  -1.065 -10.689  0.00  0.00     0.124 A 
ATOM     25  H   LIG d   1       3.000  -0.432 -12.565  0.00  0.00     0.067 H 
ATOM     26  C   LIG d   1       2.181  -0.852  -9.315  0.00  0.00     0.009 A 
ATOM     27  H   LIG d   1       1.547  -1.430  -8.659  0.00  0.00     0.068 H 
BRANCH  24  28
ATOM     28  O   LIG d   1       1.337  -2.000 -11.234  0.00  0.00    -0.490 OA
BRANCH  28  29
ATOM     29  C   LIG d   1       1.104  -3.184 -10.469  0.00  0.00     0.113 C 
ATOM     30  H   LIG d   1       2.049  -3.703 -10.306  0.00  0.00     0.072 H 
ATOM     31  H   LIG d   1       0.666  -2.916  -9.508  0.00  0.00     0.072 H 
BRANCH  29  32
ATOM     32  C   LIG d   1       0.145  -4.102 -11.230  0.00  0.00     0.081 C 
ATOM     33  H   LIG d   1      -0.768  -3.556 -11.468  0.00  0.00     0.059 H 
ATOM     34  H   LIG d   1       0.618  -4.435 -12.154  0.00  0.00     0.059 H 
BRANCH  32  35
ATOM     35  O   LIG d   1      -0.173  -5.236 -10.421  0.00  0.00    -0.380 OA
BRANCH  35  36
ATOM     36  C   LIG d   1      -1.541  -5.292 -10.011  0.00  0.00     0.037 C 
ATOM     37  H   LIG d   1      -1.610  -5.068  -8.947  0.00  0.00     0.052 H 
ATOM     38  H   LIG d   1      -2.119  -4.560 -10.575  0.00  0.00     0.052 H 
ATOM     39  H   LIG d   1      -1.936  -6.290 -10.200  0.00  0.00     0.052 H 
ENDBRANCH  35  36
ENDBRANCH  32  35
ENDBRANCH  29  32
ENDBRANCH  28  29
ENDBRANCH  24  28
ENDBRANCH  17  19
ENDBRANCH   5  14
BRANCH   1  40
ATOM     40  C   LIG d   1       5.801  -1.849  -3.557  0.00  0.00    -0.029 C 
ATOM     41  H   LIG d   1       5.328  -2.525  -4.270  0.00  0.00     0.082 H 
ATOM     42  H   LIG d   1       5.687  -2.249  -2.550  0.00  0.00     0.082 H 
BRANCH  40  43
ATOM     43  C   LIG d   1       7.288  -1.717  -3.888  0.00  0.00    -0.006 C 
ATOM     44  H   LIG d   1       7.790  -1.165  -3.093  0.00  0.00     0.035 H 
BRANCH  43  45
ATOM     45  C   LIG d   1       7.909  -3.110  -4.013  0.00  0.00    -0.058 C 
ATOM     46  H   LIG d   1       8.655  -3.105  -4.808  0.00  0.00     0.023 H 
ATOM     47  H   LIG d   1       8.383  -3.382  -3.070  0.00  0.00     0.023 H 
ATOM     48  H   LIG d   1       7.130  -3.835  -4.251  0.00  0.00     0.023 H 
ENDBRANCH  43  45
BRANCH  43  49
ATOM     49  C   LIG d   1       7.451  -0.966  -5.212  0.00  0.00    -0.058 C 
ATOM     50  H   LIG d   1       6.486  -0.568  -5.525  0.00  0.00     0.023 H 
ATOM     51  H   LIG d   1       8.156  -0.144  -5.079  0.00  0.00     0.023 H 
ATOM     52  H   LIG d   1       7.828  -1.648  -5.973  0.00  0.00     0.023 H 
ENDBRANCH  43  49
ENDBRANCH  40  43
ENDBRANCH   1  40
TORSDOF 11
ENDMDL
MODEL 6
REMARK VINA RESULT:      -5.5      2.701      8.709
REMARK  11 active torsions:
REMARK  status: ('A' for Active; 'I' for Inactive)
REMARK    1  A    between atoms: C_1  and  C_2 
REMARK    2  A    between atoms: C_2  and  C_3 
REMARK    3  A    between atoms: C_2  and  C_4 
REMARK    4  A    between atoms: C_4  and  N_5 
REMARK    5  A    between atoms: C_9  and  C_11 
REMARK    6  A    between atoms: C_13  and  C_16 
REMARK    7  A    between atoms: C_18  and  O_22 
REMARK    8  A    between atoms: O_22  and  C_23 
REMARK    9  A    between atoms: C_23  and  C_24 
REMARK   10  A    between atoms: C_24  and  O_25 
REMARK   11  A    between atoms: O_25  and  C_26 
ROOT
ATOM      1  N   LIG d   1       9.748   3.253  -3.215  0.00  0.00     0.244 N 
ATOM      2  C   LIG d   1      11.077   2.786  -2.770  0.00  0.00    -0.031 C 
ATOM      3  C   LIG d   1      11.459   1.667  -3.774  0.00  0.00    -0.007 C 
ATOM      4  C   LIG d   1      10.886   2.230  -5.101  0.00  0.00     0.004 C 
ATOM      5  C   LIG d   1       9.597   2.945  -4.649  0.00  0.00     0.059 C 
ATOM      6  H   LIG d   1       9.465   3.866  -5.216  0.00  0.00     0.095 H 
ATOM      7  H   LIG d   1      11.801   3.599  -2.817  0.00  0.00     0.082 H 
ATOM      8  H   LIG d   1      11.019   2.384  -1.759  0.00  0.00     0.082 H 
ATOM      9  H   LIG d   1      12.541   1.550  -3.833  0.00  0.00     0.032 H 
ATOM     10  H   LIG d   1      10.979   0.726  -3.509  0.00  0.00     0.032 H 
ATOM     11  H   LIG d   1      11.582   2.938  -5.552  0.00  0.00     0.033 H 
ATOM     12  H   LIG d   1      10.657   1.421  -5.795  0.00  0.00     0.033 H 
ATOM     13  H   LIG d   1       9.029   2.780  -2.689  0.00  0.00     0.204 HD
ENDROOT
BRANCH   5  14
ATOM     14  C   LIG d   1       8.410   2.038  -4.856  0.00  0.00     0.276 A 
ATOM     15  O   LIG d   1       7.816   1.780  -6.027  0.00  0.00    -0.332 OA
ATOM     16  N   LIG d   1       6.753   0.881  -5.749  0.00  0.00    -0.054 NA
ATOM     17  C   LIG d   1       6.775   0.670  -4.456  0.00  0.00     0.221 A 
ATOM     18  N   LIG d   1       7.785   1.378  -3.922  0.00  0.00    -0.185 NA
BRANCH  17  19
ATOM     19  C   LIG d   1       5.840  -0.206  -3.706  0.00  0.00     0.115 A 
ATOM     20  N   LIG d   1       5.305   0.223  -2.570  0.00  0.00    -0.252 NA
ATOM     21  C   LIG d   1       4.465  -0.518  -1.875  0.00  0.00     0.032 A 
ATOM     22  C   LIG d   1       4.116  -1.784  -2.300  0.00  0.00    -0.002 A 
ATOM     23  H   LIG d   1       4.048  -0.130  -0.957  0.00  0.00     0.083 H 
ATOM     24  C   LIG d   1       4.657  -2.279  -3.485  0.00  0.00     0.124 A 
ATOM     25  H   LIG d   1       3.431  -2.385  -1.720  0.00  0.00     0.067 H 
ATOM     26  C   LIG d   1       5.536  -1.470  -4.198  0.00  0.00     0.009 A 
ATOM     27  H   LIG d   1       5.975  -1.819  -5.121  0.00  0.00     0.068 H 
BRANCH  24  28
ATOM     28  O   LIG d   1       4.335  -3.520  -3.930  0.00  0.00    -0.490 OA
BRANCH  28  29
ATOM     29  C   LIG d   1       5.151  -4.070  -4.967  0.00  0.00     0.113 C 
ATOM     30  H   LIG d   1       5.907  -3.340  -5.259  0.00  0.00     0.072 H 
ATOM     31  H   LIG d   1       5.638  -4.974  -4.605  0.00  0.00     0.072 H 
BRANCH  29  32
ATOM     32  C   LIG d   1       4.277  -4.409  -6.177  0.00  0.00     0.081 C 
ATOM     33  H   LIG d   1       3.472  -3.679  -6.259  0.00  0.00     0.059 H 
ATOM     34  H   LIG d   1       4.885  -4.380  -7.082  0.00  0.00     0.059 H 
BRANCH  32  35
ATOM     35  O   LIG d   1       3.724  -5.715  -6.015  0.00  0.00    -0.380 OA
BRANCH  35  36
ATOM     36  C   LIG d   1       4.703  -6.749  -5.890  0.00  0.00     0.037 C 
ATOM     37  H   LIG d   1       5.159  -6.699  -4.901  0.00  0.00     0.052 H 
ATOM     38  H   LIG d   1       4.224  -7.720  -6.020  0.00  0.00     0.052 H 
ATOM     39  H   LIG d   1       5.470  -6.618  -6.652  0.00  0.00     0.052 H 
ENDBRANCH  35  36
ENDBRANCH  32  35
ENDBRANCH  29  32
ENDBRANCH  28  29
ENDBRANCH  24  28
ENDBRANCH  17  19
ENDBRANCH   5  14
BRANCH   1  40
ATOM     40  C   LIG d   1       9.639   4.704  -3.008  0.00  0.00    -0.029 C 
ATOM     41  H   LIG d   1      10.309   5.007  -2.204  0.00  0.00     0.082 H 
ATOM     42  H   LIG d   1       8.614   4.957  -2.741  0.00  0.00     0.082 H 
BRANCH  40  43
ATOM     43  C   LIG d   1      10.026   5.433  -4.296  0.00  0.00    -0.006 C 
ATOM     44  H   LIG d   1      10.069   4.719  -5.119  0.00  0.00     0.035 H 
BRANCH  43  45
ATOM     45  C   LIG d   1       8.981   6.507  -4.608  0.00  0.00    -0.058 C 
ATOM     46  H   LIG d   1       9.470   7.479  -4.678  0.00  0.00     0.023 H 
ATOM     47  H   LIG d   1       8.493   6.276  -5.554  0.00  0.00     0.023 H 
ATOM     48  H   LIG d   1       8.237   6.531  -3.811  0.00  0.00     0.023 H 
ENDBRANCH  43  45
BRANCH  43  49
ATOM     49  C   LIG d   1      11.396   6.090  -4.119  0.00  0.00    -0.058 C 
ATOM     50  H   LIG d   1      11.536   6.362  -3.072  0.00  0.00     0.023 H 
ATOM     51  H   LIG d   1      12.176   5.390  -4.419  0.00  0.00     0.023 H 
ATOM     52  H   LIG d   1      11.453   6.985  -4.738  0.00  0.00     0.023 H 
ENDBRANCH  43  49
ENDBRANCH  40  43
ENDBRANCH   1  40
TORSDOF 11
ENDMDL
MODEL 7
REMARK VINA RESULT:      -5.5      6.232     11.087
REMARK  11 active torsions:
REMARK  status: ('A' for Active; 'I' for Inactive)
REMARK    1  A    between atoms: C_1  and  C_2 
REMARK    2  A    between atoms: C_2  and  C_3 
REMARK    3  A    between atoms: C_2  and  C_4 
REMARK    4  A    between atoms: C_4  and  N_5 
REMARK    5  A    between atoms: C_9  and  C_11 
REMARK    6  A    between atoms: C_13  and  C_16 
REMARK    7  A    between atoms: C_18  and  O_22 
REMARK    8  A    between atoms: O_22  and  C_23 
REMARK    9  A    between atoms: C_23  and  C_24 
REMARK   10  A    between atoms: C_24  and  O_25 
REMARK   11  A    between atoms: O_25  and  C_26 
ROOT
ATOM      1  N   LIG d   1       5.787  -2.163  -3.940  0.00  0.00     0.244 N 
ATOM      2  C   LIG d   1       7.098  -1.968  -3.286  0.00  0.00    -0.031 C 
ATOM      3  C   LIG d   1       8.048  -2.964  -4.000  0.00  0.00    -0.007 C 
ATOM      4  C   LIG d   1       7.534  -2.891  -5.462  0.00  0.00     0.004 C 
ATOM      5  C   LIG d   1       6.012  -2.715  -5.289  0.00  0.00     0.059 C 
ATOM      6  H   LIG d   1       5.630  -2.025  -6.041  0.00  0.00     0.095 H 
ATOM      7  H   LIG d   1       7.445  -0.945  -3.428  0.00  0.00     0.082 H 
ATOM      8  H   LIG d   1       7.031  -2.203  -2.224  0.00  0.00     0.082 H 
ATOM      9  H   LIG d   1       9.084  -2.631  -3.932  0.00  0.00     0.032 H 
ATOM     10  H   LIG d   1       7.934  -3.969  -3.596  0.00  0.00     0.032 H 
ATOM     11  H   LIG d   1       7.965  -2.034  -5.980  0.00  0.00     0.033 H 
ATOM     12  H   LIG d   1       7.758  -3.816  -5.995  0.00  0.00     0.033 H 
ATOM     13  H   LIG d   1       5.231  -2.807  -3.398  0.00  0.00     0.204 HD
ENDROOT
BRANCH   5  14
ATOM     14  C   LIG d   1       5.324  -4.050  -5.417  0.00  0.00     0.276 A 
ATOM     15  O   LIG d   1       4.002  -4.258  -5.370  0.00  0.00    -0.332 OA
ATOM     16  N   LIG d   1       3.810  -5.655  -5.535  0.00  0.00    -0.054 NA
ATOM     17  C   LIG d   1       5.002  -6.182  -5.661  0.00  0.00     0.221 A 
ATOM     18  N   LIG d   1       5.916  -5.198  -5.588  0.00  0.00    -0.185 NA
BRANCH  17  19
ATOM     19  C   LIG d   1       5.296  -7.624  -5.854  0.00  0.00     0.115 A 
ATOM     20  N   LIG d   1       5.970  -8.020  -6.927  0.00  0.00    -0.252 NA
ATOM     21  C   LIG d   1       6.259  -9.290  -7.136  0.00  0.00     0.032 A 
ATOM     22  C   LIG d   1       5.857 -10.265  -6.245  0.00  0.00    -0.002 A 
ATOM     23  H   LIG d   1       6.813  -9.570  -8.019  0.00  0.00     0.083 H 
ATOM     24  C   LIG d   1       5.141  -9.896  -5.107  0.00  0.00     0.124 A 
ATOM     25  H   LIG d   1       6.094 -11.302  -6.428  0.00  0.00     0.067 H 
ATOM     26  C   LIG d   1       4.858  -8.548  -4.913  0.00  0.00     0.009 A 
ATOM     27  H   LIG d   1       4.306  -8.224  -4.043  0.00  0.00     0.068 H 
BRANCH  24  28
ATOM     28  O   LIG d   1       4.731 -10.830  -4.212  0.00  0.00    -0.490 OA
BRANCH  28  29
ATOM     29  C   LIG d   1       4.639 -10.423  -2.846  0.00  0.00     0.113 C 
ATOM     30  H   LIG d   1       4.689  -9.336  -2.786  0.00  0.00     0.072 H 
ATOM     31  H   LIG d   1       3.694 -10.767  -2.426  0.00  0.00     0.072 H 
BRANCH  29  32
ATOM     32  C   LIG d   1       5.800 -11.030  -2.054  0.00  0.00     0.081 C 
ATOM     33  H   LIG d   1       5.440 -11.879  -1.474  0.00  0.00     0.059 H 
ATOM     34  H   LIG d   1       6.574 -11.365  -2.745  0.00  0.00     0.059 H 
BRANCH  32  35
ATOM     35  O   LIG d   1       6.343 -10.045  -1.173  0.00  0.00    -0.380 OA
BRANCH  35  36
ATOM     36  C   LIG d   1       7.543  -9.435  -1.652  0.00  0.00     0.037 C 
ATOM     37  H   LIG d   1       7.720  -8.507  -1.110  0.00  0.00     0.052 H 
ATOM     38  H   LIG d   1       8.382 -10.113  -1.494  0.00  0.00     0.052 H 
ATOM     39  H   LIG d   1       7.444  -9.223  -2.716  0.00  0.00     0.052 H 
ENDBRANCH  35  36
ENDBRANCH  32  35
ENDBRANCH  29  32
ENDBRANCH  28  29
ENDBRANCH  24  28
ENDBRANCH  17  19
ENDBRANCH   5  14
BRANCH   1  40
ATOM     40  C   LIG d   1       5.090  -0.874  -4.044  0.00  0.00    -0.029 C 
ATOM     41  H   LIG d   1       4.617  -0.794  -5.023  0.00  0.00     0.082 H 
ATOM     42  H   LIG d   1       5.807  -0.063  -3.920  0.00  0.00     0.082 H 
BRANCH  40  43
ATOM     43  C   LIG d   1       4.022  -0.782  -2.953  0.00  0.00    -0.006 C 
ATOM     44  H   LIG d   1       3.095  -0.400  -3.383  0.00  0.00     0.035 H 
BRANCH  43  45
ATOM     45  C   LIG d   1       3.775  -2.171  -2.361  0.00  0.00    -0.058 C 
ATOM     46  H   LIG d   1       3.117  -2.086  -1.496  0.00  0.00     0.023 H 
ATOM     47  H   LIG d   1       3.309  -2.809  -3.112  0.00  0.00     0.023 H 
ATOM     48  H   LIG d   1       4.725  -2.608  -2.052  0.00  0.00     0.023 H 
ENDBRANCH  43  45
BRANCH  43  49
ATOM     49  C   LIG d   1       4.501   0.165  -1.850  0.00  0.00    -0.058 C 
ATOM     50  H   LIG d   1       5.488  -0.145  -1.508  0.00  0.00     0.023 H 
ATOM     51  H   LIG d   1       4.554   1.181  -2.242  0.00  0.00     0.023 H 
ATOM     52  H   LIG d   1       3.801   0.134  -1.016  0.00  0.00     0.023 H 
ENDBRANCH  43  49
ENDBRANCH  40  43
ENDBRANCH   1  40
TORSDOF 11
ENDMDL
MODEL 8
REMARK VINA RESULT:      -5.3      5.358      9.428
REMARK  11 active torsions:
REMARK  status: ('A' for Active; 'I' for Inactive)
REMARK    1  A    between atoms: C_1  and  C_2 
REMARK    2  A    between atoms: C_2  and  C_3 
REMARK    3  A    between atoms: C_2  and  C_4 
REMARK    4  A    between atoms: C_4  and  N_5 
REMARK    5  A    between atoms: C_9  and  C_11 
REMARK    6  A    between atoms: C_13  and  C_16 
REMARK    7  A    between atoms: C_18  and  O_22 
REMARK    8  A    between atoms: O_22  and  C_23 
REMARK    9  A    between atoms: C_23  and  C_24 
REMARK   10  A    between atoms: C_24  and  O_25 
REMARK   11  A    between atoms: O_25  and  C_26 
ROOT
ATOM      1  N   LIG d   1       5.594  -1.570  -4.005  0.00  0.00     0.244 N 
ATOM      2  C   LIG d   1       6.420  -2.795  -4.076  0.00  0.00    -0.031 C 
ATOM      3  C   LIG d   1       6.916  -2.852  -5.543  0.00  0.00    -0.007 C 
ATOM      4  C   LIG d   1       7.158  -1.351  -5.851  0.00  0.00     0.004 C 
ATOM      5  C   LIG d   1       6.028  -0.649  -5.071  0.00  0.00     0.059 C 
ATOM      6  H   LIG d   1       6.399   0.277  -4.633  0.00  0.00     0.095 H 
ATOM      7  H   LIG d   1       7.266  -2.722  -3.393  0.00  0.00     0.082 H 
ATOM      8  H   LIG d   1       5.817  -3.672  -3.844  0.00  0.00     0.082 H 
ATOM      9  H   LIG d   1       7.842  -3.422  -5.620  0.00  0.00     0.032 H 
ATOM     10  H   LIG d   1       6.148  -3.266  -6.197  0.00  0.00     0.032 H 
ATOM     11  H   LIG d   1       8.134  -1.035  -5.482  0.00  0.00     0.033 H 
ATOM     12  H   LIG d   1       7.068  -1.158  -6.920  0.00  0.00     0.033 H 
ATOM     13  H   LIG d   1       4.623  -1.809  -4.137  0.00  0.00     0.204 HD
ENDROOT
BRANCH   5  14
ATOM     14  C   LIG d   1       4.873  -0.356  -5.995  0.00  0.00     0.276 A 
ATOM     15  O   LIG d   1       3.851   0.469  -5.734  0.00  0.00    -0.332 OA
ATOM     16  N   LIG d   1       3.011   0.439  -6.878  0.00  0.00    -0.054 NA
ATOM     17  C   LIG d   1       3.568  -0.388  -7.727  0.00  0.00     0.221 A 
ATOM     18  N   LIG d   1       4.700  -0.866  -7.181  0.00  0.00    -0.185 NA
BRANCH  17  19
ATOM     19  C   LIG d   1       3.038  -0.738  -9.069  0.00  0.00     0.115 A 
ATOM     20  N   LIG d   1       3.269   0.069 -10.098  0.00  0.00    -0.252 NA
ATOM     21  C   LIG d   1       2.824  -0.206 -11.308  0.00  0.00     0.032 A 
ATOM     22  C   LIG d   1       2.085  -1.345 -11.551  0.00  0.00    -0.002 A 
ATOM     23  H   LIG d   1       3.037   0.474 -12.119  0.00  0.00     0.083 H 
ATOM     24  C   LIG d   1       1.813  -2.219 -10.500  0.00  0.00     0.124 A 
ATOM     25  H   LIG d   1       1.720  -1.558 -12.546  0.00  0.00     0.067 H 
ATOM     26  C   LIG d   1       2.301  -1.904  -9.236  0.00  0.00     0.009 A 
ATOM     27  H   LIG d   1       2.112  -2.558  -8.398  0.00  0.00     0.068 H 
BRANCH  24  28
ATOM     28  O   LIG d   1       1.088  -3.349 -10.705  0.00  0.00    -0.490 OA
BRANCH  28  29
ATOM     29  C   LIG d   1       1.795  -4.497 -11.178  0.00  0.00     0.113 C 
ATOM     30  H   LIG d   1       1.503  -4.704 -12.207  0.00  0.00     0.072 H 
ATOM     31  H   LIG d   1       2.867  -4.307 -11.135  0.00  0.00     0.072 H 
BRANCH  29  32
ATOM     32  C   LIG d   1       1.455  -5.703 -10.300  0.00  0.00     0.081 C 
ATOM     33  H   LIG d   1       0.422  -5.625  -9.961  0.00  0.00     0.059 H 
ATOM     34  H   LIG d   1       1.579  -6.619 -10.878  0.00  0.00     0.059 H 
BRANCH  32  35
ATOM     35  O   LIG d   1       2.327  -5.731  -9.169  0.00  0.00    -0.380 OA
BRANCH  35  36
ATOM     36  C   LIG d   1       3.708  -5.557  -9.496  0.00  0.00     0.037 C 
ATOM     37  H   LIG d   1       4.141  -6.520  -9.766  0.00  0.00     0.052 H 
ATOM     38  H   LIG d   1       3.798  -4.870 -10.337  0.00  0.00     0.052 H 
ATOM     39  H   LIG d   1       4.236  -5.148  -8.635  0.00  0.00     0.052 H 
ENDBRANCH  35  36
ENDBRANCH  32  35
ENDBRANCH  29  32
ENDBRANCH  28  29
ENDBRANCH  24  28
ENDBRANCH  17  19
ENDBRANCH   5  14
BRANCH   1  40
ATOM     40  C   LIG d   1       5.773  -0.929  -2.695  0.00  0.00    -0.029 C 
ATOM     41  H   LIG d   1       6.278   0.027  -2.824  0.00  0.00     0.082 H 
ATOM     42  H   LIG d   1       6.375  -1.573  -2.054  0.00  0.00     0.082 H 
BRANCH  40  43
ATOM     43  C   LIG d   1       4.405  -0.701  -2.048  0.00  0.00    -0.006 C 
ATOM     44  H   LIG d   1       4.453  -0.974  -0.994  0.00  0.00     0.035 H 
BRANCH  43  45
ATOM     45  C   LIG d   1       4.020   0.774  -2.177  0.00  0.00    -0.058 C 
ATOM     46  H   LIG d   1       3.481   0.928  -3.112  0.00  0.00     0.023 H 
ATOM     47  H   LIG d   1       3.383   1.058  -1.339  0.00  0.00     0.023 H 
ATOM     48  H   LIG d   1       4.921   1.386  -2.173  0.00  0.00     0.023 H 
ENDBRANCH  43  45
BRANCH  43  49
ATOM     49  C   LIG d   1       3.357  -1.566  -2.752  0.00  0.00    -0.058 C 
ATOM     50  H   LIG d   1       3.649  -2.615  -2.689  0.00  0.00     0.023 H 
ATOM     51  H   LIG d   1       2.389  -1.429  -2.270  0.00  0.00     0.023 H 
ATOM     52  H   LIG d   1       3.287  -1.271  -3.799  0.00  0.00     0.023 H 
ENDBRANCH  43  49
ENDBRANCH  40  43
ENDBRANCH   1  40
TORSDOF 11
ENDMDL
MODEL 9
REMARK VINA RESULT:      -5.3      1.804      3.108
REMARK  11 active torsions:
REMARK  status: ('A' for Active; 'I' for Inactive)
REMARK    1  A    between atoms: C_1  and  C_2 
REMARK    2  A    between atoms: C_2  and  C_3 
REMARK    3  A    between atoms: C_2  and  C_4 
REMARK    4  A    between atoms: C_4  and  N_5 
REMARK    5  A    between atoms: C_9  and  C_11 
REMARK    6  A    between atoms: C_13  and  C_16 
REMARK    7  A    between atoms: C_18  and  O_22 
REMARK    8  A    between atoms: O_22  and  C_23 
REMARK    9  A    between atoms: C_23  and  C_24 
REMARK   10  A    between atoms: C_24  and  O_25 
REMARK   11  A    between atoms: O_25  and  C_26 
ROOT
ATOM      1  N   LIG d   1       5.090  -1.507  -3.188  0.00  0.00     0.244 N 
ATOM      2  C   LIG d   1       4.476  -1.180  -1.884  0.00  0.00    -0.031 C 
ATOM      3  C   LIG d   1       4.292   0.359  -1.909  0.00  0.00    -0.007 C 
ATOM      4  C   LIG d   1       3.906   0.604  -3.391  0.00  0.00     0.004 C 
ATOM      5  C   LIG d   1       4.749  -0.442  -4.149  0.00  0.00     0.059 C 
ATOM      6  H   LIG d   1       4.172  -0.857  -4.974  0.00  0.00     0.095 H 
ATOM      7  H   LIG d   1       3.511  -1.675  -1.784  0.00  0.00     0.082 H 
ATOM      8  H   LIG d   1       5.139  -1.470  -1.069  0.00  0.00     0.082 H 
ATOM      9  H   LIG d   1       3.489   0.666  -1.239  0.00  0.00     0.032 H 
ATOM     10  H   LIG d   1       5.224   0.866  -1.659  0.00  0.00     0.032 H 
ATOM     11  H   LIG d   1       2.841   0.425  -3.546  0.00  0.00     0.033 H 
ATOM     12  H   LIG d   1       4.176   1.614  -3.698  0.00  0.00     0.033 H 
ATOM     13  H   LIG d   1       6.092  -1.564  -3.086  0.00  0.00     0.204 HD
ENDROOT
BRANCH   5  14
ATOM     14  C   LIG d   1       6.010   0.199  -4.672  0.00  0.00     0.276 A 
ATOM     15  O   LIG d   1       6.218   0.606  -5.930  0.00  0.00    -0.332 OA
ATOM     16  N   LIG d   1       7.531   1.145  -5.965  0.00  0.00    -0.054 NA
ATOM     17  C   LIG d   1       8.015   1.022  -4.754  0.00  0.00     0.221 A 
ATOM     18  N   LIG d   1       7.083   0.446  -3.975  0.00  0.00    -0.185 NA
BRANCH  17  19
ATOM     19  C   LIG d   1       9.367   1.450  -4.315  0.00  0.00     0.115 A 
ATOM     20  N   LIG d   1      10.439   0.814  -4.774  0.00  0.00    -0.252 NA
ATOM     21  C   LIG d   1      11.659   1.164  -4.417  0.00  0.00     0.032 A 
ATOM     22  C   LIG d   1      11.870   2.205  -3.536  0.00  0.00    -0.002 A 
ATOM     23  H   LIG d   1      12.505   0.624  -4.815  0.00  0.00     0.083 H 
ATOM     24  C   LIG d   1      10.774   2.898  -3.024  0.00  0.00     0.124 A 
ATOM     25  H   LIG d   1      12.873   2.480  -3.245  0.00  0.00     0.067 H 
ATOM     26  C   LIG d   1       9.500   2.509  -3.425  0.00  0.00     0.009 A 
ATOM     27  H   LIG d   1       8.627   3.022  -3.051  0.00  0.00     0.068 H 
BRANCH  24  28
ATOM     28  O   LIG d   1      10.946   3.927  -2.156  0.00  0.00    -0.490 OA
BRANCH  28  29
ATOM     29  C   LIG d   1      10.146   5.092  -2.362  0.00  0.00     0.113 C 
ATOM     30  H   LIG d   1       9.300   4.842  -3.004  0.00  0.00     0.072 H 
ATOM     31  H   LIG d   1       9.779   5.456  -1.403  0.00  0.00     0.072 H 
BRANCH  29  32
ATOM     32  C   LIG d   1      10.989   6.179  -3.032  0.00  0.00     0.081 C 
ATOM     33  H   LIG d   1      11.414   6.831  -2.269  0.00  0.00     0.059 H 
ATOM     34  H   LIG d   1      11.796   5.713  -3.600  0.00  0.00     0.059 H 
BRANCH  32  35
ATOM     35  O   LIG d   1      10.168   6.945  -3.914  0.00  0.00    -0.380 OA
BRANCH  35  36
ATOM     36  C   LIG d   1       9.201   6.171  -4.627  0.00  0.00     0.037 C 
ATOM     37  H   LIG d   1       9.711   5.502  -5.319  0.00  0.00     0.052 H 
ATOM     38  H   LIG d   1       8.613   5.585  -3.921  0.00  0.00     0.052 H 
ATOM     39  H   LIG d   1       8.541   6.837  -5.184  0.00  0.00     0.052 H 
ENDBRANCH  35  36
ENDBRANCH  32  35
ENDBRANCH  29  32
ENDBRANCH  28  29
ENDBRANCH  24  28
ENDBRANCH  17  19
ENDBRANCH   5  14
BRANCH   1  40
ATOM     40  C   LIG d   1       4.569  -2.793  -3.671  0.00  0.00    -0.029 C 
ATOM     41  H   LIG d   1       3.534  -2.669  -3.990  0.00  0.00     0.082 H 
ATOM     42  H   LIG d   1       4.615  -3.529  -2.868  0.00  0.00     0.082 H 
BRANCH  40  43
ATOM     43  C   LIG d   1       5.413  -3.274  -4.853  0.00  0.00    -0.006 C 
ATOM     44  H   LIG d   1       5.318  -2.569  -5.678  0.00  0.00     0.035 H 
BRANCH  43  45
ATOM     45  C   LIG d   1       6.880  -3.367  -4.427  0.00  0.00    -0.058 C 
ATOM     46  H   LIG d   1       7.486  -3.675  -5.280  0.00  0.00     0.023 H 
ATOM     47  H   LIG d   1       7.218  -2.394  -4.073  0.00  0.00     0.023 H 
ATOM     48  H   LIG d   1       6.980  -4.101  -3.627  0.00  0.00     0.023 H 
ENDBRANCH  43  45
BRANCH  43  49
ATOM     49  C   LIG d   1       4.923  -4.653  -5.301  0.00  0.00    -0.058 C 
ATOM     50  H   LIG d   1       5.768  -5.240  -5.660  0.00  0.00     0.023 H 
ATOM     51  H   LIG d   1       4.458  -5.165  -4.458  0.00  0.00     0.023 H 
ATOM     52  H   LIG d   1       4.194  -4.536  -6.102  0.00  0.00     0.023 H 
ENDBRANCH  43  49
ENDBRANCH  40  43
ENDBRANCH   1  40
TORSDOF 11
ENDMDL
