MODEL 1
REMARK VINA RESULT:      -6.1      0.000      0.000
REMARK  8 active torsions:
REMARK  status: ('A' for Active; 'I' for Inactive)
REMARK    1  A    between atoms: C_1  and  O_2 
REMARK    2  A    between atoms: O_2  and  C_3 
REMARK    3  A    between atoms: C_3  and  C_4 
REMARK    4  A    between atoms: C_4  and  O_5 
REMARK    5  A    between atoms: O_5  and  C_6 
REMARK    6  A    between atoms: C_7  and  C_12 
REMARK    7  A    between atoms: C_14  and  C_17 
REMARK    8  A    between atoms: N_22  and  C_23 
ROOT
ATOM      1  C   LIG d   1       3.607   0.212  -7.268  0.00  0.00     0.207 A 
ATOM      2  N   LIG d   1       4.118  -0.819  -6.573  0.00  0.00    -0.186 NA
ATOM      3  C   LIG d   1       3.867  -0.670  -5.303  0.00  0.00     0.276 A 
ATOM      4  O   LIG d   1       3.183   0.469  -5.136  0.00  0.00    -0.332 OA
ATOM      5  N   LIG d   1       3.026   1.036  -6.429  0.00  0.00    -0.056 NA
ENDROOT
BRANCH   3   6
ATOM      6  C   LIG d   1       4.277  -1.619  -4.206  0.00  0.00     0.060 C 
ATOM      7  H   LIG d   1       4.267  -2.643  -4.580  0.00  0.00     0.095 H 
ATOM      8  N   LIG d   1       5.627  -1.274  -3.723  0.00  0.00     0.246 N 
ATOM      9  C   LIG d   1       5.531  -0.910  -2.289  0.00  0.00    -0.031 C 
ATOM     10  H   LIG d   1       6.240  -2.068  -3.834  0.00  0.00     0.204 HD
ATOM     11  C   LIG d   1       4.252  -1.623  -1.784  0.00  0.00    -0.007 C 
ATOM     12  H   LIG d   1       5.432   0.170  -2.177  0.00  0.00     0.082 H 
ATOM     13  H   LIG d   1       6.405  -1.270  -1.749  0.00  0.00     0.082 H 
ATOM     14  C   LIG d   1       3.311  -1.486  -3.010  0.00  0.00     0.004 C 
ATOM     15  H   LIG d   1       3.837  -1.114  -0.914  0.00  0.00     0.032 H 
ATOM     16  H   LIG d   1       4.452  -2.672  -1.562  0.00  0.00     0.032 H 
ATOM     17  H   LIG d   1       2.824  -0.512  -3.014  0.00  0.00     0.033 H 
ATOM     18  H   LIG d   1       2.573  -2.288  -3.020  0.00  0.00     0.033 H 
BRANCH   8  19
ATOM     19  C   LIG d   1       6.150  -0.137  -4.490  0.00  0.00    -0.020 C 
ATOM     20  C   LIG d   1       6.661   1.017  -3.610  0.00  0.00    -0.009 C 
ATOM     21  C   LIG d   1       7.822   1.160  -4.608  0.00  0.00    -0.043 C 
ATOM     22  H   LIG d   1       5.995   1.879  -3.588  0.00  0.00     0.032 H 
ATOM     23  H   LIG d   1       6.977   0.700  -2.615  0.00  0.00     0.032 H 
ATOM     24  C   LIG d   1       7.605  -0.322  -4.953  0.00  0.00    -0.009 C 
ATOM     25  H   LIG d   1       8.783   1.362  -4.135  0.00  0.00     0.027 H 
ATOM     26  H   LIG d   1       7.606   1.837  -5.434  0.00  0.00     0.027 H 
ATOM     27  H   LIG d   1       8.179  -1.005  -4.327  0.00  0.00     0.032 H 
ATOM     28  H   LIG d   1       7.700  -0.542  -6.016  0.00  0.00     0.032 H 
ATOM     29  H   LIG d   1       5.477   0.186  -5.283  0.00  0.00     0.085 H 
ENDBRANCH   8  19
ENDBRANCH   3   6
BRANCH   1  30
ATOM     30  C   LIG d   1       3.692   0.391  -8.738  0.00  0.00     0.084 A 
ATOM     31  C   LIG d   1       4.724   1.149  -9.304  0.00  0.00     0.226 A 
ATOM     32  N   LIG d   1       4.796   1.311 -10.613  0.00  0.00    -0.221 NA
ATOM     33  C   LIG d   1       3.915   0.764 -11.430  0.00  0.00     0.031 A 
ATOM     34  C   LIG d   1       2.868   0.004 -10.945  0.00  0.00    -0.043 A 
ATOM     35  H   LIG d   1       4.012   0.918 -12.495  0.00  0.00     0.083 H 
ATOM     36  C   LIG d   1       2.745  -0.192  -9.580  0.00  0.00    -0.044 A 
ATOM     37  H   LIG d   1       2.152  -0.435 -11.625  0.00  0.00     0.063 H 
ATOM     38  H   LIG d   1       1.936  -0.784  -9.177  0.00  0.00     0.063 H 
BRANCH  31  39
ATOM     39  O   LIG d   1       5.655   1.725  -8.503  0.00  0.00    -0.474 OA
BRANCH  39  40
ATOM     40  C   LIG d   1       6.924   1.074  -8.412  0.00  0.00     0.115 C 
ATOM     41  H   LIG d   1       7.078   0.455  -9.294  0.00  0.00     0.072 H 
ATOM     42  H   LIG d   1       6.948   0.450  -7.519  0.00  0.00     0.072 H 
BRANCH  40  43
ATOM     43  C   LIG d   1       8.031   2.127  -8.328  0.00  0.00     0.081 C 
ATOM     44  H   LIG d   1       8.993   1.661  -8.544  0.00  0.00     0.059 H 
ATOM     45  H   LIG d   1       8.052   2.554  -7.327  0.00  0.00     0.059 H 
BRANCH  43  46
ATOM     46  O   LIG d   1       7.779   3.160  -9.282  0.00  0.00    -0.380 OA
BRANCH  46  47
ATOM     47  C   LIG d   1       8.683   4.264  -9.196  0.00  0.00     0.037 C 
ATOM     48  H   LIG d   1       8.745   4.758 -10.166  0.00  0.00     0.052 H 
ATOM     49  H   LIG d   1       8.323   4.972  -8.450  0.00  0.00     0.052 H 
ATOM     50  H   LIG d   1       9.671   3.904  -8.908  0.00  0.00     0.052 H 
ENDBRANCH  46  47
ENDBRANCH  43  46
ENDBRANCH  40  43
ENDBRANCH  39  40
ENDBRANCH  31  39
ENDBRANCH   1  30
TORSDOF 8
ENDMDL
MODEL 2
REMARK VINA RESULT:      -5.9      3.375      6.044
REMARK  8 active torsions:
REMARK  status: ('A' for Active; 'I' for Inactive)
REMARK    1  A    between atoms: C_1  and  O_2 
REMARK    2  A    between atoms: O_2  and  C_3 
REMARK    3  A    between atoms: C_3  and  C_4 
REMARK    4  A    between atoms: C_4  and  O_5 
REMARK    5  A    between atoms: O_5  and  C_6 
REMARK    6  A    between atoms: C_7  and  C_12 
REMARK    7  A    between atoms: C_14  and  C_17 
REMARK    8  A    between atoms: N_22  and  C_23 
ROOT
ATOM      1  C   LIG d   1       5.108  -2.306  -4.150  0.00  0.00     0.207 A 
ATOM      2  N   LIG d   1       4.276  -3.245  -4.633  0.00  0.00    -0.186 NA
ATOM      3  C   LIG d   1       4.961  -4.246  -5.109  0.00  0.00     0.276 A 
ATOM      4  O   LIG d   1       6.264  -3.984  -4.947  0.00  0.00    -0.332 OA
ATOM      5  N   LIG d   1       6.343  -2.710  -4.324  0.00  0.00    -0.056 NA
ENDROOT
BRANCH   3   6
ATOM      6  C   LIG d   1       4.383  -5.490  -5.734  0.00  0.00     0.060 C 
ATOM      7  H   LIG d   1       3.453  -5.758  -5.233  0.00  0.00     0.095 H 
ATOM      8  N   LIG d   1       4.134  -5.261  -7.169  0.00  0.00     0.246 N 
ATOM      9  C   LIG d   1       4.966  -6.211  -7.945  0.00  0.00    -0.031 C 
ATOM     10  H   LIG d   1       3.158  -5.416  -7.373  0.00  0.00     0.204 HD
ATOM     11  C   LIG d   1       5.230  -7.390  -6.976  0.00  0.00    -0.007 C 
ATOM     12  H   LIG d   1       5.905  -5.742  -8.238  0.00  0.00     0.082 H 
ATOM     13  H   LIG d   1       4.424  -6.557  -8.824  0.00  0.00     0.082 H 
ATOM     14  C   LIG d   1       5.394  -6.651  -5.621  0.00  0.00     0.004 C 
ATOM     15  H   LIG d   1       6.144  -7.920  -7.244  0.00  0.00     0.032 H 
ATOM     16  H   LIG d   1       4.379  -8.071  -6.948  0.00  0.00     0.032 H 
ATOM     17  H   LIG d   1       6.409  -6.269  -5.510  0.00  0.00     0.033 H 
ATOM     18  H   LIG d   1       5.136  -7.308  -4.791  0.00  0.00     0.033 H 
BRANCH   8  19
ATOM     19  C   LIG d   1       4.498  -3.882  -7.519  0.00  0.00    -0.020 C 
ATOM     20  C   LIG d   1       5.603  -3.788  -8.586  0.00  0.00    -0.009 C 
ATOM     21  C   LIG d   1       4.810  -2.619  -9.192  0.00  0.00    -0.043 C 
ATOM     22  H   LIG d   1       6.573  -3.497  -8.185  0.00  0.00     0.032 H 
ATOM     23  H   LIG d   1       5.657  -4.663  -9.235  0.00  0.00     0.032 H 
ATOM     24  C   LIG d   1       3.557  -3.240  -8.552  0.00  0.00    -0.009 C 
ATOM     25  H   LIG d   1       4.790  -2.623 -10.282  0.00  0.00     0.027 H 
ATOM     26  H   LIG d   1       5.078  -1.648  -8.776  0.00  0.00     0.027 H 
ATOM     27  H   LIG d   1       3.052  -3.963  -9.192  0.00  0.00     0.032 H 
ATOM     28  H   LIG d   1       2.875  -2.505  -8.123  0.00  0.00     0.032 H 
ATOM     29  H   LIG d   1       4.681  -3.257  -6.646  0.00  0.00     0.085 H 
ENDBRANCH   8  19
ENDBRANCH   3   6
BRANCH   1  30
ATOM     30  C   LIG d   1       4.698  -1.023  -3.529  0.00  0.00     0.084 A 
ATOM     31  C   LIG d   1       4.229   0.034  -4.319  0.00  0.00     0.226 A 
ATOM     32  N   LIG d   1       3.868   1.177  -3.765  0.00  0.00    -0.221 NA
ATOM     33  C   LIG d   1       3.924   1.364  -2.459  0.00  0.00     0.031 A 
ATOM     34  C   LIG d   1       4.377   0.369  -1.615  0.00  0.00    -0.043 A 
ATOM     35  H   LIG d   1       3.616   2.313  -2.046  0.00  0.00     0.083 H 
ATOM     36  C   LIG d   1       4.772  -0.848  -2.147  0.00  0.00    -0.044 A 
ATOM     37  H   LIG d   1       4.421   0.537  -0.548  0.00  0.00     0.063 H 
ATOM     38  H   LIG d   1       5.128  -1.641  -1.507  0.00  0.00     0.063 H 
BRANCH  31  39
ATOM     39  O   LIG d   1       4.149  -0.116  -5.665  0.00  0.00    -0.474 OA
BRANCH  39  40
ATOM     40  C   LIG d   1       2.920   0.263  -6.288  0.00  0.00     0.115 C 
ATOM     41  H   LIG d   1       2.517   1.143  -5.790  0.00  0.00     0.072 H 
ATOM     42  H   LIG d   1       2.207  -0.557  -6.212  0.00  0.00     0.072 H 
BRANCH  40  43
ATOM     43  C   LIG d   1       3.174   0.583  -7.763  0.00  0.00     0.081 C 
ATOM     44  H   LIG d   1       2.390   0.132  -8.373  0.00  0.00     0.059 H 
ATOM     45  H   LIG d   1       4.141   0.181  -8.061  0.00  0.00     0.059 H 
BRANCH  43  46
ATOM     46  O   LIG d   1       3.167   1.999  -7.951  0.00  0.00    -0.380 OA
BRANCH  46  47
ATOM     47  C   LIG d   1       3.674   2.420  -9.219  0.00  0.00     0.037 C 
ATOM     48  H   LIG d   1       3.299   1.755  -9.998  0.00  0.00     0.052 H 
ATOM     49  H   LIG d   1       3.345   3.439  -9.422  0.00  0.00     0.052 H 
ATOM     50  H   LIG d   1       4.763   2.385  -9.205  0.00  0.00     0.052 H 
ENDBRANCH  46  47
ENDBRANCH  43  46
ENDBRANCH  40  43
ENDBRANCH  39  40
ENDBRANCH  31  39
ENDBRANCH   1  30
TORSDOF 8
ENDMDL
MODEL 3
REMARK VINA RESULT:      -5.9      1.931      5.945
REMARK  8 active torsions:
REMARK  status: ('A' for Active; 'I' for Inactive)
REMARK    1  A    between atoms: C_1  and  O_2 
REMARK    2  A    between atoms: O_2  and  C_3 
REMARK    3  A    between atoms: C_3  and  C_4 
REMARK    4  A    between atoms: C_4  and  O_5 
REMARK    5  A    between atoms: O_5  and  C_6 
REMARK    6  A    between atoms: C_7  and  C_12 
REMARK    7  A    between atoms: C_14  and  C_17 
REMARK    8  A    between atoms: N_22  and  C_23 
ROOT
ATOM      1  C   LIG d   1       3.874  -0.362  -5.748  0.00  0.00     0.207 A 
ATOM      2  N   LIG d   1       3.310   0.409  -6.694  0.00  0.00    -0.186 NA
ATOM      3  C   LIG d   1       3.194  -0.262  -7.805  0.00  0.00     0.276 A 
ATOM      4  O   LIG d   1       3.684  -1.493  -7.612  0.00  0.00    -0.332 OA
ATOM      5  N   LIG d   1       4.129  -1.540  -6.264  0.00  0.00    -0.056 NA
ENDROOT
BRANCH   3   6
ATOM      6  C   LIG d   1       2.608   0.260  -9.092  0.00  0.00     0.060 C 
ATOM      7  H   LIG d   1       1.868   1.031  -8.876  0.00  0.00     0.095 H 
ATOM      8  N   LIG d   1       3.677   0.816  -9.942  0.00  0.00     0.246 N 
ATOM      9  C   LIG d   1       3.725   0.037 -11.202  0.00  0.00    -0.031 C 
ATOM     10  H   LIG d   1       3.480   1.784 -10.146  0.00  0.00     0.204 HD
ATOM     11  C   LIG d   1       2.305  -0.565 -11.349  0.00  0.00    -0.007 C 
ATOM     12  H   LIG d   1       4.468  -0.757 -11.130  0.00  0.00     0.082 H 
ATOM     13  H   LIG d   1       3.948   0.692 -12.043  0.00  0.00     0.082 H 
ATOM     14  C   LIG d   1       1.950  -0.896  -9.875  0.00  0.00     0.004 C 
ATOM     15  H   LIG d   1       2.325  -1.469 -11.958  0.00  0.00     0.032 H 
ATOM     16  H   LIG d   1       1.611   0.167 -11.763  0.00  0.00     0.032 H 
ATOM     17  H   LIG d   1       2.378  -1.853  -9.581  0.00  0.00     0.033 H 
ATOM     18  H   LIG d   1       0.870  -0.894  -9.730  0.00  0.00     0.033 H 
BRANCH   8  19
ATOM     19  C   LIG d   1       4.966   0.711  -9.246  0.00  0.00    -0.020 C 
ATOM     20  C   LIG d   1       6.126   0.278 -10.158  0.00  0.00    -0.009 C 
ATOM     21  C   LIG d   1       6.995   1.300  -9.406  0.00  0.00    -0.043 C 
ATOM     22  H   LIG d   1       6.438  -0.755 -10.008  0.00  0.00     0.032 H 
ATOM     23  H   LIG d   1       5.971   0.526 -11.209  0.00  0.00     0.032 H 
ATOM     24  C   LIG d   1       5.694   2.056  -9.091  0.00  0.00    -0.009 C 
ATOM     25  H   LIG d   1       7.676   1.854 -10.052  0.00  0.00     0.027 H 
ATOM     26  H   LIG d   1       7.487   0.890  -8.524  0.00  0.00     0.027 H 
ATOM     27  H   LIG d   1       5.421   2.791  -9.848  0.00  0.00     0.032 H 
ATOM     28  H   LIG d   1       5.657   2.459  -8.079  0.00  0.00     0.032 H 
ATOM     29  H   LIG d   1       4.903   0.139  -8.320  0.00  0.00     0.085 H 
ENDBRANCH   8  19
ENDBRANCH   3   6
BRANCH   1  30
ATOM     30  C   LIG d   1       4.166   0.053  -4.354  0.00  0.00     0.084 A 
ATOM     31  C   LIG d   1       5.415  -0.212  -3.779  0.00  0.00     0.226 A 
ATOM     32  N   LIG d   1       5.672   0.155  -2.536  0.00  0.00    -0.221 NA
ATOM     33  C   LIG d   1       4.777   0.788  -1.800  0.00  0.00     0.031 A 
ATOM     34  C   LIG d   1       3.523   1.083  -2.298  0.00  0.00    -0.043 A 
ATOM     35  H   LIG d   1       5.029   1.074  -0.789  0.00  0.00     0.083 H 
ATOM     36  C   LIG d   1       3.202   0.716  -3.594  0.00  0.00    -0.044 A 
ATOM     37  H   LIG d   1       2.799   1.599  -1.683  0.00  0.00     0.063 H 
ATOM     38  H   LIG d   1       2.228   0.937  -4.006  0.00  0.00     0.063 H 
BRANCH  31  39
ATOM     39  O   LIG d   1       6.366  -0.855  -4.501  0.00  0.00    -0.474 OA
BRANCH  39  40
ATOM     40  C   LIG d   1       7.658  -0.247  -4.559  0.00  0.00     0.115 C 
ATOM     41  H   LIG d   1       8.404  -1.002  -4.801  0.00  0.00     0.072 H 
ATOM     42  H   LIG d   1       7.892   0.201  -3.593  0.00  0.00     0.072 H 
BRANCH  40  43
ATOM     43  C   LIG d   1       7.662   0.839  -5.637  0.00  0.00     0.081 C 
ATOM     44  H   LIG d   1       6.753   0.761  -6.235  0.00  0.00     0.059 H 
ATOM     45  H   LIG d   1       8.531   0.709  -6.280  0.00  0.00     0.059 H 
BRANCH  43  46
ATOM     46  O   LIG d   1       7.715   2.125  -5.018  0.00  0.00    -0.380 OA
BRANCH  46  47
ATOM     47  C   LIG d   1       8.480   2.159  -3.811  0.00  0.00     0.037 C 
ATOM     48  H   LIG d   1       9.541   2.094  -4.053  0.00  0.00     0.052 H 
ATOM     49  H   LIG d   1       8.284   3.091  -3.281  0.00  0.00     0.052 H 
ATOM     50  H   LIG d   1       8.200   1.316  -3.180  0.00  0.00     0.052 H 
ENDBRANCH  46  47
ENDBRANCH  43  46
ENDBRANCH  40  43
ENDBRANCH  39  40
ENDBRANCH  31  39
ENDBRANCH   1  30
TORSDOF 8
ENDMDL
MODEL 4
REMARK VINA RESULT:      -5.7      1.681      3.120
REMARK  8 active torsions:
REMARK  status: ('A' for Active; 'I' for Inactive)
REMARK    1  A    between atoms: C_1  and  O_2 
REMARK    2  A    between atoms: O_2  and  C_3 
REMARK    3  A    between atoms: C_3  and  C_4 
REMARK    4  A    between atoms: C_4  and  O_5 
REMARK    5  A    between atoms: O_5  and  C_6 
REMARK    6  A    between atoms: C_7  and  C_12 
REMARK    7  A    between atoms: C_14  and  C_17 
REMARK    8  A    between atoms: N_22  and  C_23 
ROOT
ATOM      1  C   LIG d   1       3.823  -0.577  -7.394  0.00  0.00     0.207 A 
ATOM      2  N   LIG d   1       5.076  -0.901  -7.029  0.00  0.00    -0.186 NA
ATOM      3  C   LIG d   1       5.375  -0.323  -5.900  0.00  0.00     0.276 A 
ATOM      4  O   LIG d   1       4.321   0.399  -5.499  0.00  0.00    -0.332 OA
ATOM      5  N   LIG d   1       3.317   0.226  -6.489  0.00  0.00    -0.056 NA
ENDROOT
BRANCH   3   6
ATOM      6  C   LIG d   1       6.688  -0.445  -5.169  0.00  0.00     0.060 C 
ATOM      7  H   LIG d   1       7.169   0.531  -5.106  0.00  0.00     0.095 H 
ATOM      8  N   LIG d   1       6.460  -0.981  -3.815  0.00  0.00     0.246 N 
ATOM      9  C   LIG d   1       7.178  -2.272  -3.696  0.00  0.00    -0.031 C 
ATOM     10  H   LIG d   1       6.811  -0.330  -3.129  0.00  0.00     0.204 HD
ATOM     11  C   LIG d   1       8.311  -2.193  -4.749  0.00  0.00    -0.007 C 
ATOM     12  H   LIG d   1       6.508  -3.102  -3.921  0.00  0.00     0.082 H 
ATOM     13  H   LIG d   1       7.596  -2.381  -2.697  0.00  0.00     0.082 H 
ATOM     14  C   LIG d   1       7.610  -1.438  -5.909  0.00  0.00     0.004 C 
ATOM     15  H   LIG d   1       8.622  -3.189  -5.065  0.00  0.00     0.032 H 
ATOM     16  H   LIG d   1       9.159  -1.623  -4.369  0.00  0.00     0.032 H 
ATOM     17  H   LIG d   1       7.025  -2.125  -6.519  0.00  0.00     0.033 H 
ATOM     18  H   LIG d   1       8.340  -0.905  -6.519  0.00  0.00     0.033 H 
BRANCH   8  19
ATOM     19  C   LIG d   1       5.022  -1.192  -3.603  0.00  0.00    -0.020 C 
ATOM     20  C   LIG d   1       4.639  -2.668  -3.403  0.00  0.00    -0.009 C 
ATOM     21  C   LIG d   1       3.659  -2.186  -2.321  0.00  0.00    -0.043 C 
ATOM     22  H   LIG d   1       4.149  -3.113  -4.269  0.00  0.00     0.032 H 
ATOM     23  H   LIG d   1       5.452  -3.281  -3.014  0.00  0.00     0.032 H 
ATOM     24  C   LIG d   1       4.573  -0.961  -2.151  0.00  0.00    -0.009 C 
ATOM     25  H   LIG d   1       3.626  -2.831  -1.443  0.00  0.00     0.027 H 
ATOM     26  H   LIG d   1       2.668  -1.942  -2.706  0.00  0.00     0.027 H 
ATOM     27  H   LIG d   1       5.367  -1.106  -1.419  0.00  0.00     0.032 H 
ATOM     28  H   LIG d   1       4.029  -0.027  -2.005  0.00  0.00     0.032 H 
ATOM     29  H   LIG d   1       4.405  -0.677  -4.339  0.00  0.00     0.085 H 
ENDBRANCH   8  19
ENDBRANCH   3   6
BRANCH   1  30
ATOM     30  C   LIG d   1       3.131  -1.044  -8.620  0.00  0.00     0.084 A 
ATOM     31  C   LIG d   1       2.586  -0.124  -9.524  0.00  0.00     0.226 A 
ATOM     32  N   LIG d   1       1.966  -0.542 -10.614  0.00  0.00    -0.221 NA
ATOM     33  C   LIG d   1       1.846  -1.826 -10.895  0.00  0.00     0.031 A 
ATOM     34  C   LIG d   1       2.357  -2.793 -10.050  0.00  0.00    -0.043 A 
ATOM     35  H   LIG d   1       1.336  -2.125 -11.799  0.00  0.00     0.083 H 
ATOM     36  C   LIG d   1       3.012  -2.407  -8.892  0.00  0.00    -0.044 A 
ATOM     37  H   LIG d   1       2.249  -3.840 -10.292  0.00  0.00     0.063 H 
ATOM     38  H   LIG d   1       3.422  -3.144  -8.217  0.00  0.00     0.063 H 
BRANCH  31  39
ATOM     39  O   LIG d   1       2.691   1.206  -9.278  0.00  0.00    -0.474 OA
BRANCH  39  40
ATOM     40  C   LIG d   1       3.595   1.948 -10.098  0.00  0.00     0.115 C 
ATOM     41  H   LIG d   1       3.072   2.795 -10.541  0.00  0.00     0.072 H 
ATOM     42  H   LIG d   1       3.981   1.304 -10.888  0.00  0.00     0.072 H 
BRANCH  40  43
ATOM     43  C   LIG d   1       4.758   2.457  -9.243  0.00  0.00     0.081 C 
ATOM     44  H   LIG d   1       4.537   2.283  -8.189  0.00  0.00     0.059 H 
ATOM     45  H   LIG d   1       4.894   3.524  -9.414  0.00  0.00     0.059 H 
BRANCH  43  46
ATOM     46  O   LIG d   1       5.952   1.760  -9.600  0.00  0.00    -0.380 OA
BRANCH  46  47
ATOM     47  C   LIG d   1       6.966   1.789  -8.593  0.00  0.00     0.037 C 
ATOM     48  H   LIG d   1       6.611   2.363  -7.737  0.00  0.00     0.052 H 
ATOM     49  H   LIG d   1       7.194   0.771  -8.277  0.00  0.00     0.052 H 
ATOM     50  H   LIG d   1       7.865   2.255  -8.995  0.00  0.00     0.052 H 
ENDBRANCH  46  47
ENDBRANCH  43  46
ENDBRANCH  40  43
ENDBRANCH  39  40
ENDBRANCH  31  39
ENDBRANCH   1  30
TORSDOF 8
ENDMDL
MODEL 5
REMARK VINA RESULT:      -5.7      1.857      6.153
REMARK  8 active torsions:
REMARK  status: ('A' for Active; 'I' for Inactive)
REMARK    1  A    between atoms: C_1  and  O_2 
REMARK    2  A    between atoms: O_2  and  C_3 
REMARK    3  A    between atoms: C_3  and  C_4 
REMARK    4  A    between atoms: C_4  and  O_5 
REMARK    5  A    between atoms: O_5  and  C_6 
REMARK    6  A    between atoms: C_7  and  C_12 
REMARK    7  A    between atoms: C_14  and  C_17 
REMARK    8  A    between atoms: N_22  and  C_23 
ROOT
ATOM      1  C   LIG d   1       5.526  -0.794  -5.908  0.00  0.00     0.207 A 
ATOM      2  N   LIG d   1       5.043   0.040  -6.845  0.00  0.00    -0.186 NA
ATOM      3  C   LIG d   1       5.641  -0.174  -7.983  0.00  0.00     0.276 A 
ATOM      4  O   LIG d   1       6.534  -1.158  -7.815  0.00  0.00    -0.332 OA
ATOM      5  N   LIG d   1       6.450  -1.548  -6.453  0.00  0.00    -0.056 NA
ENDROOT
BRANCH   3   6
ATOM      6  C   LIG d   1       5.373   0.562  -9.271  0.00  0.00     0.060 C 
ATOM      7  H   LIG d   1       6.299   0.668  -9.836  0.00  0.00     0.095 H 
ATOM      8  N   LIG d   1       4.377  -0.174 -10.071  0.00  0.00     0.246 N 
ATOM      9  C   LIG d   1       3.188   0.693 -10.250  0.00  0.00    -0.031 C 
ATOM     10  H   LIG d   1       4.770  -0.406 -10.971  0.00  0.00     0.204 HD
ATOM     11  C   LIG d   1       3.722   2.137 -10.085  0.00  0.00    -0.007 C 
ATOM     12  H   LIG d   1       2.441   0.475  -9.487  0.00  0.00     0.082 H 
ATOM     13  H   LIG d   1       2.767   0.555 -11.244  0.00  0.00     0.082 H 
ATOM     14  C   LIG d   1       4.781   1.954  -8.965  0.00  0.00     0.004 C 
ATOM     15  H   LIG d   1       2.930   2.814  -9.766  0.00  0.00     0.032 H 
ATOM     16  H   LIG d   1       4.187   2.489 -11.007  0.00  0.00     0.032 H 
ATOM     17  H   LIG d   1       4.309   1.966  -7.983  0.00  0.00     0.033 H 
ATOM     18  H   LIG d   1       5.550   2.724  -9.033  0.00  0.00     0.033 H 
BRANCH   8  19
ATOM     19  C   LIG d   1       3.992  -1.405  -9.369  0.00  0.00    -0.020 C 
ATOM     20  C   LIG d   1       2.471  -1.613  -9.278  0.00  0.00    -0.009 C 
ATOM     21  C   LIG d   1       2.736  -3.102  -9.556  0.00  0.00    -0.043 C 
ATOM     22  H   LIG d   1       2.062  -1.419  -8.287  0.00  0.00     0.032 H 
ATOM     23  H   LIG d   1       1.914  -1.113 -10.072  0.00  0.00     0.032 H 
ATOM     24  C   LIG d   1       4.031  -2.659 -10.258  0.00  0.00    -0.009 C 
ATOM     25  H   LIG d   1       2.009  -3.558 -10.228  0.00  0.00     0.027 H 
ATOM     26  H   LIG d   1       2.908  -3.690  -8.654  0.00  0.00     0.027 H 
ATOM     27  H   LIG d   1       3.901  -2.447 -11.319  0.00  0.00     0.032 H 
ATOM     28  H   LIG d   1       4.882  -3.311 -10.058  0.00  0.00     0.032 H 
ATOM     29  H   LIG d   1       4.507  -1.529  -8.416  0.00  0.00     0.085 H 
ENDBRANCH   8  19
ENDBRANCH   3   6
BRANCH   1  30
ATOM     30  C   LIG d   1       5.090  -0.849  -4.491  0.00  0.00     0.084 A 
ATOM     31  C   LIG d   1       5.448   0.167  -3.596  0.00  0.00     0.226 A 
ATOM     32  N   LIG d   1       5.062   0.115  -2.333  0.00  0.00    -0.221 NA
ATOM     33  C   LIG d   1       4.325  -0.879  -1.873  0.00  0.00     0.031 A 
ATOM     34  C   LIG d   1       3.933  -1.917  -2.695  0.00  0.00    -0.043 A 
ATOM     35  H   LIG d   1       4.027  -0.881  -0.835  0.00  0.00     0.083 H 
ATOM     36  C   LIG d   1       4.315  -1.912  -4.027  0.00  0.00    -0.044 A 
ATOM     37  H   LIG d   1       3.332  -2.726  -2.304  0.00  0.00     0.063 H 
ATOM     38  H   LIG d   1       4.020  -2.712  -4.690  0.00  0.00     0.063 H 
BRANCH  31  39
ATOM     39  O   LIG d   1       6.201   1.209  -4.027  0.00  0.00    -0.474 OA
BRANCH  39  40
ATOM     40  C   LIG d   1       7.577   1.219  -3.641  0.00  0.00     0.115 C 
ATOM     41  H   LIG d   1       7.797   0.324  -3.061  0.00  0.00     0.072 H 
ATOM     42  H   LIG d   1       7.777   2.103  -3.036  0.00  0.00     0.072 H 
BRANCH  40  43
ATOM     43  C   LIG d   1       8.457   1.247  -4.892  0.00  0.00     0.081 C 
ATOM     44  H   LIG d   1       8.700   0.227  -5.188  0.00  0.00     0.059 H 
ATOM     45  H   LIG d   1       9.376   1.791  -4.677  0.00  0.00     0.059 H 
BRANCH  43  46
ATOM     46  O   LIG d   1       7.756   1.897  -5.953  0.00  0.00    -0.380 OA
BRANCH  46  47
ATOM     47  C   LIG d   1       8.499   1.989  -7.171  0.00  0.00     0.037 C 
ATOM     48  H   LIG d   1       8.971   2.970  -7.234  0.00  0.00     0.052 H 
ATOM     49  H   LIG d   1       9.266   1.214  -7.189  0.00  0.00     0.052 H 
ATOM     50  H   LIG d   1       7.826   1.854  -8.018  0.00  0.00     0.052 H 
ENDBRANCH  46  47
ENDBRANCH  43  46
ENDBRANCH  40  43
ENDBRANCH  39  40
ENDBRANCH  31  39
ENDBRANCH   1  30
TORSDOF 8
ENDMDL
MODEL 6
REMARK VINA RESULT:      -5.7      3.093      4.693
REMARK  8 active torsions:
REMARK  status: ('A' for Active; 'I' for Inactive)
REMARK    1  A    between atoms: C_1  and  O_2 
REMARK    2  A    between atoms: O_2  and  C_3 
REMARK    3  A    between atoms: C_3  and  C_4 
REMARK    4  A    between atoms: C_4  and  O_5 
REMARK    5  A    between atoms: O_5  and  C_6 
REMARK    6  A    between atoms: C_7  and  C_12 
REMARK    7  A    between atoms: C_14  and  C_17 
REMARK    8  A    between atoms: N_22  and  C_23 
ROOT
ATOM      1  C   LIG d   1       3.294  -0.413  -7.452  0.00  0.00     0.207 A 
ATOM      2  N   LIG d   1       2.785  -0.621  -6.225  0.00  0.00    -0.186 NA
ATOM      3  C   LIG d   1       3.540  -0.054  -5.327  0.00  0.00     0.276 A 
ATOM      4  O   LIG d   1       4.565   0.542  -5.949  0.00  0.00    -0.332 OA
ATOM      5  N   LIG d   1       4.393   0.293  -7.336  0.00  0.00    -0.056 NA
ENDROOT
BRANCH   3   6
ATOM      6  C   LIG d   1       3.298  -0.065  -3.840  0.00  0.00     0.060 C 
ATOM      7  H   LIG d   1       2.264  -0.341  -3.634  0.00  0.00     0.095 H 
ATOM      8  N   LIG d   1       4.212  -1.023  -3.190  0.00  0.00     0.246 N 
ATOM      9  C   LIG d   1       5.077  -0.277  -2.246  0.00  0.00    -0.031 C 
ATOM     10  H   LIG d   1       3.677  -1.716  -2.688  0.00  0.00     0.204 HD
ATOM     11  C   LIG d   1       4.271   0.997  -1.892  0.00  0.00    -0.007 C 
ATOM     12  H   LIG d   1       6.019  -0.009  -2.725  0.00  0.00     0.082 H 
ATOM     13  H   LIG d   1       5.261  -0.870  -1.352  0.00  0.00     0.082 H 
ATOM     14  C   LIG d   1       3.597   1.329  -3.249  0.00  0.00     0.004 C 
ATOM     15  H   LIG d   1       4.932   1.804  -1.577  0.00  0.00     0.032 H 
ATOM     16  H   LIG d   1       3.523   0.786  -1.127  0.00  0.00     0.032 H 
ATOM     17  H   LIG d   1       4.279   1.882  -3.894  0.00  0.00     0.033 H 
ATOM     18  H   LIG d   1       2.674   1.888  -3.094  0.00  0.00     0.033 H 
BRANCH   8  19
ATOM     19  C   LIG d   1       5.041  -1.682  -4.207  0.00  0.00    -0.020 C 
ATOM     20  C   LIG d   1       6.490  -1.932  -3.755  0.00  0.00    -0.009 C 
ATOM     21  C   LIG d   1       6.393  -3.294  -4.461  0.00  0.00    -0.043 C 
ATOM     22  H   LIG d   1       7.212  -1.255  -4.209  0.00  0.00     0.032 H 
ATOM     23  H   LIG d   1       6.602  -2.008  -2.672  0.00  0.00     0.032 H 
ATOM     24  C   LIG d   1       4.873  -3.210  -4.244  0.00  0.00    -0.009 C 
ATOM     25  H   LIG d   1       6.868  -4.107  -3.911  0.00  0.00     0.027 H 
ATOM     26  H   LIG d   1       6.687  -3.263  -5.511  0.00  0.00     0.027 H 
ATOM     27  H   LIG d   1       4.542  -3.636  -3.297  0.00  0.00     0.032 H 
ATOM     28  H   LIG d   1       4.289  -3.565  -5.094  0.00  0.00     0.032 H 
ATOM     29  H   LIG d   1       4.966  -1.210  -5.187  0.00  0.00     0.085 H 
ENDBRANCH   8  19
ENDBRANCH   3   6
BRANCH   1  30
ATOM     30  C   LIG d   1       2.712  -0.905  -8.725  0.00  0.00     0.084 A 
ATOM     31  C   LIG d   1       2.914  -2.229  -9.136  0.00  0.00     0.226 A 
ATOM     32  N   LIG d   1       2.399  -2.664 -10.271  0.00  0.00    -0.221 NA
ATOM     33  C   LIG d   1       1.674  -1.882 -11.050  0.00  0.00     0.031 A 
ATOM     34  C   LIG d   1       1.433  -0.565 -10.712  0.00  0.00    -0.043 A 
ATOM     35  H   LIG d   1       1.268  -2.279 -11.969  0.00  0.00     0.083 H 
ATOM     36  C   LIG d   1       1.955  -0.058  -9.533  0.00  0.00    -0.044 A 
ATOM     37  H   LIG d   1       0.840   0.065 -11.361  0.00  0.00     0.063 H 
ATOM     38  H   LIG d   1       1.778   0.969  -9.247  0.00  0.00     0.063 H 
BRANCH  31  39
ATOM     39  O   LIG d   1       3.648  -3.069  -8.364  0.00  0.00    -0.474 OA
BRANCH  39  40
ATOM     40  C   LIG d   1       3.492  -4.469  -8.600  0.00  0.00     0.115 C 
ATOM     41  H   LIG d   1       4.123  -4.769  -9.435  0.00  0.00     0.072 H 
ATOM     42  H   LIG d   1       2.450  -4.683  -8.835  0.00  0.00     0.072 H 
BRANCH  40  43
ATOM     43  C   LIG d   1       3.901  -5.246  -7.346  0.00  0.00     0.081 C 
ATOM     44  H   LIG d   1       3.238  -4.982  -6.522  0.00  0.00     0.059 H 
ATOM     45  H   LIG d   1       4.927  -4.994  -7.082  0.00  0.00     0.059 H 
BRANCH  43  46
ATOM     46  O   LIG d   1       3.805  -6.648  -7.603  0.00  0.00    -0.380 OA
BRANCH  46  47
ATOM     47  C   LIG d   1       4.685  -7.446  -6.809  0.00  0.00     0.037 C 
ATOM     48  H   LIG d   1       5.715  -7.131  -6.980  0.00  0.00     0.052 H 
ATOM     49  H   LIG d   1       4.437  -7.323  -5.755  0.00  0.00     0.052 H 
ATOM     50  H   LIG d   1       4.576  -8.494  -7.088  0.00  0.00     0.052 H 
ENDBRANCH  46  47
ENDBRANCH  43  46
ENDBRANCH  40  43
ENDBRANCH  39  40
ENDBRANCH  31  39
ENDBRANCH   1  30
TORSDOF 8
ENDMDL
MODEL 7
REMARK VINA RESULT:      -5.6      2.551      5.122
REMARK  8 active torsions:
REMARK  status: ('A' for Active; 'I' for Inactive)
REMARK    1  A    between atoms: C_1  and  O_2 
REMARK    2  A    between atoms: O_2  and  C_3 
REMARK    3  A    between atoms: C_3  and  C_4 
REMARK    4  A    between atoms: C_4  and  O_5 
REMARK    5  A    between atoms: O_5  and  C_6 
REMARK    6  A    between atoms: C_7  and  C_12 
REMARK    7  A    between atoms: C_14  and  C_17 
REMARK    8  A    between atoms: N_22  and  C_23 
ROOT
ATOM      1  C   LIG d   1       7.937   0.669  -5.078  0.00  0.00     0.207 A 
ATOM      2  N   LIG d   1       6.641   0.669  -5.435  0.00  0.00    -0.186 NA
ATOM      3  C   LIG d   1       6.166  -0.543  -5.387  0.00  0.00     0.276 A 
ATOM      4  O   LIG d   1       7.145  -1.369  -4.996  0.00  0.00    -0.332 OA
ATOM      5  N   LIG d   1       8.297  -0.562  -4.804  0.00  0.00    -0.056 NA
ENDROOT
BRANCH   3   6
ATOM      6  C   LIG d   1       4.751  -0.948  -5.715  0.00  0.00     0.060 C 
ATOM      7  H   LIG d   1       4.709  -2.020  -5.909  0.00  0.00     0.095 H 
ATOM      8  N   LIG d   1       3.858  -0.605  -4.593  0.00  0.00     0.246 N 
ATOM      9  C   LIG d   1       2.852   0.370  -5.078  0.00  0.00    -0.031 C 
ATOM     10  H   LIG d   1       3.395  -1.438  -4.261  0.00  0.00     0.204 HD
ATOM     11  C   LIG d   1       2.775   0.132  -6.606  0.00  0.00    -0.007 C 
ATOM     12  H   LIG d   1       3.178   1.388  -4.868  0.00  0.00     0.082 H 
ATOM     13  H   LIG d   1       1.886   0.177  -4.614  0.00  0.00     0.082 H 
ATOM     14  C   LIG d   1       4.257  -0.169  -6.953  0.00  0.00     0.004 C 
ATOM     15  H   LIG d   1       2.427   1.026  -7.124  0.00  0.00     0.032 H 
ATOM     16  H   LIG d   1       2.139  -0.723  -6.837  0.00  0.00     0.032 H 
ATOM     17  H   LIG d   1       4.820   0.755  -7.076  0.00  0.00     0.033 H 
ATOM     18  H   LIG d   1       4.325  -0.786  -7.849  0.00  0.00     0.033 H 
BRANCH   8  19
ATOM     19  C   LIG d   1       4.641  -0.009  -3.503  0.00  0.00    -0.020 C 
ATOM     20  C   LIG d   1       4.046   1.302  -2.962  0.00  0.00    -0.009 C 
ATOM     21  C   LIG d   1       4.431   0.806  -1.559  0.00  0.00    -0.043 C 
ATOM     22  H   LIG d   1       4.591   2.192  -3.276  0.00  0.00     0.032 H 
ATOM     23  H   LIG d   1       2.969   1.388  -3.115  0.00  0.00     0.032 H 
ATOM     24  C   LIG d   1       4.343  -0.621  -2.124  0.00  0.00    -0.009 C 
ATOM     25  H   LIG d   1       3.680   1.021  -0.798  0.00  0.00     0.027 H 
ATOM     26  H   LIG d   1       5.438   1.094  -1.255  0.00  0.00     0.027 H 
ATOM     27  H   LIG d   1       3.349  -1.061  -2.047  0.00  0.00     0.032 H 
ATOM     28  H   LIG d   1       5.128  -1.284  -1.762  0.00  0.00     0.032 H 
ATOM     29  H   LIG d   1       5.705   0.057  -3.731  0.00  0.00     0.085 H 
ENDBRANCH   8  19
ENDBRANCH   3   6
BRANCH   1  30
ATOM     30  C   LIG d   1       8.817   1.862  -5.012  0.00  0.00     0.084 A 
ATOM     31  C   LIG d   1       9.611   2.224  -6.107  0.00  0.00     0.226 A 
ATOM     32  N   LIG d   1      10.396   3.284  -6.045  0.00  0.00    -0.221 NA
ATOM     33  C   LIG d   1      10.455   4.042  -4.965  0.00  0.00     0.031 A 
ATOM     34  C   LIG d   1       9.702   3.748  -3.845  0.00  0.00    -0.043 A 
ATOM     35  H   LIG d   1      11.107   4.903  -4.957  0.00  0.00     0.083 H 
ATOM     36  C   LIG d   1       8.866   2.644  -3.857  0.00  0.00    -0.044 A 
ATOM     37  H   LIG d   1       9.763   4.376  -2.967  0.00  0.00     0.063 H 
ATOM     38  H   LIG d   1       8.266   2.395  -2.994  0.00  0.00     0.063 H 
BRANCH  31  39
ATOM     39  O   LIG d   1       9.577   1.476  -7.239  0.00  0.00    -0.474 OA
BRANCH  39  40
ATOM     40  C   LIG d   1       9.472   2.180  -8.477  0.00  0.00     0.115 C 
ATOM     41  H   LIG d   1       9.914   1.583  -9.273  0.00  0.00     0.072 H 
ATOM     42  H   LIG d   1       9.998   3.131  -8.400  0.00  0.00     0.072 H 
BRANCH  40  43
ATOM     43  C   LIG d   1       7.997   2.438  -8.793  0.00  0.00     0.081 C 
ATOM     44  H   LIG d   1       7.421   2.435  -7.868  0.00  0.00     0.059 H 
ATOM     45  H   LIG d   1       7.625   1.657  -9.455  0.00  0.00     0.059 H 
BRANCH  43  46
ATOM     46  O   LIG d   1       7.862   3.708  -9.433  0.00  0.00    -0.380 OA
BRANCH  46  47
ATOM     47  C   LIG d   1       8.927   4.618  -9.149  0.00  0.00     0.037 C 
ATOM     48  H   LIG d   1       9.301   5.041 -10.082  0.00  0.00     0.052 H 
ATOM     49  H   LIG d   1       8.560   5.420  -8.507  0.00  0.00     0.052 H 
ATOM     50  H   LIG d   1       9.733   4.088  -8.642  0.00  0.00     0.052 H 
ENDBRANCH  46  47
ENDBRANCH  43  46
ENDBRANCH  40  43
ENDBRANCH  39  40
ENDBRANCH  31  39
ENDBRANCH   1  30
TORSDOF 8
ENDMDL
MODEL 8
REMARK VINA RESULT:      -5.6      2.015      6.162
REMARK  8 active torsions:
REMARK  status: ('A' for Active; 'I' for Inactive)
REMARK    1  A    between atoms: C_1  and  O_2 
REMARK    2  A    between atoms: O_2  and  C_3 
REMARK    3  A    between atoms: C_3  and  C_4 
REMARK    4  A    between atoms: C_4  and  O_5 
REMARK    5  A    between atoms: O_5  and  C_6 
REMARK    6  A    between atoms: C_7  and  C_12 
REMARK    7  A    between atoms: C_14  and  C_17 
REMARK    8  A    between atoms: N_22  and  C_23 
ROOT
ATOM      1  C   LIG d   1       3.888  -0.375  -5.686  0.00  0.00     0.207 A 
ATOM      2  N   LIG d   1       3.264   0.358  -6.625  0.00  0.00    -0.186 NA
ATOM      3  C   LIG d   1       3.192  -0.313  -7.740  0.00  0.00     0.276 A 
ATOM      4  O   LIG d   1       3.772  -1.506  -7.556  0.00  0.00    -0.332 OA
ATOM      5  N   LIG d   1       4.226  -1.529  -6.211  0.00  0.00    -0.056 NA
ENDROOT
BRANCH   3   6
ATOM      6  C   LIG d   1       2.563   0.173  -9.021  0.00  0.00     0.060 C 
ATOM      7  H   LIG d   1       1.735   0.845  -8.795  0.00  0.00     0.095 H 
ATOM      8  N   LIG d   1       3.569   0.873  -9.840  0.00  0.00     0.246 N 
ATOM      9  C   LIG d   1       3.721   0.140 -11.120  0.00  0.00    -0.031 C 
ATOM     10  H   LIG d   1       3.262   1.817 -10.021  0.00  0.00     0.204 HD
ATOM     11  C   LIG d   1       2.384  -0.619 -11.303  0.00  0.00    -0.007 C 
ATOM     12  H   LIG d   1       4.552  -0.563 -11.058  0.00  0.00     0.082 H 
ATOM     13  H   LIG d   1       3.876   0.840 -11.940  0.00  0.00     0.082 H 
ATOM     14  C   LIG d   1       2.054  -1.030  -9.844  0.00  0.00     0.004 C 
ATOM     15  H   LIG d   1       2.516  -1.498 -11.935  0.00  0.00     0.032 H 
ATOM     16  H   LIG d   1       1.613   0.038 -11.707  0.00  0.00     0.032 H 
ATOM     17  H   LIG d   1       2.588  -1.939  -9.568  0.00  0.00     0.033 H 
ATOM     18  H   LIG d   1       0.980  -1.159  -9.714  0.00  0.00     0.033 H 
BRANCH   8  19
ATOM     19  C   LIG d   1       4.853   0.901  -9.129  0.00  0.00    -0.020 C 
ATOM     20  C   LIG d   1       6.036   0.394  -9.972  0.00  0.00    -0.009 C 
ATOM     21  C   LIG d   1       6.864   1.531  -9.351  0.00  0.00    -0.043 C 
ATOM     22  H   LIG d   1       6.380  -0.601  -9.690  0.00  0.00     0.032 H 
ATOM     23  H   LIG d   1       5.883   0.501 -11.046  0.00  0.00     0.032 H 
ATOM     24  C   LIG d   1       5.536   2.278  -9.142  0.00  0.00    -0.009 C 
ATOM     25  H   LIG d   1       7.533   2.021 -10.059  0.00  0.00     0.027 H 
ATOM     26  H   LIG d   1       7.360   1.253  -8.421  0.00  0.00     0.027 H 
ATOM     27  H   LIG d   1       5.247   2.901  -9.989  0.00  0.00     0.032 H 
ATOM     28  H   LIG d   1       5.476   2.805  -8.190  0.00  0.00     0.032 H 
ATOM     29  H   LIG d   1       4.799   0.449  -8.138  0.00  0.00     0.085 H 
ENDBRANCH   8  19
ENDBRANCH   3   6
BRANCH   1  30
ATOM     30  C   LIG d   1       4.156   0.052  -4.291  0.00  0.00     0.084 A 
ATOM     31  C   LIG d   1       5.432   0.486  -3.912  0.00  0.00     0.226 A 
ATOM     32  N   LIG d   1       5.670   0.862  -2.668  0.00  0.00    -0.221 NA
ATOM     33  C   LIG d   1       4.724   0.854  -1.747  0.00  0.00     0.031 A 
ATOM     34  C   LIG d   1       3.441   0.438  -2.046  0.00  0.00    -0.043 A 
ATOM     35  H   LIG d   1       4.959   1.173  -0.743  0.00  0.00     0.083 H 
ATOM     36  C   LIG d   1       3.141   0.029  -3.335  0.00  0.00    -0.044 A 
ATOM     37  H   LIG d   1       2.677   0.433  -1.281  0.00  0.00     0.063 H 
ATOM     38  H   LIG d   1       2.145  -0.299  -3.593  0.00  0.00     0.063 H 
BRANCH  31  39
ATOM     39  O   LIG d   1       6.433   0.516  -4.827  0.00  0.00    -0.474 OA
BRANCH  39  40
ATOM     40  C   LIG d   1       7.550  -0.344  -4.594  0.00  0.00     0.115 C 
ATOM     41  H   LIG d   1       7.321  -1.023  -3.774  0.00  0.00     0.072 H 
ATOM     42  H   LIG d   1       8.422   0.256  -4.338  0.00  0.00     0.072 H 
BRANCH  40  43
ATOM     43  C   LIG d   1       7.842  -1.154  -5.860  0.00  0.00     0.081 C 
ATOM     44  H   LIG d   1       8.834  -0.898  -6.234  0.00  0.00     0.059 H 
ATOM     45  H   LIG d   1       7.097  -0.923  -6.619  0.00  0.00     0.059 H 
BRANCH  43  46
ATOM     46  O   LIG d   1       7.795  -2.548  -5.554  0.00  0.00    -0.380 OA
BRANCH  46  47
ATOM     47  C   LIG d   1       7.095  -2.856  -4.346  0.00  0.00     0.037 C 
ATOM     48  H   LIG d   1       6.054  -3.082  -4.577  0.00  0.00     0.052 H 
ATOM     49  H   LIG d   1       7.558  -3.718  -3.866  0.00  0.00     0.052 H 
ATOM     50  H   LIG d   1       7.140  -1.999  -3.672  0.00  0.00     0.052 H 
ENDBRANCH  46  47
ENDBRANCH  43  46
ENDBRANCH  40  43
ENDBRANCH  39  40
ENDBRANCH  31  39
ENDBRANCH   1  30
TORSDOF 8
ENDMDL
MODEL 9
REMARK VINA RESULT:      -5.5      2.224      3.258
REMARK  8 active torsions:
REMARK  status: ('A' for Active; 'I' for Inactive)
REMARK    1  A    between atoms: C_1  and  O_2 
REMARK    2  A    between atoms: O_2  and  C_3 
REMARK    3  A    between atoms: C_3  and  C_4 
REMARK    4  A    between atoms: C_4  and  O_5 
REMARK    5  A    between atoms: O_5  and  C_6 
REMARK    6  A    between atoms: C_7  and  C_12 
REMARK    7  A    between atoms: C_14  and  C_17 
REMARK    8  A    between atoms: N_22  and  C_23 
ROOT
ATOM      1  C   LIG d   1       3.543   0.089  -7.379  0.00  0.00     0.207 A 
ATOM      2  N   LIG d   1       4.053  -0.925  -6.659  0.00  0.00    -0.186 NA
ATOM      3  C   LIG d   1       3.891  -0.694  -5.387  0.00  0.00     0.276 A 
ATOM      4  O   LIG d   1       3.270   0.483  -5.244  0.00  0.00    -0.332 OA
ATOM      5  N   LIG d   1       3.054   0.984  -6.556  0.00  0.00    -0.056 NA
ENDROOT
BRANCH   3   6
ATOM      6  C   LIG d   1       4.330  -1.600  -4.265  0.00  0.00     0.060 C 
ATOM      7  H   LIG d   1       4.362  -2.632  -4.613  0.00  0.00     0.095 H 
ATOM      8  N   LIG d   1       5.660  -1.191  -3.780  0.00  0.00     0.246 N 
ATOM      9  C   LIG d   1       5.539  -0.796  -2.356  0.00  0.00    -0.031 C 
ATOM     10  H   LIG d   1       6.305  -1.962  -3.867  0.00  0.00     0.204 HD
ATOM     11  C   LIG d   1       4.286  -1.548  -1.843  0.00  0.00    -0.007 C 
ATOM     12  H   LIG d   1       5.397   0.281  -2.272  0.00  0.00     0.082 H 
ATOM     13  H   LIG d   1       6.423  -1.108  -1.801  0.00  0.00     0.082 H 
ATOM     14  C   LIG d   1       3.350  -1.477  -3.078  0.00  0.00     0.004 C 
ATOM     15  H   LIG d   1       3.844  -1.034  -0.989  0.00  0.00     0.032 H 
ATOM     16  H   LIG d   1       4.525  -2.582  -1.594  0.00  0.00     0.032 H 
ATOM     17  H   LIG d   1       2.824  -0.523  -3.110  0.00  0.00     0.033 H 
ATOM     18  H   LIG d   1       2.643  -2.307  -3.074  0.00  0.00     0.033 H 
BRANCH   8  19
ATOM     19  C   LIG d   1       6.145  -0.052  -4.571  0.00  0.00    -0.020 C 
ATOM     20  C   LIG d   1       6.771   1.067  -3.720  0.00  0.00    -0.009 C 
ATOM     21  C   LIG d   1       7.837   1.199  -4.820  0.00  0.00    -0.043 C 
ATOM     22  H   LIG d   1       6.136   1.947  -3.620  0.00  0.00     0.032 H 
ATOM     23  H   LIG d   1       7.168   0.719  -2.766  0.00  0.00     0.032 H 
ATOM     24  C   LIG d   1       7.544  -0.269  -5.171  0.00  0.00    -0.009 C 
ATOM     25  H   LIG d   1       8.844   1.362  -4.435  0.00  0.00     0.027 H 
ATOM     26  H   LIG d   1       7.566   1.900  -5.609  0.00  0.00     0.027 H 
ATOM     27  H   LIG d   1       8.152  -0.982  -4.615  0.00  0.00     0.032 H 
ATOM     28  H   LIG d   1       7.533  -0.468  -6.243  0.00  0.00     0.032 H 
ATOM     29  H   LIG d   1       5.411   0.307  -5.291  0.00  0.00     0.085 H 
ENDBRANCH   8  19
ENDBRANCH   3   6
BRANCH   1  30
ATOM     30  C   LIG d   1       3.540   0.183  -8.860  0.00  0.00     0.084 A 
ATOM     31  C   LIG d   1       2.977  -0.837  -9.637  0.00  0.00     0.226 A 
ATOM     32  N   LIG d   1       2.979  -0.754 -10.955  0.00  0.00    -0.221 NA
ATOM     33  C   LIG d   1       3.495   0.286 -11.585  0.00  0.00     0.031 A 
ATOM     34  C   LIG d   1       4.069   1.330 -10.886  0.00  0.00    -0.043 A 
ATOM     35  H   LIG d   1       3.473   0.316 -12.664  0.00  0.00     0.083 H 
ATOM     36  C   LIG d   1       4.097   1.289  -9.502  0.00  0.00    -0.044 A 
ATOM     37  H   LIG d   1       4.490   2.173 -11.415  0.00  0.00     0.063 H 
ATOM     38  H   LIG d   1       4.538   2.094  -8.934  0.00  0.00     0.063 H 
BRANCH  31  39
ATOM     39  O   LIG d   1       2.431  -1.921  -9.032  0.00  0.00    -0.474 OA
BRANCH  39  40
ATOM     40  C   LIG d   1       2.744  -3.200  -9.588  0.00  0.00     0.115 C 
ATOM     41  H   LIG d   1       3.269  -3.067 -10.532  0.00  0.00     0.072 H 
ATOM     42  H   LIG d   1       1.822  -3.757  -9.758  0.00  0.00     0.072 H 
BRANCH  40  43
ATOM     43  C   LIG d   1       3.634  -3.975  -8.614  0.00  0.00     0.081 C 
ATOM     44  H   LIG d   1       3.177  -4.940  -8.392  0.00  0.00     0.059 H 
ATOM     45  H   LIG d   1       3.746  -3.406  -7.692  0.00  0.00     0.059 H 
BRANCH  43  46
ATOM     46  O   LIG d   1       4.918  -4.182  -9.205  0.00  0.00    -0.380 OA
BRANCH  46  47
ATOM     47  C   LIG d   1       5.844  -3.118  -8.973  0.00  0.00     0.037 C 
ATOM     48  H   LIG d   1       6.638  -3.159  -9.719  0.00  0.00     0.052 H 
ATOM     49  H   LIG d   1       5.326  -2.162  -9.044  0.00  0.00     0.052 H 
ATOM     50  H   LIG d   1       6.276  -3.224  -7.977  0.00  0.00     0.052 H 
ENDBRANCH  46  47
ENDBRANCH  43  46
ENDBRANCH  40  43
ENDBRANCH  39  40
ENDBRANCH  31  39
ENDBRANCH   1  30
TORSDOF 8
ENDMDL
