MODEL 1
REMARK VINA RESULT:      -6.9      0.000      0.000
REMARK  4 active torsions:
REMARK  status: ('A' for Active; 'I' for Inactive)
REMARK    1  A    between atoms: C_1  and  C_2 
REMARK    2  A    between atoms: C_2  and  C_3 
REMARK    3  A    between atoms: N_23  and  C_26 
REMARK    4  A    between atoms: C_29  and  C_32 
ROOT
ATOM      1  C   LIG d   1       4.984  -0.770  -7.263  0.00  0.00     0.033 C 
ATOM      2  C   LIG d   1       4.341  -0.508  -5.911  0.00  0.00    -0.032 A 
ATOM      3  C   LIG d   1       4.939  -0.734  -4.705  0.00  0.00    -0.057 A 
ATOM      4  C   LIG d   1       4.233  -0.449  -3.543  0.00  0.00    -0.061 A 
ATOM      5  C   LIG d   1       2.947   0.055  -3.611  0.00  0.00    -0.061 A 
ATOM      6  C   LIG d   1       2.345   0.284  -4.842  0.00  0.00    -0.058 A 
ATOM      7  C   LIG d   1       3.045   0.001  -5.980  0.00  0.00    -0.035 A 
ATOM      8  C   LIG d   1       2.521   0.197  -7.393  0.00  0.00     0.022 C 
ATOM      9  C   LIG d   1       3.568   1.049  -8.094  0.00  0.00    -0.035 A 
ATOM     10  C   LIG d   1       4.864   0.540  -8.026  0.00  0.00    -0.032 A 
ATOM     11  C   LIG d   1       5.906   1.201  -8.611  0.00  0.00    -0.057 A 
ATOM     12  C   LIG d   1       5.652   2.392  -9.278  0.00  0.00    -0.061 A 
ATOM     13  C   LIG d   1       4.367   2.897  -9.345  0.00  0.00    -0.061 A 
ATOM     14  C   LIG d   1       3.311   2.220  -8.748  0.00  0.00    -0.058 A 
ATOM     15  C   LIG d   1       2.607  -1.193  -8.061  0.00  0.00     0.059 A 
ATOM     16  H   LIG d   1       1.886  -1.880  -7.621  0.00  0.00     0.041 H 
ATOM     17  C   LIG d   1       4.057  -1.762  -7.999  0.00  0.00     0.062 A 
ATOM     18  H   LIG d   1       4.068  -2.737  -7.514  0.00  0.00     0.041 H 
ATOM     19  C   LIG d   1       4.498  -1.857  -9.444  0.00  0.00     0.231 A 
ATOM     20  O   LIG d   1       5.581  -2.250  -9.823  0.00  0.00    -0.275 OA
ATOM     21  N   LIG d   1       3.505  -1.437 -10.237  0.00  0.00    -0.210 N 
ATOM     22  C   LIG d   1       2.367  -1.032  -9.546  0.00  0.00     0.231 A 
ATOM     23  O   LIG d   1       1.348  -0.611 -10.051  0.00  0.00    -0.275 OA
ATOM     24  H   LIG d   1       5.943  -1.129  -4.655  0.00  0.00     0.062 H 
ATOM     25  H   LIG d   1       4.691  -0.621  -2.581  0.00  0.00     0.062 H 
ATOM     26  H   LIG d   1       2.408   0.273  -2.702  0.00  0.00     0.062 H 
ATOM     27  H   LIG d   1       1.341   0.676  -4.898  0.00  0.00     0.062 H 
ATOM     28  H   LIG d   1       1.525   0.638  -7.422  0.00  0.00     0.041 H 
ATOM     29  H   LIG d   1       6.909   0.804  -8.556  0.00  0.00     0.062 H 
ATOM     30  H   LIG d   1       6.464   2.928  -9.747  0.00  0.00     0.062 H 
ATOM     31  H   LIG d   1       4.182   3.825  -9.866  0.00  0.00     0.062 H 
ATOM     32  H   LIG d   1       2.307   2.612  -8.799  0.00  0.00     0.062 H 
ENDROOT
BRANCH  21  33
ATOM     33  C   LIG d   1       3.610  -1.407 -11.634  0.00  0.00     0.044 A 
ATOM     34  C   LIG d   1       4.206  -0.323 -12.263  0.00  0.00    -0.040 A 
ATOM     35  C   LIG d   1       4.314  -0.298 -13.639  0.00  0.00    -0.057 A 
ATOM     36  H   LIG d   1       4.591   0.498 -11.676  0.00  0.00     0.064 H 
ATOM     37  C   LIG d   1       3.817  -1.346 -14.392  0.00  0.00    -0.050 A 
ATOM     38  H   LIG d   1       4.782   0.544 -14.129  0.00  0.00     0.062 H 
ATOM     39  C   LIG d   1       3.217  -2.424 -13.769  0.00  0.00    -0.057 A 
ATOM     40  C   LIG d   1       3.111  -2.458 -12.392  0.00  0.00    -0.040 A 
ATOM     41  H   LIG d   1       2.830  -3.242 -14.360  0.00  0.00     0.062 H 
ATOM     42  H   LIG d   1       2.643  -3.300 -11.906  0.00  0.00     0.064 H 
BRANCH  37  43
ATOM     43  C   LIG d   1       3.930  -1.313 -15.895  0.00  0.00    -0.040 C 
ATOM     44  H   LIG d   1       4.080  -0.285 -16.225  0.00  0.00     0.028 H 
ATOM     45  H   LIG d   1       4.777  -1.922 -16.209  0.00  0.00     0.028 H 
ATOM     46  H   LIG d   1       3.015  -1.707 -16.337  0.00  0.00     0.028 H 
ENDBRANCH  37  43
ENDBRANCH  21  33
BRANCH   1  47
ATOM     47  C   LIG d   1       6.427  -1.269  -7.153  0.00  0.00    -0.041 C 
ATOM     48  H   LIG d   1       6.980  -0.632  -6.462  0.00  0.00     0.027 H 
ATOM     49  H   LIG d   1       6.899  -1.236  -8.135  0.00  0.00     0.027 H 
BRANCH  47  50
ATOM     50  C   LIG d   1       6.431  -2.708  -6.634  0.00  0.00    -0.064 C 
ATOM     51  H   LIG d   1       6.845  -3.368  -7.395  0.00  0.00     0.023 H 
ATOM     52  H   LIG d   1       7.039  -2.767  -5.731  0.00  0.00     0.023 H 
ATOM     53  H   LIG d   1       5.410  -3.013  -6.403  0.00  0.00     0.023 H 
ENDBRANCH  47  50
ENDBRANCH   1  47
TORSDOF 4
ENDMDL
MODEL 2
REMARK VINA RESULT:      -6.5      4.130      7.334
REMARK  4 active torsions:
REMARK  status: ('A' for Active; 'I' for Inactive)
REMARK    1  A    between atoms: C_1  and  C_2 
REMARK    2  A    between atoms: C_2  and  C_3 
REMARK    3  A    between atoms: N_23  and  C_26 
REMARK    4  A    between atoms: C_29  and  C_32 
ROOT
ATOM      1  C   LIG d   1       5.589  -0.661  -4.063  0.00  0.00     0.033 C 
ATOM      2  C   LIG d   1       4.400  -0.304  -4.938  0.00  0.00    -0.032 A 
ATOM      3  C   LIG d   1       3.170   0.066  -4.473  0.00  0.00    -0.057 A 
ATOM      4  C   LIG d   1       2.170   0.366  -5.389  0.00  0.00    -0.061 A 
ATOM      5  C   LIG d   1       2.418   0.290  -6.747  0.00  0.00    -0.061 A 
ATOM      6  C   LIG d   1       3.671  -0.086  -7.214  0.00  0.00    -0.058 A 
ATOM      7  C   LIG d   1       4.650  -0.379  -6.308  0.00  0.00    -0.035 A 
ATOM      8  C   LIG d   1       6.065  -0.804  -6.665  0.00  0.00     0.022 C 
ATOM      9  C   LIG d   1       6.974   0.155  -5.913  0.00  0.00    -0.035 A 
ATOM     10  C   LIG d   1       6.724   0.230  -4.544  0.00  0.00    -0.032 A 
ATOM     11  C   LIG d   1       7.463   1.053  -3.742  0.00  0.00    -0.057 A 
ATOM     12  C   LIG d   1       8.473   1.814  -4.316  0.00  0.00    -0.061 A 
ATOM     13  C   LIG d   1       8.720   1.740  -5.674  0.00  0.00    -0.061 A 
ATOM     14  C   LIG d   1       7.964   0.902  -6.484  0.00  0.00    -0.058 A 
ATOM     15  C   LIG d   1       6.266  -2.178  -5.988  0.00  0.00     0.059 A 
ATOM     16  H   LIG d   1       5.649  -2.939  -6.464  0.00  0.00     0.041 H 
ATOM     17  C   LIG d   1       6.000  -2.097  -4.455  0.00  0.00     0.062 A 
ATOM     18  H   LIG d   1       5.235  -2.814  -4.157  0.00  0.00     0.041 H 
ATOM     19  C   LIG d   1       7.334  -2.412  -3.812  0.00  0.00     0.231 A 
ATOM     20  O   LIG d   1       7.549  -2.442  -2.619  0.00  0.00    -0.275 OA
ATOM     21  N   LIG d   1       8.238  -2.650  -4.770  0.00  0.00    -0.210 N 
ATOM     22  C   LIG d   1       7.732  -2.544  -6.062  0.00  0.00     0.231 A 
ATOM     23  O   LIG d   1       8.364  -2.710  -7.082  0.00  0.00    -0.275 OA
ATOM     24  H   LIG d   1       2.979   0.123  -3.412  0.00  0.00     0.062 H 
ATOM     25  H   LIG d   1       1.192   0.661  -5.039  0.00  0.00     0.062 H 
ATOM     26  H   LIG d   1       1.632   0.525  -7.450  0.00  0.00     0.062 H 
ATOM     27  H   LIG d   1       3.868  -0.147  -8.274  0.00  0.00     0.062 H 
ATOM     28  H   LIG d   1       6.250  -0.812  -7.739  0.00  0.00     0.041 H 
ATOM     29  H   LIG d   1       7.267   1.110  -2.682  0.00  0.00     0.062 H 
ATOM     30  H   LIG d   1       9.068   2.470  -3.697  0.00  0.00     0.062 H 
ATOM     31  H   LIG d   1       9.507   2.339  -6.109  0.00  0.00     0.062 H 
ATOM     32  H   LIG d   1       8.156   0.842  -7.544  0.00  0.00     0.062 H 
ENDROOT
BRANCH  21  33
ATOM     33  C   LIG d   1       9.573  -2.972  -4.490  0.00  0.00     0.044 A 
ATOM     34  C   LIG d   1      10.573  -2.030  -4.693  0.00  0.00    -0.040 A 
ATOM     35  C   LIG d   1      11.887  -2.348  -4.410  0.00  0.00    -0.057 A 
ATOM     36  H   LIG d   1      10.323  -1.048  -5.066  0.00  0.00     0.064 H 
ATOM     37  C   LIG d   1      12.209  -3.607  -3.938  0.00  0.00    -0.050 A 
ATOM     38  H   LIG d   1      12.665  -1.614  -4.564  0.00  0.00     0.062 H 
ATOM     39  C   LIG d   1      11.217  -4.549  -3.740  0.00  0.00    -0.057 A 
ATOM     40  C   LIG d   1       9.900  -4.236  -4.015  0.00  0.00    -0.040 A 
ATOM     41  H   LIG d   1      11.471  -5.531  -3.370  0.00  0.00     0.062 H 
ATOM     42  H   LIG d   1       9.125  -4.971  -3.860  0.00  0.00     0.064 H 
BRANCH  37  43
ATOM     43  C   LIG d   1      13.645  -3.952  -3.636  0.00  0.00    -0.040 C 
ATOM     44  H   LIG d   1      14.218  -3.965  -4.563  0.00  0.00     0.028 H 
ATOM     45  H   LIG d   1      14.064  -3.207  -2.960  0.00  0.00     0.028 H 
ATOM     46  H   LIG d   1      13.691  -4.936  -3.167  0.00  0.00     0.028 H 
ENDBRANCH  37  43
ENDBRANCH  21  33
BRANCH   1  47
ATOM     47  C   LIG d   1       5.300  -0.508  -2.568  0.00  0.00    -0.041 C 
ATOM     48  H   LIG d   1       4.873   0.478  -2.380  0.00  0.00     0.027 H 
ATOM     49  H   LIG d   1       6.227  -0.617  -2.005  0.00  0.00     0.027 H 
BRANCH  47  50
ATOM     50  C   LIG d   1       4.306  -1.585  -2.128  0.00  0.00    -0.064 C 
ATOM     51  H   LIG d   1       3.994  -1.394  -1.101  0.00  0.00     0.023 H 
ATOM     52  H   LIG d   1       3.435  -1.566  -2.783  0.00  0.00     0.023 H 
ATOM     53  H   LIG d   1       4.783  -2.564  -2.187  0.00  0.00     0.023 H 
ENDBRANCH  47  50
ENDBRANCH   1  47
TORSDOF 4
ENDMDL
MODEL 3
REMARK VINA RESULT:      -6.4      3.448      6.274
REMARK  4 active torsions:
REMARK  status: ('A' for Active; 'I' for Inactive)
REMARK    1  A    between atoms: C_1  and  C_2 
REMARK    2  A    between atoms: C_2  and  C_3 
REMARK    3  A    between atoms: N_23  and  C_26 
REMARK    4  A    between atoms: C_29  and  C_32 
ROOT
ATOM      1  C   LIG d   1       7.520  -4.352  -5.545  0.00  0.00     0.033 C 
ATOM      2  C   LIG d   1       8.375  -4.822  -4.380  0.00  0.00    -0.032 A 
ATOM      3  C   LIG d   1       8.794  -6.108  -4.187  0.00  0.00    -0.057 A 
ATOM      4  C   LIG d   1       9.574  -6.398  -3.075  0.00  0.00    -0.061 A 
ATOM      5  C   LIG d   1       9.918  -5.401  -2.181  0.00  0.00    -0.061 A 
ATOM      6  C   LIG d   1       9.490  -4.095  -2.384  0.00  0.00    -0.058 A 
ATOM      7  C   LIG d   1       8.723  -3.817  -3.480  0.00  0.00    -0.035 A 
ATOM      8  C   LIG d   1       8.181  -2.441  -3.834  0.00  0.00     0.022 C 
ATOM      9  C   LIG d   1       8.633  -2.188  -5.263  0.00  0.00    -0.035 A 
ATOM     10  C   LIG d   1       8.285  -3.193  -6.163  0.00  0.00    -0.032 A 
ATOM     11  C   LIG d   1       8.627  -3.099  -7.482  0.00  0.00    -0.057 A 
ATOM     12  C   LIG d   1       9.329  -1.981  -7.913  0.00  0.00    -0.061 A 
ATOM     13  C   LIG d   1       9.675  -0.984  -7.020  0.00  0.00    -0.061 A 
ATOM     14  C   LIG d   1       9.323  -1.086  -5.680  0.00  0.00    -0.058 A 
ATOM     15  C   LIG d   1       6.647  -2.611  -3.911  0.00  0.00     0.059 A 
ATOM     16  H   LIG d   1       6.228  -2.798  -2.923  0.00  0.00     0.041 H 
ATOM     17  C   LIG d   1       6.252  -3.725  -4.926  0.00  0.00     0.062 A 
ATOM     18  H   LIG d   1       5.637  -4.486  -4.444  0.00  0.00     0.041 H 
ATOM     19  C   LIG d   1       5.487  -3.004  -6.015  0.00  0.00     0.231 A 
ATOM     20  O   LIG d   1       5.011  -3.525  -7.002  0.00  0.00    -0.275 OA
ATOM     21  N   LIG d   1       5.418  -1.701  -5.716  0.00  0.00    -0.210 N 
ATOM     22  C   LIG d   1       6.054  -1.362  -4.525  0.00  0.00     0.231 A 
ATOM     23  O   LIG d   1       6.125  -0.246  -4.057  0.00  0.00    -0.275 OA
ATOM     24  H   LIG d   1       8.523  -6.885  -4.886  0.00  0.00     0.062 H 
ATOM     25  H   LIG d   1       9.914  -7.409  -2.907  0.00  0.00     0.062 H 
ATOM     26  H   LIG d   1      10.525  -5.638  -1.320  0.00  0.00     0.062 H 
ATOM     27  H   LIG d   1       9.756  -3.314  -1.687  0.00  0.00     0.062 H 
ATOM     28  H   LIG d   1       8.503  -1.664  -3.141  0.00  0.00     0.041 H 
ATOM     29  H   LIG d   1       8.356  -3.880  -8.178  0.00  0.00     0.062 H 
ATOM     30  H   LIG d   1       9.607  -1.890  -8.953  0.00  0.00     0.062 H 
ATOM     31  H   LIG d   1      10.222  -0.120  -7.366  0.00  0.00     0.062 H 
ATOM     32  H   LIG d   1       9.592  -0.309  -4.980  0.00  0.00     0.062 H 
ENDROOT
BRANCH  21  33
ATOM     33  C   LIG d   1       4.770  -0.767  -6.536  0.00  0.00     0.044 A 
ATOM     34  C   LIG d   1       5.465  -0.142  -7.563  0.00  0.00    -0.040 A 
ATOM     35  C   LIG d   1       4.821   0.773  -8.373  0.00  0.00    -0.057 A 
ATOM     36  H   LIG d   1       6.506  -0.375  -7.731  0.00  0.00     0.064 H 
ATOM     37  C   LIG d   1       3.491   1.077  -8.154  0.00  0.00    -0.050 A 
ATOM     38  H   LIG d   1       5.361   1.256  -9.175  0.00  0.00     0.062 H 
ATOM     39  C   LIG d   1       2.798   0.461  -7.129  0.00  0.00    -0.057 A 
ATOM     40  C   LIG d   1       3.433  -0.460  -6.318  0.00  0.00    -0.040 A 
ATOM     41  H   LIG d   1       1.757   0.699  -6.961  0.00  0.00     0.062 H 
ATOM     42  H   LIG d   1       2.892  -0.941  -5.518  0.00  0.00     0.064 H 
BRANCH  37  43
ATOM     43  C   LIG d   1       2.793   2.081  -9.036  0.00  0.00    -0.040 C 
ATOM     44  H   LIG d   1       3.171   1.992 -10.055  0.00  0.00     0.028 H 
ATOM     45  H   LIG d   1       1.720   1.888  -9.028  0.00  0.00     0.028 H 
ATOM     46  H   LIG d   1       2.985   3.087  -8.663  0.00  0.00     0.028 H 
ENDBRANCH  37  43
ENDBRANCH  21  33
BRANCH   1  47
ATOM     47  C   LIG d   1       7.207  -5.467  -6.546  0.00  0.00    -0.041 C 
ATOM     48  H   LIG d   1       8.128  -5.990  -6.806  0.00  0.00     0.027 H 
ATOM     49  H   LIG d   1       6.768  -5.035  -7.446  0.00  0.00     0.027 H 
BRANCH  47  50
ATOM     50  C   LIG d   1       6.221  -6.454  -5.920  0.00  0.00    -0.064 C 
ATOM     51  H   LIG d   1       5.265  -5.957  -5.753  0.00  0.00     0.023 H 
ATOM     52  H   LIG d   1       6.077  -7.301  -6.592  0.00  0.00     0.023 H 
ATOM     53  H   LIG d   1       6.618  -6.810  -4.969  0.00  0.00     0.023 H 
ENDBRANCH  47  50
ENDBRANCH   1  47
TORSDOF 4
ENDMDL
MODEL 4
REMARK VINA RESULT:      -6.3      4.196      6.130
REMARK  4 active torsions:
REMARK  status: ('A' for Active; 'I' for Inactive)
REMARK    1  A    between atoms: C_1  and  C_2 
REMARK    2  A    between atoms: C_2  and  C_3 
REMARK    3  A    between atoms: N_23  and  C_26 
REMARK    4  A    between atoms: C_29  and  C_32 
ROOT
ATOM      1  C   LIG d   1       6.979  -0.387  -4.861  0.00  0.00     0.033 C 
ATOM      2  C   LIG d   1       6.023  -0.235  -3.689  0.00  0.00    -0.032 A 
ATOM      3  C   LIG d   1       5.768   0.937  -3.036  0.00  0.00    -0.057 A 
ATOM      4  C   LIG d   1       4.868   0.932  -1.978  0.00  0.00    -0.061 A 
ATOM      5  C   LIG d   1       4.243  -0.240  -1.596  0.00  0.00    -0.061 A 
ATOM      6  C   LIG d   1       4.505  -1.429  -2.265  0.00  0.00    -0.058 A 
ATOM      7  C   LIG d   1       5.391  -1.416  -3.305  0.00  0.00    -0.035 A 
ATOM      8  C   LIG d   1       5.779  -2.633  -4.130  0.00  0.00     0.022 C 
ATOM      9  C   LIG d   1       5.534  -2.232  -5.575  0.00  0.00    -0.035 A 
ATOM     10  C   LIG d   1       6.165  -1.050  -5.960  0.00  0.00    -0.032 A 
ATOM     11  C   LIG d   1       6.032  -0.569  -7.231  0.00  0.00    -0.057 A 
ATOM     12  C   LIG d   1       5.255  -1.279  -8.137  0.00  0.00    -0.061 A 
ATOM     13  C   LIG d   1       4.628  -2.450  -7.756  0.00  0.00    -0.061 A 
ATOM     14  C   LIG d   1       4.768  -2.935  -6.461  0.00  0.00    -0.058 A 
ATOM     15  C   LIG d   1       7.313  -2.752  -3.991  0.00  0.00     0.059 A 
ATOM     16  H   LIG d   1       7.589  -3.040  -2.977  0.00  0.00     0.041 H 
ATOM     17  C   LIG d   1       8.025  -1.439  -4.431  0.00  0.00     0.062 A 
ATOM     18  H   LIG d   1       8.656  -1.054  -3.630  0.00  0.00     0.041 H 
ATOM     19  C   LIG d   1       8.845  -1.829  -5.643  0.00  0.00     0.231 A 
ATOM     20  O   LIG d   1       9.544  -1.078  -6.289  0.00  0.00    -0.275 OA
ATOM     21  N   LIG d   1       8.674  -3.134  -5.888  0.00  0.00    -0.210 N 
ATOM     22  C   LIG d   1       7.812  -3.766  -4.997  0.00  0.00     0.231 A 
ATOM     23  O   LIG d   1       7.504  -4.938  -5.026  0.00  0.00    -0.275 OA
ATOM     24  H   LIG d   1       6.259   1.851  -3.336  0.00  0.00     0.062 H 
ATOM     25  H   LIG d   1       4.655   1.850  -1.451  0.00  0.00     0.062 H 
ATOM     26  H   LIG d   1       3.545  -0.232  -0.772  0.00  0.00     0.062 H 
ATOM     27  H   LIG d   1       4.019  -2.346  -1.969  0.00  0.00     0.062 H 
ATOM     28  H   LIG d   1       5.240  -3.535  -3.840  0.00  0.00     0.041 H 
ATOM     29  H   LIG d   1       6.522   0.347  -7.526  0.00  0.00     0.062 H 
ATOM     30  H   LIG d   1       5.139  -0.912  -9.147  0.00  0.00     0.062 H 
ATOM     31  H   LIG d   1       4.026  -2.993  -8.469  0.00  0.00     0.062 H 
ATOM     32  H   LIG d   1       4.280  -3.849  -6.161  0.00  0.00     0.062 H 
ENDROOT
BRANCH  21  33
ATOM     33  C   LIG d   1       9.305  -3.795  -6.950  0.00  0.00     0.044 A 
ATOM     34  C   LIG d   1       8.686  -3.869  -8.190  0.00  0.00    -0.040 A 
ATOM     35  C   LIG d   1       9.313  -4.516  -9.236  0.00  0.00    -0.057 A 
ATOM     36  H   LIG d   1       7.717  -3.415  -8.338  0.00  0.00     0.064 H 
ATOM     37  C   LIG d   1      10.551  -5.102  -9.047  0.00  0.00    -0.050 A 
ATOM     38  H   LIG d   1       8.833  -4.570 -10.203  0.00  0.00     0.062 H 
ATOM     39  C   LIG d   1      11.168  -5.036  -7.812  0.00  0.00    -0.057 A 
ATOM     40  C   LIG d   1      10.549  -4.385  -6.762  0.00  0.00    -0.040 A 
ATOM     41  H   LIG d   1      12.135  -5.494  -7.666  0.00  0.00     0.062 H 
ATOM     42  H   LIG d   1      11.031  -4.334  -5.798  0.00  0.00     0.064 H 
BRANCH  37  43
ATOM     43  C   LIG d   1      11.230  -5.813 -10.190  0.00  0.00    -0.040 C 
ATOM     44  H   LIG d   1      12.248  -5.438 -10.297  0.00  0.00     0.028 H 
ATOM     45  H   LIG d   1      11.257  -6.884  -9.987  0.00  0.00     0.028 H 
ATOM     46  H   LIG d   1      10.676  -5.631 -11.111  0.00  0.00     0.028 H 
ENDBRANCH  37  43
ENDBRANCH  21  33
BRANCH   1  47
ATOM     47  C   LIG d   1       7.607   0.938  -5.297  0.00  0.00    -0.041 C 
ATOM     48  H   LIG d   1       6.823   1.684  -5.436  0.00  0.00     0.027 H 
ATOM     49  H   LIG d   1       8.144   0.796  -6.235  0.00  0.00     0.027 H 
BRANCH  47  50
ATOM     50  C   LIG d   1       8.582   1.420  -4.220  0.00  0.00    -0.064 C 
ATOM     51  H   LIG d   1       9.152   2.268  -4.599  0.00  0.00     0.023 H 
ATOM     52  H   LIG d   1       8.025   1.723  -3.334  0.00  0.00     0.023 H 
ATOM     53  H   LIG d   1       9.264   0.610  -3.960  0.00  0.00     0.023 H 
ENDBRANCH  47  50
ENDBRANCH   1  47
TORSDOF 4
ENDMDL
MODEL 5
REMARK VINA RESULT:      -6.3     10.922     13.914
REMARK  4 active torsions:
REMARK  status: ('A' for Active; 'I' for Inactive)
REMARK    1  A    between atoms: C_1  and  C_2 
REMARK    2  A    between atoms: C_2  and  C_3 
REMARK    3  A    between atoms: N_23  and  C_26 
REMARK    4  A    between atoms: C_29  and  C_32 
ROOT
ATOM      1  C   LIG d   1      10.627   6.504  -4.056  0.00  0.00     0.033 C 
ATOM      2  C   LIG d   1      10.129   5.090  -4.310  0.00  0.00    -0.032 A 
ATOM      3  C   LIG d   1       9.716   4.614  -5.521  0.00  0.00    -0.057 A 
ATOM      4  C   LIG d   1       9.284   3.296  -5.611  0.00  0.00    -0.061 A 
ATOM      5  C   LIG d   1       9.274   2.485  -4.492  0.00  0.00    -0.061 A 
ATOM      6  C   LIG d   1       9.695   2.976  -3.263  0.00  0.00    -0.058 A 
ATOM      7  C   LIG d   1      10.119   4.272  -3.182  0.00  0.00    -0.035 A 
ATOM      8  C   LIG d   1      10.607   4.948  -1.911  0.00  0.00     0.022 C 
ATOM      9  C   LIG d   1      11.973   5.520  -2.260  0.00  0.00    -0.035 A 
ATOM     10  C   LIG d   1      11.982   6.338  -3.389  0.00  0.00    -0.032 A 
ATOM     11  C   LIG d   1      13.140   6.920  -3.820  0.00  0.00    -0.057 A 
ATOM     12  C   LIG d   1      14.312   6.682  -3.113  0.00  0.00    -0.061 A 
ATOM     13  C   LIG d   1      14.302   5.870  -1.995  0.00  0.00    -0.061 A 
ATOM     14  C   LIG d   1      13.121   5.281  -1.561  0.00  0.00    -0.058 A 
ATOM     15  C   LIG d   1       9.686   6.173  -1.717  0.00  0.00     0.059 A 
ATOM     16  H   LIG d   1       8.675   5.861  -1.460  0.00  0.00     0.041 H 
ATOM     17  C   LIG d   1       9.703   7.099  -2.970  0.00  0.00     0.062 A 
ATOM     18  H   LIG d   1       8.694   7.245  -3.355  0.00  0.00     0.041 H 
ATOM     19  C   LIG d   1      10.304   8.400  -2.484  0.00  0.00     0.231 A 
ATOM     20  O   LIG d   1      10.497   9.383  -3.167  0.00  0.00    -0.275 OA
ATOM     21  N   LIG d   1      10.589   8.293  -1.180  0.00  0.00    -0.210 N 
ATOM     22  C   LIG d   1      10.274   7.052  -0.634  0.00  0.00     0.231 A 
ATOM     23  O   LIG d   1      10.447   6.725   0.520  0.00  0.00    -0.275 OA
ATOM     24  H   LIG d   1       9.725   5.250  -6.394  0.00  0.00     0.062 H 
ATOM     25  H   LIG d   1       8.955   2.903  -6.561  0.00  0.00     0.062 H 
ATOM     26  H   LIG d   1       8.936   1.463  -4.573  0.00  0.00     0.062 H 
ATOM     27  H   LIG d   1       9.688   2.345  -2.386  0.00  0.00     0.062 H 
ATOM     28  H   LIG d   1      10.634   4.277  -1.053  0.00  0.00     0.041 H 
ATOM     29  H   LIG d   1      13.145   7.553  -4.694  0.00  0.00     0.062 H 
ATOM     30  H   LIG d   1      15.237   7.134  -3.440  0.00  0.00     0.062 H 
ATOM     31  H   LIG d   1      15.220   5.691  -1.453  0.00  0.00     0.062 H 
ATOM     32  H   LIG d   1      13.111   4.647  -0.688  0.00  0.00     0.062 H 
ENDROOT
BRANCH  21  33
ATOM     33  C   LIG d   1      11.158   9.338  -0.439  0.00  0.00     0.044 A 
ATOM     34  C   LIG d   1      12.538   9.460  -0.356  0.00  0.00    -0.040 A 
ATOM     35  C   LIG d   1      13.096  10.494   0.369  0.00  0.00    -0.057 A 
ATOM     36  H   LIG d   1      13.175   8.750  -0.863  0.00  0.00     0.064 H 
ATOM     37  C   LIG d   1      12.282  11.400   1.023  0.00  0.00    -0.050 A 
ATOM     38  H   LIG d   1      14.171  10.592   0.431  0.00  0.00     0.062 H 
ATOM     39  C   LIG d   1      10.908  11.278   0.948  0.00  0.00    -0.057 A 
ATOM     40  C   LIG d   1      10.343  10.249   0.219  0.00  0.00    -0.040 A 
ATOM     41  H   LIG d   1      10.274  11.988   1.458  0.00  0.00     0.062 H 
ATOM     42  H   LIG d   1       9.269  10.154   0.160  0.00  0.00     0.064 H 
BRANCH  37  43
ATOM     43  C   LIG d   1      12.895  12.524   1.819  0.00  0.00    -0.040 C 
ATOM     44  H   LIG d   1      13.394  13.218   1.142  0.00  0.00     0.028 H 
ATOM     45  H   LIG d   1      12.113  13.050   2.367  0.00  0.00     0.028 H 
ATOM     46  H   LIG d   1      13.622  12.117   2.523  0.00  0.00     0.028 H 
ENDBRANCH  37  43
ENDBRANCH  21  33
BRANCH   1  47
ATOM     47  C   LIG d   1      10.683   7.356  -5.325  0.00  0.00    -0.041 C 
ATOM     48  H   LIG d   1      11.154   6.785  -6.126  0.00  0.00     0.027 H 
ATOM     49  H   LIG d   1      11.264   8.258  -5.132  0.00  0.00     0.027 H 
BRANCH  47  50
ATOM     50  C   LIG d   1       9.263   7.744  -5.744  0.00  0.00    -0.064 C 
ATOM     51  H   LIG d   1       8.978   8.671  -5.247  0.00  0.00     0.023 H 
ATOM     52  H   LIG d   1       9.228   7.884  -6.824  0.00  0.00     0.023 H 
ATOM     53  H   LIG d   1       8.572   6.950  -5.460  0.00  0.00     0.023 H 
ENDBRANCH  47  50
ENDBRANCH   1  47
TORSDOF 4
ENDMDL
MODEL 6
REMARK VINA RESULT:      -6.2      3.693      5.504
REMARK  4 active torsions:
REMARK  status: ('A' for Active; 'I' for Inactive)
REMARK    1  A    between atoms: C_1  and  C_2 
REMARK    2  A    between atoms: C_2  and  C_3 
REMARK    3  A    between atoms: N_23  and  C_26 
REMARK    4  A    between atoms: C_29  and  C_32 
ROOT
ATOM      1  C   LIG d   1       6.473  -1.083  -4.415  0.00  0.00     0.033 C 
ATOM      2  C   LIG d   1       5.438  -0.302  -3.622  0.00  0.00    -0.032 A 
ATOM      3  C   LIG d   1       5.715   0.757  -2.806  0.00  0.00    -0.057 A 
ATOM      4  C   LIG d   1       4.668   1.380  -2.138  0.00  0.00    -0.061 A 
ATOM      5  C   LIG d   1       3.370   0.932  -2.299  0.00  0.00    -0.061 A 
ATOM      6  C   LIG d   1       3.094  -0.146  -3.131  0.00  0.00    -0.058 A 
ATOM      7  C   LIG d   1       4.129  -0.753  -3.785  0.00  0.00    -0.035 A 
ATOM      8  C   LIG d   1       3.985  -1.939  -4.724  0.00  0.00     0.022 C 
ATOM      9  C   LIG d   1       4.667  -1.514  -6.015  0.00  0.00    -0.035 A 
ATOM     10  C   LIG d   1       5.976  -1.063  -5.852  0.00  0.00    -0.032 A 
ATOM     11  C   LIG d   1       6.711  -0.648  -6.926  0.00  0.00    -0.057 A 
ATOM     12  C   LIG d   1       6.130  -0.683  -8.187  0.00  0.00    -0.061 A 
ATOM     13  C   LIG d   1       4.832  -1.128  -8.348  0.00  0.00    -0.061 A 
ATOM     14  C   LIG d   1       4.090  -1.550  -7.252  0.00  0.00    -0.058 A 
ATOM     15  C   LIG d   1       4.883  -3.047  -4.130  0.00  0.00     0.059 A 
ATOM     16  H   LIG d   1       4.471  -3.419  -3.193  0.00  0.00     0.041 H 
ATOM     17  C   LIG d   1       6.351  -2.553  -3.958  0.00  0.00     0.062 A 
ATOM     18  H   LIG d   1       6.678  -2.666  -2.924  0.00  0.00     0.041 H 
ATOM     19  C   LIG d   1       7.165  -3.420  -4.894  0.00  0.00     0.231 A 
ATOM     20  O   LIG d   1       8.364  -3.343  -5.059  0.00  0.00    -0.275 OA
ATOM     21  N   LIG d   1       6.351  -4.286  -5.511  0.00  0.00    -0.210 N 
ATOM     22  C   LIG d   1       5.014  -4.160  -5.146  0.00  0.00     0.231 A 
ATOM     23  O   LIG d   1       4.100  -4.830  -5.576  0.00  0.00    -0.275 OA
ATOM     24  H   LIG d   1       6.730   1.104  -2.682  0.00  0.00     0.062 H 
ATOM     25  H   LIG d   1       4.869   2.219  -1.490  0.00  0.00     0.062 H 
ATOM     26  H   LIG d   1       2.564   1.424  -1.775  0.00  0.00     0.062 H 
ATOM     27  H   LIG d   1       2.082  -0.498  -3.258  0.00  0.00     0.062 H 
ATOM     28  H   LIG d   1       2.949  -2.245  -4.871  0.00  0.00     0.041 H 
ATOM     29  H   LIG d   1       7.725  -0.299  -6.797  0.00  0.00     0.062 H 
ATOM     30  H   LIG d   1       6.697  -0.358  -9.047  0.00  0.00     0.062 H 
ATOM     31  H   LIG d   1       4.391  -1.150  -9.334  0.00  0.00     0.062 H 
ATOM     32  H   LIG d   1       3.076  -1.899  -7.375  0.00  0.00     0.062 H 
ENDROOT
BRANCH  21  33
ATOM     33  C   LIG d   1       6.810  -5.227  -6.443  0.00  0.00     0.044 A 
ATOM     34  C   LIG d   1       6.866  -4.900  -7.791  0.00  0.00    -0.040 A 
ATOM     35  C   LIG d   1       7.324  -5.827  -8.706  0.00  0.00    -0.057 A 
ATOM     36  H   LIG d   1       6.557  -3.920  -8.123  0.00  0.00     0.064 H 
ATOM     37  C   LIG d   1       7.715  -7.083  -8.284  0.00  0.00    -0.050 A 
ATOM     38  H   LIG d   1       7.372  -5.571  -9.755  0.00  0.00     0.062 H 
ATOM     39  C   LIG d   1       7.654  -7.415  -6.943  0.00  0.00    -0.057 A 
ATOM     40  C   LIG d   1       7.202  -6.490  -6.021  0.00  0.00    -0.040 A 
ATOM     41  H   LIG d   1       7.961  -8.397  -6.615  0.00  0.00     0.062 H 
ATOM     42  H   LIG d   1       7.155  -6.749  -4.974  0.00  0.00     0.064 H 
BRANCH  37  43
ATOM     43  C   LIG d   1       8.209  -8.095  -9.287  0.00  0.00    -0.040 C 
ATOM     44  H   LIG d   1       8.342  -7.611 -10.254  0.00  0.00     0.028 H 
ATOM     45  H   LIG d   1       9.161  -8.504  -8.951  0.00  0.00     0.028 H 
ATOM     46  H   LIG d   1       7.479  -8.900  -9.380  0.00  0.00     0.028 H 
ENDBRANCH  37  43
ENDBRANCH  21  33
BRANCH   1  47
ATOM     47  C   LIG d   1       7.889  -0.525  -4.263  0.00  0.00    -0.041 C 
ATOM     48  H   LIG d   1       8.576  -1.103  -4.882  0.00  0.00     0.027 H 
ATOM     49  H   LIG d   1       8.197  -0.593  -3.219  0.00  0.00     0.027 H 
BRANCH  47  50
ATOM     50  C   LIG d   1       7.913   0.939  -4.707  0.00  0.00    -0.064 C 
ATOM     51  H   LIG d   1       7.516   1.018  -5.720  0.00  0.00     0.023 H 
ATOM     52  H   LIG d   1       7.301   1.535  -4.030  0.00  0.00     0.023 H 
ATOM     53  H   LIG d   1       8.938   1.308  -4.688  0.00  0.00     0.023 H 
ENDBRANCH  47  50
ENDBRANCH   1  47
TORSDOF 4
ENDMDL
MODEL 7
REMARK VINA RESULT:      -5.9     12.164     14.229
REMARK  4 active torsions:
REMARK  status: ('A' for Active; 'I' for Inactive)
REMARK    1  A    between atoms: C_1  and  C_2 
REMARK    2  A    between atoms: C_2  and  C_3 
REMARK    3  A    between atoms: N_23  and  C_26 
REMARK    4  A    between atoms: C_29  and  C_32 
ROOT
ATOM      1  C   LIG d   1      12.272  10.523  -1.524  0.00  0.00     0.033 C 
ATOM      2  C   LIG d   1      12.052  11.702  -0.590  0.00  0.00    -0.032 A 
ATOM      3  C   LIG d   1      13.022  12.576  -0.192  0.00  0.00    -0.057 A 
ATOM      4  C   LIG d   1      12.680  13.611   0.669  0.00  0.00    -0.061 A 
ATOM      5  C   LIG d   1      11.378  13.751   1.113  0.00  0.00    -0.061 A 
ATOM      6  C   LIG d   1      10.395  12.859   0.704  0.00  0.00    -0.058 A 
ATOM      7  C   LIG d   1      10.739  11.844  -0.142  0.00  0.00    -0.035 A 
ATOM      8  C   LIG d   1       9.777  10.793  -0.674  0.00  0.00     0.022 C 
ATOM      9  C   LIG d   1       9.933  10.835  -2.186  0.00  0.00    -0.035 A 
ATOM     10  C   LIG d   1      11.246  10.693  -2.633  0.00  0.00    -0.032 A 
ATOM     11  C   LIG d   1      11.535  10.713  -3.967  0.00  0.00    -0.057 A 
ATOM     12  C   LIG d   1      10.497  10.876  -4.875  0.00  0.00    -0.061 A 
ATOM     13  C   LIG d   1       9.195  11.018  -4.432  0.00  0.00    -0.061 A 
ATOM     14  C   LIG d   1       8.907  10.997  -3.072  0.00  0.00    -0.058 A 
ATOM     15  C   LIG d   1      10.369   9.435  -0.237  0.00  0.00     0.059 A 
ATOM     16  H   LIG d   1      10.300   9.312   0.843  0.00  0.00     0.041 H 
ATOM     17  C   LIG d   1      11.832   9.265  -0.745  0.00  0.00     0.062 A 
ATOM     18  H   LIG d   1      12.508   9.066   0.086  0.00  0.00     0.041 H 
ATOM     19  C   LIG d   1      11.776   8.096  -1.705  0.00  0.00     0.231 A 
ATOM     20  O   LIG d   1      12.719   7.650  -2.324  0.00  0.00    -0.275 OA
ATOM     21  N   LIG d   1      10.521   7.633  -1.764  0.00  0.00    -0.210 N 
ATOM     22  C   LIG d   1       9.626   8.330  -0.957  0.00  0.00     0.231 A 
ATOM     23  O   LIG d   1       8.442   8.095  -0.852  0.00  0.00    -0.275 OA
ATOM     24  H   LIG d   1      14.039  12.463  -0.540  0.00  0.00     0.062 H 
ATOM     25  H   LIG d   1      13.435  14.312   0.992  0.00  0.00     0.062 H 
ATOM     26  H   LIG d   1      11.124  14.560   1.781  0.00  0.00     0.062 H 
ATOM     27  H   LIG d   1       9.378  12.965   1.050  0.00  0.00     0.062 H 
ATOM     28  H   LIG d   1       8.749  10.951  -0.347  0.00  0.00     0.041 H 
ATOM     29  H   LIG d   1      12.553  10.603  -4.311  0.00  0.00     0.062 H 
ATOM     30  H   LIG d   1      10.707  10.893  -5.934  0.00  0.00     0.062 H 
ATOM     31  H   LIG d   1       8.396  11.145  -5.146  0.00  0.00     0.062 H 
ATOM     32  H   LIG d   1       7.892  11.107  -2.724  0.00  0.00     0.062 H 
ENDROOT
BRANCH  21  33
ATOM     33  C   LIG d   1      10.148   6.550  -2.570  0.00  0.00     0.044 A 
ATOM     34  C   LIG d   1      10.274   5.252  -2.093  0.00  0.00    -0.040 A 
ATOM     35  C   LIG d   1       9.900   4.186  -2.888  0.00  0.00    -0.057 A 
ATOM     36  H   LIG d   1      10.658   5.076  -1.099  0.00  0.00     0.064 H 
ATOM     37  C   LIG d   1       9.414   4.410  -4.162  0.00  0.00    -0.050 A 
ATOM     38  H   LIG d   1       9.993   3.176  -2.515  0.00  0.00     0.062 H 
ATOM     39  C   LIG d   1       9.293   5.700  -4.643  0.00  0.00    -0.057 A 
ATOM     40  C   LIG d   1       9.660   6.771  -3.851  0.00  0.00    -0.040 A 
ATOM     41  H   LIG d   1       8.912   5.872  -5.639  0.00  0.00     0.062 H 
ATOM     42  H   LIG d   1       9.566   7.779  -4.226  0.00  0.00     0.064 H 
BRANCH  37  43
ATOM     43  C   LIG d   1       9.012   3.244  -5.030  0.00  0.00    -0.040 C 
ATOM     44  H   LIG d   1       9.879   2.606  -5.203  0.00  0.00     0.028 H 
ATOM     45  H   LIG d   1       8.233   2.670  -4.529  0.00  0.00     0.028 H 
ATOM     46  H   LIG d   1       8.636   3.614  -5.984  0.00  0.00     0.028 H 
ENDBRANCH  37  43
ENDBRANCH  21  33
BRANCH   1  47
ATOM     47  C   LIG d   1      13.708  10.433  -2.045  0.00  0.00    -0.041 C 
ATOM     48  H   LIG d   1      14.027  11.413  -2.402  0.00  0.00     0.027 H 
ATOM     49  H   LIG d   1      13.753   9.715  -2.864  0.00  0.00     0.027 H 
BRANCH  47  50
ATOM     50  C   LIG d   1      14.633   9.977  -0.915  0.00  0.00    -0.064 C 
ATOM     51  H   LIG d   1      14.222  10.297   0.043  0.00  0.00     0.023 H 
ATOM     52  H   LIG d   1      14.718   8.891  -0.929  0.00  0.00     0.023 H 
ATOM     53  H   LIG d   1      15.620  10.419  -1.054  0.00  0.00     0.023 H 
ENDBRANCH  47  50
ENDBRANCH   1  47
TORSDOF 4
ENDMDL
MODEL 8
REMARK VINA RESULT:      -5.9      9.467     12.862
REMARK  4 active torsions:
REMARK  status: ('A' for Active; 'I' for Inactive)
REMARK    1  A    between atoms: C_1  and  C_2 
REMARK    2  A    between atoms: C_2  and  C_3 
REMARK    3  A    between atoms: N_23  and  C_26 
REMARK    4  A    between atoms: C_29  and  C_32 
ROOT
ATOM      1  C   LIG d   1      10.392   7.108  -6.414  0.00  0.00     0.033 C 
ATOM      2  C   LIG d   1       9.989   5.877  -7.209  0.00  0.00    -0.032 A 
ATOM      3  C   LIG d   1       9.731   5.863  -8.550  0.00  0.00    -0.057 A 
ATOM      4  C   LIG d   1       9.372   4.663  -9.150  0.00  0.00    -0.061 A 
ATOM      5  C   LIG d   1       9.278   3.505  -8.400  0.00  0.00    -0.061 A 
ATOM      6  C   LIG d   1       9.543   3.526  -7.037  0.00  0.00    -0.058 A 
ATOM      7  C   LIG d   1       9.896   4.709  -6.454  0.00  0.00    -0.035 A 
ATOM      8  C   LIG d   1      10.214   4.889  -4.978  0.00  0.00     0.022 C 
ATOM      9  C   LIG d   1      11.581   5.553  -4.940  0.00  0.00    -0.035 A 
ATOM     10  C   LIG d   1      11.674   6.721  -5.696  0.00  0.00    -0.032 A 
ATOM     11  C   LIG d   1      12.844   7.423  -5.755  0.00  0.00    -0.057 A 
ATOM     12  C   LIG d   1      13.942   6.953  -5.047  0.00  0.00    -0.061 A 
ATOM     13  C   LIG d   1      13.850   5.795  -4.298  0.00  0.00    -0.061 A 
ATOM     14  C   LIG d   1      12.657   5.085  -4.242  0.00  0.00    -0.058 A 
ATOM     15  C   LIG d   1       9.222   5.959  -4.470  0.00  0.00     0.059 A 
ATOM     16  H   LIG d   1       8.204   5.571  -4.461  0.00  0.00     0.041 H 
ATOM     17  C   LIG d   1       9.331   7.271  -5.303  0.00  0.00     0.062 A 
ATOM     18  H   LIG d   1       8.363   7.541  -5.726  0.00  0.00     0.041 H 
ATOM     19  C   LIG d   1       9.816   8.315  -4.321  0.00  0.00     0.231 A 
ATOM     20  O   LIG d   1      10.036   9.479  -4.583  0.00  0.00    -0.275 OA
ATOM     21  N   LIG d   1       9.964   7.751  -3.115  0.00  0.00    -0.210 N 
ATOM     22  C   LIG d   1       9.649   6.396  -3.086  0.00  0.00     0.231 A 
ATOM     23  O   LIG d   1       9.713   5.679  -2.111  0.00  0.00    -0.275 OA
ATOM     24  H   LIG d   1       9.804   6.769  -9.133  0.00  0.00     0.062 H 
ATOM     25  H   LIG d   1       9.165   4.634 -10.210  0.00  0.00     0.062 H 
ATOM     26  H   LIG d   1       8.998   2.578  -8.878  0.00  0.00     0.062 H 
ATOM     27  H   LIG d   1       9.470   2.623  -6.449  0.00  0.00     0.062 H 
ATOM     28  H   LIG d   1      10.178   3.955  -4.417  0.00  0.00     0.041 H 
ATOM     29  H   LIG d   1      12.914   8.327  -6.341  0.00  0.00     0.062 H 
ATOM     30  H   LIG d   1      14.875   7.496  -5.082  0.00  0.00     0.062 H 
ATOM     31  H   LIG d   1      14.712   5.439  -3.753  0.00  0.00     0.062 H 
ATOM     32  H   LIG d   1      12.583   4.181  -3.658  0.00  0.00     0.062 H 
ENDROOT
BRANCH  21  33
ATOM     33  C   LIG d   1      10.402   8.465  -1.992  0.00  0.00     0.044 A 
ATOM     34  C   LIG d   1      11.757   8.532  -1.695  0.00  0.00    -0.040 A 
ATOM     35  C   LIG d   1      12.186   9.241  -0.590  0.00  0.00    -0.057 A 
ATOM     36  H   LIG d   1      12.474   8.034  -2.331  0.00  0.00     0.064 H 
ATOM     37  C   LIG d   1      11.268   9.873   0.227  0.00  0.00    -0.050 A 
ATOM     38  H   LIG d   1      13.241   9.297  -0.362  0.00  0.00     0.062 H 
ATOM     39  C   LIG d   1       9.918   9.803  -0.062  0.00  0.00    -0.057 A 
ATOM     40  C   LIG d   1       9.482   9.100  -1.169  0.00  0.00    -0.040 A 
ATOM     41  H   LIG d   1       9.202  10.299   0.578  0.00  0.00     0.062 H 
ATOM     42  H   LIG d   1       8.428   9.046  -1.395  0.00  0.00     0.064 H 
BRANCH  37  43
ATOM     43  C   LIG d   1      11.739  10.641   1.436  0.00  0.00    -0.040 C 
ATOM     44  H   LIG d   1      11.188  10.307   2.315  0.00  0.00     0.028 H 
ATOM     45  H   LIG d   1      12.804  10.465   1.586  0.00  0.00     0.028 H 
ATOM     46  H   LIG d   1      11.565  11.706   1.279  0.00  0.00     0.028 H 
ENDBRANCH  37  43
ENDBRANCH  21  33
BRANCH   1  47
ATOM     47  C   LIG d   1      10.545   8.358  -7.283  0.00  0.00    -0.041 C 
ATOM     48  H   LIG d   1      11.177   8.128  -8.141  0.00  0.00     0.027 H 
ATOM     49  H   LIG d   1      11.003   9.155  -6.696  0.00  0.00     0.027 H 
BRANCH  47  50
ATOM     50  C   LIG d   1       9.168   8.812  -7.772  0.00  0.00    -0.064 C 
ATOM     51  H   LIG d   1       9.231   9.094  -8.823  0.00  0.00     0.023 H 
ATOM     52  H   LIG d   1       8.454   7.997  -7.656  0.00  0.00     0.023 H 
ATOM     53  H   LIG d   1       8.838   9.669  -7.184  0.00  0.00     0.023 H 
ENDBRANCH  47  50
ENDBRANCH   1  47
TORSDOF 4
ENDMDL
MODEL 9
REMARK VINA RESULT:      -5.7     11.854     14.275
REMARK  4 active torsions:
REMARK  status: ('A' for Active; 'I' for Inactive)
REMARK    1  A    between atoms: C_1  and  C_2 
REMARK    2  A    between atoms: C_2  and  C_3 
REMARK    3  A    between atoms: N_23  and  C_26 
REMARK    4  A    between atoms: C_29  and  C_32 
ROOT
ATOM      1  C   LIG d   1      -5.290   7.853 -15.056  0.00  0.00     0.033 C 
ATOM      2  C   LIG d   1      -5.581   6.581 -14.277  0.00  0.00    -0.032 A 
ATOM      3  C   LIG d   1      -6.775   6.285 -13.684  0.00  0.00    -0.057 A 
ATOM      4  C   LIG d   1      -6.903   5.082 -13.000  0.00  0.00    -0.061 A 
ATOM      5  C   LIG d   1      -5.838   4.204 -12.924  0.00  0.00    -0.061 A 
ATOM      6  C   LIG d   1      -4.627   4.511 -13.529  0.00  0.00    -0.058 A 
ATOM      7  C   LIG d   1      -4.508   5.695 -14.200  0.00  0.00    -0.035 A 
ATOM      8  C   LIG d   1      -3.250   6.169 -14.910  0.00  0.00     0.022 C 
ATOM      9  C   LIG d   1      -3.690   6.500 -16.327  0.00  0.00    -0.035 A 
ATOM     10  C   LIG d   1      -4.763   7.386 -16.404  0.00  0.00    -0.032 A 
ATOM     11  C   LIG d   1      -5.265   7.773 -17.614  0.00  0.00    -0.057 A 
ATOM     12  C   LIG d   1      -4.686   7.267 -18.770  0.00  0.00    -0.061 A 
ATOM     13  C   LIG d   1      -3.622   6.387 -18.694  0.00  0.00    -0.061 A 
ATOM     14  C   LIG d   1      -3.116   5.998 -17.460  0.00  0.00    -0.058 A 
ATOM     15  C   LIG d   1      -2.897   7.525 -14.261  0.00  0.00     0.059 A 
ATOM     16  H   LIG d   1      -2.566   7.389 -13.232  0.00  0.00     0.041 H 
ATOM     17  C   LIG d   1      -4.089   8.525 -14.355  0.00  0.00     0.062 A 
ATOM     18  H   LIG d   1      -4.368   8.886 -13.366  0.00  0.00     0.041 H 
ATOM     19  C   LIG d   1      -3.583   9.650 -15.232  0.00  0.00     0.231 A 
ATOM     20  O   LIG d   1      -4.221  10.629 -15.556  0.00  0.00    -0.275 OA
ATOM     21  N   LIG d   1      -2.320   9.392 -15.595  0.00  0.00    -0.210 N 
ATOM     22  C   LIG d   1      -1.823   8.194 -15.091  0.00  0.00     0.231 A 
ATOM     23  O   LIG d   1      -0.712   7.753 -15.290  0.00  0.00    -0.275 OA
ATOM     24  H   LIG d   1      -7.605   6.973 -13.745  0.00  0.00     0.062 H 
ATOM     25  H   LIG d   1      -7.840   4.831 -12.527  0.00  0.00     0.062 H 
ATOM     26  H   LIG d   1      -5.949   3.272 -12.390  0.00  0.00     0.062 H 
ATOM     27  H   LIG d   1      -3.793   3.828 -13.470  0.00  0.00     0.062 H 
ATOM     28  H   LIG d   1      -2.440   5.440 -14.875  0.00  0.00     0.041 H 
ATOM     29  H   LIG d   1      -6.096   8.459 -17.671  0.00  0.00     0.062 H 
ATOM     30  H   LIG d   1      -5.070   7.562 -19.736  0.00  0.00     0.062 H 
ATOM     31  H   LIG d   1      -3.181   5.999 -19.600  0.00  0.00     0.062 H 
ATOM     32  H   LIG d   1      -2.286   5.312 -17.398  0.00  0.00     0.062 H 
ENDROOT
BRANCH  21  33
ATOM     33  C   LIG d   1      -1.575  10.252 -16.412  0.00  0.00     0.044 A 
ATOM     34  C   LIG d   1      -1.587  10.086 -17.791  0.00  0.00    -0.040 A 
ATOM     35  C   LIG d   1      -0.856  10.939 -18.594  0.00  0.00    -0.057 A 
ATOM     36  H   LIG d   1      -2.171   9.294 -18.234  0.00  0.00     0.064 H 
ATOM     37  C   LIG d   1      -0.102  11.949 -18.027  0.00  0.00    -0.050 A 
ATOM     38  H   LIG d   1      -0.868  10.812 -19.667  0.00  0.00     0.062 H 
ATOM     39  C   LIG d   1      -0.083  12.114 -16.655  0.00  0.00    -0.057 A 
ATOM     40  C   LIG d   1      -0.817  11.268 -15.845  0.00  0.00    -0.040 A 
ATOM     41  H   LIG d   1       0.505  12.905 -16.214  0.00  0.00     0.062 H 
ATOM     42  H   LIG d   1      -0.802  11.397 -14.774  0.00  0.00     0.064 H 
BRANCH  37  43
ATOM     43  C   LIG d   1       0.699  12.875 -18.906  0.00  0.00    -0.040 C 
ATOM     44  H   LIG d   1       0.075  13.225 -19.728  0.00  0.00     0.028 H 
ATOM     45  H   LIG d   1       1.041  13.728 -18.320  0.00  0.00     0.028 H 
ATOM     46  H   LIG d   1       1.561  12.340 -19.307  0.00  0.00     0.028 H 
ENDBRANCH  37  43
ENDBRANCH  21  33
BRANCH   1  47
ATOM     47  C   LIG d   1      -6.505   8.775 -15.174  0.00  0.00    -0.041 C 
ATOM     48  H   LIG d   1      -7.371   8.195 -15.497  0.00  0.00     0.027 H 
ATOM     49  H   LIG d   1      -6.299   9.557 -15.904  0.00  0.00     0.027 H 
BRANCH  47  50
ATOM     50  C   LIG d   1      -6.798   9.411 -13.814  0.00  0.00    -0.064 C 
ATOM     51  H   LIG d   1      -6.315   8.829 -13.029  0.00  0.00     0.023 H 
ATOM     52  H   LIG d   1      -6.414  10.431 -13.799  0.00  0.00     0.023 H 
ATOM     53  H   LIG d   1      -7.875   9.427 -13.645  0.00  0.00     0.023 H 
ENDBRANCH  47  50
ENDBRANCH   1  47
TORSDOF 4
ENDMDL
MODEL 10
REMARK VINA RESULT:      -5.7      9.389     11.410
REMARK  4 active torsions:
REMARK  status: ('A' for Active; 'I' for Inactive)
REMARK    1  A    between atoms: C_1  and  C_2 
REMARK    2  A    between atoms: C_2  and  C_3 
REMARK    3  A    between atoms: N_23  and  C_26 
REMARK    4  A    between atoms: C_29  and  C_32 
ROOT
ATOM      1  C   LIG d   1      12.144   7.005  -2.648  0.00  0.00     0.033 C 
ATOM      2  C   LIG d   1      11.329   7.973  -1.805  0.00  0.00    -0.032 A 
ATOM      3  C   LIG d   1      11.830   9.081  -1.184  0.00  0.00    -0.057 A 
ATOM      4  C   LIG d   1      10.969   9.880  -0.443  0.00  0.00    -0.061 A 
ATOM      5  C   LIG d   1       9.629   9.557  -0.339  0.00  0.00    -0.061 A 
ATOM      6  C   LIG d   1       9.125   8.429  -0.974  0.00  0.00    -0.058 A 
ATOM      7  C   LIG d   1       9.978   7.648  -1.701  0.00  0.00    -0.035 A 
ATOM      8  C   LIG d   1       9.576   6.387  -2.449  0.00  0.00     0.022 C 
ATOM      9  C   LIG d   1      10.063   6.593  -3.874  0.00  0.00    -0.035 A 
ATOM     10  C   LIG d   1      11.415   6.918  -3.979  0.00  0.00    -0.032 A 
ATOM     11  C   LIG d   1      11.989   7.133  -5.199  0.00  0.00    -0.057 A 
ATOM     12  C   LIG d   1      11.202   7.021  -6.337  0.00  0.00    -0.061 A 
ATOM     13  C   LIG d   1       9.862   6.699  -6.234  0.00  0.00    -0.061 A 
ATOM     14  C   LIG d   1       9.284   6.482  -4.990  0.00  0.00    -0.058 A 
ATOM     15  C   LIG d   1      10.463   5.263  -1.869  0.00  0.00     0.059 A 
ATOM     16  H   LIG d   1      10.185   5.042  -0.839  0.00  0.00     0.041 H 
ATOM     17  C   LIG d   1      11.976   5.616  -1.995  0.00  0.00     0.062 A 
ATOM     18  H   LIG d   1      12.462   5.583  -1.020  0.00  0.00     0.041 H 
ATOM     19  C   LIG d   1      12.542   4.569  -2.931  0.00  0.00     0.231 A 
ATOM     20  O   LIG d   1      13.698   4.501  -3.292  0.00  0.00    -0.275 OA
ATOM     21  N   LIG d   1      11.564   3.731  -3.297  0.00  0.00    -0.210 N 
ATOM     22  C   LIG d   1      10.324   4.037  -2.744  0.00  0.00     0.231 A 
ATOM     23  O   LIG d   1       9.296   3.424  -2.937  0.00  0.00    -0.275 OA
ATOM     24  H   LIG d   1      12.878   9.330  -1.267  0.00  0.00     0.062 H 
ATOM     25  H   LIG d   1      11.349  10.760   0.054  0.00  0.00     0.062 H 
ATOM     26  H   LIG d   1       8.969  10.186   0.240  0.00  0.00     0.062 H 
ATOM     27  H   LIG d   1       8.080   8.173  -0.894  0.00  0.00     0.062 H 
ATOM     28  H   LIG d   1       8.507   6.178  -2.390  0.00  0.00     0.041 H 
ATOM     29  H   LIG d   1      13.036   7.385  -5.277  0.00  0.00     0.062 H 
ATOM     30  H   LIG d   1      11.640   7.187  -7.311  0.00  0.00     0.062 H 
ATOM     31  H   LIG d   1       9.260   6.616  -7.127  0.00  0.00     0.062 H 
ATOM     32  H   LIG d   1       8.237   6.230  -4.906  0.00  0.00     0.062 H 
ENDROOT
BRANCH  21  33
ATOM     33  C   LIG d   1      11.776   2.651  -4.164  0.00  0.00     0.044 A 
ATOM     34  C   LIG d   1      11.614   2.815  -5.533  0.00  0.00    -0.040 A 
ATOM     35  C   LIG d   1      11.829   1.750  -6.385  0.00  0.00    -0.057 A 
ATOM     36  H   LIG d   1      11.326   3.776  -5.932  0.00  0.00     0.064 H 
ATOM     37  C   LIG d   1      12.192   0.517  -5.875  0.00  0.00    -0.050 A 
ATOM     38  H   LIG d   1      11.708   1.878  -7.451  0.00  0.00     0.062 H 
ATOM     39  C   LIG d   1      12.348   0.348  -4.512  0.00  0.00    -0.057 A 
ATOM     40  C   LIG d   1      12.140   1.411  -3.655  0.00  0.00    -0.040 A 
ATOM     41  H   LIG d   1      12.633  -0.615  -4.117  0.00  0.00     0.062 H 
ATOM     42  H   LIG d   1      12.262   1.279  -2.590  0.00  0.00     0.064 H 
BRANCH  37  43
ATOM     43  C   LIG d   1      12.421  -0.645  -6.808  0.00  0.00    -0.040 C 
ATOM     44  H   LIG d   1      13.176  -0.375  -7.546  0.00  0.00     0.028 H 
ATOM     45  H   LIG d   1      12.763  -1.508  -6.237  0.00  0.00     0.028 H 
ATOM     46  H   LIG d   1      11.488  -0.891  -7.316  0.00  0.00     0.028 H 
ENDBRANCH  37  43
ENDBRANCH  21  33
BRANCH   1  47
ATOM     47  C   LIG d   1      13.609   7.424  -2.793  0.00  0.00    -0.041 C 
ATOM     48  H   LIG d   1      13.659   8.480  -3.061  0.00  0.00     0.027 H 
ATOM     49  H   LIG d   1      14.082   6.828  -3.573  0.00  0.00     0.027 H 
BRANCH  47  50
ATOM     50  C   LIG d   1      14.338   7.200  -1.467  0.00  0.00    -0.064 C 
ATOM     51  H   LIG d   1      14.223   6.160  -1.160  0.00  0.00     0.023 H 
ATOM     52  H   LIG d   1      15.397   7.428  -1.591  0.00  0.00     0.023 H 
ATOM     53  H   LIG d   1      13.914   7.854  -0.704  0.00  0.00     0.023 H 
ENDBRANCH  47  50
ENDBRANCH   1  47
TORSDOF 4
ENDMDL
