MODEL 1
REMARK VINA RESULT:      -6.1      0.000      0.000
REMARK  5 active torsions:
REMARK  status: ('A' for Active; 'I' for Inactive)
REMARK    1  A    between atoms: C_1  and  C_2 
REMARK    2  A    between atoms: C_5  and  C_7 
REMARK    3  A    between atoms: C_14  and  O_18 
REMARK    4  A    between atoms: O_18  and  C_19 
REMARK    5  A    between atoms: C_19  and  C_21 
ROOT
ATOM      1  C   LIG d   1       8.031   1.896  -5.066  0.00  0.00     0.027 C 
ATOM      2  C   LIG d   1       8.872   2.844  -4.559  0.00  0.00     0.179 A 
ATOM      3  C   LIG d   1       9.734   3.681  -5.318  0.00  0.00     0.232 A 
ATOM      4  O   LIG d   1       9.872   3.699  -6.530  0.00  0.00    -0.283 OA
ATOM      5  C   LIG d   1      10.426   4.522  -4.325  0.00  0.00     0.068 A 
ATOM      6  C   LIG d   1      11.384   5.531  -4.423  0.00  0.00    -0.044 A 
ATOM      7  C   LIG d   1      11.845   6.143  -3.290  0.00  0.00    -0.018 A 
ATOM      8  C   LIG d   1      11.363   5.761  -2.041  0.00  0.00     0.135 A 
ATOM      9  C   LIG d   1      10.414   4.757  -1.930  0.00  0.00     0.024 A 
ATOM     10  C   LIG d   1       9.931   4.131  -3.071  0.00  0.00     0.143 A 
ATOM     11  O   LIG d   1       9.023   3.147  -3.249  0.00  0.00    -0.451 OA
ATOM     12  H   LIG d   1       7.983   1.732  -6.132  0.00  0.00     0.069 H 
ATOM     13  H   LIG d   1      11.760   5.829  -5.390  0.00  0.00     0.063 H 
ATOM     14  H   LIG d   1      12.588   6.924  -3.365  0.00  0.00     0.065 H 
ATOM     15  H   LIG d   1      10.048   4.465  -0.957  0.00  0.00     0.069 H 
ENDROOT
BRANCH   1  16
ATOM     16  C   LIG d   1       7.224   1.131  -4.197  0.00  0.00     0.132 A 
ATOM     17  C   LIG d   1       7.298  -0.237  -4.008  0.00  0.00    -0.016 A 
ATOM     18  C   LIG d   1       6.317  -0.563  -3.062  0.00  0.00    -0.020 A 
ATOM     19  H   LIG d   1       7.979  -0.919  -4.494  0.00  0.00     0.066 H 
ATOM     20  C   LIG d   1       5.695   0.588  -2.717  0.00  0.00     0.103 A 
ATOM     21  H   LIG d   1       6.096  -1.548  -2.680  0.00  0.00     0.065 H 
ATOM     22  O   LIG d   1       6.245   1.604  -3.396  0.00  0.00    -0.461 OA
BRANCH  20  23
ATOM     23  C   LIG d   1       4.568   0.709  -1.724  0.00  0.00    -0.006 C 
ATOM     24  H   LIG d   1       3.614   0.611  -2.242  0.00  0.00     0.031 H 
ATOM     25  H   LIG d   1       4.657  -0.079  -0.975  0.00  0.00     0.031 H 
ATOM     26  H   LIG d   1       4.616   1.682  -1.235  0.00  0.00     0.031 H 
ENDBRANCH  20  23
ENDBRANCH   1  16
BRANCH   8  27
ATOM     27  O   LIG d   1      11.828   6.375  -0.924  0.00  0.00    -0.426 OA
BRANCH  27  28
ATOM     28  C   LIG d   1      10.940   6.623   0.051  0.00  0.00     0.309 C 
ATOM     29  O   LIG d   1      10.046   7.415  -0.133  0.00  0.00    -0.251 OA
BRANCH  28  30
ATOM     30  C   LIG d   1      11.059   5.916   1.377  0.00  0.00     0.034 C 
ATOM     31  H   LIG d   1      10.691   4.894   1.278  0.00  0.00     0.034 H 
ATOM     32  H   LIG d   1      12.104   5.897   1.686  0.00  0.00     0.034 H 
ATOM     33  H   LIG d   1      10.467   6.444   2.125  0.00  0.00     0.034 H 
ENDBRANCH  28  30
ENDBRANCH  27  28
ENDBRANCH   8  27
TORSDOF 5
ENDMDL
MODEL 2
REMARK VINA RESULT:      -5.9      2.128      7.247
REMARK  5 active torsions:
REMARK  status: ('A' for Active; 'I' for Inactive)
REMARK    1  A    between atoms: C_1  and  C_2 
REMARK    2  A    between atoms: C_5  and  C_7 
REMARK    3  A    between atoms: C_14  and  O_18 
REMARK    4  A    between atoms: O_18  and  C_19 
REMARK    5  A    between atoms: C_19  and  C_21 
ROOT
ATOM      1  C   LIG d   1       9.853   3.116  -4.890  0.00  0.00     0.027 C 
ATOM      2  C   LIG d   1       8.963   2.154  -4.508  0.00  0.00     0.179 A 
ATOM      3  C   LIG d   1       8.999   0.787  -4.895  0.00  0.00     0.232 A 
ATOM      4  O   LIG d   1       9.815   0.244  -5.622  0.00  0.00    -0.283 OA
ATOM      5  C   LIG d   1       7.840   0.168  -4.231  0.00  0.00     0.068 A 
ATOM      6  C   LIG d   1       7.326  -1.129  -4.207  0.00  0.00    -0.044 A 
ATOM      7  C   LIG d   1       6.203  -1.403  -3.477  0.00  0.00    -0.018 A 
ATOM      8  C   LIG d   1       5.571  -0.393  -2.758  0.00  0.00     0.135 A 
ATOM      9  C   LIG d   1       6.067   0.901  -2.777  0.00  0.00     0.024 A 
ATOM     10  C   LIG d   1       7.210   1.194  -3.509  0.00  0.00     0.143 A 
ATOM     11  O   LIG d   1       7.897   2.342  -3.696  0.00  0.00    -0.451 OA
ATOM     12  H   LIG d   1      10.674   2.861  -5.544  0.00  0.00     0.069 H 
ATOM     13  H   LIG d   1       7.815  -1.915  -4.763  0.00  0.00     0.063 H 
ATOM     14  H   LIG d   1       5.805  -2.407  -3.458  0.00  0.00     0.065 H 
ATOM     15  H   LIG d   1       5.568   1.680  -2.219  0.00  0.00     0.069 H 
ENDROOT
BRANCH   1  16
ATOM     16  C   LIG d   1       9.700   4.442  -4.430  0.00  0.00     0.132 A 
ATOM     17  C   LIG d   1       9.463   5.555  -5.215  0.00  0.00    -0.016 A 
ATOM     18  C   LIG d   1       9.382   6.648  -4.341  0.00  0.00    -0.020 A 
ATOM     19  H   LIG d   1       9.360   5.577  -6.289  0.00  0.00     0.066 H 
ATOM     20  C   LIG d   1       9.569   6.175  -3.088  0.00  0.00     0.103 A 
ATOM     21  H   LIG d   1       9.205   7.677  -4.617  0.00  0.00     0.065 H 
ATOM     22  O   LIG d   1       9.754   4.849  -3.144  0.00  0.00    -0.461 OA
BRANCH  20  23
ATOM     23  C   LIG d   1       9.563   7.005  -1.830  0.00  0.00    -0.006 C 
ATOM     24  H   LIG d   1       9.738   6.361  -0.969  0.00  0.00     0.031 H 
ATOM     25  H   LIG d   1      10.350   7.758  -1.888  0.00  0.00     0.031 H 
ATOM     26  H   LIG d   1       8.596   7.498  -1.724  0.00  0.00     0.031 H 
ENDBRANCH  20  23
ENDBRANCH   1  16
BRANCH   8  27
ATOM     27  O   LIG d   1       4.456  -0.676  -2.037  0.00  0.00    -0.426 OA
BRANCH  27  28
ATOM     28  C   LIG d   1       3.488  -1.369  -2.657  0.00  0.00     0.309 C 
ATOM     29  O   LIG d   1       3.383  -2.558  -2.471  0.00  0.00    -0.251 OA
BRANCH  28  30
ATOM     30  C   LIG d   1       2.533  -0.664  -3.586  0.00  0.00     0.034 C 
ATOM     31  H   LIG d   1       2.893   0.347  -3.779  0.00  0.00     0.034 H 
ATOM     32  H   LIG d   1       2.469  -1.213  -4.526  0.00  0.00     0.034 H 
ATOM     33  H   LIG d   1       1.547  -0.616  -3.125  0.00  0.00     0.034 H 
ENDBRANCH  28  30
ENDBRANCH  27  28
ENDBRANCH   8  27
TORSDOF 5
ENDMDL
MODEL 3
REMARK VINA RESULT:      -5.9      6.889      8.572
REMARK  5 active torsions:
REMARK  status: ('A' for Active; 'I' for Inactive)
REMARK    1  A    between atoms: C_1  and  C_2 
REMARK    2  A    between atoms: C_5  and  C_7 
REMARK    3  A    between atoms: C_14  and  O_18 
REMARK    4  A    between atoms: O_18  and  C_19 
REMARK    5  A    between atoms: C_19  and  C_21 
ROOT
ATOM      1  C   LIG d   1       2.787   0.541  -6.860  0.00  0.00     0.027 C 
ATOM      2  C   LIG d   1       3.725  -0.062  -6.073  0.00  0.00     0.179 A 
ATOM      3  C   LIG d   1       3.542  -0.460  -4.721  0.00  0.00     0.232 A 
ATOM      4  O   LIG d   1       2.537  -0.336  -4.041  0.00  0.00    -0.283 OA
ATOM      5  C   LIG d   1       4.829  -1.054  -4.317  0.00  0.00     0.068 A 
ATOM      6  C   LIG d   1       5.293  -1.625  -3.132  0.00  0.00    -0.044 A 
ATOM      7  C   LIG d   1       6.572  -2.102  -3.062  0.00  0.00    -0.018 A 
ATOM      8  C   LIG d   1       7.412  -2.021  -4.169  0.00  0.00     0.135 A 
ATOM      9  C   LIG d   1       6.965  -1.452  -5.351  0.00  0.00     0.024 A 
ATOM     10  C   LIG d   1       5.667  -0.968  -5.440  0.00  0.00     0.143 A 
ATOM     11  O   LIG d   1       4.985  -0.381  -6.448  0.00  0.00    -0.451 OA
ATOM     12  H   LIG d   1       1.806   0.753  -6.464  0.00  0.00     0.069 H 
ATOM     13  H   LIG d   1       4.644  -1.690  -2.272  0.00  0.00     0.063 H 
ATOM     14  H   LIG d   1       6.932  -2.544  -2.144  0.00  0.00     0.065 H 
ATOM     15  H   LIG d   1       7.625  -1.389  -6.204  0.00  0.00     0.069 H 
ENDROOT
BRANCH   1  16
ATOM     16  C   LIG d   1       3.101   0.885  -8.193  0.00  0.00     0.132 A 
ATOM     17  C   LIG d   1       3.223   2.167  -8.696  0.00  0.00    -0.016 A 
ATOM     18  C   LIG d   1       3.543   2.034 -10.055  0.00  0.00    -0.020 A 
ATOM     19  H   LIG d   1       3.096   3.090  -8.150  0.00  0.00     0.066 H 
ATOM     20  C   LIG d   1       3.603   0.710 -10.324  0.00  0.00     0.103 A 
ATOM     21  H   LIG d   1       3.709   2.838 -10.756  0.00  0.00     0.065 H 
ATOM     22  O   LIG d   1       3.343   0.022  -9.202  0.00  0.00    -0.461 OA
BRANCH  20  23
ATOM     23  C   LIG d   1       3.918   0.104 -11.667  0.00  0.00    -0.006 C 
ATOM     24  H   LIG d   1       2.992  -0.200 -12.155  0.00  0.00     0.031 H 
ATOM     25  H   LIG d   1       4.431   0.840 -12.287  0.00  0.00     0.031 H 
ATOM     26  H   LIG d   1       4.560  -0.767 -11.532  0.00  0.00     0.031 H 
ENDBRANCH  20  23
ENDBRANCH   1  16
BRANCH   8  27
ATOM     27  O   LIG d   1       8.680  -2.497  -4.088  0.00  0.00    -0.426 OA
BRANCH  27  28
ATOM     28  C   LIG d   1       8.825  -3.799  -3.793  0.00  0.00     0.309 C 
ATOM     29  O   LIG d   1       8.380  -4.640  -4.536  0.00  0.00    -0.251 OA
BRANCH  28  30
ATOM     30  C   LIG d   1       9.543  -4.210  -2.533  0.00  0.00     0.034 C 
ATOM     31  H   LIG d   1       9.158  -5.172  -2.193  0.00  0.00     0.034 H 
ATOM     32  H   LIG d   1      10.611  -4.298  -2.736  0.00  0.00     0.034 H 
ATOM     33  H   LIG d   1       9.380  -3.460  -1.760  0.00  0.00     0.034 H 
ENDBRANCH  28  30
ENDBRANCH  27  28
ENDBRANCH   8  27
TORSDOF 5
ENDMDL
MODEL 4
REMARK VINA RESULT:      -5.8      1.315      6.655
REMARK  5 active torsions:
REMARK  status: ('A' for Active; 'I' for Inactive)
REMARK    1  A    between atoms: C_1  and  C_2 
REMARK    2  A    between atoms: C_5  and  C_7 
REMARK    3  A    between atoms: C_14  and  O_18 
REMARK    4  A    between atoms: O_18  and  C_19 
REMARK    5  A    between atoms: C_19  and  C_21 
ROOT
ATOM      1  C   LIG d   1      10.489   4.864  -3.973  0.00  0.00     0.027 C 
ATOM      2  C   LIG d   1       9.696   3.790  -4.254  0.00  0.00     0.179 A 
ATOM      3  C   LIG d   1       9.683   3.065  -5.477  0.00  0.00     0.232 A 
ATOM      4  O   LIG d   1      10.363   3.271  -6.468  0.00  0.00    -0.283 OA
ATOM      5  C   LIG d   1       8.670   2.012  -5.289  0.00  0.00     0.068 A 
ATOM      6  C   LIG d   1       8.188   0.987  -6.103  0.00  0.00    -0.044 A 
ATOM      7  C   LIG d   1       7.218   0.145  -5.635  0.00  0.00    -0.018 A 
ATOM      8  C   LIG d   1       6.709   0.308  -4.349  0.00  0.00     0.135 A 
ATOM      9  C   LIG d   1       7.175   1.325  -3.532  0.00  0.00     0.024 A 
ATOM     10  C   LIG d   1       8.165   2.184  -3.990  0.00  0.00     0.143 A 
ATOM     11  O   LIG d   1       8.790   3.235  -3.416  0.00  0.00    -0.451 OA
ATOM     12  H   LIG d   1      11.184   5.230  -4.714  0.00  0.00     0.069 H 
ATOM     13  H   LIG d   1       8.580   0.858  -7.101  0.00  0.00     0.063 H 
ATOM     14  H   LIG d   1       6.844  -0.649  -6.265  0.00  0.00     0.065 H 
ATOM     15  H   LIG d   1       6.773   1.446  -2.537  0.00  0.00     0.069 H 
ENDROOT
BRANCH   1  16
ATOM     16  C   LIG d   1      10.403   5.494  -2.712  0.00  0.00     0.132 A 
ATOM     17  C   LIG d   1       9.691   6.644  -2.423  0.00  0.00    -0.016 A 
ATOM     18  C   LIG d   1       9.887   6.901  -1.059  0.00  0.00    -0.020 A 
ATOM     19  H   LIG d   1       9.100   7.227  -3.113  0.00  0.00     0.066 H 
ATOM     20  C   LIG d   1      10.691   5.926  -0.579  0.00  0.00     0.103 A 
ATOM     21  H   LIG d   1       9.475   7.726  -0.497  0.00  0.00     0.065 H 
ATOM     22  O   LIG d   1      10.994   5.079  -1.572  0.00  0.00    -0.461 OA
BRANCH  20  23
ATOM     23  C   LIG d   1      11.164   5.806   0.847  0.00  0.00    -0.006 C 
ATOM     24  H   LIG d   1      12.187   6.175   0.923  0.00  0.00     0.031 H 
ATOM     25  H   LIG d   1      10.516   6.397   1.496  0.00  0.00     0.031 H 
ATOM     26  H   LIG d   1      11.131   4.761   1.156  0.00  0.00     0.031 H 
ENDBRANCH  20  23
ENDBRANCH   1  16
BRANCH   8  27
ATOM     27  O   LIG d   1       5.746  -0.533  -3.895  0.00  0.00    -0.426 OA
BRANCH  27  28
ATOM     28  C   LIG d   1       4.612   0.025  -3.440  0.00  0.00     0.309 C 
ATOM     29  O   LIG d   1       3.894   0.634  -4.197  0.00  0.00    -0.251 OA
BRANCH  28  30
ATOM     30  C   LIG d   1       4.237  -0.108  -1.987  0.00  0.00     0.034 C 
ATOM     31  H   LIG d   1       3.649   0.759  -1.683  0.00  0.00     0.034 H 
ATOM     32  H   LIG d   1       3.647  -1.014  -1.845  0.00  0.00     0.034 H 
ATOM     33  H   LIG d   1       5.141  -0.164  -1.381  0.00  0.00     0.034 H 
ENDBRANCH  28  30
ENDBRANCH  27  28
ENDBRANCH   8  27
TORSDOF 5
ENDMDL
MODEL 5
REMARK VINA RESULT:      -5.6      7.913     12.767
REMARK  5 active torsions:
REMARK  status: ('A' for Active; 'I' for Inactive)
REMARK    1  A    between atoms: C_1  and  C_2 
REMARK    2  A    between atoms: C_5  and  C_7 
REMARK    3  A    between atoms: C_14  and  O_18 
REMARK    4  A    between atoms: O_18  and  C_19 
REMARK    5  A    between atoms: C_19  and  C_21 
ROOT
ATOM      1  C   LIG d   1       4.648  -3.586  -6.379  0.00  0.00     0.027 C 
ATOM      2  C   LIG d   1       4.637  -4.948  -6.463  0.00  0.00     0.179 A 
ATOM      3  C   LIG d   1       4.311  -5.707  -7.619  0.00  0.00     0.232 A 
ATOM      4  O   LIG d   1       3.990  -5.284  -8.718  0.00  0.00    -0.283 OA
ATOM      5  C   LIG d   1       4.443  -7.115  -7.206  0.00  0.00     0.068 A 
ATOM      6  C   LIG d   1       4.264  -8.330  -7.867  0.00  0.00    -0.044 A 
ATOM      7  C   LIG d   1       4.468  -9.505  -7.197  0.00  0.00    -0.018 A 
ATOM      8  C   LIG d   1       4.853  -9.492  -5.859  0.00  0.00     0.135 A 
ATOM      9  C   LIG d   1       5.029  -8.291  -5.190  0.00  0.00     0.024 A 
ATOM     10  C   LIG d   1       4.832  -7.090  -5.857  0.00  0.00     0.143 A 
ATOM     11  O   LIG d   1       4.935  -5.804  -5.458  0.00  0.00    -0.451 OA
ATOM     12  H   LIG d   1       4.394  -2.991  -7.244  0.00  0.00     0.069 H 
ATOM     13  H   LIG d   1       3.966  -8.344  -8.904  0.00  0.00     0.063 H 
ATOM     14  H   LIG d   1       4.329 -10.447  -7.708  0.00  0.00     0.065 H 
ATOM     15  H   LIG d   1       5.324  -8.291  -4.151  0.00  0.00     0.069 H 
ENDROOT
BRANCH   1  16
ATOM     16  C   LIG d   1       4.992  -2.956  -5.164  0.00  0.00     0.132 A 
ATOM     17  C   LIG d   1       6.263  -2.576  -4.775  0.00  0.00    -0.016 A 
ATOM     18  C   LIG d   1       6.134  -1.992  -3.507  0.00  0.00    -0.020 A 
ATOM     19  H   LIG d   1       7.176  -2.704  -5.337  0.00  0.00     0.066 H 
ATOM     20  C   LIG d   1       4.824  -2.037  -3.177  0.00  0.00     0.103 A 
ATOM     21  H   LIG d   1       6.932  -1.584  -2.905  0.00  0.00     0.065 H 
ATOM     22  O   LIG d   1       4.139  -2.611  -4.176  0.00  0.00    -0.461 OA
BRANCH  20  23
ATOM     23  C   LIG d   1       4.227  -1.518  -1.894  0.00  0.00    -0.006 C 
ATOM     24  H   LIG d   1       4.860  -1.807  -1.056  0.00  0.00     0.031 H 
ATOM     25  H   LIG d   1       4.157  -0.431  -1.939  0.00  0.00     0.031 H 
ATOM     26  H   LIG d   1       3.231  -1.941  -1.758  0.00  0.00     0.031 H 
ENDBRANCH  20  23
ENDBRANCH   1  16
BRANCH   8  27
ATOM     27  O   LIG d   1       5.051 -10.664  -5.205  0.00  0.00    -0.426 OA
BRANCH  27  28
ATOM     28  C   LIG d   1       4.245 -10.927  -4.164  0.00  0.00     0.309 C 
ATOM     29  O   LIG d   1       3.063 -11.099  -4.345  0.00  0.00    -0.251 OA
BRANCH  28  30
ATOM     30  C   LIG d   1       4.813 -11.006  -2.771  0.00  0.00     0.034 C 
ATOM     31  H   LIG d   1       5.611 -10.270  -2.661  0.00  0.00     0.034 H 
ATOM     32  H   LIG d   1       4.026 -10.798  -2.045  0.00  0.00     0.034 H 
ATOM     33  H   LIG d   1       5.214 -12.005  -2.598  0.00  0.00     0.034 H 
ENDBRANCH  28  30
ENDBRANCH  27  28
ENDBRANCH   8  27
TORSDOF 5
ENDMDL
MODEL 6
REMARK VINA RESULT:      -5.6      3.739      8.890
REMARK  5 active torsions:
REMARK  status: ('A' for Active; 'I' for Inactive)
REMARK    1  A    between atoms: C_1  and  C_2 
REMARK    2  A    between atoms: C_5  and  C_7 
REMARK    3  A    between atoms: C_14  and  O_18 
REMARK    4  A    between atoms: O_18  and  C_19 
REMARK    5  A    between atoms: C_19  and  C_21 
ROOT
ATOM      1  C   LIG d   1       7.948   2.049  -3.774  0.00  0.00     0.027 C 
ATOM      2  C   LIG d   1       7.216   0.899  -3.826  0.00  0.00     0.179 A 
ATOM      3  C   LIG d   1       6.048   0.623  -3.064  0.00  0.00     0.232 A 
ATOM      4  O   LIG d   1       5.506   1.350  -2.248  0.00  0.00    -0.283 OA
ATOM      5  C   LIG d   1       5.634  -0.731  -3.473  0.00  0.00     0.068 A 
ATOM      6  C   LIG d   1       4.579  -1.565  -3.101  0.00  0.00    -0.044 A 
ATOM      7  C   LIG d   1       4.455  -2.800  -3.673  0.00  0.00    -0.018 A 
ATOM      8  C   LIG d   1       5.378  -3.229  -4.623  0.00  0.00     0.135 A 
ATOM      9  C   LIG d   1       6.433  -2.412  -4.998  0.00  0.00     0.024 A 
ATOM     10  C   LIG d   1       6.569  -1.152  -4.431  0.00  0.00     0.143 A 
ATOM     11  O   LIG d   1       7.480  -0.171  -4.611  0.00  0.00    -0.451 OA
ATOM     12  H   LIG d   1       7.652   2.848  -3.111  0.00  0.00     0.069 H 
ATOM     13  H   LIG d   1       3.862  -1.235  -2.364  0.00  0.00     0.063 H 
ATOM     14  H   LIG d   1       3.639  -3.447  -3.385  0.00  0.00     0.065 H 
ATOM     15  H   LIG d   1       7.146  -2.754  -5.733  0.00  0.00     0.069 H 
ENDROOT
BRANCH   1  16
ATOM     16  C   LIG d   1       9.092   2.195  -4.589  0.00  0.00     0.132 A 
ATOM     17  C   LIG d   1       9.158   2.882  -5.786  0.00  0.00    -0.016 A 
ATOM     18  C   LIG d   1      10.479   2.766  -6.241  0.00  0.00    -0.020 A 
ATOM     19  H   LIG d   1       8.350   3.406  -6.275  0.00  0.00     0.066 H 
ATOM     20  C   LIG d   1      11.153   2.030  -5.329  0.00  0.00     0.103 A 
ATOM     21  H   LIG d   1      10.883   3.184  -7.151  0.00  0.00     0.065 H 
ATOM     22  O   LIG d   1      10.320   1.694  -4.334  0.00  0.00    -0.461 OA
BRANCH  20  23
ATOM     23  C   LIG d   1      12.611   1.655  -5.412  0.00  0.00    -0.006 C 
ATOM     24  H   LIG d   1      12.709   0.689  -5.907  0.00  0.00     0.031 H 
ATOM     25  H   LIG d   1      13.149   2.412  -5.983  0.00  0.00     0.031 H 
ATOM     26  H   LIG d   1      13.029   1.592  -4.408  0.00  0.00     0.031 H 
ENDBRANCH  20  23
ENDBRANCH   1  16
BRANCH   8  27
ATOM     27  O   LIG d   1       5.245  -4.458  -5.184  0.00  0.00    -0.426 OA
BRANCH  27  28
ATOM     28  C   LIG d   1       4.310  -4.596  -6.137  0.00  0.00     0.309 C 
ATOM     29  O   LIG d   1       3.439  -5.425  -6.012  0.00  0.00    -0.251 OA
BRANCH  28  30
ATOM     30  C   LIG d   1       4.346  -3.720  -7.362  0.00  0.00     0.034 C 
ATOM     31  H   LIG d   1       4.559  -4.331  -8.240  0.00  0.00     0.034 H 
ATOM     32  H   LIG d   1       3.380  -3.230  -7.487  0.00  0.00     0.034 H 
ATOM     33  H   LIG d   1       5.124  -2.966  -7.247  0.00  0.00     0.034 H 
ENDBRANCH  28  30
ENDBRANCH  27  28
ENDBRANCH   8  27
TORSDOF 5
ENDMDL
MODEL 7
REMARK VINA RESULT:      -5.5      4.710      7.862
REMARK  5 active torsions:
REMARK  status: ('A' for Active; 'I' for Inactive)
REMARK    1  A    between atoms: C_1  and  C_2 
REMARK    2  A    between atoms: C_5  and  C_7 
REMARK    3  A    between atoms: C_14  and  O_18 
REMARK    4  A    between atoms: O_18  and  C_19 
REMARK    5  A    between atoms: C_19  and  C_21 
ROOT
ATOM      1  C   LIG d   1       7.196   0.842  -3.853  0.00  0.00     0.027 C 
ATOM      2  C   LIG d   1       7.198   0.834  -5.218  0.00  0.00     0.179 A 
ATOM      3  C   LIG d   1       8.245   1.316  -6.049  0.00  0.00     0.232 A 
ATOM      4  O   LIG d   1       9.303   1.811  -5.697  0.00  0.00    -0.283 OA
ATOM      5  C   LIG d   1       7.778   1.089  -7.428  0.00  0.00     0.068 A 
ATOM      6  C   LIG d   1       8.332   1.339  -8.683  0.00  0.00    -0.044 A 
ATOM      7  C   LIG d   1       7.636   1.008  -9.813  0.00  0.00    -0.018 A 
ATOM      8  C   LIG d   1       6.377   0.422  -9.713  0.00  0.00     0.135 A 
ATOM      9  C   LIG d   1       5.813   0.173  -8.473  0.00  0.00     0.024 A 
ATOM     10  C   LIG d   1       6.509   0.499  -7.316  0.00  0.00     0.143 A 
ATOM     11  O   LIG d   1       6.204   0.365  -6.007  0.00  0.00    -0.451 OA
ATOM     12  H   LIG d   1       8.043   1.240  -3.314  0.00  0.00     0.069 H 
ATOM     13  H   LIG d   1       9.308   1.793  -8.763  0.00  0.00     0.063 H 
ATOM     14  H   LIG d   1       8.065   1.201 -10.785  0.00  0.00     0.065 H 
ATOM     15  H   LIG d   1       4.833  -0.278  -8.405  0.00  0.00     0.069 H 
ENDROOT
BRANCH   1  16
ATOM     16  C   LIG d   1       6.086   0.330  -3.146  0.00  0.00     0.132 A 
ATOM     17  C   LIG d   1       5.249   1.047  -2.312  0.00  0.00    -0.016 A 
ATOM     18  C   LIG d   1       4.293   0.141  -1.832  0.00  0.00    -0.020 A 
ATOM     19  H   LIG d   1       5.318   2.099  -2.078  0.00  0.00     0.066 H 
ATOM     20  C   LIG d   1       4.575  -1.064  -2.375  0.00  0.00     0.103 A 
ATOM     21  H   LIG d   1       3.483   0.364  -1.153  0.00  0.00     0.065 H 
ATOM     22  O   LIG d   1       5.649  -0.947  -3.169  0.00  0.00    -0.461 OA
BRANCH  20  23
ATOM     23  C   LIG d   1       3.802  -2.335  -2.133  0.00  0.00    -0.006 C 
ATOM     24  H   LIG d   1       2.865  -2.302  -2.689  0.00  0.00     0.031 H 
ATOM     25  H   LIG d   1       4.392  -3.189  -2.467  0.00  0.00     0.031 H 
ATOM     26  H   LIG d   1       3.589  -2.435  -1.069  0.00  0.00     0.031 H 
ENDBRANCH  20  23
ENDBRANCH   1  16
BRANCH   8  27
ATOM     27  O   LIG d   1       5.695   0.098 -10.841  0.00  0.00    -0.426 OA
BRANCH  27  28
ATOM     28  C   LIG d   1       4.385   0.390 -10.867  0.00  0.00     0.309 C 
ATOM     29  O   LIG d   1       3.580  -0.470 -11.137  0.00  0.00    -0.251 OA
BRANCH  28  30
ATOM     30  C   LIG d   1       3.918   1.790 -10.562  0.00  0.00     0.034 C 
ATOM     31  H   LIG d   1       4.773   2.405 -10.279  0.00  0.00     0.034 H 
ATOM     32  H   LIG d   1       3.442   2.215 -11.446  0.00  0.00     0.034 H 
ATOM     33  H   LIG d   1       3.202   1.764  -9.740  0.00  0.00     0.034 H 
ENDBRANCH  28  30
ENDBRANCH  27  28
ENDBRANCH   8  27
TORSDOF 5
ENDMDL
MODEL 8
REMARK VINA RESULT:      -5.5     16.105     17.432
REMARK  5 active torsions:
REMARK  status: ('A' for Active; 'I' for Inactive)
REMARK    1  A    between atoms: C_1  and  C_2 
REMARK    2  A    between atoms: C_5  and  C_7 
REMARK    3  A    between atoms: C_14  and  O_18 
REMARK    4  A    between atoms: O_18  and  C_19 
REMARK    5  A    between atoms: C_19  and  C_21 
ROOT
ATOM      1  C   LIG d   1      -5.246   5.902 -14.218  0.00  0.00     0.027 C 
ATOM      2  C   LIG d   1      -4.289   6.809 -14.573  0.00  0.00     0.179 A 
ATOM      3  C   LIG d   1      -4.529   8.091 -15.138  0.00  0.00     0.232 A 
ATOM      4  O   LIG d   1      -5.609   8.596 -15.399  0.00  0.00    -0.283 OA
ATOM      5  C   LIG d   1      -3.193   8.678 -15.340  0.00  0.00     0.068 A 
ATOM      6  C   LIG d   1      -2.748   9.897 -15.851  0.00  0.00    -0.044 A 
ATOM      7  C   LIG d   1      -1.408  10.161 -15.912  0.00  0.00    -0.018 A 
ATOM      8  C   LIG d   1      -0.487   9.216 -15.468  0.00  0.00     0.135 A 
ATOM      9  C   LIG d   1      -0.916   7.999 -14.963  0.00  0.00     0.024 A 
ATOM     10  C   LIG d   1      -2.273   7.719 -14.888  0.00  0.00     0.143 A 
ATOM     11  O   LIG d   1      -2.953   6.638 -14.446  0.00  0.00    -0.451 OA
ATOM     12  H   LIG d   1      -6.290   6.136 -14.360  0.00  0.00     0.069 H 
ATOM     13  H   LIG d   1      -3.460  10.632 -16.197  0.00  0.00     0.063 H 
ATOM     14  H   LIG d   1      -1.062  11.105 -16.308  0.00  0.00     0.065 H 
ATOM     15  H   LIG d   1      -0.194   7.270 -14.623  0.00  0.00     0.069 H 
ENDROOT
BRANCH   1  16
ATOM     16  C   LIG d   1      -4.869   4.659 -13.665  0.00  0.00     0.132 A 
ATOM     17  C   LIG d   1      -5.481   4.021 -12.602  0.00  0.00    -0.016 A 
ATOM     18  C   LIG d   1      -4.781   2.824 -12.398  0.00  0.00    -0.020 A 
ATOM     19  H   LIG d   1      -6.332   4.376 -12.040  0.00  0.00     0.066 H 
ATOM     20  C   LIG d   1      -3.791   2.777 -13.319  0.00  0.00     0.103 A 
ATOM     21  H   LIG d   1      -4.990   2.079 -11.645  0.00  0.00     0.065 H 
ATOM     22  O   LIG d   1      -3.850   3.878 -14.082  0.00  0.00    -0.461 OA
BRANCH  20  23
ATOM     23  C   LIG d   1      -2.788   1.663 -13.468  0.00  0.00    -0.006 C 
ATOM     24  H   LIG d   1      -3.172   0.919 -14.165  0.00  0.00     0.031 H 
ATOM     25  H   LIG d   1      -1.849   2.068 -13.848  0.00  0.00     0.031 H 
ATOM     26  H   LIG d   1      -2.615   1.196 -12.498  0.00  0.00     0.031 H 
ENDBRANCH  20  23
ENDBRANCH   1  16
BRANCH   8  27
ATOM     27  O   LIG d   1       0.841   9.488 -15.534  0.00  0.00    -0.426 OA
BRANCH  27  28
ATOM     28  C   LIG d   1       1.304   9.992 -16.689  0.00  0.00     0.309 C 
ATOM     29  O   LIG d   1       1.259   9.330 -17.698  0.00  0.00    -0.251 OA
BRANCH  28  30
ATOM     30  C   LIG d   1       1.880  11.385 -16.726  0.00  0.00     0.034 C 
ATOM     31  H   LIG d   1       1.180  12.080 -16.262  0.00  0.00     0.034 H 
ATOM     32  H   LIG d   1       2.824  11.402 -16.180  0.00  0.00     0.034 H 
ATOM     33  H   LIG d   1       2.053  11.680 -17.761  0.00  0.00     0.034 H 
ENDBRANCH  28  30
ENDBRANCH  27  28
ENDBRANCH   8  27
TORSDOF 5
ENDMDL
MODEL 9
REMARK VINA RESULT:      -5.4     12.765     15.061
REMARK  5 active torsions:
REMARK  status: ('A' for Active; 'I' for Inactive)
REMARK    1  A    between atoms: C_1  and  C_2 
REMARK    2  A    between atoms: C_5  and  C_7 
REMARK    3  A    between atoms: C_14  and  O_18 
REMARK    4  A    between atoms: O_18  and  C_19 
REMARK    5  A    between atoms: C_19  and  C_21 
ROOT
ATOM      1  C   LIG d   1      10.871  -8.819  -0.365  0.00  0.00     0.027 C 
ATOM      2  C   LIG d   1       9.744  -9.137  -1.066  0.00  0.00     0.179 A 
ATOM      3  C   LIG d   1       9.508  -8.844  -2.437  0.00  0.00     0.232 A 
ATOM      4  O   LIG d   1      10.255  -8.269  -3.211  0.00  0.00    -0.283 OA
ATOM      5  C   LIG d   1       8.167  -9.383  -2.720  0.00  0.00     0.068 A 
ATOM      6  C   LIG d   1       7.368  -9.419  -3.863  0.00  0.00    -0.044 A 
ATOM      7  C   LIG d   1       6.134 -10.007  -3.813  0.00  0.00    -0.018 A 
ATOM      8  C   LIG d   1       5.673 -10.569  -2.626  0.00  0.00     0.135 A 
ATOM      9  C   LIG d   1       6.455 -10.536  -1.482  0.00  0.00     0.024 A 
ATOM     10  C   LIG d   1       7.712  -9.948  -1.518  0.00  0.00     0.143 A 
ATOM     11  O   LIG d   1       8.663  -9.784  -0.573  0.00  0.00    -0.451 OA
ATOM     12  H   LIG d   1      11.682  -8.299  -0.854  0.00  0.00     0.069 H 
ATOM     13  H   LIG d   1       7.722  -8.984  -4.785  0.00  0.00     0.063 H 
ATOM     14  H   LIG d   1       5.515 -10.034  -4.698  0.00  0.00     0.065 H 
ATOM     15  H   LIG d   1       6.088 -10.972  -0.564  0.00  0.00     0.069 H 
ENDROOT
BRANCH   1  16
ATOM     16  C   LIG d   1      10.977  -9.171   0.998  0.00  0.00     0.132 A 
ATOM     17  C   LIG d   1      11.119  -8.294   2.057  0.00  0.00    -0.016 A 
ATOM     18  C   LIG d   1      11.183  -9.077   3.218  0.00  0.00    -0.020 A 
ATOM     19  H   LIG d   1      11.171  -7.217   2.001  0.00  0.00     0.066 H 
ATOM     20  C   LIG d   1      11.081 -10.370   2.834  0.00  0.00     0.103 A 
ATOM     21  H   LIG d   1      11.294  -8.717   4.230  0.00  0.00     0.065 H 
ATOM     22  O   LIG d   1      10.951 -10.423   1.501  0.00  0.00    -0.461 OA
BRANCH  20  23
ATOM     23  C   LIG d   1      11.102 -11.561   3.758  0.00  0.00    -0.006 C 
ATOM     24  H   LIG d   1      10.413 -12.319   3.389  0.00  0.00     0.031 H 
ATOM     25  H   LIG d   1      12.111 -11.973   3.796  0.00  0.00     0.031 H 
ATOM     26  H   LIG d   1      10.799 -11.251   4.759  0.00  0.00     0.031 H 
ENDBRANCH  20  23
ENDBRANCH   1  16
BRANCH   8  27
ATOM     27  O   LIG d   1       4.447 -11.149  -2.588  0.00  0.00    -0.426 OA
BRANCH  27  28
ATOM     28  C   LIG d   1       3.536 -10.708  -3.470  0.00  0.00     0.309 C 
ATOM     29  O   LIG d   1       2.910  -9.701  -3.239  0.00  0.00    -0.251 OA
BRANCH  28  30
ATOM     30  C   LIG d   1       3.293 -11.470  -4.747  0.00  0.00     0.034 C 
ATOM     31  H   LIG d   1       4.068 -12.227  -4.872  0.00  0.00     0.034 H 
ATOM     32  H   LIG d   1       2.317 -11.954  -4.701  0.00  0.00     0.034 H 
ATOM     33  H   LIG d   1       3.318 -10.782  -5.592  0.00  0.00     0.034 H 
ENDBRANCH  28  30
ENDBRANCH  27  28
ENDBRANCH   8  27
TORSDOF 5
ENDMDL
MODEL 10
REMARK VINA RESULT:      -5.2      4.979      6.480
REMARK  5 active torsions:
REMARK  status: ('A' for Active; 'I' for Inactive)
REMARK    1  A    between atoms: C_1  and  C_2 
REMARK    2  A    between atoms: C_5  and  C_7 
REMARK    3  A    between atoms: C_14  and  O_18 
REMARK    4  A    between atoms: O_18  and  C_19 
REMARK    5  A    between atoms: C_19  and  C_21 
ROOT
ATOM      1  C   LIG d   1       9.868   9.432  -6.562  0.00  0.00     0.027 C 
ATOM      2  C   LIG d   1       9.908   9.135  -5.230  0.00  0.00     0.179 A 
ATOM      3  C   LIG d   1       9.875  10.079  -4.168  0.00  0.00     0.232 A 
ATOM      4  O   LIG d   1       9.808  11.293  -4.257  0.00  0.00    -0.283 OA
ATOM      5  C   LIG d   1       9.942   9.273  -2.936  0.00  0.00     0.068 A 
ATOM      6  C   LIG d   1       9.949   9.594  -1.578  0.00  0.00    -0.044 A 
ATOM      7  C   LIG d   1      10.021   8.598  -0.644  0.00  0.00    -0.018 A 
ATOM      8  C   LIG d   1      10.087   7.266  -1.043  0.00  0.00     0.135 A 
ATOM      9  C   LIG d   1      10.086   6.934  -2.388  0.00  0.00     0.024 A 
ATOM     10  C   LIG d   1      10.007   7.933  -3.349  0.00  0.00     0.143 A 
ATOM     11  O   LIG d   1       9.985   7.893  -4.699  0.00  0.00    -0.451 OA
ATOM     12  H   LIG d   1       9.805  10.460  -6.884  0.00  0.00     0.069 H 
ATOM     13  H   LIG d   1       9.898  10.626  -1.266  0.00  0.00     0.063 H 
ATOM     14  H   LIG d   1      10.027   8.846   0.407  0.00  0.00     0.065 H 
ATOM     15  H   LIG d   1      10.141   5.898  -2.689  0.00  0.00     0.069 H 
ENDROOT
BRANCH   1  16
ATOM     16  C   LIG d   1       9.906   8.393  -7.517  0.00  0.00     0.132 A 
ATOM     17  C   LIG d   1      11.042   7.762  -7.989  0.00  0.00    -0.016 A 
ATOM     18  C   LIG d   1      10.609   6.803  -8.916  0.00  0.00    -0.020 A 
ATOM     19  H   LIG d   1      12.062   7.967  -7.701  0.00  0.00     0.066 H 
ATOM     20  C   LIG d   1       9.261   6.882  -8.975  0.00  0.00     0.103 A 
ATOM     21  H   LIG d   1      11.236   6.127  -9.479  0.00  0.00     0.065 H 
ATOM     22  O   LIG d   1       8.840   7.834  -8.129  0.00  0.00    -0.461 OA
BRANCH  20  23
ATOM     23  C   LIG d   1       8.372   6.033  -9.846  0.00  0.00    -0.006 C 
ATOM     24  H   LIG d   1       8.950   5.207 -10.259  0.00  0.00     0.031 H 
ATOM     25  H   LIG d   1       7.549   5.638  -9.249  0.00  0.00     0.031 H 
ATOM     26  H   LIG d   1       7.972   6.638 -10.659  0.00  0.00     0.031 H 
ENDBRANCH  20  23
ENDBRANCH   1  16
BRANCH   8  27
ATOM     27  O   LIG d   1      10.158   6.286  -0.107  0.00  0.00    -0.426 OA
BRANCH  27  28
ATOM     28  C   LIG d   1      11.306   6.181   0.581  0.00  0.00     0.309 C 
ATOM     29  O   LIG d   1      11.302   6.292   1.784  0.00  0.00    -0.251 OA
BRANCH  28  30
ATOM     30  C   LIG d   1      12.601   5.926  -0.148  0.00  0.00     0.034 C 
ATOM     31  H   LIG d   1      12.484   5.063  -0.805  0.00  0.00     0.034 H 
ATOM     32  H   LIG d   1      12.862   6.802  -0.742  0.00  0.00     0.034 H 
ATOM     33  H   LIG d   1      13.392   5.727   0.575  0.00  0.00     0.034 H 
ENDBRANCH  28  30
ENDBRANCH  27  28
ENDBRANCH   8  27
TORSDOF 5
ENDMDL
