MODEL 1
REMARK VINA RESULT:      -7.1      0.000      0.000
REMARK  9 active torsions:
REMARK  status: ('A' for Active; 'I' for Inactive)
REMARK    1  A    between atoms: C_1  and  C_2 
REMARK    2  A    between atoms: C_3  and  C_17 
REMARK    3  A    between atoms: C_9  and  O_15 
REMARK    4  A    between atoms: C_11  and  O_13 
REMARK    5  A    between atoms: O_13  and  C_14 
REMARK    6  A    between atoms: O_15  and  C_16 
REMARK    7  A    between atoms: C_17  and  C_18 
REMARK       I    between atoms: C_18  and  N_20 
REMARK       I    between atoms: N_20  and  CA_21 
REMARK    8  A    between atoms: CA_21  and  CB_23 
REMARK       I    between atoms: CA_21  and  C_30 
REMARK    9  A    between atoms: CB_23  and  CG_24 
ROOT
ATOM      1  C   UNK d   0       8.324   0.945  -6.472  0.00  0.00    -0.026 A 
ATOM      2  C   UNK d   0       7.786   0.067  -5.586  0.00  0.00     0.049 A 
ATOM      3  C   UNK d   0       7.669   0.421  -4.228  0.00  0.00     0.341 A 
ATOM      4  O   UNK d   0       7.189  -0.375  -3.440  0.00  0.00    -0.245 OA
ATOM      5  O   UNK d   0       8.079   1.623  -3.788  0.00  0.00    -0.422 OA
ATOM      6  C   UNK d   0       8.615   2.527  -4.637  0.00  0.00     0.146 A 
ATOM      7  C   UNK d   0       8.750   2.214  -6.003  0.00  0.00     0.063 A 
ATOM      8  C   UNK d   0       9.309   3.156  -6.885  0.00  0.00     0.135 A 
ATOM      9  C   UNK d   0       9.720   4.382  -6.402  0.00  0.00     0.023 A 
ATOM     10  C   UNK d   0       9.583   4.686  -5.051  0.00  0.00     0.127 A 
ATOM     11  C   UNK d   0       9.034   3.764  -4.173  0.00  0.00     0.023 A 
ATOM     12  H   UNK d   0      10.149   5.109  -7.076  0.00  0.00     0.069 H 
ATOM     13  H   UNK d   0       8.933   4.010  -3.127  0.00  0.00     0.069 H 
ENDROOT
BRANCH   2  14
ATOM     14  C   UNK d   0       7.320  -1.288  -6.056  0.00  0.00     0.056 C 
ATOM     15  H   UNK d   0       7.376  -1.998  -5.231  0.00  0.00     0.041 H 
ATOM     16  H   UNK d   0       7.957  -1.628  -6.873  0.00  0.00     0.041 H 
BRANCH  14  17
ATOM     17  C   UNK d   0       5.896  -1.190  -6.538  0.00  0.00     0.218 C 
ATOM     18  O   UNK d   0       5.494  -1.940  -7.401  0.00  0.00    -0.275 OA
ATOM     19  N   PHE d   1       5.068  -0.266  -6.009  0.00  0.00    -0.307 N 
ATOM     20  CA  PHE d   1       3.683  -0.170  -6.478  0.00  0.00     0.067 C 
ATOM     21  H   PHE d   1       5.389   0.334  -5.319  0.00  0.00     0.149 HD
ATOM     22  HA  PHE d   1       3.311  -1.166  -6.717  0.00  0.00     0.056 H 
ATOM     23  C   PHE d   1       3.628   0.697  -7.710  0.00  0.00     0.062 C 
ATOM     24  O   PHE d   1       4.642   1.184  -8.150  0.00  0.00    -0.548 OA
ATOM     25  OXT PHE d   1       2.454   0.927  -8.316  0.00  0.00    -0.548 OA
BRANCH  20  26
ATOM     26  CB  PHE d   1       2.815   0.449  -5.380  0.00  0.00    -0.004 C 
ATOM     27  HB1 PHE d   1       2.816   1.534  -5.484  0.00  0.00     0.034 H 
ATOM     28  HB2 PHE d   1       1.795   0.076  -5.469  0.00  0.00     0.034 H 
BRANCH  26  29
ATOM     29  CG  PHE d   1       3.371   0.074  -4.030  0.00  0.00    -0.045 A 
ATOM     30  CD1 PHE d   1       3.825   1.057  -3.171  0.00  0.00    -0.059 A 
ATOM     31  CE1 PHE d   1       4.334   0.713  -1.933  0.00  0.00    -0.061 A 
ATOM     32  HD1 PHE d   1       3.782   2.094  -3.468  0.00  0.00     0.062 H 
ATOM     33  CZ  PHE d   1       4.387  -0.615  -1.553  0.00  0.00    -0.062 A 
ATOM     34  HE1 PHE d   1       4.688   1.482  -1.262  0.00  0.00     0.062 H 
ATOM     35  CE2 PHE d   1       3.934  -1.599  -2.412  0.00  0.00    -0.061 A 
ATOM     36  HZ  PHE d   1       4.786  -0.884  -0.585  0.00  0.00     0.062 H 
ATOM     37  CD2 PHE d   1       3.420  -1.254  -3.648  0.00  0.00    -0.059 A 
ATOM     38  HE2 PHE d   1       3.976  -2.636  -2.114  0.00  0.00     0.062 H 
ATOM     39  HD2 PHE d   1       3.061  -2.022  -4.317  0.00  0.00     0.062 H 
ENDBRANCH  26  29
ENDBRANCH  20  26
ENDBRANCH  14  17
ENDBRANCH   2  14
BRANCH   1  40
ATOM     40  C   UNK d   0       8.462   0.580  -7.927  0.00  0.00    -0.038 C 
ATOM     41  H   UNK d   0       9.007   1.366  -8.449  0.00  0.00     0.028 H 
ATOM     42  H   UNK d   0       9.008  -0.360  -8.016  0.00  0.00     0.028 H 
ATOM     43  H   UNK d   0       7.473   0.469  -8.370  0.00  0.00     0.028 H 
ENDBRANCH   1  40
BRANCH   8  44
ATOM     44  O   UNK d   0       9.441   2.861  -8.202  0.00  0.00    -0.494 OA
BRANCH  44  45
ATOM     45  C   UNK d   0       9.188   3.916  -9.132  0.00  0.00     0.079 C 
ATOM     46  H   UNK d   0       9.240   4.875  -8.617  0.00  0.00     0.066 H 
ATOM     47  H   UNK d   0       9.934   3.889  -9.926  0.00  0.00     0.066 H 
ATOM     48  H   UNK d   0       8.195   3.789  -9.563  0.00  0.00     0.066 H 
ENDBRANCH  44  45
ENDBRANCH   8  44
BRANCH  10  49
ATOM     49  O   UNK d   0       9.992   5.895  -4.589  0.00  0.00    -0.495 OA
BRANCH  49  50
ATOM     50  C   UNK d   0       9.553   6.271  -3.282  0.00  0.00     0.079 C 
ATOM     51  H   UNK d   0      10.393   6.680  -2.720  0.00  0.00     0.066 H 
ATOM     52  H   UNK d   0       8.771   7.024  -3.364  0.00  0.00     0.066 H 
ATOM     53  H   UNK d   0       9.161   5.395  -2.764  0.00  0.00     0.066 H 
ENDBRANCH  49  50
ENDBRANCH  10  49
TORSDOF 11
ENDMDL
MODEL 2
REMARK VINA RESULT:      -6.9      1.208      2.716
REMARK  9 active torsions:
REMARK  status: ('A' for Active; 'I' for Inactive)
REMARK    1  A    between atoms: C_1  and  C_2 
REMARK    2  A    between atoms: C_3  and  C_17 
REMARK    3  A    between atoms: C_9  and  O_15 
REMARK    4  A    between atoms: C_11  and  O_13 
REMARK    5  A    between atoms: O_13  and  C_14 
REMARK    6  A    between atoms: O_15  and  C_16 
REMARK    7  A    between atoms: C_17  and  C_18 
REMARK       I    between atoms: C_18  and  N_20 
REMARK       I    between atoms: N_20  and  CA_21 
REMARK    8  A    between atoms: CA_21  and  CB_23 
REMARK       I    between atoms: CA_21  and  C_30 
REMARK    9  A    between atoms: CB_23  and  CG_24 
ROOT
ATOM      1  C   UNK d   0       8.374   1.406  -5.512  0.00  0.00    -0.026 A 
ATOM      2  C   UNK d   0       8.087   0.456  -6.440  0.00  0.00     0.049 A 
ATOM      3  C   UNK d   0       8.318   0.714  -7.804  0.00  0.00     0.341 A 
ATOM      4  O   UNK d   0       8.054  -0.142  -8.630  0.00  0.00    -0.245 OA
ATOM      5  O   UNK d   0       8.826   1.891  -8.211  0.00  0.00    -0.422 OA
ATOM      6  C   UNK d   0       9.130   2.860  -7.319  0.00  0.00     0.146 A 
ATOM      7  C   UNK d   0       8.914   2.643  -5.945  0.00  0.00     0.063 A 
ATOM      8  C   UNK d   0       9.230   3.653  -5.019  0.00  0.00     0.135 A 
ATOM      9  C   UNK d   0       9.751   4.851  -5.468  0.00  0.00     0.023 A 
ATOM     10  C   UNK d   0       9.961   5.059  -6.827  0.00  0.00     0.127 A 
ATOM     11  C   UNK d   0       9.653   4.070  -7.748  0.00  0.00     0.023 A 
ATOM     12  H   UNK d   0       9.995   5.629  -4.760  0.00  0.00     0.069 H 
ATOM     13  H   UNK d   0       9.820   4.242  -8.800  0.00  0.00     0.069 H 
ENDROOT
BRANCH   2  14
ATOM     14  C   UNK d   0       7.516  -0.872  -6.009  0.00  0.00     0.056 C 
ATOM     15  H   UNK d   0       7.550  -0.946  -4.922  0.00  0.00     0.041 H 
ATOM     16  H   UNK d   0       8.102  -1.679  -6.448  0.00  0.00     0.041 H 
BRANCH  14  17
ATOM     17  C   UNK d   0       6.087  -0.978  -6.475  0.00  0.00     0.218 C 
ATOM     18  O   UNK d   0       5.774  -1.826  -7.284  0.00  0.00    -0.275 OA
ATOM     19  N   PHE d   1       5.156  -0.130  -5.994  0.00  0.00    -0.307 N 
ATOM     20  CA  PHE d   1       3.767  -0.233  -6.447  0.00  0.00     0.067 C 
ATOM     21  H   PHE d   1       5.406   0.548  -5.347  0.00  0.00     0.149 HD
ATOM     22  HA  PHE d   1       3.518  -1.280  -6.618  0.00  0.00     0.056 H 
ATOM     23  C   PHE d   1       3.598   0.540  -7.731  0.00  0.00     0.062 C 
ATOM     24  O   PHE d   1       4.542   1.117  -8.216  0.00  0.00    -0.548 OA
ATOM     25  OXT PHE d   1       2.400   0.586  -8.333  0.00  0.00    -0.548 OA
BRANCH  20  26
ATOM     26  CB  PHE d   1       2.837   0.346  -5.378  0.00  0.00    -0.004 C 
ATOM     27  HB1 PHE d   1       2.753   1.423  -5.514  0.00  0.00     0.034 H 
ATOM     28  HB2 PHE d   1       1.852  -0.111  -5.468  0.00  0.00     0.034 H 
BRANCH  26  29
ATOM     29  CG  PHE d   1       3.402   0.055  -4.012  0.00  0.00    -0.045 A 
ATOM     30  CD1 PHE d   1       3.484  -1.249  -3.560  0.00  0.00    -0.059 A 
ATOM     31  CE1 PHE d   1       4.003  -1.516  -2.307  0.00  0.00    -0.061 A 
ATOM     32  HD1 PHE d   1       3.143  -2.060  -4.187  0.00  0.00     0.062 H 
ATOM     33  CZ  PHE d   1       4.441  -0.479  -1.506  0.00  0.00    -0.062 A 
ATOM     34  HE1 PHE d   1       4.068  -2.535  -1.956  0.00  0.00     0.062 H 
ATOM     35  CE2 PHE d   1       4.358   0.826  -1.956  0.00  0.00    -0.061 A 
ATOM     36  HZ  PHE d   1       4.846  -0.687  -0.526  0.00  0.00     0.062 H 
ATOM     37  CD2 PHE d   1       3.844   1.092  -3.212  0.00  0.00    -0.059 A 
ATOM     38  HE2 PHE d   1       4.700   1.636  -1.329  0.00  0.00     0.062 H 
ATOM     39  HD2 PHE d   1       3.784   2.111  -3.566  0.00  0.00     0.062 H 
ENDBRANCH  26  29
ENDBRANCH  20  26
ENDBRANCH  14  17
ENDBRANCH   2  14
BRANCH   1  40
ATOM     40  C   UNK d   0       8.127   1.147  -4.048  0.00  0.00    -0.038 C 
ATOM     41  H   UNK d   0       7.818   0.111  -3.909  0.00  0.00     0.028 H 
ATOM     42  H   UNK d   0       9.043   1.331  -3.487  0.00  0.00     0.028 H 
ATOM     43  H   UNK d   0       7.341   1.811  -3.689  0.00  0.00     0.028 H 
ENDBRANCH   1  40
BRANCH   8  44
ATOM     44  O   UNK d   0       9.025   3.451  -3.694  0.00  0.00    -0.494 OA
BRANCH  44  45
ATOM     45  C   UNK d   0       9.939   4.080  -2.793  0.00  0.00     0.079 C 
ATOM     46  H   UNK d   0      10.074   5.122  -3.081  0.00  0.00     0.066 H 
ATOM     47  H   UNK d   0       9.542   4.032  -1.779  0.00  0.00     0.066 H 
ATOM     48  H   UNK d   0      10.900   3.566  -2.831  0.00  0.00     0.066 H 
ENDBRANCH  44  45
ENDBRANCH   8  44
BRANCH  10  49
ATOM     49  O   UNK d   0      10.474   6.241  -7.255  0.00  0.00    -0.495 OA
BRANCH  49  50
ATOM     50  C   UNK d   0      10.026   6.718  -8.526  0.00  0.00     0.079 C 
ATOM     51  H   UNK d   0       9.878   7.798  -8.476  0.00  0.00     0.066 H 
ATOM     52  H   UNK d   0      10.775   6.490  -9.283  0.00  0.00     0.066 H 
ATOM     53  H   UNK d   0       9.085   6.234  -8.785  0.00  0.00     0.066 H 
ENDBRANCH  49  50
ENDBRANCH  10  49
TORSDOF 11
ENDMDL
MODEL 3
REMARK VINA RESULT:      -6.8      3.879      7.045
REMARK  9 active torsions:
REMARK  status: ('A' for Active; 'I' for Inactive)
REMARK    1  A    between atoms: C_1  and  C_2 
REMARK    2  A    between atoms: C_3  and  C_17 
REMARK    3  A    between atoms: C_9  and  O_15 
REMARK    4  A    between atoms: C_11  and  O_13 
REMARK    5  A    between atoms: O_13  and  C_14 
REMARK    6  A    between atoms: O_15  and  C_16 
REMARK    7  A    between atoms: C_17  and  C_18 
REMARK       I    between atoms: C_18  and  N_20 
REMARK       I    between atoms: N_20  and  CA_21 
REMARK    8  A    between atoms: CA_21  and  CB_23 
REMARK       I    between atoms: CA_21  and  C_30 
REMARK    9  A    between atoms: CB_23  and  CG_24 
ROOT
ATOM      1  C   UNK d   0       4.694  -0.815  -9.219  0.00  0.00    -0.026 A 
ATOM      2  C   UNK d   0       4.549  -0.308  -7.966  0.00  0.00     0.049 A 
ATOM      3  C   UNK d   0       3.278   0.102  -7.518  0.00  0.00     0.341 A 
ATOM      4  O   UNK d   0       3.158   0.559  -6.395  0.00  0.00    -0.245 OA
ATOM      5  O   UNK d   0       2.197  -0.003  -8.309  0.00  0.00    -0.422 OA
ATOM      6  C   UNK d   0       2.298  -0.507  -9.559  0.00  0.00     0.146 A 
ATOM      7  C   UNK d   0       3.549  -0.929 -10.047  0.00  0.00     0.063 A 
ATOM      8  C   UNK d   0       3.653  -1.451 -11.348  0.00  0.00     0.135 A 
ATOM      9  C   UNK d   0       2.523  -1.546 -12.137  0.00  0.00     0.023 A 
ATOM     10  C   UNK d   0       1.290  -1.128 -11.648  0.00  0.00     0.127 A 
ATOM     11  C   UNK d   0       1.177  -0.611 -10.367  0.00  0.00     0.023 A 
ATOM     12  H   UNK d   0       2.598  -1.948 -13.137  0.00  0.00     0.069 H 
ATOM     13  H   UNK d   0       0.215  -0.289  -9.999  0.00  0.00     0.069 H 
ENDROOT
BRANCH   2  14
ATOM     14  C   UNK d   0       5.747  -0.179  -7.060  0.00  0.00     0.056 C 
ATOM     15  H   UNK d   0       5.606   0.668  -6.389  0.00  0.00     0.041 H 
ATOM     16  H   UNK d   0       6.643  -0.022  -7.663  0.00  0.00     0.041 H 
BRANCH  14  17
ATOM     17  C   UNK d   0       5.902  -1.441  -6.251  0.00  0.00     0.218 C 
ATOM     18  O   UNK d   0       6.902  -2.117  -6.367  0.00  0.00    -0.275 OA
ATOM     19  N   PHE d   1       4.929  -1.818  -5.398  0.00  0.00    -0.307 N 
ATOM     20  CA  PHE d   1       5.079  -3.045  -4.611  0.00  0.00     0.067 C 
ATOM     21  H   PHE d   1       4.129  -1.277  -5.306  0.00  0.00     0.149 HD
ATOM     22  HA  PHE d   1       6.126  -3.176  -4.339  0.00  0.00     0.056 H 
ATOM     23  C   PHE d   1       4.620  -4.226  -5.429  0.00  0.00     0.062 C 
ATOM     24  O   PHE d   1       4.211  -4.059  -6.553  0.00  0.00    -0.548 OA
ATOM     25  OXT PHE d   1       4.668  -5.461  -4.907  0.00  0.00    -0.548 OA
BRANCH  20  26
ATOM     26  CB  PHE d   1       4.230  -2.944  -3.342  0.00  0.00    -0.004 C 
ATOM     27  HB1 PHE d   1       3.242  -3.363  -3.531  0.00  0.00     0.034 H 
ATOM     28  HB2 PHE d   1       4.713  -3.498  -2.537  0.00  0.00     0.034 H 
BRANCH  26  29
ATOM     29  CG  PHE d   1       4.094  -1.496  -2.944  0.00  0.00    -0.045 A 
ATOM     30  CD1 PHE d   1       5.160  -0.834  -2.366  0.00  0.00    -0.059 A 
ATOM     31  CE1 PHE d   1       5.035   0.493  -2.002  0.00  0.00    -0.061 A 
ATOM     32  HD1 PHE d   1       6.092  -1.354  -2.200  0.00  0.00     0.062 H 
ATOM     33  CZ  PHE d   1       3.843   1.159  -2.216  0.00  0.00    -0.062 A 
ATOM     34  HE1 PHE d   1       5.870   1.010  -1.551  0.00  0.00     0.062 H 
ATOM     35  CE2 PHE d   1       2.776   0.497  -2.793  0.00  0.00    -0.061 A 
ATOM     36  HZ  PHE d   1       3.746   2.196  -1.931  0.00  0.00     0.062 H 
ATOM     37  CD2 PHE d   1       2.902  -0.829  -3.163  0.00  0.00    -0.059 A 
ATOM     38  HE2 PHE d   1       1.844   1.018  -2.960  0.00  0.00     0.062 H 
ATOM     39  HD2 PHE d   1       2.070  -1.345  -3.618  0.00  0.00     0.062 H 
ENDBRANCH  26  29
ENDBRANCH  20  26
ENDBRANCH  14  17
ENDBRANCH   2  14
BRANCH   1  40
ATOM     40  C   UNK d   0       6.048  -1.252  -9.716  0.00  0.00    -0.038 C 
ATOM     41  H   UNK d   0       6.399  -2.094  -9.119  0.00  0.00     0.028 H 
ATOM     42  H   UNK d   0       5.971  -1.556 -10.760  0.00  0.00     0.028 H 
ATOM     43  H   UNK d   0       6.753  -0.426  -9.629  0.00  0.00     0.028 H 
ENDBRANCH   1  40
BRANCH   8  44
ATOM     44  O   UNK d   0       4.855  -1.860 -11.825  0.00  0.00    -0.494 OA
BRANCH  44  45
ATOM     45  C   UNK d   0       4.848  -2.627 -13.030  0.00  0.00     0.079 C 
ATOM     46  H   UNK d   0       3.859  -2.581 -13.485  0.00  0.00     0.066 H 
ATOM     47  H   UNK d   0       5.586  -2.222 -13.724  0.00  0.00     0.066 H 
ATOM     48  H   UNK d   0       5.096  -3.664 -12.803  0.00  0.00     0.066 H 
ENDBRANCH  44  45
ENDBRANCH   8  44
BRANCH  10  49
ATOM     49  O   UNK d   0       0.187  -1.227 -12.434  0.00  0.00    -0.495 OA
BRANCH  49  50
ATOM     50  C   UNK d   0      -0.025  -2.475 -13.098  0.00  0.00     0.079 C 
ATOM     51  H   UNK d   0       0.220  -3.293 -12.420  0.00  0.00     0.066 H 
ATOM     52  H   UNK d   0      -1.069  -2.554 -13.399  0.00  0.00     0.066 H 
ATOM     53  H   UNK d   0       0.613  -2.530 -13.980  0.00  0.00     0.066 H 
ENDBRANCH  49  50
ENDBRANCH  10  49
TORSDOF 11
ENDMDL
MODEL 4
REMARK VINA RESULT:      -6.7      3.448      6.357
REMARK  9 active torsions:
REMARK  status: ('A' for Active; 'I' for Inactive)
REMARK    1  A    between atoms: C_1  and  C_2 
REMARK    2  A    between atoms: C_3  and  C_17 
REMARK    3  A    between atoms: C_9  and  O_15 
REMARK    4  A    between atoms: C_11  and  O_13 
REMARK    5  A    between atoms: O_13  and  C_14 
REMARK    6  A    between atoms: O_15  and  C_16 
REMARK    7  A    between atoms: C_17  and  C_18 
REMARK       I    between atoms: C_18  and  N_20 
REMARK       I    between atoms: N_20  and  CA_21 
REMARK    8  A    between atoms: CA_21  and  CB_23 
REMARK       I    between atoms: CA_21  and  C_30 
REMARK    9  A    between atoms: CB_23  and  CG_24 
ROOT
ATOM      1  C   UNK d   0       5.230  -2.334  -7.119  0.00  0.00    -0.026 A 
ATOM      2  C   UNK d   0       4.799  -3.580  -7.443  0.00  0.00     0.049 A 
ATOM      3  C   UNK d   0       4.234  -4.407  -6.453  0.00  0.00     0.341 A 
ATOM      4  O   UNK d   0       3.853  -5.525  -6.751  0.00  0.00    -0.245 OA
ATOM      5  O   UNK d   0       4.108  -3.982  -5.183  0.00  0.00    -0.422 OA
ATOM      6  C   UNK d   0       4.520  -2.747  -4.822  0.00  0.00     0.146 A 
ATOM      7  C   UNK d   0       5.090  -1.888  -5.781  0.00  0.00     0.063 A 
ATOM      8  C   UNK d   0       5.519  -0.603  -5.402  0.00  0.00     0.135 A 
ATOM      9  C   UNK d   0       5.376  -0.196  -4.090  0.00  0.00     0.023 A 
ATOM     10  C   UNK d   0       4.811  -1.049  -3.149  0.00  0.00     0.127 A 
ATOM     11  C   UNK d   0       4.386  -2.317  -3.511  0.00  0.00     0.023 A 
ATOM     12  H   UNK d   0       5.704   0.791  -3.796  0.00  0.00     0.069 H 
ATOM     13  H   UNK d   0       3.949  -2.971  -2.772  0.00  0.00     0.069 H 
ENDROOT
BRANCH   2  14
ATOM     14  C   UNK d   0       4.930  -4.081  -8.859  0.00  0.00     0.056 C 
ATOM     15  H   UNK d   0       4.989  -5.169  -8.856  0.00  0.00     0.041 H 
ATOM     16  H   UNK d   0       5.835  -3.669  -9.307  0.00  0.00     0.041 H 
BRANCH  14  17
ATOM     17  C   UNK d   0       3.730  -3.644  -9.659  0.00  0.00     0.218 C 
ATOM     18  O   UNK d   0       2.642  -4.130  -9.435  0.00  0.00    -0.275 OA
ATOM     19  N   PHE d   1       3.866  -2.713 -10.624  0.00  0.00    -0.307 N 
ATOM     20  CA  PHE d   1       2.700  -2.288 -11.402  0.00  0.00     0.067 C 
ATOM     21  H   PHE d   1       4.737  -2.324 -10.803  0.00  0.00     0.149 HD
ATOM     22  HA  PHE d   1       1.817  -2.289 -10.762  0.00  0.00     0.056 H 
ATOM     23  C   PHE d   1       2.488  -3.239 -12.552  0.00  0.00     0.062 C 
ATOM     24  O   PHE d   1       3.236  -4.176 -12.705  0.00  0.00    -0.548 OA
ATOM     25  OXT PHE d   1       1.470  -3.046 -13.404  0.00  0.00    -0.548 OA
BRANCH  20  26
ATOM     26  CB  PHE d   1       2.935  -0.876 -11.945  0.00  0.00    -0.004 C 
ATOM     27  HB1 PHE d   1       3.839  -0.868 -12.555  0.00  0.00     0.034 H 
ATOM     28  HB2 PHE d   1       2.083  -0.574 -12.554  0.00  0.00     0.034 H 
BRANCH  26  29
ATOM     29  CG  PHE d   1       3.097   0.084 -10.794  0.00  0.00    -0.045 A 
ATOM     30  CD1 PHE d   1       3.926   1.182 -10.921  0.00  0.00    -0.059 A 
ATOM     31  CE1 PHE d   1       4.074   2.063  -9.866  0.00  0.00    -0.061 A 
ATOM     32  HD1 PHE d   1       4.459   1.352 -11.845  0.00  0.00     0.062 H 
ATOM     33  CZ  PHE d   1       3.390   1.846  -8.684  0.00  0.00    -0.062 A 
ATOM     34  HE1 PHE d   1       4.721   2.921  -9.966  0.00  0.00     0.062 H 
ATOM     35  CE2 PHE d   1       2.562   0.747  -8.557  0.00  0.00    -0.061 A 
ATOM     36  HZ  PHE d   1       3.506   2.534  -7.860  0.00  0.00     0.062 H 
ATOM     37  CD2 PHE d   1       2.410  -0.131  -9.614  0.00  0.00    -0.059 A 
ATOM     38  HE2 PHE d   1       2.028   0.577  -7.633  0.00  0.00     0.062 H 
ATOM     39  HD2 PHE d   1       1.758  -0.987  -9.516  0.00  0.00     0.062 H 
ENDBRANCH  26  29
ENDBRANCH  20  26
ENDBRANCH  14  17
ENDBRANCH   2  14
BRANCH   1  40
ATOM     40  C   UNK d   0       5.843  -1.439  -8.166  0.00  0.00    -0.038 C 
ATOM     41  H   UNK d   0       5.431  -0.434  -8.070  0.00  0.00     0.028 H 
ATOM     42  H   UNK d   0       6.923  -1.402  -8.026  0.00  0.00     0.028 H 
ATOM     43  H   UNK d   0       5.617  -1.830  -9.157  0.00  0.00     0.028 H 
ENDBRANCH   1  40
BRANCH   8  44
ATOM     44  O   UNK d   0       6.069   0.230  -6.321  0.00  0.00    -0.494 OA
BRANCH  44  45
ATOM     45  C   UNK d   0       7.365   0.755  -6.026  0.00  0.00     0.079 C 
ATOM     46  H   UNK d   0       7.535   0.722  -4.950  0.00  0.00     0.066 H 
ATOM     47  H   UNK d   0       8.124   0.158  -6.532  0.00  0.00     0.066 H 
ATOM     48  H   UNK d   0       7.426   1.787  -6.371  0.00  0.00     0.066 H 
ENDBRANCH  44  45
ENDBRANCH   8  44
BRANCH  10  49
ATOM     49  O   UNK d   0       4.676  -0.635  -1.862  0.00  0.00    -0.495 OA
BRANCH  49  50
ATOM     50  C   UNK d   0       4.612   0.775  -1.639  0.00  0.00     0.079 C 
ATOM     51  H   UNK d   0       5.416   1.073  -0.966  0.00  0.00     0.066 H 
ATOM     52  H   UNK d   0       4.721   1.298  -2.588  0.00  0.00     0.066 H 
ATOM     53  H   UNK d   0       3.651   1.028  -1.191  0.00  0.00     0.066 H 
ENDBRANCH  49  50
ENDBRANCH  10  49
TORSDOF 11
ENDMDL
MODEL 5
REMARK VINA RESULT:      -6.7      6.599      9.654
REMARK  9 active torsions:
REMARK  status: ('A' for Active; 'I' for Inactive)
REMARK    1  A    between atoms: C_1  and  C_2 
REMARK    2  A    between atoms: C_3  and  C_17 
REMARK    3  A    between atoms: C_9  and  O_15 
REMARK    4  A    between atoms: C_11  and  O_13 
REMARK    5  A    between atoms: O_13  and  C_14 
REMARK    6  A    between atoms: O_15  and  C_16 
REMARK    7  A    between atoms: C_17  and  C_18 
REMARK       I    between atoms: C_18  and  N_20 
REMARK       I    between atoms: N_20  and  CA_21 
REMARK    8  A    between atoms: CA_21  and  CB_23 
REMARK       I    between atoms: CA_21  and  C_30 
REMARK    9  A    between atoms: CB_23  and  CG_24 
ROOT
ATOM      1  C   UNK d   0       7.388  -7.968  -4.411  0.00  0.00    -0.026 A 
ATOM      2  C   UNK d   0       6.197  -8.027  -5.063  0.00  0.00     0.049 A 
ATOM      3  C   UNK d   0       5.222  -8.961  -4.660  0.00  0.00     0.341 A 
ATOM      4  O   UNK d   0       4.159  -9.010  -5.253  0.00  0.00    -0.245 OA
ATOM      5  O   UNK d   0       5.446  -9.798  -3.633  0.00  0.00    -0.422 OA
ATOM      6  C   UNK d   0       6.615  -9.767  -2.956  0.00  0.00     0.146 A 
ATOM      7  C   UNK d   0       7.617  -8.849  -3.324  0.00  0.00     0.063 A 
ATOM      8  C   UNK d   0       8.833  -8.820  -2.619  0.00  0.00     0.135 A 
ATOM      9  C   UNK d   0       9.033  -9.692  -1.568  0.00  0.00     0.023 A 
ATOM     10  C   UNK d   0       8.039 -10.596  -1.208  0.00  0.00     0.127 A 
ATOM     11  C   UNK d   0       6.837 -10.634  -1.897  0.00  0.00     0.023 A 
ATOM     12  H   UNK d   0       9.966  -9.672  -1.023  0.00  0.00     0.069 H 
ATOM     13  H   UNK d   0       6.073 -11.340  -1.610  0.00  0.00     0.069 H 
ENDROOT
BRANCH   2  14
ATOM     14  C   UNK d   0       5.922  -7.100  -6.219  0.00  0.00     0.056 C 
ATOM     15  H   UNK d   0       5.246  -7.586  -6.922  0.00  0.00     0.041 H 
ATOM     16  H   UNK d   0       6.860  -6.859  -6.722  0.00  0.00     0.041 H 
BRANCH  14  17
ATOM     17  C   UNK d   0       5.288  -5.833  -5.706  0.00  0.00     0.218 C 
ATOM     18  O   UNK d   0       4.106  -5.811  -5.439  0.00  0.00    -0.275 OA
ATOM     19  N   PHE d   1       6.036  -4.723  -5.544  0.00  0.00    -0.307 N 
ATOM     20  CA  PHE d   1       5.420  -3.491  -5.045  0.00  0.00     0.067 C 
ATOM     21  H   PHE d   1       6.982  -4.740  -5.757  0.00  0.00     0.149 HD
ATOM     22  HA  PHE d   1       4.646  -3.740  -4.320  0.00  0.00     0.056 H 
ATOM     23  C   PHE d   1       4.807  -2.734  -6.196  0.00  0.00     0.062 C 
ATOM     24  O   PHE d   1       4.877  -3.179  -7.317  0.00  0.00    -0.548 OA
ATOM     25  OXT PHE d   1       4.182  -1.567  -5.974  0.00  0.00    -0.548 OA
BRANCH  20  26
ATOM     26  CB  PHE d   1       6.487  -2.622  -4.375  0.00  0.00    -0.004 C 
ATOM     27  HB1 PHE d   1       7.146  -3.252  -3.778  0.00  0.00     0.034 H 
ATOM     28  HB2 PHE d   1       7.069  -2.108  -5.139  0.00  0.00     0.034 H 
BRANCH  26  29
ATOM     29  CG  PHE d   1       5.820  -1.607  -3.483  0.00  0.00    -0.045 A 
ATOM     30  CD1 PHE d   1       4.787  -1.992  -2.649  0.00  0.00    -0.059 A 
ATOM     31  CE1 PHE d   1       4.176  -1.061  -1.830  0.00  0.00    -0.061 A 
ATOM     32  HD1 PHE d   1       4.459  -3.020  -2.636  0.00  0.00     0.062 H 
ATOM     33  CZ  PHE d   1       4.598   0.255  -1.845  0.00  0.00    -0.062 A 
ATOM     34  HE1 PHE d   1       3.370  -1.362  -1.177  0.00  0.00     0.062 H 
ATOM     35  CE2 PHE d   1       5.630   0.641  -2.680  0.00  0.00    -0.061 A 
ATOM     36  HZ  PHE d   1       4.120   0.983  -1.206  0.00  0.00     0.062 H 
ATOM     37  CD2 PHE d   1       6.245  -0.292  -3.495  0.00  0.00    -0.059 A 
ATOM     38  HE2 PHE d   1       5.959   1.670  -2.692  0.00  0.00     0.062 H 
ATOM     39  HD2 PHE d   1       7.055   0.009  -4.144  0.00  0.00     0.062 H 
ENDBRANCH  26  29
ENDBRANCH  20  26
ENDBRANCH  14  17
ENDBRANCH   2  14
BRANCH   1  40
ATOM     40  C   UNK d   0       8.444  -6.979  -4.833  0.00  0.00    -0.038 C 
ATOM     41  H   UNK d   0       8.126  -5.972  -4.564  0.00  0.00     0.028 H 
ATOM     42  H   UNK d   0       9.381  -7.211  -4.327  0.00  0.00     0.028 H 
ATOM     43  H   UNK d   0       8.588  -7.039  -5.911  0.00  0.00     0.028 H 
ENDBRANCH   1  40
BRANCH   8  44
ATOM     44  O   UNK d   0       9.803  -7.938  -2.969  0.00  0.00    -0.494 OA
BRANCH  44  45
ATOM     45  C   UNK d   0      10.457  -7.239  -1.908  0.00  0.00     0.079 C 
ATOM     46  H   UNK d   0      10.697  -7.937  -1.107  0.00  0.00     0.066 H 
ATOM     47  H   UNK d   0      11.375  -6.785  -2.283  0.00  0.00     0.066 H 
ATOM     48  H   UNK d   0       9.798  -6.460  -1.525  0.00  0.00     0.066 H 
ENDBRANCH  44  45
ENDBRANCH   8  44
BRANCH  10  49
ATOM     49  O   UNK d   0       8.248 -11.449  -0.172  0.00  0.00    -0.495 OA
BRANCH  49  50
ATOM     50  C   UNK d   0       9.604 -11.662   0.227  0.00  0.00     0.079 C 
ATOM     51  H   UNK d   0      10.267 -11.070  -0.406  0.00  0.00     0.066 H 
ATOM     52  H   UNK d   0       9.729 -11.359   1.265  0.00  0.00     0.066 H 
ATOM     53  H   UNK d   0       9.852 -12.719   0.124  0.00  0.00     0.066 H 
ENDBRANCH  49  50
ENDBRANCH  10  49
TORSDOF 11
ENDMDL
MODEL 6
REMARK VINA RESULT:      -6.5      6.634     10.005
REMARK  9 active torsions:
REMARK  status: ('A' for Active; 'I' for Inactive)
REMARK    1  A    between atoms: C_1  and  C_2 
REMARK    2  A    between atoms: C_3  and  C_17 
REMARK    3  A    between atoms: C_9  and  O_15 
REMARK    4  A    between atoms: C_11  and  O_13 
REMARK    5  A    between atoms: O_13  and  C_14 
REMARK    6  A    between atoms: O_15  and  C_16 
REMARK    7  A    between atoms: C_17  and  C_18 
REMARK       I    between atoms: C_18  and  N_20 
REMARK       I    between atoms: N_20  and  CA_21 
REMARK    8  A    between atoms: CA_21  and  CB_23 
REMARK       I    between atoms: CA_21  and  C_30 
REMARK    9  A    between atoms: CB_23  and  CG_24 
ROOT
ATOM      1  C   UNK d   0       5.954  -8.578  -4.975  0.00  0.00    -0.026 A 
ATOM      2  C   UNK d   0       6.746  -7.524  -5.308  0.00  0.00     0.049 A 
ATOM      3  C   UNK d   0       7.909  -7.257  -4.560  0.00  0.00     0.341 A 
ATOM      4  O   UNK d   0       8.611  -6.308  -4.863  0.00  0.00    -0.245 OA
ATOM      5  O   UNK d   0       8.257  -8.031  -3.518  0.00  0.00    -0.422 OA
ATOM      6  C   UNK d   0       7.500  -9.091  -3.159  0.00  0.00     0.146 A 
ATOM      7  C   UNK d   0       6.329  -9.395  -3.879  0.00  0.00     0.063 A 
ATOM      8  C   UNK d   0       5.542 -10.497  -3.502  0.00  0.00     0.135 A 
ATOM      9  C   UNK d   0       5.927 -11.274  -2.427  0.00  0.00     0.023 A 
ATOM     10  C   UNK d   0       7.085 -10.969  -1.720  0.00  0.00     0.127 A 
ATOM     11  C   UNK d   0       7.868  -9.884  -2.083  0.00  0.00     0.023 A 
ATOM     12  H   UNK d   0       5.325 -12.123  -2.135  0.00  0.00     0.069 H 
ATOM     13  H   UNK d   0       8.764  -9.656  -1.527  0.00  0.00     0.069 H 
ENDROOT
BRANCH   2  14
ATOM     14  C   UNK d   0       6.376  -6.640  -6.472  0.00  0.00     0.056 C 
ATOM     15  H   UNK d   0       5.725  -7.189  -7.152  0.00  0.00     0.041 H 
ATOM     16  H   UNK d   0       7.281  -6.337  -6.999  0.00  0.00     0.041 H 
BRANCH  14  17
ATOM     17  C   UNK d   0       5.657  -5.417  -5.964  0.00  0.00     0.218 C 
ATOM     18  O   UNK d   0       4.466  -5.462  -5.743  0.00  0.00    -0.275 OA
ATOM     19  N   PHE d   1       6.339  -4.273  -5.756  0.00  0.00    -0.307 N 
ATOM     20  CA  PHE d   1       5.640  -3.084  -5.262  0.00  0.00     0.067 C 
ATOM     21  H   PHE d   1       7.292  -4.238  -5.932  0.00  0.00     0.149 HD
ATOM     22  HA  PHE d   1       4.853  -3.386  -4.571  0.00  0.00     0.056 H 
ATOM     23  C   PHE d   1       5.032  -2.340  -6.424  0.00  0.00     0.062 C 
ATOM     24  O   PHE d   1       5.168  -2.760  -7.548  0.00  0.00    -0.548 OA
ATOM     25  OXT PHE d   1       4.339  -1.211  -6.208  0.00  0.00    -0.548 OA
BRANCH  20  26
ATOM     26  CB  PHE d   1       6.633  -2.173  -4.537  0.00  0.00    -0.004 C 
ATOM     27  HB1 PHE d   1       7.361  -2.782  -4.001  0.00  0.00     0.034 H 
ATOM     28  HB2 PHE d   1       7.150  -1.547  -5.265  0.00  0.00     0.034 H 
BRANCH  26  29
ATOM     29  CG  PHE d   1       5.891  -1.299  -3.559  0.00  0.00    -0.045 A 
ATOM     30  CD1 PHE d   1       6.166   0.054  -3.494  0.00  0.00    -0.059 A 
ATOM     31  CE1 PHE d   1       5.485   0.856  -2.597  0.00  0.00    -0.061 A 
ATOM     32  HD1 PHE d   1       6.913   0.485  -4.144  0.00  0.00     0.062 H 
ATOM     33  CZ  PHE d   1       4.528   0.305  -1.766  0.00  0.00    -0.062 A 
ATOM     34  HE1 PHE d   1       5.700   1.913  -2.547  0.00  0.00     0.062 H 
ATOM     35  CE2 PHE d   1       4.254  -1.049  -1.830  0.00  0.00    -0.061 A 
ATOM     36  HZ  PHE d   1       3.996   0.931  -1.065  0.00  0.00     0.062 H 
ATOM     37  CD2 PHE d   1       4.931  -1.850  -2.731  0.00  0.00    -0.059 A 
ATOM     38  HE2 PHE d   1       3.505  -1.479  -1.181  0.00  0.00     0.062 H 
ATOM     39  HD2 PHE d   1       4.713  -2.906  -2.785  0.00  0.00     0.062 H 
ENDBRANCH  26  29
ENDBRANCH  20  26
ENDBRANCH  14  17
ENDBRANCH   2  14
BRANCH   1  40
ATOM     40  C   UNK d   0       4.703  -8.875  -5.761  0.00  0.00    -0.038 C 
ATOM     41  H   UNK d   0       4.327  -9.860  -5.485  0.00  0.00     0.028 H 
ATOM     42  H   UNK d   0       3.947  -8.122  -5.538  0.00  0.00     0.028 H 
ATOM     43  H   UNK d   0       4.930  -8.858  -6.826  0.00  0.00     0.028 H 
ENDBRANCH   1  40
BRANCH   8  44
ATOM     44  O   UNK d   0       4.413 -10.796  -4.192  0.00  0.00    -0.494 OA
BRANCH  44  45
ATOM     45  C   UNK d   0       3.219 -10.984  -3.430  0.00  0.00     0.079 C 
ATOM     46  H   UNK d   0       3.317 -11.878  -2.815  0.00  0.00     0.066 H 
ATOM     47  H   UNK d   0       3.055 -10.117  -2.789  0.00  0.00     0.066 H 
ATOM     48  H   UNK d   0       2.371 -11.100  -4.106  0.00  0.00     0.066 H 
ENDBRANCH  44  45
ENDBRANCH   8  44
BRANCH  10  49
ATOM     49  O   UNK d   0       7.452 -11.741  -0.665  0.00  0.00    -0.495 OA
BRANCH  49  50
ATOM     50  C   UNK d   0       7.386 -13.158  -0.846  0.00  0.00     0.079 C 
ATOM     51  H   UNK d   0       8.243 -13.489  -1.434  0.00  0.00     0.066 H 
ATOM     52  H   UNK d   0       7.403 -13.648   0.126  0.00  0.00     0.066 H 
ATOM     53  H   UNK d   0       6.465 -13.415  -1.368  0.00  0.00     0.066 H 
ENDBRANCH  49  50
ENDBRANCH  10  49
TORSDOF 11
ENDMDL
MODEL 7
REMARK VINA RESULT:      -6.5      4.153      8.206
REMARK  9 active torsions:
REMARK  status: ('A' for Active; 'I' for Inactive)
REMARK    1  A    between atoms: C_1  and  C_2 
REMARK    2  A    between atoms: C_3  and  C_17 
REMARK    3  A    between atoms: C_9  and  O_15 
REMARK    4  A    between atoms: C_11  and  O_13 
REMARK    5  A    between atoms: O_13  and  C_14 
REMARK    6  A    between atoms: O_15  and  C_16 
REMARK    7  A    between atoms: C_17  and  C_18 
REMARK       I    between atoms: C_18  and  N_20 
REMARK       I    between atoms: N_20  and  CA_21 
REMARK    8  A    between atoms: CA_21  and  CB_23 
REMARK       I    between atoms: CA_21  and  C_30 
REMARK    9  A    between atoms: CB_23  and  CG_24 
ROOT
ATOM      1  C   UNK d   0       3.290  -1.653  -8.833  0.00  0.00    -0.026 A 
ATOM      2  C   UNK d   0       3.510  -0.332  -8.602  0.00  0.00     0.049 A 
ATOM      3  C   UNK d   0       2.861   0.636  -9.394  0.00  0.00     0.341 A 
ATOM      4  O   UNK d   0       3.067   1.818  -9.183  0.00  0.00    -0.245 OA
ATOM      5  O   UNK d   0       2.018   0.276 -10.377  0.00  0.00    -0.422 OA
ATOM      6  C   UNK d   0       1.769  -1.026 -10.634  0.00  0.00     0.146 A 
ATOM      7  C   UNK d   0       2.396  -2.027  -9.868  0.00  0.00     0.063 A 
ATOM      8  C   UNK d   0       2.136  -3.382 -10.138  0.00  0.00     0.135 A 
ATOM      9  C   UNK d   0       1.265  -3.719 -11.155  0.00  0.00     0.023 A 
ATOM     10  C   UNK d   0       0.648  -2.726 -11.909  0.00  0.00     0.127 A 
ATOM     11  C   UNK d   0       0.898  -1.387 -11.651  0.00  0.00     0.023 A 
ATOM     12  H   UNK d   0       1.062  -4.760 -11.366  0.00  0.00     0.069 H 
ATOM     13  H   UNK d   0       0.415  -0.625 -12.242  0.00  0.00     0.069 H 
ENDROOT
BRANCH   2  14
ATOM     14  C   UNK d   0       4.451   0.096  -7.506  0.00  0.00     0.056 C 
ATOM     15  H   UNK d   0       4.847   1.087  -7.732  0.00  0.00     0.041 H 
ATOM     16  H   UNK d   0       5.274  -0.616  -7.434  0.00  0.00     0.041 H 
BRANCH  14  17
ATOM     17  C   UNK d   0       3.709   0.139  -6.195  0.00  0.00     0.218 C 
ATOM     18  O   UNK d   0       2.682   0.776  -6.100  0.00  0.00    -0.275 OA
ATOM     19  N   PHE d   1       4.187  -0.531  -5.128  0.00  0.00    -0.307 N 
ATOM     20  CA  PHE d   1       3.465  -0.490  -3.854  0.00  0.00     0.067 C 
ATOM     21  H   PHE d   1       5.009  -1.041  -5.204  0.00  0.00     0.149 HD
ATOM     22  HA  PHE d   1       2.393  -0.458  -4.045  0.00  0.00     0.056 H 
ATOM     23  C   PHE d   1       3.876   0.739  -3.083  0.00  0.00     0.062 C 
ATOM     24  O   PHE d   1       4.688   1.501  -3.551  0.00  0.00    -0.548 OA
ATOM     25  OXT PHE d   1       3.339   0.985  -1.878  0.00  0.00    -0.548 OA
BRANCH  20  26
ATOM     26  CB  PHE d   1       3.802  -1.740  -3.037  0.00  0.00    -0.004 C 
ATOM     27  HB1 PHE d   1       3.963  -1.461  -1.995  0.00  0.00     0.034 H 
ATOM     28  HB2 PHE d   1       2.976  -2.448  -3.100  0.00  0.00     0.034 H 
BRANCH  26  29
ATOM     29  CG  PHE d   1       5.053  -2.376  -3.585  0.00  0.00    -0.045 A 
ATOM     30  CD1 PHE d   1       6.294  -1.904  -3.203  0.00  0.00    -0.059 A 
ATOM     31  CE1 PHE d   1       7.442  -2.488  -3.705  0.00  0.00    -0.061 A 
ATOM     32  HD1 PHE d   1       6.367  -1.078  -2.510  0.00  0.00     0.062 H 
ATOM     33  CZ  PHE d   1       7.348  -3.546  -4.590  0.00  0.00    -0.062 A 
ATOM     34  HE1 PHE d   1       8.411  -2.119  -3.405  0.00  0.00     0.062 H 
ATOM     35  CE2 PHE d   1       6.107  -4.018  -4.974  0.00  0.00    -0.061 A 
ATOM     36  HZ  PHE d   1       8.245  -4.002  -4.983  0.00  0.00     0.062 H 
ATOM     37  CD2 PHE d   1       4.959  -3.437  -4.467  0.00  0.00    -0.059 A 
ATOM     38  HE2 PHE d   1       6.034  -4.844  -5.666  0.00  0.00     0.062 H 
ATOM     39  HD2 PHE d   1       3.989  -3.809  -4.763  0.00  0.00     0.062 H 
ENDBRANCH  26  29
ENDBRANCH  20  26
ENDBRANCH  14  17
ENDBRANCH   2  14
BRANCH   1  40
ATOM     40  C   UNK d   0       3.981  -2.702  -8.000  0.00  0.00    -0.038 C 
ATOM     41  H   UNK d   0       4.504  -2.222  -7.173  0.00  0.00     0.028 H 
ATOM     42  H   UNK d   0       3.240  -3.398  -7.604  0.00  0.00     0.028 H 
ATOM     43  H   UNK d   0       4.697  -3.244  -8.617  0.00  0.00     0.028 H 
ENDBRANCH   1  40
BRANCH   8  44
ATOM     44  O   UNK d   0       2.736  -4.351  -9.403  0.00  0.00    -0.494 OA
BRANCH  44  45
ATOM     45  C   UNK d   0       2.450  -5.705  -9.758  0.00  0.00     0.079 C 
ATOM     46  H   UNK d   0       2.988  -5.964 -10.669  0.00  0.00     0.066 H 
ATOM     47  H   UNK d   0       2.763  -6.368  -8.951  0.00  0.00     0.066 H 
ATOM     48  H   UNK d   0       1.378  -5.819  -9.924  0.00  0.00     0.066 H 
ENDBRANCH  44  45
ENDBRANCH   8  44
BRANCH  10  49
ATOM     49  O   UNK d   0      -0.206  -3.072 -12.906  0.00  0.00    -0.495 OA
BRANCH  49  50
ATOM     50  C   UNK d   0      -0.360  -4.468 -13.172  0.00  0.00     0.079 C 
ATOM     51  H   UNK d   0       0.308  -5.037 -12.524  0.00  0.00     0.066 H 
ATOM     52  H   UNK d   0      -1.391  -4.762 -12.979  0.00  0.00     0.066 H 
ATOM     53  H   UNK d   0      -0.113  -4.668 -14.215  0.00  0.00     0.066 H 
ENDBRANCH  49  50
ENDBRANCH  10  49
TORSDOF 11
ENDMDL
MODEL 8
REMARK VINA RESULT:      -6.4      2.599      4.134
REMARK  9 active torsions:
REMARK  status: ('A' for Active; 'I' for Inactive)
REMARK    1  A    between atoms: C_1  and  C_2 
REMARK    2  A    between atoms: C_3  and  C_17 
REMARK    3  A    between atoms: C_9  and  O_15 
REMARK    4  A    between atoms: C_11  and  O_13 
REMARK    5  A    between atoms: O_13  and  C_14 
REMARK    6  A    between atoms: O_15  and  C_16 
REMARK    7  A    between atoms: C_17  and  C_18 
REMARK       I    between atoms: C_18  and  N_20 
REMARK       I    between atoms: N_20  and  CA_21 
REMARK    8  A    between atoms: CA_21  and  CB_23 
REMARK       I    between atoms: CA_21  and  C_30 
REMARK    9  A    between atoms: CB_23  and  CG_24 
ROOT
ATOM      1  C   UNK d   0       9.641   3.966  -6.152  0.00  0.00    -0.026 A 
ATOM      2  C   UNK d   0       9.599   3.024  -5.174  0.00  0.00     0.049 A 
ATOM      3  C   UNK d   0       9.581   3.415  -3.822  0.00  0.00     0.341 A 
ATOM      4  O   UNK d   0       9.548   2.563  -2.951  0.00  0.00    -0.245 OA
ATOM      5  O   UNK d   0       9.599   4.714  -3.475  0.00  0.00    -0.422 OA
ATOM      6  C   UNK d   0       9.634   5.682  -4.417  0.00  0.00     0.146 A 
ATOM      7  C   UNK d   0       9.653   5.335  -5.782  0.00  0.00     0.063 A 
ATOM      8  C   UNK d   0       9.691   6.344  -6.760  0.00  0.00     0.135 A 
ATOM      9  C   UNK d   0       9.708   7.669  -6.372  0.00  0.00     0.023 A 
ATOM     10  C   UNK d   0       9.689   8.006  -5.023  0.00  0.00     0.127 A 
ATOM     11  C   UNK d   0       9.652   7.019  -4.050  0.00  0.00     0.023 A 
ATOM     12  H   UNK d   0       9.737   8.448  -7.121  0.00  0.00     0.069 H 
ATOM     13  H   UNK d   0       9.637   7.291  -3.006  0.00  0.00     0.069 H 
ENDROOT
BRANCH   2  14
ATOM     14  C   UNK d   0       9.580   1.560  -5.537  0.00  0.00     0.056 C 
ATOM     15  H   UNK d   0      10.291   1.021  -4.911  0.00  0.00     0.041 H 
ATOM     16  H   UNK d   0       9.855   1.443  -6.586  0.00  0.00     0.041 H 
BRANCH  14  17
ATOM     17  C   UNK d   0       8.196   1.007  -5.316  0.00  0.00     0.218 C 
ATOM     18  O   UNK d   0       7.309   1.259  -6.104  0.00  0.00    -0.275 OA
ATOM     19  N   PHE d   1       7.944   0.232  -4.243  0.00  0.00    -0.307 N 
ATOM     20  CA  PHE d   1       6.598  -0.307  -4.028  0.00  0.00     0.067 C 
ATOM     21  H   PHE d   1       8.654   0.030  -3.613  0.00  0.00     0.149 HD
ATOM     22  HA  PHE d   1       6.142  -0.538  -4.990  0.00  0.00     0.056 H 
ATOM     23  C   PHE d   1       5.758   0.716  -3.305  0.00  0.00     0.062 C 
ATOM     24  O   PHE d   1       6.234   1.783  -3.002  0.00  0.00    -0.548 OA
ATOM     25  OXT PHE d   1       4.481   0.439  -3.000  0.00  0.00    -0.548 OA
BRANCH  20  26
ATOM     26  CB  PHE d   1       6.687  -1.581  -3.185  0.00  0.00    -0.004 C 
ATOM     27  HB1 PHE d   1       7.684  -1.661  -2.752  0.00  0.00     0.034 H 
ATOM     28  HB2 PHE d   1       5.947  -1.540  -2.386  0.00  0.00     0.034 H 
BRANCH  26  29
ATOM     29  CG  PHE d   1       6.420  -2.780  -4.058  0.00  0.00    -0.045 A 
ATOM     30  CD1 PHE d   1       5.123  -3.108  -4.403  0.00  0.00    -0.059 A 
ATOM     31  CE1 PHE d   1       4.878  -4.208  -5.205  0.00  0.00    -0.061 A 
ATOM     32  HD1 PHE d   1       4.301  -2.506  -4.048  0.00  0.00     0.062 H 
ATOM     33  CZ  PHE d   1       5.931  -4.978  -5.661  0.00  0.00    -0.062 A 
ATOM     34  HE1 PHE d   1       3.865  -4.463  -5.476  0.00  0.00     0.062 H 
ATOM     35  CE2 PHE d   1       7.229  -4.651  -5.314  0.00  0.00    -0.061 A 
ATOM     36  HZ  PHE d   1       5.740  -5.838  -6.287  0.00  0.00     0.062 H 
ATOM     37  CD2 PHE d   1       7.474  -3.548  -4.517  0.00  0.00    -0.059 A 
ATOM     38  HE2 PHE d   1       8.051  -5.253  -5.671  0.00  0.00     0.062 H 
ATOM     39  HD2 PHE d   1       8.488  -3.289  -4.251  0.00  0.00     0.062 H 
ENDBRANCH  26  29
ENDBRANCH  20  26
ENDBRANCH  14  17
ENDBRANCH   2  14
BRANCH   1  40
ATOM     40  C   UNK d   0       9.667   3.564  -7.604  0.00  0.00    -0.038 C 
ATOM     41  H   UNK d   0      10.168   4.338  -8.186  0.00  0.00     0.028 H 
ATOM     42  H   UNK d   0      10.207   2.623  -7.711  0.00  0.00     0.028 H 
ATOM     43  H   UNK d   0       8.647   3.442  -7.966  0.00  0.00     0.028 H 
ENDBRANCH   1  40
BRANCH   8  44
ATOM     44  O   UNK d   0       9.710   6.017  -8.076  0.00  0.00    -0.494 OA
BRANCH  44  45
ATOM     45  C   UNK d   0       9.192   6.983  -8.992  0.00  0.00     0.079 C 
ATOM     46  H   UNK d   0       9.488   6.719 -10.006  0.00  0.00     0.066 H 
ATOM     47  H   UNK d   0       8.104   7.003  -8.924  0.00  0.00     0.066 H 
ATOM     48  H   UNK d   0       9.587   7.968  -8.743  0.00  0.00     0.066 H 
ENDBRANCH  44  45
ENDBRANCH   8  44
BRANCH  10  49
ATOM     49  O   UNK d   0       9.706   9.313  -4.656  0.00  0.00    -0.495 OA
BRANCH  49  50
ATOM     50  C   UNK d   0       9.591  10.281  -5.701  0.00  0.00     0.079 C 
ATOM     51  H   UNK d   0      10.586  10.622  -5.990  0.00  0.00     0.066 H 
ATOM     52  H   UNK d   0       9.098   9.830  -6.561  0.00  0.00     0.066 H 
ATOM     53  H   UNK d   0       9.004  11.129  -5.348  0.00  0.00     0.066 H 
ENDBRANCH  49  50
ENDBRANCH  10  49
TORSDOF 11
ENDMDL
MODEL 9
REMARK VINA RESULT:      -6.3      2.599      4.778
REMARK  9 active torsions:
REMARK  status: ('A' for Active; 'I' for Inactive)
REMARK    1  A    between atoms: C_1  and  C_2 
REMARK    2  A    between atoms: C_3  and  C_17 
REMARK    3  A    between atoms: C_9  and  O_15 
REMARK    4  A    between atoms: C_11  and  O_13 
REMARK    5  A    between atoms: O_13  and  C_14 
REMARK    6  A    between atoms: O_15  and  C_16 
REMARK    7  A    between atoms: C_17  and  C_18 
REMARK       I    between atoms: C_18  and  N_20 
REMARK       I    between atoms: N_20  and  CA_21 
REMARK    8  A    between atoms: CA_21  and  CB_23 
REMARK       I    between atoms: CA_21  and  C_30 
REMARK    9  A    between atoms: CB_23  and  CG_24 
ROOT
ATOM      1  C   UNK d   0       9.828   3.598  -4.380  0.00  0.00    -0.026 A 
ATOM      2  C   UNK d   0       9.726   2.921  -5.553  0.00  0.00     0.049 A 
ATOM      3  C   UNK d   0       9.615   3.630  -6.765  0.00  0.00     0.341 A 
ATOM      4  O   UNK d   0       9.520   3.015  -7.813  0.00  0.00    -0.245 OA
ATOM      5  O   UNK d   0       9.612   4.974  -6.785  0.00  0.00    -0.422 OA
ATOM      6  C   UNK d   0       9.716   5.684  -5.640  0.00  0.00     0.146 A 
ATOM      7  C   UNK d   0       9.830   5.015  -4.406  0.00  0.00     0.063 A 
ATOM      8  C   UNK d   0       9.937   5.756  -3.216  0.00  0.00     0.135 A 
ATOM      9  C   UNK d   0       9.932   7.136  -3.269  0.00  0.00     0.023 A 
ATOM     10  C   UNK d   0       9.820   7.791  -4.491  0.00  0.00     0.127 A 
ATOM     11  C   UNK d   0       9.712   7.070  -5.670  0.00  0.00     0.023 A 
ATOM     12  H   UNK d   0      10.014   7.709  -2.356  0.00  0.00     0.069 H 
ATOM     13  H   UNK d   0       9.625   7.588  -6.613  0.00  0.00     0.069 H 
ENDROOT
BRANCH   2  14
ATOM     14  C   UNK d   0       9.726   1.413  -5.558  0.00  0.00     0.056 C 
ATOM     15  H   UNK d   0      10.369   1.048  -4.757  0.00  0.00     0.041 H 
ATOM     16  H   UNK d   0      10.099   1.053  -6.517  0.00  0.00     0.041 H 
BRANCH  14  17
ATOM     17  C   UNK d   0       8.322   0.911  -5.344  0.00  0.00     0.218 C 
ATOM     18  O   UNK d   0       7.451   1.184  -6.143  0.00  0.00    -0.275 OA
ATOM     19  N   PHE d   1       8.033   0.158  -4.264  0.00  0.00    -0.307 N 
ATOM     20  CA  PHE d   1       6.667  -0.331  -4.056  0.00  0.00     0.067 C 
ATOM     21  H   PHE d   1       8.729  -0.061  -3.625  0.00  0.00     0.149 HD
ATOM     22  HA  PHE d   1       6.212  -0.558  -5.019  0.00  0.00     0.056 H 
ATOM     23  C   PHE d   1       5.856   0.728  -3.353  0.00  0.00     0.062 C 
ATOM     24  O   PHE d   1       6.367   1.782  -3.058  0.00  0.00    -0.548 OA
ATOM     25  OXT PHE d   1       4.567   0.499  -3.057  0.00  0.00    -0.548 OA
BRANCH  20  26
ATOM     26  CB  PHE d   1       6.704  -1.597  -3.197  0.00  0.00    -0.004 C 
ATOM     27  HB1 PHE d   1       7.687  -1.697  -2.739  0.00  0.00     0.034 H 
ATOM     28  HB2 PHE d   1       5.945  -1.531  -2.419  0.00  0.00     0.034 H 
BRANCH  26  29
ATOM     29  CG  PHE d   1       6.430  -2.799  -4.065  0.00  0.00    -0.045 A 
ATOM     30  CD1 PHE d   1       7.479  -3.573  -4.525  0.00  0.00    -0.059 A 
ATOM     31  CE1 PHE d   1       7.227  -4.676  -5.319  0.00  0.00    -0.061 A 
ATOM     32  HD1 PHE d   1       8.495  -3.317  -4.263  0.00  0.00     0.062 H 
ATOM     33  CZ  PHE d   1       5.927  -5.006  -5.653  0.00  0.00    -0.062 A 
ATOM     34  HE1 PHE d   1       8.047  -5.281  -5.677  0.00  0.00     0.062 H 
ATOM     35  CE2 PHE d   1       4.878  -4.231  -5.194  0.00  0.00    -0.061 A 
ATOM     36  HZ  PHE d   1       5.731  -5.867  -6.274  0.00  0.00     0.062 H 
ATOM     37  CD2 PHE d   1       5.129  -3.131  -4.394  0.00  0.00    -0.059 A 
ATOM     38  HE2 PHE d   1       3.862  -4.488  -5.456  0.00  0.00     0.062 H 
ATOM     39  HD2 PHE d   1       4.310  -2.529  -4.032  0.00  0.00     0.062 H 
ENDBRANCH  26  29
ENDBRANCH  20  26
ENDBRANCH  14  17
ENDBRANCH   2  14
BRANCH   1  40
ATOM     40  C   UNK d   0       9.941   2.855  -3.074  0.00  0.00    -0.038 C 
ATOM     41  H   UNK d   0       9.085   3.095  -2.444  0.00  0.00     0.028 H 
ATOM     42  H   UNK d   0       9.960   1.782  -3.266  0.00  0.00     0.028 H 
ATOM     43  H   UNK d   0      10.859   3.150  -2.566  0.00  0.00     0.028 H 
ENDBRANCH   1  40
BRANCH   8  44
ATOM     44  O   UNK d   0      10.047   5.118  -2.024  0.00  0.00    -0.494 OA
BRANCH  44  45
ATOM     45  C   UNK d   0      10.578   5.872  -0.932  0.00  0.00     0.079 C 
ATOM     46  H   UNK d   0       9.778   6.439  -0.458  0.00  0.00     0.066 H 
ATOM     47  H   UNK d   0      11.024   5.194  -0.203  0.00  0.00     0.066 H 
ATOM     48  H   UNK d   0      11.340   6.559  -1.301  0.00  0.00     0.066 H 
ENDBRANCH  44  45
ENDBRANCH   8  44
BRANCH  10  49
ATOM     49  O   UNK d   0       9.815   9.148  -4.529  0.00  0.00    -0.495 OA
BRANCH  49  50
ATOM     50  C   UNK d   0       9.559   9.759  -5.795  0.00  0.00     0.079 C 
ATOM     51  H   UNK d   0       8.975   9.079  -6.415  0.00  0.00     0.066 H 
ATOM     52  H   UNK d   0       9.001  10.683  -5.646  0.00  0.00     0.066 H 
ATOM     53  H   UNK d   0      10.505   9.981  -6.289  0.00  0.00     0.066 H 
ENDBRANCH  49  50
ENDBRANCH  10  49
TORSDOF 11
ENDMDL
