MODEL 1
REMARK VINA RESULT:      -7.2      0.000      0.000
REMARK  6 active torsions:
REMARK  status: ('A' for Active; 'I' for Inactive)
REMARK    1  A    between atoms: C_1  and  C_2 
REMARK    2  A    between atoms: C_5  and  C_8 
REMARK    3  A    between atoms: C_8  and  C_10 
REMARK    4  A    between atoms: C_11  and  C_29 
REMARK    5  A    between atoms: C_14  and  N_19 
REMARK       I    between atoms: N_19  and  C_20 
REMARK    6  A    between atoms: C_20  and  C_22 
ROOT
ATOM      1  C   LIG d   1       5.037  -9.064  -7.115  0.00  0.00     0.179 A 
ATOM      2  C   LIG d   1       5.108  -8.402  -5.928  0.00  0.00     0.006 A 
ATOM      3  C   LIG d   1       4.730  -7.020  -6.214  0.00  0.00     0.025 A 
ATOM      4  C   LIG d   1       4.604  -5.867  -5.434  0.00  0.00    -0.029 A 
ATOM      5  C   LIG d   1       4.216  -4.681  -6.030  0.00  0.00     0.035 A 
ATOM      6  C   LIG d   1       3.953  -4.639  -7.399  0.00  0.00    -0.037 A 
ATOM      7  C   LIG d   1       4.084  -5.767  -8.175  0.00  0.00    -0.017 A 
ATOM      8  C   LIG d   1       4.468  -6.972  -7.595  0.00  0.00     0.136 A 
ATOM      9  O   LIG d   1       4.659  -8.212  -8.090  0.00  0.00    -0.451 OA
ATOM     10  H   LIG d   1       4.808  -5.901  -4.374  0.00  0.00     0.064 H 
ATOM     11  H   LIG d   1       3.651  -3.708  -7.856  0.00  0.00     0.064 H 
ATOM     12  H   LIG d   1       3.875  -5.722  -9.234  0.00  0.00     0.066 H 
ENDROOT
BRANCH   1  13
ATOM     13  C   LIG d   1       5.328 -10.490  -7.306  0.00  0.00     0.228 C 
ATOM     14  O   LIG d   1       6.473 -10.858  -7.494  0.00  0.00    -0.283 OA
BRANCH  13  15
ATOM     15  C   LIG d   1       4.230 -11.480  -7.270  0.00  0.00     0.025 A 
ATOM     16  C   LIG d   1       3.715 -11.913  -6.047  0.00  0.00    -0.051 A 
ATOM     17  C   LIG d   1       2.691 -12.836  -6.021  0.00  0.00    -0.058 A 
ATOM     18  H   LIG d   1       4.118 -11.525  -5.122  0.00  0.00     0.062 H 
ATOM     19  C   LIG d   1       2.174 -13.334  -7.204  0.00  0.00    -0.050 A 
ATOM     20  H   LIG d   1       2.292 -13.172  -5.075  0.00  0.00     0.062 H 
ATOM     21  C   LIG d   1       2.679 -12.910  -8.420  0.00  0.00    -0.058 A 
ATOM     22  C   LIG d   1       3.700 -11.982  -8.460  0.00  0.00    -0.051 A 
ATOM     23  H   LIG d   1       2.271 -13.302  -9.340  0.00  0.00     0.062 H 
ATOM     24  H   LIG d   1       4.090 -11.649  -9.410  0.00  0.00     0.062 H 
BRANCH  19  25
ATOM     25  C   LIG d   1       1.055 -14.343  -7.168  0.00  0.00    -0.040 C 
ATOM     26  H   LIG d   1       1.467 -15.336  -6.987  0.00  0.00     0.028 H 
ATOM     27  H   LIG d   1       0.359 -14.087  -6.370  0.00  0.00     0.028 H 
ATOM     28  H   LIG d   1       0.531 -14.337  -8.124  0.00  0.00     0.028 H 
ENDBRANCH  19  25
ENDBRANCH  13  15
ENDBRANCH   1  13
BRANCH   2  29
ATOM     29  C   LIG d   1       5.489  -8.980  -4.590  0.00  0.00    -0.035 C 
ATOM     30  H   LIG d   1       4.845  -8.560  -3.817  0.00  0.00     0.028 H 
ATOM     31  H   LIG d   1       6.528  -8.733  -4.370  0.00  0.00     0.028 H 
ATOM     32  H   LIG d   1       5.370 -10.063  -4.613  0.00  0.00     0.028 H 
ENDBRANCH   2  29
BRANCH   5  33
ATOM     33  N   LIG d   1       4.086  -3.521  -5.257  0.00  0.00    -0.281 N 
ATOM     34  C   LIG d   1       5.179  -2.941  -4.724  0.00  0.00     0.250 C 
ATOM     35  O   LIG d   1       6.286  -3.366  -4.993  0.00  0.00    -0.270 OA
ATOM     36  H   LIG d   1       3.209  -3.134  -5.105  0.00  0.00     0.155 HD
BRANCH  34  37
ATOM     37  C   LIG d   1       5.033  -1.789  -3.810  0.00  0.00     0.055 A 
ATOM     38  C   LIG d   1       5.440  -0.515  -4.215  0.00  0.00     0.053 A 
ATOM     39  C   LIG d   1       5.299   0.557  -3.356  0.00  0.00    -0.043 A 
ATOM     40 CL   LIG d   1       6.122  -0.281  -5.795  0.00  0.00    -0.083 Cl
ATOM     41  C   LIG d   1       4.756   0.372  -2.098  0.00  0.00    -0.060 A 
ATOM     42  H   LIG d   1       5.614   1.543  -3.668  0.00  0.00     0.063 H 
ATOM     43  C   LIG d   1       4.350  -0.887  -1.691  0.00  0.00    -0.061 A 
ATOM     44  H   LIG d   1       4.647   1.214  -1.431  0.00  0.00     0.062 H 
ATOM     45  C   LIG d   1       4.480  -1.966  -2.541  0.00  0.00    -0.048 A 
ATOM     46  H   LIG d   1       3.926  -1.025  -0.708  0.00  0.00     0.062 H 
ATOM     47  H   LIG d   1       4.157  -2.946  -2.223  0.00  0.00     0.062 H 
ENDBRANCH  34  37
ENDBRANCH   5  33
TORSDOF 6
ENDMDL
MODEL 2
REMARK VINA RESULT:      -7.1      6.459      8.557
REMARK  6 active torsions:
REMARK  status: ('A' for Active; 'I' for Inactive)
REMARK    1  A    between atoms: C_1  and  C_2 
REMARK    2  A    between atoms: C_5  and  C_8 
REMARK    3  A    between atoms: C_8  and  C_10 
REMARK    4  A    between atoms: C_11  and  C_29 
REMARK    5  A    between atoms: C_14  and  N_19 
REMARK       I    between atoms: N_19  and  C_20 
REMARK    6  A    between atoms: C_20  and  C_22 
ROOT
ATOM      1  C   LIG d   1       2.639  -1.675 -12.092  0.00  0.00     0.179 A 
ATOM      2  C   LIG d   1       2.683  -2.351 -10.912  0.00  0.00     0.006 A 
ATOM      3  C   LIG d   1       2.770  -1.334  -9.867  0.00  0.00     0.025 A 
ATOM      4  C   LIG d   1       2.839  -1.378  -8.471  0.00  0.00    -0.029 A 
ATOM      5  C   LIG d   1       2.916  -0.198  -7.756  0.00  0.00     0.035 A 
ATOM      6  C   LIG d   1       2.925   1.027  -8.423  0.00  0.00    -0.037 A 
ATOM      7  C   LIG d   1       2.866   1.079  -9.797  0.00  0.00    -0.017 A 
ATOM      8  C   LIG d   1       2.783  -0.097 -10.536  0.00  0.00     0.136 A 
ATOM      9  O   LIG d   1       2.699  -0.348 -11.859  0.00  0.00    -0.451 OA
ATOM     10  H   LIG d   1       2.833  -2.327  -7.956  0.00  0.00     0.064 H 
ATOM     11  H   LIG d   1       2.986   1.943  -7.855  0.00  0.00     0.064 H 
ATOM     12  H   LIG d   1       2.871   2.033 -10.302  0.00  0.00     0.066 H 
ENDROOT
BRANCH   1  13
ATOM     13  C   LIG d   1       2.543  -2.296 -13.419  0.00  0.00     0.228 C 
ATOM     14  O   LIG d   1       3.521  -2.819 -13.919  0.00  0.00    -0.283 OA
BRANCH  13  15
ATOM     15  C   LIG d   1       1.257  -2.286 -14.148  0.00  0.00     0.025 A 
ATOM     16  C   LIG d   1       0.051  -2.235 -13.445  0.00  0.00    -0.051 A 
ATOM     17  C   LIG d   1      -1.144  -2.226 -14.132  0.00  0.00    -0.058 A 
ATOM     18  H   LIG d   1       0.056  -2.204 -12.365  0.00  0.00     0.062 H 
ATOM     19  C   LIG d   1      -1.151  -2.265 -15.515  0.00  0.00    -0.050 A 
ATOM     20  H   LIG d   1      -2.077  -2.187 -13.590  0.00  0.00     0.062 H 
ATOM     21  C   LIG d   1       0.039  -2.315 -16.219  0.00  0.00    -0.058 A 
ATOM     22  C   LIG d   1       1.243  -2.320 -15.544  0.00  0.00    -0.051 A 
ATOM     23  H   LIG d   1       0.027  -2.346 -17.298  0.00  0.00     0.062 H 
ATOM     24  H   LIG d   1       2.171  -2.355 -16.095  0.00  0.00     0.062 H 
BRANCH  19  25
ATOM     25  C   LIG d   1      -2.462  -2.255 -16.260  0.00  0.00    -0.040 C 
ATOM     26  H   LIG d   1      -3.113  -1.489 -15.838  0.00  0.00     0.028 H 
ATOM     27  H   LIG d   1      -2.281  -2.039 -17.312  0.00  0.00     0.028 H 
ATOM     28  H   LIG d   1      -2.941  -3.230 -16.165  0.00  0.00     0.028 H 
ENDBRANCH  19  25
ENDBRANCH  13  15
ENDBRANCH   1  13
BRANCH   2  29
ATOM     29  C   LIG d   1       2.640  -3.846 -10.722  0.00  0.00    -0.035 C 
ATOM     30  H   LIG d   1       3.145  -4.332 -11.557  0.00  0.00     0.028 H 
ATOM     31  H   LIG d   1       1.602  -4.177 -10.681  0.00  0.00     0.028 H 
ATOM     32  H   LIG d   1       3.142  -4.108  -9.791  0.00  0.00     0.028 H 
ENDBRANCH   2  29
BRANCH   5  33
ATOM     33  N   LIG d   1       2.985  -0.232  -6.358  0.00  0.00    -0.281 N 
ATOM     34  C   LIG d   1       4.183  -0.185  -5.741  0.00  0.00     0.250 C 
ATOM     35  O   LIG d   1       5.196  -0.015  -6.392  0.00  0.00    -0.270 OA
ATOM     36  H   LIG d   1       2.172  -0.290  -5.833  0.00  0.00     0.155 HD
BRANCH  34  37
ATOM     37  C   LIG d   1       4.265  -0.343  -4.274  0.00  0.00     0.055 A 
ATOM     38  C   LIG d   1       4.462  -1.608  -3.714  0.00  0.00     0.053 A 
ATOM     39  C   LIG d   1       4.538  -1.747  -2.342  0.00  0.00    -0.043 A 
ATOM     40 CL   LIG d   1       4.608  -3.001  -4.740  0.00  0.00    -0.083 Cl
ATOM     41  C   LIG d   1       4.422  -0.638  -1.524  0.00  0.00    -0.060 A 
ATOM     42  H   LIG d   1       4.690  -2.725  -1.907  0.00  0.00     0.063 H 
ATOM     43  C   LIG d   1       4.228   0.617  -2.073  0.00  0.00    -0.061 A 
ATOM     44  H   LIG d   1       4.483  -0.753  -0.452  0.00  0.00     0.062 H 
ATOM     45  C   LIG d   1       4.155   0.772  -3.442  0.00  0.00    -0.048 A 
ATOM     46  H   LIG d   1       4.139   1.479  -1.429  0.00  0.00     0.062 H 
ATOM     47  H   LIG d   1       4.009   1.754  -3.868  0.00  0.00     0.062 H 
ENDBRANCH  34  37
ENDBRANCH   5  33
TORSDOF 6
ENDMDL
MODEL 3
REMARK VINA RESULT:      -7.0      7.105      9.071
REMARK  6 active torsions:
REMARK  status: ('A' for Active; 'I' for Inactive)
REMARK    1  A    between atoms: C_1  and  C_2 
REMARK    2  A    between atoms: C_5  and  C_8 
REMARK    3  A    between atoms: C_8  and  C_10 
REMARK    4  A    between atoms: C_11  and  C_29 
REMARK    5  A    between atoms: C_14  and  N_19 
REMARK       I    between atoms: N_19  and  C_20 
REMARK    6  A    between atoms: C_20  and  C_22 
ROOT
ATOM      1  C   LIG d   1       4.389  -0.409 -12.315  0.00  0.00     0.179 A 
ATOM      2  C   LIG d   1       4.501  -1.227 -11.233  0.00  0.00     0.006 A 
ATOM      3  C   LIG d   1       4.118  -0.421 -10.076  0.00  0.00     0.025 A 
ATOM      4  C   LIG d   1       4.021  -0.674  -8.705  0.00  0.00    -0.029 A 
ATOM      5  C   LIG d   1       3.617   0.336  -7.852  0.00  0.00     0.035 A 
ATOM      6  C   LIG d   1       3.310   1.599  -8.359  0.00  0.00    -0.037 A 
ATOM      7  C   LIG d   1       3.412   1.859  -9.706  0.00  0.00    -0.017 A 
ATOM      8  C   LIG d   1       3.811   0.855 -10.582  0.00  0.00     0.136 A 
ATOM      9  O   LIG d   1       3.982   0.816 -11.919  0.00  0.00    -0.451 OA
ATOM     10  H   LIG d   1       4.260  -1.653  -8.314  0.00  0.00     0.064 H 
ATOM     11  H   LIG d   1       2.995   2.382  -7.685  0.00  0.00     0.064 H 
ATOM     12  H   LIG d   1       3.169   2.841 -10.087  0.00  0.00     0.066 H 
ENDROOT
BRANCH   1  13
ATOM     13  C   LIG d   1       4.669  -0.798 -13.701  0.00  0.00     0.228 C 
ATOM     14  O   LIG d   1       5.811  -0.779 -14.121  0.00  0.00    -0.283 OA
BRANCH  13  15
ATOM     15  C   LIG d   1       3.563  -1.215 -14.591  0.00  0.00     0.025 A 
ATOM     16  C   LIG d   1       3.551  -0.816 -15.929  0.00  0.00    -0.051 A 
ATOM     17  C   LIG d   1       2.516  -1.209 -16.752  0.00  0.00    -0.058 A 
ATOM     18  H   LIG d   1       4.349  -0.202 -16.318  0.00  0.00     0.062 H 
ATOM     19  C   LIG d   1       1.493  -1.996 -16.255  0.00  0.00    -0.050 A 
ATOM     20  H   LIG d   1       2.505  -0.900 -17.787  0.00  0.00     0.062 H 
ATOM     21  C   LIG d   1       1.498  -2.394 -14.930  0.00  0.00    -0.058 A 
ATOM     22  C   LIG d   1       2.530  -2.014 -14.097  0.00  0.00    -0.051 A 
ATOM     23  H   LIG d   1       0.697  -3.010 -14.549  0.00  0.00     0.062 H 
ATOM     24  H   LIG d   1       2.535  -2.329 -13.064  0.00  0.00     0.062 H 
BRANCH  19  25
ATOM     25  C   LIG d   1       0.365  -2.421 -17.161  0.00  0.00    -0.040 C 
ATOM     26  H   LIG d   1      -0.588  -2.201 -16.681  0.00  0.00     0.028 H 
ATOM     27  H   LIG d   1       0.432  -1.879 -18.104  0.00  0.00     0.028 H 
ATOM     28  H   LIG d   1       0.436  -3.492 -17.351  0.00  0.00     0.028 H 
ENDBRANCH  19  25
ENDBRANCH  13  15
ENDBRANCH   1  13
BRANCH   2  29
ATOM     29  C   LIG d   1       4.924  -2.673 -11.231  0.00  0.00    -0.035 C 
ATOM     30  H   LIG d   1       5.953  -2.750 -11.585  0.00  0.00     0.028 H 
ATOM     31  H   LIG d   1       4.269  -3.244 -11.889  0.00  0.00     0.028 H 
ATOM     32  H   LIG d   1       4.858  -3.070 -10.218  0.00  0.00     0.028 H 
ENDBRANCH   2  29
BRANCH   5  33
ATOM     33  N   LIG d   1       3.516   0.091  -6.477  0.00  0.00    -0.281 N 
ATOM     34  C   LIG d   1       4.631  -0.023  -5.730  0.00  0.00     0.250 C 
ATOM     35  O   LIG d   1       5.721   0.182  -6.228  0.00  0.00    -0.270 OA
ATOM     36  H   LIG d   1       2.643   0.004  -6.062  0.00  0.00     0.155 HD
BRANCH  34  37
ATOM     37  C   LIG d   1       4.530  -0.401  -4.305  0.00  0.00     0.055 A 
ATOM     38  C   LIG d   1       4.493  -1.748  -3.936  0.00  0.00     0.053 A 
ATOM     39  C   LIG d   1       4.399  -2.093  -2.602  0.00  0.00    -0.043 A 
ATOM     40 CL   LIG d   1       4.564  -2.985  -5.152  0.00  0.00    -0.083 Cl
ATOM     41  C   LIG d   1       4.343  -1.109  -1.633  0.00  0.00    -0.060 A 
ATOM     42  H   LIG d   1       4.370  -3.134  -2.316  0.00  0.00     0.063 H 
ATOM     43  C   LIG d   1       4.380   0.228  -1.991  0.00  0.00    -0.061 A 
ATOM     44  H   LIG d   1       4.270  -1.384  -0.591  0.00  0.00     0.062 H 
ATOM     45  C   LIG d   1       4.479   0.587  -3.319  0.00  0.00    -0.048 A 
ATOM     46  H   LIG d   1       4.336   0.991  -1.229  0.00  0.00     0.062 H 
ATOM     47  H   LIG d   1       4.513   1.630  -3.596  0.00  0.00     0.062 H 
ENDBRANCH  34  37
ENDBRANCH   5  33
TORSDOF 6
ENDMDL
MODEL 4
REMARK VINA RESULT:      -7.0      7.083     14.698
REMARK  6 active torsions:
REMARK  status: ('A' for Active; 'I' for Inactive)
REMARK    1  A    between atoms: C_1  and  C_2 
REMARK    2  A    between atoms: C_5  and  C_8 
REMARK    3  A    between atoms: C_8  and  C_10 
REMARK    4  A    between atoms: C_11  and  C_29 
REMARK    5  A    between atoms: C_14  and  N_19 
REMARK       I    between atoms: N_19  and  C_20 
REMARK    6  A    between atoms: C_20  and  C_22 
ROOT
ATOM      1  C   LIG d   1      11.373   5.258  -4.258  0.00  0.00     0.179 A 
ATOM      2  C   LIG d   1      10.448   4.780  -3.382  0.00  0.00     0.006 A 
ATOM      3  C   LIG d   1      10.044   3.473  -3.895  0.00  0.00     0.025 A 
ATOM      4  C   LIG d   1       9.148   2.493  -3.459  0.00  0.00    -0.029 A 
ATOM      5  C   LIG d   1       8.993   1.334  -4.197  0.00  0.00     0.035 A 
ATOM      6  C   LIG d   1       9.727   1.147  -5.368  0.00  0.00    -0.037 A 
ATOM      7  C   LIG d   1      10.605   2.111  -5.809  0.00  0.00    -0.017 A 
ATOM      8  C   LIG d   1      10.780   3.281  -5.079  0.00  0.00     0.136 A 
ATOM      9  O   LIG d   1      11.561   4.367  -5.254  0.00  0.00    -0.451 OA
ATOM     10  H   LIG d   1       8.580   2.640  -2.552  0.00  0.00     0.064 H 
ATOM     11  H   LIG d   1       9.599   0.238  -5.939  0.00  0.00     0.064 H 
ATOM     12  H   LIG d   1      11.169   1.953  -6.717  0.00  0.00     0.066 H 
ENDROOT
BRANCH   1  13
ATOM     13  C   LIG d   1      12.063   6.548  -4.138  0.00  0.00     0.228 C 
ATOM     14  O   LIG d   1      13.268   6.581  -3.969  0.00  0.00    -0.283 OA
BRANCH  13  15
ATOM     15  C   LIG d   1      11.294   7.808  -4.223  0.00  0.00     0.025 A 
ATOM     16  C   LIG d   1      10.358   7.991  -5.243  0.00  0.00    -0.051 A 
ATOM     17  C   LIG d   1       9.645   9.169  -5.316  0.00  0.00    -0.058 A 
ATOM     18  H   LIG d   1      10.192   7.212  -5.972  0.00  0.00     0.062 H 
ATOM     19  C   LIG d   1       9.855  10.168  -4.382  0.00  0.00    -0.050 A 
ATOM     20  H   LIG d   1       8.920   9.313  -6.104  0.00  0.00     0.062 H 
ATOM     21  C   LIG d   1      10.782   9.994  -3.369  0.00  0.00    -0.058 A 
ATOM     22  C   LIG d   1      11.498   8.818  -3.281  0.00  0.00    -0.051 A 
ATOM     23  H   LIG d   1      10.941  10.778  -2.643  0.00  0.00     0.062 H 
ATOM     24  H   LIG d   1      12.218   8.682  -2.488  0.00  0.00     0.062 H 
BRANCH  19  25
ATOM     25  C   LIG d   1       9.072  11.454  -4.468  0.00  0.00    -0.040 C 
ATOM     26  H   LIG d   1       8.839  11.667  -5.511  0.00  0.00     0.028 H 
ATOM     27  H   LIG d   1       8.147  11.355  -3.901  0.00  0.00     0.028 H 
ATOM     28  H   LIG d   1       9.667  12.269  -4.055  0.00  0.00     0.028 H 
ENDBRANCH  19  25
ENDBRANCH  13  15
ENDBRANCH   1  13
BRANCH   2  29
ATOM     29  C   LIG d   1       9.949   5.457  -2.132  0.00  0.00    -0.035 C 
ATOM     30  H   LIG d   1       9.346   6.324  -2.405  0.00  0.00     0.028 H 
ATOM     31  H   LIG d   1      10.799   5.780  -1.530  0.00  0.00     0.028 H 
ATOM     32  H   LIG d   1       9.341   4.759  -1.558  0.00  0.00     0.028 H 
ENDBRANCH   2  29
BRANCH   5  33
ATOM     33  N   LIG d   1       8.098   0.347  -3.768  0.00  0.00    -0.281 N 
ATOM     34  C   LIG d   1       6.875   0.258  -4.326  0.00  0.00     0.250 C 
ATOM     35  O   LIG d   1       6.583   0.970  -5.267  0.00  0.00    -0.270 OA
ATOM     36  H   LIG d   1       8.358  -0.274  -3.069  0.00  0.00     0.155 HD
BRANCH  34  37
ATOM     37  C   LIG d   1       5.887  -0.703  -3.792  0.00  0.00     0.055 A 
ATOM     38  C   LIG d   1       5.040  -0.331  -2.745  0.00  0.00     0.053 A 
ATOM     39  C   LIG d   1       4.119  -1.235  -2.252  0.00  0.00    -0.043 A 
ATOM     40 CL   LIG d   1       5.146   1.262  -2.065  0.00  0.00    -0.083 Cl
ATOM     41  C   LIG d   1       4.034  -2.504  -2.793  0.00  0.00    -0.060 A 
ATOM     42  H   LIG d   1       3.464  -0.949  -1.442  0.00  0.00     0.063 H 
ATOM     43  C   LIG d   1       4.870  -2.879  -3.831  0.00  0.00    -0.061 A 
ATOM     44  H   LIG d   1       3.312  -3.207  -2.405  0.00  0.00     0.062 H 
ATOM     45  C   LIG d   1       5.791  -1.985  -4.337  0.00  0.00    -0.048 A 
ATOM     46  H   LIG d   1       4.798  -3.872  -4.249  0.00  0.00     0.062 H 
ATOM     47  H   LIG d   1       6.438  -2.278  -5.150  0.00  0.00     0.062 H 
ENDBRANCH  34  37
ENDBRANCH   5  33
TORSDOF 6
ENDMDL
MODEL 5
REMARK VINA RESULT:      -6.8      6.623      8.948
REMARK  6 active torsions:
REMARK  status: ('A' for Active; 'I' for Inactive)
REMARK    1  A    between atoms: C_1  and  C_2 
REMARK    2  A    between atoms: C_5  and  C_8 
REMARK    3  A    between atoms: C_8  and  C_10 
REMARK    4  A    between atoms: C_11  and  C_29 
REMARK    5  A    between atoms: C_14  and  N_19 
REMARK       I    between atoms: N_19  and  C_20 
REMARK    6  A    between atoms: C_20  and  C_22 
ROOT
ATOM      1  C   LIG d   1       2.647  -1.371 -12.145  0.00  0.00     0.179 A 
ATOM      2  C   LIG d   1       2.666  -2.101 -10.997  0.00  0.00     0.006 A 
ATOM      3  C   LIG d   1       2.781  -1.136  -9.906  0.00  0.00     0.025 A 
ATOM      4  C   LIG d   1       2.845  -1.246  -8.514  0.00  0.00    -0.029 A 
ATOM      5  C   LIG d   1       2.956  -0.103  -7.745  0.00  0.00     0.035 A 
ATOM      6  C   LIG d   1       3.005   1.151  -8.356  0.00  0.00    -0.037 A 
ATOM      7  C   LIG d   1       2.952   1.267  -9.726  0.00  0.00    -0.017 A 
ATOM      8  C   LIG d   1       2.834   0.130 -10.518  0.00  0.00     0.136 A 
ATOM      9  O   LIG d   1       2.747  -0.058 -11.851  0.00  0.00    -0.451 OA
ATOM     10  H   LIG d   1       2.808  -2.217  -8.043  0.00  0.00     0.064 H 
ATOM     11  H   LIG d   1       3.092   2.038  -7.746  0.00  0.00     0.064 H 
ATOM     12  H   LIG d   1       2.988   2.243 -10.187  0.00  0.00     0.066 H 
ENDROOT
BRANCH   1  13
ATOM     13  C   LIG d   1       2.535  -1.927 -13.498  0.00  0.00     0.228 C 
ATOM     14  O   LIG d   1       1.496  -2.447 -13.859  0.00  0.00    -0.283 OA
BRANCH  13  15
ATOM     15  C   LIG d   1       3.686  -1.856 -14.425  0.00  0.00     0.025 A 
ATOM     16  C   LIG d   1       3.906  -0.704 -15.182  0.00  0.00    -0.051 A 
ATOM     17  C   LIG d   1       4.981  -0.644 -16.044  0.00  0.00    -0.058 A 
ATOM     18  H   LIG d   1       3.235   0.139 -15.094  0.00  0.00     0.062 H 
ATOM     19  C   LIG d   1       5.841  -1.722 -16.158  0.00  0.00    -0.050 A 
ATOM     20  H   LIG d   1       5.152   0.246 -16.632  0.00  0.00     0.062 H 
ATOM     21  C   LIG d   1       5.629  -2.867 -15.410  0.00  0.00    -0.058 A 
ATOM     22  C   LIG d   1       4.560  -2.938 -14.540  0.00  0.00    -0.051 A 
ATOM     23  H   LIG d   1       6.304  -3.705 -15.503  0.00  0.00     0.062 H 
ATOM     24  H   LIG d   1       4.399  -3.830 -13.954  0.00  0.00     0.062 H 
BRANCH  19  25
ATOM     25  C   LIG d   1       7.014  -1.651 -17.102  0.00  0.00    -0.040 C 
ATOM     26  H   LIG d   1       6.794  -2.229 -17.999  0.00  0.00     0.028 H 
ATOM     27  H   LIG d   1       7.198  -0.612 -17.376  0.00  0.00     0.028 H 
ATOM     28  H   LIG d   1       7.898  -2.061 -16.614  0.00  0.00     0.028 H 
ENDBRANCH  19  25
ENDBRANCH  13  15
ENDBRANCH   1  13
BRANCH   2  29
ATOM     29  C   LIG d   1       2.576  -3.600 -10.875  0.00  0.00    -0.035 C 
ATOM     30  H   LIG d   1       2.956  -4.061 -11.787  0.00  0.00     0.028 H 
ATOM     31  H   LIG d   1       1.536  -3.891 -10.726  0.00  0.00     0.028 H 
ATOM     32  H   LIG d   1       3.171  -3.932 -10.025  0.00  0.00     0.028 H 
ENDBRANCH   2  29
BRANCH   5  33
ATOM     33  N   LIG d   1       3.020  -0.203  -6.350  0.00  0.00    -0.281 N 
ATOM     34  C   LIG d   1       4.215  -0.185  -5.727  0.00  0.00     0.250 C 
ATOM     35  O   LIG d   1       5.230   0.016  -6.366  0.00  0.00    -0.270 OA
ATOM     36  H   LIG d   1       2.204  -0.285  -5.831  0.00  0.00     0.155 HD
BRANCH  34  37
ATOM     37  C   LIG d   1       4.292  -0.411  -4.269  0.00  0.00     0.055 A 
ATOM     38  C   LIG d   1       4.459  -1.704  -3.767  0.00  0.00     0.053 A 
ATOM     39  C   LIG d   1       4.531  -1.908  -2.403  0.00  0.00    -0.043 A 
ATOM     40 CL   LIG d   1       4.577  -3.051  -4.856  0.00  0.00    -0.083 Cl
ATOM     41  C   LIG d   1       4.438  -0.836  -1.535  0.00  0.00    -0.060 A 
ATOM     42  H   LIG d   1       4.660  -2.908  -2.014  0.00  0.00     0.063 H 
ATOM     43  C   LIG d   1       4.273   0.448  -2.026  0.00  0.00    -0.061 A 
ATOM     44  H   LIG d   1       4.495  -1.001  -0.470  0.00  0.00     0.062 H 
ATOM     45  C   LIG d   1       4.205   0.667  -3.386  0.00  0.00    -0.048 A 
ATOM     46  H   LIG d   1       4.202   1.280  -1.343  0.00  0.00     0.062 H 
ATOM     47  H   LIG d   1       4.081   1.670  -3.766  0.00  0.00     0.062 H 
ENDBRANCH  34  37
ENDBRANCH   5  33
TORSDOF 6
ENDMDL
MODEL 6
REMARK VINA RESULT:      -6.7      8.086     14.557
REMARK  6 active torsions:
REMARK  status: ('A' for Active; 'I' for Inactive)
REMARK    1  A    between atoms: C_1  and  C_2 
REMARK    2  A    between atoms: C_5  and  C_8 
REMARK    3  A    between atoms: C_8  and  C_10 
REMARK    4  A    between atoms: C_11  and  C_29 
REMARK    5  A    between atoms: C_14  and  N_19 
REMARK       I    between atoms: N_19  and  C_20 
REMARK    6  A    between atoms: C_20  and  C_22 
ROOT
ATOM      1  C   LIG d   1      11.426   5.861  -5.934  0.00  0.00     0.179 A 
ATOM      2  C   LIG d   1      10.241   5.730  -5.277  0.00  0.00     0.006 A 
ATOM      3  C   LIG d   1      10.128   4.316  -4.927  0.00  0.00     0.025 A 
ATOM      4  C   LIG d   1       9.167   3.555  -4.255  0.00  0.00    -0.029 A 
ATOM      5  C   LIG d   1       9.369   2.199  -4.086  0.00  0.00     0.035 A 
ATOM      6  C   LIG d   1      10.523   1.594  -4.585  0.00  0.00    -0.037 A 
ATOM      7  C   LIG d   1      11.470   2.334  -5.256  0.00  0.00    -0.017 A 
ATOM      8  C   LIG d   1      11.289   3.702  -5.431  0.00  0.00     0.136 A 
ATOM      9  O   LIG d   1      12.035   4.660  -6.019  0.00  0.00    -0.451 OA
ATOM     10  H   LIG d   1       8.274   4.025  -3.870  0.00  0.00     0.064 H 
ATOM     11  H   LIG d   1      10.671   0.533  -4.448  0.00  0.00     0.064 H 
ATOM     12  H   LIG d   1      12.360   1.855  -5.635  0.00  0.00     0.066 H 
ENDROOT
BRANCH   1  13
ATOM     13  C   LIG d   1      11.960   7.119  -6.469  0.00  0.00     0.228 C 
ATOM     14  O   LIG d   1      12.672   7.822  -5.776  0.00  0.00    -0.283 OA
BRANCH  13  15
ATOM     15  C   LIG d   1      11.635   7.532  -7.851  0.00  0.00     0.025 A 
ATOM     16  C   LIG d   1      10.642   8.486  -8.083  0.00  0.00    -0.051 A 
ATOM     17  C   LIG d   1      10.344   8.867  -9.375  0.00  0.00    -0.058 A 
ATOM     18  H   LIG d   1      10.109   8.925  -7.252  0.00  0.00     0.062 H 
ATOM     19  C   LIG d   1      11.027   8.306 -10.439  0.00  0.00    -0.050 A 
ATOM     20  H   LIG d   1       9.576   9.604  -9.555  0.00  0.00     0.062 H 
ATOM     21  C   LIG d   1      12.012   7.360 -10.218  0.00  0.00    -0.058 A 
ATOM     22  C   LIG d   1      12.324   6.974  -8.930  0.00  0.00    -0.051 A 
ATOM     23  H   LIG d   1      12.542   6.927 -11.053  0.00  0.00     0.062 H 
ATOM     24  H   LIG d   1      13.096   6.239  -8.758  0.00  0.00     0.062 H 
BRANCH  19  25
ATOM     25  C   LIG d   1      10.696   8.727 -11.849  0.00  0.00    -0.040 C 
ATOM     26  H   LIG d   1      10.282   9.735 -11.839  0.00  0.00     0.028 H 
ATOM     27  H   LIG d   1      11.601   8.712 -12.455  0.00  0.00     0.028 H 
ATOM     28  H   LIG d   1       9.964   8.039 -12.271  0.00  0.00     0.028 H 
ENDBRANCH  19  25
ENDBRANCH  13  15
ENDBRANCH   1  13
BRANCH   2  29
ATOM     29  C   LIG d   1       9.251   6.823  -4.967  0.00  0.00    -0.035 C 
ATOM     30  H   LIG d   1       9.063   6.847  -3.892  0.00  0.00     0.028 H 
ATOM     31  H   LIG d   1       8.318   6.629  -5.495  0.00  0.00     0.028 H 
ATOM     32  H   LIG d   1       9.657   7.783  -5.285  0.00  0.00     0.028 H 
ENDBRANCH   2  29
BRANCH   5  33
ATOM     33  N   LIG d   1       8.412   1.429  -3.414  0.00  0.00    -0.281 N 
ATOM     34  C   LIG d   1       7.290   1.040  -4.052  0.00  0.00     0.250 C 
ATOM     35  O   LIG d   1       7.153   1.274  -5.237  0.00  0.00    -0.270 OA
ATOM     36  H   LIG d   1       8.556   1.174  -2.489  0.00  0.00     0.155 HD
BRANCH  34  37
ATOM     37  C   LIG d   1       6.226   0.332  -3.310  0.00  0.00     0.055 A 
ATOM     38  C   LIG d   1       6.172  -1.064  -3.321  0.00  0.00     0.053 A 
ATOM     39  C   LIG d   1       5.175  -1.718  -2.625  0.00  0.00    -0.043 A 
ATOM     40 CL   LIG d   1       7.354  -1.973  -4.209  0.00  0.00    -0.083 Cl
ATOM     41  C   LIG d   1       4.233  -0.995  -1.917  0.00  0.00    -0.060 A 
ATOM     42  H   LIG d   1       5.131  -2.798  -2.633  0.00  0.00     0.063 H 
ATOM     43  C   LIG d   1       4.281   0.388  -1.902  0.00  0.00    -0.061 A 
ATOM     44  H   LIG d   1       3.455  -1.512  -1.374  0.00  0.00     0.062 H 
ATOM     45  C   LIG d   1       5.274   1.055  -2.588  0.00  0.00    -0.048 A 
ATOM     46  H   LIG d   1       3.543   0.947  -1.346  0.00  0.00     0.062 H 
ATOM     47  H   LIG d   1       5.313   2.134  -2.570  0.00  0.00     0.062 H 
ENDBRANCH  34  37
ENDBRANCH   5  33
TORSDOF 6
ENDMDL
MODEL 7
REMARK VINA RESULT:      -6.5      3.524      6.306
REMARK  6 active torsions:
REMARK  status: ('A' for Active; 'I' for Inactive)
REMARK    1  A    between atoms: C_1  and  C_2 
REMARK    2  A    between atoms: C_5  and  C_8 
REMARK    3  A    between atoms: C_8  and  C_10 
REMARK    4  A    between atoms: C_11  and  C_29 
REMARK    5  A    between atoms: C_14  and  N_19 
REMARK       I    between atoms: N_19  and  C_20 
REMARK    6  A    between atoms: C_20  and  C_22 
ROOT
ATOM      1  C   LIG d   1       4.916  -3.948  -5.293  0.00  0.00     0.179 A 
ATOM      2  C   LIG d   1       5.552  -3.013  -6.050  0.00  0.00     0.006 A 
ATOM      3  C   LIG d   1       5.793  -1.874  -5.168  0.00  0.00     0.025 A 
ATOM      4  C   LIG d   1       6.399  -0.626  -5.336  0.00  0.00    -0.029 A 
ATOM      5  C   LIG d   1       6.465   0.249  -4.268  0.00  0.00     0.035 A 
ATOM      6  C   LIG d   1       5.930  -0.113  -3.032  0.00  0.00    -0.037 A 
ATOM      7  C   LIG d   1       5.324  -1.336  -2.860  0.00  0.00    -0.017 A 
ATOM      8  C   LIG d   1       5.252  -2.234  -3.920  0.00  0.00     0.136 A 
ATOM      9  O   LIG d   1       4.743  -3.477  -4.039  0.00  0.00    -0.451 OA
ATOM     10  H   LIG d   1       6.812  -0.346  -6.294  0.00  0.00     0.064 H 
ATOM     11  H   LIG d   1       5.986   0.577  -2.203  0.00  0.00     0.064 H 
ATOM     12  H   LIG d   1       4.915  -1.606  -1.897  0.00  0.00     0.066 H 
ENDROOT
BRANCH   1  13
ATOM     13  C   LIG d   1       4.481  -5.267  -5.767  0.00  0.00     0.228 C 
ATOM     14  O   LIG d   1       3.409  -5.389  -6.328  0.00  0.00    -0.283 OA
BRANCH  13  15
ATOM     15  C   LIG d   1       5.347  -6.448  -5.562  0.00  0.00     0.025 A 
ATOM     16  C   LIG d   1       6.736  -6.309  -5.561  0.00  0.00    -0.051 A 
ATOM     17  C   LIG d   1       7.537  -7.415  -5.369  0.00  0.00    -0.058 A 
ATOM     18  H   LIG d   1       7.182  -5.336  -5.711  0.00  0.00     0.062 H 
ATOM     19  C   LIG d   1       6.967  -8.661  -5.177  0.00  0.00    -0.050 A 
ATOM     20  H   LIG d   1       8.612  -7.308  -5.369  0.00  0.00     0.062 H 
ATOM     21  C   LIG d   1       5.591  -8.807  -5.177  0.00  0.00    -0.058 A 
ATOM     22  C   LIG d   1       4.778  -7.707  -5.362  0.00  0.00    -0.051 A 
ATOM     23  H   LIG d   1       5.152  -9.782  -5.025  0.00  0.00     0.062 H 
ATOM     24  H   LIG d   1       3.704  -7.822  -5.357  0.00  0.00     0.062 H 
BRANCH  19  25
ATOM     25  C   LIG d   1       7.848  -9.866  -4.968  0.00  0.00    -0.040 C 
ATOM     26  H   LIG d   1       7.430 -10.488  -4.177  0.00  0.00     0.028 H 
ATOM     27  H   LIG d   1       7.904 -10.440  -5.892  0.00  0.00     0.028 H 
ATOM     28  H   LIG d   1       8.848  -9.539  -4.682  0.00  0.00     0.028 H 
ENDBRANCH  19  25
ENDBRANCH  13  15
ENDBRANCH   1  13
BRANCH   2  29
ATOM     29  C   LIG d   1       5.939  -3.134  -7.501  0.00  0.00    -0.035 C 
ATOM     30  H   LIG d   1       7.019  -3.266  -7.579  0.00  0.00     0.028 H 
ATOM     31  H   LIG d   1       5.645  -2.228  -8.032  0.00  0.00     0.028 H 
ATOM     32  H   LIG d   1       5.435  -3.993  -7.942  0.00  0.00     0.028 H 
ENDBRANCH   2  29
BRANCH   5  33
ATOM     33  N   LIG d   1       7.071   1.501  -4.427  0.00  0.00    -0.281 N 
ATOM     34  C   LIG d   1       8.414   1.598  -4.478  0.00  0.00     0.250 C 
ATOM     35  O   LIG d   1       9.097   0.592  -4.485  0.00  0.00    -0.270 OA
ATOM     36  H   LIG d   1       6.524   2.299  -4.501  0.00  0.00     0.155 HD
BRANCH  34  37
ATOM     37  C   LIG d   1       9.058   2.928  -4.524  0.00  0.00     0.055 A 
ATOM     38  C   LIG d   1       9.342   3.528  -5.753  0.00  0.00     0.053 A 
ATOM     39  C   LIG d   1       9.943   4.772  -5.788  0.00  0.00    -0.043 A 
ATOM     40 CL   LIG d   1       8.942   2.714  -7.233  0.00  0.00    -0.083 Cl
ATOM     41  C   LIG d   1      10.261   5.422  -4.610  0.00  0.00    -0.060 A 
ATOM     42  H   LIG d   1      10.163   5.237  -6.738  0.00  0.00     0.063 H 
ATOM     43  C   LIG d   1       9.982   4.832  -3.389  0.00  0.00    -0.061 A 
ATOM     44  H   LIG d   1      10.731   6.394  -4.643  0.00  0.00     0.062 H 
ATOM     45  C   LIG d   1       9.378   3.594  -3.339  0.00  0.00    -0.048 A 
ATOM     46  H   LIG d   1      10.233   5.346  -2.473  0.00  0.00     0.062 H 
ATOM     47  H   LIG d   1       9.156   3.138  -2.386  0.00  0.00     0.062 H 
ENDBRANCH  34  37
ENDBRANCH   5  33
TORSDOF 6
ENDMDL
MODEL 8
REMARK VINA RESULT:      -6.5      7.686      9.391
REMARK  6 active torsions:
REMARK  status: ('A' for Active; 'I' for Inactive)
REMARK    1  A    between atoms: C_1  and  C_2 
REMARK    2  A    between atoms: C_5  and  C_8 
REMARK    3  A    between atoms: C_8  and  C_10 
REMARK    4  A    between atoms: C_11  and  C_29 
REMARK    5  A    between atoms: C_14  and  N_19 
REMARK       I    between atoms: N_19  and  C_20 
REMARK    6  A    between atoms: C_20  and  C_22 
ROOT
ATOM      1  C   LIG d   1       3.974  -1.617 -12.484  0.00  0.00     0.179 A 
ATOM      2  C   LIG d   1       4.879  -1.207 -11.554  0.00  0.00     0.006 A 
ATOM      3  C   LIG d   1       4.105  -0.854 -10.366  0.00  0.00     0.025 A 
ATOM      4  C   LIG d   1       4.440  -0.379  -9.094  0.00  0.00    -0.029 A 
ATOM      5  C   LIG d   1       3.440  -0.138  -8.172  0.00  0.00     0.035 A 
ATOM      6  C   LIG d   1       2.106  -0.368  -8.510  0.00  0.00    -0.037 A 
ATOM      7  C   LIG d   1       1.767  -0.827  -9.762  0.00  0.00    -0.017 A 
ATOM      8  C   LIG d   1       2.759  -1.081 -10.703  0.00  0.00     0.136 A 
ATOM      9  O   LIG d   1       2.728  -1.538 -11.972  0.00  0.00    -0.451 OA
ATOM     10  H   LIG d   1       5.473  -0.200  -8.835  0.00  0.00     0.064 H 
ATOM     11  H   LIG d   1       1.330  -0.176  -7.782  0.00  0.00     0.064 H 
ATOM     12  H   LIG d   1       0.731  -1.003 -10.011  0.00  0.00     0.066 H 
ENDROOT
BRANCH   1  13
ATOM     13  C   LIG d   1       4.302  -2.074 -13.839  0.00  0.00     0.228 C 
ATOM     14  O   LIG d   1       4.904  -3.120 -13.999  0.00  0.00    -0.283 OA
BRANCH  13  15
ATOM     15  C   LIG d   1       3.903  -1.265 -15.010  0.00  0.00     0.025 A 
ATOM     16  C   LIG d   1       4.581  -0.082 -15.311  0.00  0.00    -0.051 A 
ATOM     17  C   LIG d   1       4.203   0.667 -16.405  0.00  0.00    -0.058 A 
ATOM     18  H   LIG d   1       5.400   0.245 -14.687  0.00  0.00     0.062 H 
ATOM     19  C   LIG d   1       3.154   0.249 -17.204  0.00  0.00    -0.050 A 
ATOM     20  H   LIG d   1       4.727   1.582 -16.638  0.00  0.00     0.062 H 
ATOM     21  C   LIG d   1       2.477  -0.922 -16.913  0.00  0.00    -0.058 A 
ATOM     22  C   LIG d   1       2.849  -1.684 -15.824  0.00  0.00    -0.051 A 
ATOM     23  H   LIG d   1       1.660  -1.243 -17.542  0.00  0.00     0.062 H 
ATOM     24  H   LIG d   1       2.322  -2.600 -15.601  0.00  0.00     0.062 H 
BRANCH  19  25
ATOM     25  C   LIG d   1       2.746   1.073 -18.399  0.00  0.00    -0.040 C 
ATOM     26  H   LIG d   1       3.008   2.117 -18.227  0.00  0.00     0.028 H 
ATOM     27  H   LIG d   1       3.263   0.710 -19.286  0.00  0.00     0.028 H 
ATOM     28  H   LIG d   1       1.669   0.990 -18.546  0.00  0.00     0.028 H 
ENDBRANCH  19  25
ENDBRANCH  13  15
ENDBRANCH   1  13
BRANCH   2  29
ATOM     29  C   LIG d   1       6.376  -1.139 -11.715  0.00  0.00    -0.035 C 
ATOM     30  H   LIG d   1       6.646  -1.447 -12.726  0.00  0.00     0.028 H 
ATOM     31  H   LIG d   1       6.849  -1.805 -10.993  0.00  0.00     0.028 H 
ATOM     32  H   LIG d   1       6.714  -0.118 -11.544  0.00  0.00     0.028 H 
ENDBRANCH   2  29
BRANCH   5  33
ATOM     33  N   LIG d   1       3.765   0.338  -6.896  0.00  0.00    -0.281 N 
ATOM     34  C   LIG d   1       4.066  -0.530  -5.910  0.00  0.00     0.250 C 
ATOM     35  O   LIG d   1       4.150  -1.719  -6.151  0.00  0.00    -0.270 OA
ATOM     36  H   LIG d   1       3.775   1.292  -6.721  0.00  0.00     0.155 HD
BRANCH  34  37
ATOM     37  C   LIG d   1       4.291  -0.038  -4.535  0.00  0.00     0.055 A 
ATOM     38  C   LIG d   1       5.591   0.149  -4.060  0.00  0.00     0.053 A 
ATOM     39  C   LIG d   1       5.793   0.610  -2.774  0.00  0.00    -0.043 A 
ATOM     40 CL   LIG d   1       6.950  -0.200  -5.083  0.00  0.00    -0.083 Cl
ATOM     41  C   LIG d   1       4.712   0.889  -1.959  0.00  0.00    -0.060 A 
ATOM     42  H   LIG d   1       6.799   0.755  -2.405  0.00  0.00     0.063 H 
ATOM     43  C   LIG d   1       3.421   0.707  -2.423  0.00  0.00    -0.061 A 
ATOM     44  H   LIG d   1       4.876   1.250  -0.954  0.00  0.00     0.062 H 
ATOM     45  C   LIG d   1       3.204   0.251  -3.707  0.00  0.00    -0.048 A 
ATOM     46  H   LIG d   1       2.582   0.927  -1.782  0.00  0.00     0.062 H 
ATOM     47  H   LIG d   1       2.196   0.115  -4.069  0.00  0.00     0.062 H 
ENDBRANCH  34  37
ENDBRANCH   5  33
TORSDOF 6
ENDMDL
MODEL 9
REMARK VINA RESULT:      -6.5      8.067     15.703
REMARK  6 active torsions:
REMARK  status: ('A' for Active; 'I' for Inactive)
REMARK    1  A    between atoms: C_1  and  C_2 
REMARK    2  A    between atoms: C_5  and  C_8 
REMARK    3  A    between atoms: C_8  and  C_10 
REMARK    4  A    between atoms: C_11  and  C_29 
REMARK    5  A    between atoms: C_14  and  N_19 
REMARK       I    between atoms: N_19  and  C_20 
REMARK    6  A    between atoms: C_20  and  C_22 
ROOT
ATOM      1  C   LIG d   1      11.450   6.793  -3.805  0.00  0.00     0.179 A 
ATOM      2  C   LIG d   1      10.456   6.253  -3.048  0.00  0.00     0.006 A 
ATOM      3  C   LIG d   1      10.318   4.867  -3.491  0.00  0.00     0.025 A 
ATOM      4  C   LIG d   1       9.493   3.804  -3.113  0.00  0.00    -0.029 A 
ATOM      5  C   LIG d   1       9.619   2.585  -3.751  0.00  0.00     0.035 A 
ATOM      6  C   LIG d   1      10.563   2.418  -4.765  0.00  0.00    -0.037 A 
ATOM      7  C   LIG d   1      11.373   3.463  -5.149  0.00  0.00    -0.017 A 
ATOM      8  C   LIG d   1      11.267   4.696  -4.517  0.00  0.00     0.136 A 
ATOM      9  O   LIG d   1      11.920   5.867  -4.667  0.00  0.00    -0.451 OA
ATOM     10  H   LIG d   1       8.763   3.935  -2.329  0.00  0.00     0.064 H 
ATOM     11  H   LIG d   1      10.654   1.462  -5.258  0.00  0.00     0.064 H 
ATOM     12  H   LIG d   1      12.102   3.321  -5.934  0.00  0.00     0.066 H 
ENDROOT
BRANCH   1  13
ATOM     13  C   LIG d   1      11.937   8.173  -3.700  0.00  0.00     0.228 C 
ATOM     14  O   LIG d   1      12.808   8.452  -2.898  0.00  0.00    -0.283 OA
BRANCH  13  15
ATOM     15  C   LIG d   1      11.370   9.226  -4.570  0.00  0.00     0.025 A 
ATOM     16  C   LIG d   1      10.247   9.946  -4.159  0.00  0.00    -0.051 A 
ATOM     17  C   LIG d   1       9.723  10.927  -4.975  0.00  0.00    -0.058 A 
ATOM     18  H   LIG d   1       9.789   9.736  -3.203  0.00  0.00     0.062 H 
ATOM     19  C   LIG d   1      10.308  11.197  -6.199  0.00  0.00    -0.050 A 
ATOM     20  H   LIG d   1       8.854  11.484  -4.658  0.00  0.00     0.062 H 
ATOM     21  C   LIG d   1      11.421  10.487  -6.614  0.00  0.00    -0.058 A 
ATOM     22  C   LIG d   1      11.959   9.507  -5.805  0.00  0.00    -0.051 A 
ATOM     23  H   LIG d   1      11.874  10.704  -7.570  0.00  0.00     0.062 H 
ATOM     24  H   LIG d   1      12.830   8.957  -6.128  0.00  0.00     0.062 H 
BRANCH  19  25
ATOM     25  C   LIG d   1       9.731  12.270  -7.087  0.00  0.00    -0.040 C 
ATOM     26  H   LIG d   1       9.957  13.250  -6.666  0.00  0.00     0.028 H 
ATOM     27  H   LIG d   1      10.167  12.193  -8.082  0.00  0.00     0.028 H 
ATOM     28  H   LIG d   1       8.650  12.144  -7.152  0.00  0.00     0.028 H 
ENDBRANCH  19  25
ENDBRANCH  13  15
ENDBRANCH   1  13
BRANCH   2  29
ATOM     29  C   LIG d   1       9.665   6.942  -1.966  0.00  0.00    -0.035 C 
ATOM     30  H   LIG d   1       9.516   6.254  -1.133  0.00  0.00     0.028 H 
ATOM     31  H   LIG d   1       8.697   7.248  -2.363  0.00  0.00     0.028 H 
ATOM     32  H   LIG d   1      10.210   7.819  -1.620  0.00  0.00     0.028 H 
ENDBRANCH   2  29
BRANCH   5  33
ATOM     33  N   LIG d   1       8.798   1.514  -3.379  0.00  0.00    -0.281 N 
ATOM     34  C   LIG d   1       7.616   1.324  -3.999  0.00  0.00     0.250 C 
ATOM     35  O   LIG d   1       7.306   2.023  -4.945  0.00  0.00    -0.270 OA
ATOM     36  H   LIG d   1       9.079   0.907  -2.676  0.00  0.00     0.155 HD
BRANCH  34  37
ATOM     37  C   LIG d   1       6.695   0.270  -3.527  0.00  0.00     0.055 A 
ATOM     38  C   LIG d   1       6.919  -1.065  -3.872  0.00  0.00     0.053 A 
ATOM     39  C   LIG d   1       6.055  -2.045  -3.426  0.00  0.00    -0.043 A 
ATOM     40 CL   LIG d   1       8.282  -1.490  -4.861  0.00  0.00    -0.083 Cl
ATOM     41  C   LIG d   1       4.970  -1.708  -2.639  0.00  0.00    -0.060 A 
ATOM     42  H   LIG d   1       6.227  -3.078  -3.693  0.00  0.00     0.063 H 
ATOM     43  C   LIG d   1       4.742  -0.387  -2.292  0.00  0.00    -0.061 A 
ATOM     44  H   LIG d   1       4.297  -2.478  -2.292  0.00  0.00     0.062 H 
ATOM     45  C   LIG d   1       5.600   0.601  -2.726  0.00  0.00    -0.048 A 
ATOM     46  H   LIG d   1       3.893  -0.131  -1.676  0.00  0.00     0.062 H 
ATOM     47  H   LIG d   1       5.423   1.630  -2.450  0.00  0.00     0.062 H 
ENDBRANCH  34  37
ENDBRANCH   5  33
TORSDOF 6
ENDMDL
