MODEL 1
REMARK VINA RESULT:      -6.0      0.000      0.000
REMARK  1 active torsions:
REMARK  status: ('A' for Active; 'I' for Inactive)
REMARK    1  A    between atoms: C_3  and  C_9 
REMARK       I    between atoms: C_9  and  N_11 
ROOT
ATOM      1  C   UNK d   1       3.036  -0.760 -11.658  0.00  0.00    -0.044 A 
ATOM      2  C   UNK d   1       3.947  -0.256 -10.756  0.00  0.00    -0.048 A 
ATOM      3  C   UNK d   1       3.561  -0.014  -9.437  0.00  0.00     0.037 A 
ATOM      4  C   UNK d   1       2.253  -0.282  -9.030  0.00  0.00    -0.048 A 
ATOM      5  C   UNK d   1       1.341  -0.786  -9.932  0.00  0.00    -0.044 A 
ATOM      6  C   UNK d   1       1.727  -1.028 -11.253  0.00  0.00     0.052 A 
ATOM      7  C   UNK d   1       0.780  -1.551 -12.191  0.00  0.00     0.099 C 
ATOM      8  N   UNK d   1       0.028  -1.966 -12.935  0.00  0.00    -0.191 NA
ATOM      9  H   UNK d   1       3.336  -0.951 -12.678  0.00  0.00     0.063 H 
ATOM     10  H   UNK d   1       4.959  -0.049 -11.069  0.00  0.00     0.062 H 
ATOM     11  H   UNK d   1       1.954  -0.095  -8.010  0.00  0.00     0.062 H 
ATOM     12  H   UNK d   1       0.329  -0.994  -9.618  0.00  0.00     0.063 H 
ENDROOT
BRANCH   3  13
ATOM     13  C   UNK d   1       4.540   0.525  -8.467  0.00  0.00     0.247 C 
ATOM     14  O   UNK d   1       4.737   1.723  -8.405  0.00  0.00    -0.270 OA
ATOM     15  N   UNK d   1       5.214  -0.312  -7.653  0.00  0.00    -0.294 N 
ATOM     16  C   UNK d   1       6.131   0.226  -6.633  0.00  0.00     0.042 C 
ATOM     17  C   UNK d   1       5.042  -1.764  -7.780  0.00  0.00     0.031 C 
ATOM     18  C   UNK d   1       5.723  -0.376  -5.282  0.00  0.00     0.118 C 
ATOM     19  H   UNK d   1       7.156  -0.058  -6.872  0.00  0.00     0.049 H 
ATOM     20  H   UNK d   1       6.047   1.312  -6.596  0.00  0.00     0.049 H 
ATOM     21  N   UNK d   1       5.649  -1.832  -5.436  0.00  0.00    -0.286 N 
ATOM     22  H   UNK d   1       4.722  -0.011  -5.048  0.00  0.00     0.061 H 
ATOM     23  C   UNK d   1       6.636   0.033  -4.180  0.00  0.00     0.235 C 
ATOM     24  C   UNK d   1       4.672  -2.352  -6.408  0.00  0.00     0.031 C 
ATOM     25  C   GLY d   2       6.439  -2.657  -4.743  0.00  0.00     0.233 C 
ATOM     26  H   UNK d   1       3.667  -2.040  -6.129  0.00  0.00     0.048 H 
ATOM     27  H   UNK d   1       4.726  -3.440  -6.444  0.00  0.00     0.048 H 
ATOM     28  CA  GLY d   2       7.701  -2.170  -4.088  0.00  0.00     0.088 C 
ATOM     29  O   GLY d   2       6.130  -3.826  -4.639  0.00  0.00    -0.274 OA
ATOM     30  N   GLY d   2       7.535  -0.794  -3.627  0.00  0.00    -0.305 N 
ATOM     31  HA1 GLY d   2       7.938  -2.809  -3.239  0.00  0.00     0.056 H 
ATOM     32  HA2 GLY d   2       8.519  -2.213  -4.807  0.00  0.00     0.056 H 
ATOM     33  H   GLY d   2       8.090  -0.470  -2.900  0.00  0.00     0.149 HD
ATOM     34  O   UNK d   1       6.564   1.169  -3.762  0.00  0.00    -0.274 OA
ATOM     35  H   UNK d   1       4.245  -1.975  -8.493  0.00  0.00     0.048 H 
ATOM     36  H   UNK d   1       5.972  -2.212  -8.129  0.00  0.00     0.048 H 
ENDBRANCH   3  13
TORSDOF 1
ENDMDL
MODEL 2
REMARK VINA RESULT:      -6.0      3.586      7.966
REMARK  1 active torsions:
REMARK  status: ('A' for Active; 'I' for Inactive)
REMARK    1  A    between atoms: C_3  and  C_9 
REMARK       I    between atoms: C_9  and  N_11 
ROOT
ATOM      1  C   UNK d   1       9.735  -4.290  -2.481  0.00  0.00    -0.044 A 
ATOM      2  C   UNK d   1       9.171  -3.318  -3.277  0.00  0.00    -0.048 A 
ATOM      3  C   UNK d   1       8.428  -3.682  -4.402  0.00  0.00     0.037 A 
ATOM      4  C   UNK d   1       8.257  -5.030  -4.721  0.00  0.00    -0.048 A 
ATOM      5  C   UNK d   1       8.822  -6.002  -3.925  0.00  0.00    -0.044 A 
ATOM      6  C   UNK d   1       9.565  -5.639  -2.800  0.00  0.00     0.052 A 
ATOM      7  C   UNK d   1      10.152  -6.650  -1.973  0.00  0.00     0.099 C 
ATOM      8  N   UNK d   1      10.619  -7.452  -1.316  0.00  0.00    -0.191 NA
ATOM      9  H   UNK d   1      10.305  -4.009  -1.608  0.00  0.00     0.063 H 
ATOM     10  H   UNK d   1       9.302  -2.275  -3.031  0.00  0.00     0.062 H 
ATOM     11  H   UNK d   1       7.683  -5.311  -5.591  0.00  0.00     0.062 H 
ATOM     12  H   UNK d   1       8.690  -7.046  -4.172  0.00  0.00     0.063 H 
ENDROOT
BRANCH   3  13
ATOM     13  C   UNK d   1       7.820  -2.637  -5.256  0.00  0.00     0.247 C 
ATOM     14  O   UNK d   1       8.290  -2.399  -6.351  0.00  0.00    -0.270 OA
ATOM     15  N   UNK d   1       6.747  -1.950  -4.818  0.00  0.00    -0.294 N 
ATOM     16  C   UNK d   1       6.090  -0.965  -5.695  0.00  0.00     0.042 C 
ATOM     17  C   UNK d   1       6.226  -2.175  -3.464  0.00  0.00     0.031 C 
ATOM     18  C   UNK d   1       4.599  -1.322  -5.757  0.00  0.00     0.118 C 
ATOM     19  H   UNK d   1       6.216   0.037  -5.284  0.00  0.00     0.049 H 
ATOM     20  H   UNK d   1       6.524  -1.012  -6.694  0.00  0.00     0.049 H 
ATOM     21  N   UNK d   1       4.105  -1.450  -4.383  0.00  0.00    -0.286 N 
ATOM     22  H   UNK d   1       4.514  -2.297  -6.238  0.00  0.00     0.061 H 
ATOM     23  C   UNK d   1       3.813  -0.341  -6.554  0.00  0.00     0.235 C 
ATOM     24  C   UNK d   1       4.724  -2.492  -3.545  0.00  0.00     0.031 C 
ATOM     25  C   GLY d   2       3.149  -0.653  -3.898  0.00  0.00     0.233 C 
ATOM     26  H   UNK d   1       4.574  -3.471  -3.998  0.00  0.00     0.048 H 
ATOM     27  H   UNK d   1       4.287  -2.475  -2.547  0.00  0.00     0.048 H 
ATOM     28  CA  GLY d   2       2.811   0.657  -4.555  0.00  0.00     0.088 C 
ATOM     29  O   GLY d   2       2.539  -0.993  -2.906  0.00  0.00    -0.274 OA
ATOM     30  N   GLY d   2       2.986   0.559  -6.001  0.00  0.00    -0.305 N 
ATOM     31  HA1 GLY d   2       1.777   0.916  -4.333  0.00  0.00     0.056 H 
ATOM     32  HA2 GLY d   2       3.467   1.435  -4.164  0.00  0.00     0.056 H 
ATOM     33  H   GLY d   2       2.489   1.161  -6.579  0.00  0.00     0.149 HD
ATOM     34  O   UNK d   1       3.927  -0.354  -7.761  0.00  0.00    -0.274 OA
ATOM     35  H   UNK d   1       6.751  -3.013  -3.007  0.00  0.00     0.048 H 
ATOM     36  H   UNK d   1       6.377  -1.278  -2.863  0.00  0.00     0.048 H 
ENDBRANCH   3  13
TORSDOF 1
ENDMDL
MODEL 3
REMARK VINA RESULT:      -5.7      8.855     12.923
REMARK  1 active torsions:
REMARK  status: ('A' for Active; 'I' for Inactive)
REMARK    1  A    between atoms: C_3  and  C_9 
REMARK       I    between atoms: C_9  and  N_11 
ROOT
ATOM      1  C   UNK d   1       9.302  10.121  -0.338  0.00  0.00    -0.044 A 
ATOM      2  C   UNK d   1       9.352   8.790  -0.684  0.00  0.00    -0.048 A 
ATOM      3  C   UNK d   1      10.446   8.011  -0.303  0.00  0.00     0.037 A 
ATOM      4  C   UNK d   1      11.490   8.582   0.427  0.00  0.00    -0.048 A 
ATOM      5  C   UNK d   1      11.441   9.914   0.772  0.00  0.00    -0.044 A 
ATOM      6  C   UNK d   1      10.346  10.694   0.392  0.00  0.00     0.052 A 
ATOM      7  C   UNK d   1      10.295  12.079   0.750  0.00  0.00     0.099 C 
ATOM      8  N   UNK d   1      10.254  13.179   1.035  0.00  0.00    -0.191 NA
ATOM      9  H   UNK d   1       8.453  10.723  -0.628  0.00  0.00     0.063 H 
ATOM     10  H   UNK d   1       8.544   8.347  -1.247  0.00  0.00     0.062 H 
ATOM     11  H   UNK d   1      12.336   7.979   0.721  0.00  0.00     0.062 H 
ATOM     12  H   UNK d   1      12.248  10.356   1.337  0.00  0.00     0.063 H 
ENDROOT
BRANCH   3  13
ATOM     13  C   UNK d   1      10.499   6.578  -0.672  0.00  0.00     0.247 C 
ATOM     14  O   UNK d   1      10.444   5.726   0.192  0.00  0.00    -0.270 OA
ATOM     15  N   UNK d   1      10.609   6.221  -1.967  0.00  0.00    -0.294 N 
ATOM     16  C   UNK d   1      10.584   4.797  -2.346  0.00  0.00     0.042 C 
ATOM     17  C   UNK d   1      10.760   7.245  -3.008  0.00  0.00     0.031 C 
ATOM     18  C   UNK d   1       9.498   4.624  -3.417  0.00  0.00     0.118 C 
ATOM     19  H   UNK d   1      11.553   4.505  -2.749  0.00  0.00     0.049 H 
ATOM     20  H   UNK d   1      10.346   4.187  -1.475  0.00  0.00     0.049 H 
ATOM     21  N   UNK d   1       9.741   5.608  -4.474  0.00  0.00    -0.286 N 
ATOM     22  H   UNK d   1       8.539   4.856  -2.954  0.00  0.00     0.061 H 
ATOM     23  C   UNK d   1       9.435   3.232  -3.941  0.00  0.00     0.235 C 
ATOM     24  C   UNK d   1       9.689   7.030  -4.089  0.00  0.00     0.031 C 
ATOM     25  C   GLY d   2      10.015   5.245  -5.730  0.00  0.00     0.233 C 
ATOM     26  H   UNK d   1       8.704   7.271  -3.691  0.00  0.00     0.048 H 
ATOM     27  H   UNK d   1       9.903   7.658  -4.954  0.00  0.00     0.048 H 
ATOM     28  CA  GLY d   2      10.491   3.857  -6.059  0.00  0.00     0.088 C 
ATOM     29  O   GLY d   2       9.876   6.051  -6.626  0.00  0.00    -0.274 OA
ATOM     30  N   GLY d   2       9.882   2.884  -5.156  0.00  0.00    -0.305 N 
ATOM     31  HA1 GLY d   2      10.219   3.615  -7.086  0.00  0.00     0.056 H 
ATOM     32  HA2 GLY d   2      11.575   3.815  -5.956  0.00  0.00     0.056 H 
ATOM     33  H   GLY d   2       9.796   1.961  -5.445  0.00  0.00     0.149 HD
ATOM     34  O   UNK d   1       8.959   2.370  -3.233  0.00  0.00    -0.274 OA
ATOM     35  H   UNK d   1      10.637   8.233  -2.565  0.00  0.00     0.048 H 
ATOM     36  H   UNK d   1      11.751   7.166  -3.455  0.00  0.00     0.048 H 
ENDBRANCH   3  13
TORSDOF 1
ENDMDL
MODEL 4
REMARK VINA RESULT:      -5.6     10.010     12.453
REMARK  1 active torsions:
REMARK  status: ('A' for Active; 'I' for Inactive)
REMARK    1  A    between atoms: C_3  and  C_9 
REMARK       I    between atoms: C_9  and  N_11 
ROOT
ATOM      1  C   UNK d   1      11.386  11.720  -6.391  0.00  0.00    -0.044 A 
ATOM      2  C   UNK d   1      11.854  10.922  -5.370  0.00  0.00    -0.048 A 
ATOM      3  C   UNK d   1      11.023  10.609  -4.293  0.00  0.00     0.037 A 
ATOM      4  C   UNK d   1       9.718  11.104  -4.250  0.00  0.00    -0.048 A 
ATOM      5  C   UNK d   1       9.250  11.902  -5.270  0.00  0.00    -0.044 A 
ATOM      6  C   UNK d   1      10.081  12.216  -6.348  0.00  0.00     0.052 A 
ATOM      7  C   UNK d   1       9.595  13.046  -7.409  0.00  0.00     0.099 C 
ATOM      8  N   UNK d   1       9.210  13.705  -8.251  0.00  0.00    -0.191 NA
ATOM      9  H   UNK d   1      12.027  11.958  -7.226  0.00  0.00     0.063 H 
ATOM     10  H   UNK d   1      12.862  10.538  -5.403  0.00  0.00     0.062 H 
ATOM     11  H   UNK d   1       9.076  10.862  -3.416  0.00  0.00     0.062 H 
ATOM     12  H   UNK d   1       8.241  12.286  -5.236  0.00  0.00     0.063 H 
ENDROOT
BRANCH   3  13
ATOM     13  C   UNK d   1      11.524   9.750  -3.197  0.00  0.00     0.247 C 
ATOM     14  O   UNK d   1      12.067  10.252  -2.232  0.00  0.00    -0.270 OA
ATOM     15  N   UNK d   1      11.380   8.412  -3.270  0.00  0.00    -0.294 N 
ATOM     16  C   UNK d   1      11.806   7.559  -2.147  0.00  0.00     0.042 C 
ATOM     17  C   UNK d   1      10.800   7.795  -4.469  0.00  0.00     0.031 C 
ATOM     18  C   UNK d   1      10.614   6.674  -1.760  0.00  0.00     0.118 C 
ATOM     19  H   UNK d   1      12.647   6.937  -2.455  0.00  0.00     0.049 H 
ATOM     20  H   UNK d   1      12.097   8.181  -1.301  0.00  0.00     0.049 H 
ATOM     21  N   UNK d   1      10.126   6.013  -2.973  0.00  0.00    -0.286 N 
ATOM     22  H   UNK d   1       9.824   7.329  -1.392  0.00  0.00     0.061 H 
ATOM     23  C   UNK d   1      10.954   5.705  -0.683  0.00  0.00     0.235 C 
ATOM     24  C   UNK d   1       9.634   6.882  -4.056  0.00  0.00     0.031 C 
ATOM     25  C   GLY d   2      10.138   4.684  -3.108  0.00  0.00     0.233 C 
ATOM     26  H   UNK d   1       8.799   7.485  -3.699  0.00  0.00     0.048 H 
ATOM     27  H   UNK d   1       9.318   6.277  -4.906  0.00  0.00     0.048 H 
ATOM     28  CA  GLY d   2      11.002   3.814  -2.237  0.00  0.00     0.088 C 
ATOM     29  O   GLY d   2       9.435   4.166  -3.951  0.00  0.00    -0.274 OA
ATOM     30  N   GLY d   2      11.121   4.393  -0.902  0.00  0.00    -0.305 N 
ATOM     31  HA1 GLY d   2      10.557   2.823  -2.163  0.00  0.00     0.056 H 
ATOM     32  HA2 GLY d   2      11.992   3.730  -2.684  0.00  0.00     0.056 H 
ATOM     33  H   GLY d   2      11.325   3.811  -0.152  0.00  0.00     0.149 HD
ATOM     34  O   UNK d   1      11.087   6.122   0.448  0.00  0.00    -0.274 OA
ATOM     35  H   UNK d   1      10.434   8.574  -5.138  0.00  0.00     0.048 H 
ATOM     36  H   UNK d   1      11.562   7.205  -4.979  0.00  0.00     0.048 H 
ENDBRANCH   3  13
TORSDOF 1
ENDMDL
MODEL 5
REMARK VINA RESULT:      -5.6      9.405     12.256
REMARK  1 active torsions:
REMARK  status: ('A' for Active; 'I' for Inactive)
REMARK    1  A    between atoms: C_3  and  C_9 
REMARK       I    between atoms: C_9  and  N_11 
ROOT
ATOM      1  C   UNK d   1      12.609   3.669  -3.375  0.00  0.00    -0.044 A 
ATOM      2  C   UNK d   1      12.140   4.757  -2.673  0.00  0.00    -0.048 A 
ATOM      3  C   UNK d   1      10.788   4.838  -2.334  0.00  0.00     0.037 A 
ATOM      4  C   UNK d   1       9.911   3.819  -2.708  0.00  0.00    -0.048 A 
ATOM      5  C   UNK d   1      10.380   2.731  -3.411  0.00  0.00    -0.044 A 
ATOM      6  C   UNK d   1      11.732   2.648  -3.750  0.00  0.00     0.052 A 
ATOM      7  C   UNK d   1      12.220   1.518  -4.481  0.00  0.00     0.099 C 
ATOM      8  N   UNK d   1      12.607   0.621  -5.061  0.00  0.00    -0.191 NA
ATOM      9  H   UNK d   1      13.656   3.603  -3.632  0.00  0.00     0.063 H 
ATOM     10  H   UNK d   1      12.818   5.545  -2.383  0.00  0.00     0.062 H 
ATOM     11  H   UNK d   1       8.866   3.882  -2.447  0.00  0.00     0.062 H 
ATOM     12  H   UNK d   1       9.702   1.942  -3.701  0.00  0.00     0.063 H 
ENDROOT
BRANCH   3  13
ATOM     13  C   UNK d   1      10.284   6.006  -1.578  0.00  0.00     0.247 C 
ATOM     14  O   UNK d   1      10.263   5.979  -0.363  0.00  0.00    -0.270 OA
ATOM     15  N   UNK d   1       9.848   7.098  -2.236  0.00  0.00    -0.294 N 
ATOM     16  C   UNK d   1       9.419   8.292  -1.488  0.00  0.00     0.042 C 
ATOM     17  C   UNK d   1       9.793   7.104  -3.703  0.00  0.00     0.031 C 
ATOM     18  C   UNK d   1      10.203   9.490  -2.039  0.00  0.00     0.118 C 
ATOM     19  H   UNK d   1       8.350   8.451  -1.628  0.00  0.00     0.049 H 
ATOM     20  H   UNK d   1       9.637   8.161  -0.428  0.00  0.00     0.049 H 
ATOM     21  N   UNK d   1      10.047   9.504  -3.496  0.00  0.00    -0.286 N 
ATOM     22  H   UNK d   1      11.257   9.324  -1.814  0.00  0.00     0.061 H 
ATOM     23  C   UNK d   1       9.792  10.775  -1.411  0.00  0.00     0.235 C 
ATOM     24  C   UNK d   1      10.550   8.332  -4.234  0.00  0.00     0.031 C 
ATOM     25  C   GLY d   2       9.462  10.521  -4.135  0.00  0.00     0.233 C 
ATOM     26  H   UNK d   1      11.619   8.214  -4.059  0.00  0.00     0.048 H 
ATOM     27  H   UNK d   1      10.361   8.454  -5.300  0.00  0.00     0.048 H 
ATOM     28  CA  GLY d   2       8.577  11.498  -3.410  0.00  0.00     0.088 C 
ATOM     29  O   GLY d   2       9.648  10.661  -5.326  0.00  0.00    -0.274 OA
ATOM     30  N   GLY d   2       9.055  11.698  -2.045  0.00  0.00    -0.305 N 
ATOM     31  HA1 GLY d   2       8.582  12.450  -3.938  0.00  0.00     0.056 H 
ATOM     32  HA2 GLY d   2       7.559  11.109  -3.383  0.00  0.00     0.056 H 
ATOM     33  H   GLY d   2       8.834  12.524  -1.585  0.00  0.00     0.149 HD
ATOM     34  O   UNK d   1      10.138  10.997  -0.270  0.00  0.00    -0.274 OA
ATOM     35  H   UNK d   1      10.256   6.196  -4.088  0.00  0.00     0.048 H 
ATOM     36  H   UNK d   1       8.753   7.149  -4.029  0.00  0.00     0.048 H 
ENDBRANCH   3  13
TORSDOF 1
ENDMDL
MODEL 6
REMARK VINA RESULT:      -5.5      8.794     12.311
REMARK  1 active torsions:
REMARK  status: ('A' for Active; 'I' for Inactive)
REMARK    1  A    between atoms: C_3  and  C_9 
REMARK       I    between atoms: C_9  and  N_11 
ROOT
ATOM      1  C   UNK d   1      11.827   7.052  -1.555  0.00  0.00    -0.044 A 
ATOM      2  C   UNK d   1      11.553   7.599  -2.789  0.00  0.00    -0.048 A 
ATOM      3  C   UNK d   1      10.284   8.114  -3.058  0.00  0.00     0.037 A 
ATOM      4  C   UNK d   1       9.291   8.075  -2.077  0.00  0.00    -0.048 A 
ATOM      5  C   UNK d   1       9.564   7.527  -0.843  0.00  0.00    -0.044 A 
ATOM      6  C   UNK d   1      10.834   7.011  -0.574  0.00  0.00     0.052 A 
ATOM      7  C   UNK d   1      11.117   6.441   0.709  0.00  0.00     0.099 C 
ATOM      8  N   UNK d   1      11.342   5.988   1.727  0.00  0.00    -0.191 NA
ATOM      9  H   UNK d   1      12.810   6.657  -1.345  0.00  0.00     0.063 H 
ATOM     10  H   UNK d   1      12.321   7.631  -3.547  0.00  0.00     0.062 H 
ATOM     11  H   UNK d   1       8.310   8.473  -2.286  0.00  0.00     0.062 H 
ATOM     12  H   UNK d   1       8.796   7.496  -0.085  0.00  0.00     0.063 H 
ENDROOT
BRANCH   3  13
ATOM     13  C   UNK d   1       9.991   8.705  -4.383  0.00  0.00     0.247 C 
ATOM     14  O   UNK d   1      10.106   9.903  -4.553  0.00  0.00    -0.270 OA
ATOM     15  N   UNK d   1       9.596   7.914  -5.400  0.00  0.00    -0.294 N 
ATOM     16  C   UNK d   1       9.379   8.485  -6.740  0.00  0.00     0.042 C 
ATOM     17  C   UNK d   1       9.375   6.479  -5.179  0.00  0.00     0.031 C 
ATOM     18  C   UNK d   1      10.213   7.664  -7.733  0.00  0.00     0.118 C 
ATOM     19  H   UNK d   1       8.322   8.422  -7.002  0.00  0.00     0.049 H 
ATOM     20  H   UNK d   1       9.701   9.526  -6.755  0.00  0.00     0.049 H 
ATOM     21  N   UNK d   1       9.894   6.248  -7.534  0.00  0.00    -0.286 N 
ATOM     22  H   UNK d   1      11.263   7.812  -7.481  0.00  0.00     0.061 H 
ATOM     23  C   UNK d   1      10.009   8.099  -9.142  0.00  0.00     0.235 C 
ATOM     24  C   UNK d   1      10.188   5.677  -6.207  0.00  0.00     0.031 C 
ATOM     25  C   GLY d   2       9.346   5.504  -8.498  0.00  0.00     0.233 C 
ATOM     26  H   UNK d   1      11.252   5.767  -5.992  0.00  0.00     0.048 H 
ATOM     27  H   UNK d   1       9.892   4.629  -6.179  0.00  0.00     0.048 H 
ATOM     28  CA  GLY d   2       8.654   6.132  -9.676  0.00  0.00     0.088 C 
ATOM     29  O   GLY d   2       9.409   4.294  -8.423  0.00  0.00    -0.274 OA
ATOM     30  N   GLY d   2       9.302   7.390 -10.033  0.00  0.00    -0.305 N 
ATOM     31  HA1 GLY d   2       8.696   5.450 -10.525  0.00  0.00     0.056 H 
ATOM     32  HA2 GLY d   2       7.612   6.322  -9.421  0.00  0.00     0.056 H 
ATOM     33  H   GLY d   2       9.220   7.722 -10.942  0.00  0.00     0.149 HD
ATOM     34  O   UNK d   1      10.504   9.147  -9.500  0.00  0.00    -0.274 OA
ATOM     35  H   UNK d   1       9.697   6.213  -4.172  0.00  0.00     0.048 H 
ATOM     36  H   UNK d   1       8.315   6.252  -5.295  0.00  0.00     0.048 H 
ENDBRANCH   3  13
TORSDOF 1
ENDMDL
MODEL 7
REMARK VINA RESULT:      -5.5     11.674     13.983
REMARK  1 active torsions:
REMARK  status: ('A' for Active; 'I' for Inactive)
REMARK    1  A    between atoms: C_3  and  C_9 
REMARK       I    between atoms: C_9  and  N_11 
ROOT
ATOM      1  C   UNK d   1      12.373   6.773  -0.426  0.00  0.00    -0.044 A 
ATOM      2  C   UNK d   1      12.430   7.070  -1.769  0.00  0.00    -0.048 A 
ATOM      3  C   UNK d   1      11.263   7.065  -2.535  0.00  0.00     0.037 A 
ATOM      4  C   UNK d   1      10.038   6.758  -1.940  0.00  0.00    -0.048 A 
ATOM      5  C   UNK d   1       9.980   6.461  -0.597  0.00  0.00    -0.044 A 
ATOM      6  C   UNK d   1      11.148   6.466   0.170  0.00  0.00     0.052 A 
ATOM      7  C   UNK d   1      11.088   6.155   1.567  0.00  0.00     0.099 C 
ATOM      8  N   UNK d   1      11.041   5.909   2.675  0.00  0.00    -0.191 NA
ATOM      9  H   UNK d   1      13.275   6.782   0.168  0.00  0.00     0.063 H 
ATOM     10  H   UNK d   1      13.377   7.308  -2.230  0.00  0.00     0.062 H 
ATOM     11  H   UNK d   1       9.135   6.754  -2.533  0.00  0.00     0.062 H 
ATOM     12  H   UNK d   1       9.033   6.223  -0.136  0.00  0.00     0.063 H 
ENDROOT
BRANCH   3  13
ATOM     13  C   UNK d   1      11.324   7.387  -3.979  0.00  0.00     0.247 C 
ATOM     14  O   UNK d   1      11.569   6.512  -4.786  0.00  0.00    -0.270 OA
ATOM     15  N   UNK d   1      11.110   8.650  -4.397  0.00  0.00    -0.294 N 
ATOM     16  C   UNK d   1      11.092   8.960  -5.837  0.00  0.00     0.042 C 
ATOM     17  C   UNK d   1      10.897   9.726  -3.421  0.00  0.00     0.031 C 
ATOM     18  C   UNK d   1       9.776   9.689  -6.136  0.00  0.00     0.118 C 
ATOM     19  H   UNK d   1      11.937   9.601  -6.087  0.00  0.00     0.049 H 
ATOM     20  H   UNK d   1      11.145   8.037  -6.414  0.00  0.00     0.049 H 
ATOM     21  N   UNK d   1       9.650  10.806  -5.195  0.00  0.00    -0.286 N 
ATOM     22  H   UNK d   1       8.961   8.991  -5.942  0.00  0.00     0.061 H 
ATOM     23  C   UNK d   1       9.681  10.130  -7.555  0.00  0.00     0.235 C 
ATOM     24  C   UNK d   1       9.595  10.469  -3.762  0.00  0.00     0.031 C 
ATOM     25  C   GLY d   2       9.603  12.076  -5.607  0.00  0.00     0.233 C 
ATOM     26  H   UNK d   1       8.737   9.826  -3.564  0.00  0.00     0.048 H 
ATOM     27  H   UNK d   1       9.520  11.379  -3.168  0.00  0.00     0.048 H 
ATOM     28  CA  GLY d   2      10.078  12.475  -6.977  0.00  0.00     0.088 C 
ATOM     29  O   GLY d   2       9.168  12.927  -4.859  0.00  0.00    -0.274 OA
ATOM     30  N   GLY d   2       9.810  11.408  -7.937  0.00  0.00    -0.305 N 
ATOM     31  HA1 GLY d   2       9.560  13.380  -7.289  0.00  0.00     0.056 H 
ATOM     32  HA2 GLY d   2      11.150  12.669  -6.943  0.00  0.00     0.056 H 
ATOM     33  H   GLY d   2       9.720  11.631  -8.877  0.00  0.00     0.149 HD
ATOM     34  O   UNK d   1       9.479   9.291  -8.407  0.00  0.00    -0.274 OA
ATOM     35  H   UNK d   1      10.822   9.300  -2.421  0.00  0.00     0.048 H 
ATOM     36  H   UNK d   1      11.734  10.423  -3.459  0.00  0.00     0.048 H 
ENDBRANCH   3  13
TORSDOF 1
ENDMDL
MODEL 8
REMARK VINA RESULT:      -5.4      7.741     10.402
REMARK  1 active torsions:
REMARK  status: ('A' for Active; 'I' for Inactive)
REMARK    1  A    between atoms: C_3  and  C_9 
REMARK       I    between atoms: C_9  and  N_11 
ROOT
ATOM      1  C   UNK d   1      10.524   3.708  -6.943  0.00  0.00    -0.044 A 
ATOM      2  C   UNK d   1      10.443   4.963  -6.381  0.00  0.00    -0.048 A 
ATOM      3  C   UNK d   1       9.712   5.155  -5.207  0.00  0.00     0.037 A 
ATOM      4  C   UNK d   1       9.062   4.077  -4.603  0.00  0.00    -0.048 A 
ATOM      5  C   UNK d   1       9.142   2.822  -5.165  0.00  0.00    -0.044 A 
ATOM      6  C   UNK d   1       9.874   2.629  -6.339  0.00  0.00     0.052 A 
ATOM      7  C   UNK d   1       9.957   1.325  -6.924  0.00  0.00     0.099 C 
ATOM      8  N   UNK d   1      10.024   0.289  -7.389  0.00  0.00    -0.191 NA
ATOM      9  H   UNK d   1      11.094   3.558  -7.848  0.00  0.00     0.063 H 
ATOM     10  H   UNK d   1      10.946   5.796  -6.847  0.00  0.00     0.062 H 
ATOM     11  H   UNK d   1       8.496   4.227  -3.696  0.00  0.00     0.062 H 
ATOM     12  H   UNK d   1       8.640   1.988  -4.698  0.00  0.00     0.063 H 
ENDROOT
BRANCH   3  13
ATOM     13  C   UNK d   1       9.626   6.503  -4.602  0.00  0.00     0.247 C 
ATOM     14  O   UNK d   1       8.995   7.380  -5.159  0.00  0.00    -0.270 OA
ATOM     15  N   UNK d   1      10.249   6.758  -3.434  0.00  0.00    -0.294 N 
ATOM     16  C   UNK d   1      10.102   8.074  -2.789  0.00  0.00     0.042 C 
ATOM     17  C   UNK d   1      11.080   5.728  -2.799  0.00  0.00     0.031 C 
ATOM     18  C   UNK d   1       9.633   7.832  -1.348  0.00  0.00     0.118 C 
ATOM     19  H   UNK d   1      11.061   8.592  -2.785  0.00  0.00     0.049 H 
ATOM     20  H   UNK d   1       9.363   8.668  -3.325  0.00  0.00     0.049 H 
ATOM     21  N   UNK d   1      10.543   6.865  -0.729  0.00  0.00    -0.286 N 
ATOM     22  H   UNK d   1       8.642   7.379  -1.397  0.00  0.00     0.061 H 
ATOM     23  C   UNK d   1       9.528   9.095  -0.566  0.00  0.00     0.235 C 
ATOM     24  C   UNK d   1      10.620   5.529  -1.346  0.00  0.00     0.031 C 
ATOM     25  C   GLY d   2      11.287   7.175   0.336  0.00  0.00     0.233 C 
ATOM     26  H   UNK d   1       9.639   5.055  -1.329  0.00  0.00     0.048 H 
ATOM     27  H   UNK d   1      11.339   4.912  -0.810  0.00  0.00     0.048 H 
ATOM     28  CA  GLY d   2      11.555   8.605   0.717  0.00  0.00     0.088 C 
ATOM     29  O   GLY d   2      11.756   6.284   1.013  0.00  0.00    -0.274 OA
ATOM     30  N   GLY d   2      10.405   9.442   0.387  0.00  0.00    -0.305 N 
ATOM     31  HA1 GLY d   2      11.749   8.664   1.787  0.00  0.00     0.056 H 
ATOM     32  HA2 GLY d   2      12.429   8.964   0.174  0.00  0.00     0.056 H 
ATOM     33  H   GLY d   2      10.271  10.272   0.872  0.00  0.00     0.149 HD
ATOM     34  O   UNK d   1       8.606   9.846  -0.803  0.00  0.00    -0.274 OA
ATOM     35  H   UNK d   1      10.978   4.790  -3.346  0.00  0.00     0.048 H 
ATOM     36  H   UNK d   1      12.123   6.044  -2.811  0.00  0.00     0.048 H 
ENDBRANCH   3  13
TORSDOF 1
ENDMDL
MODEL 9
REMARK VINA RESULT:      -5.4      8.681     12.044
REMARK  1 active torsions:
REMARK  status: ('A' for Active; 'I' for Inactive)
REMARK    1  A    between atoms: C_3  and  C_9 
REMARK       I    between atoms: C_9  and  N_11 
ROOT
ATOM      1  C   UNK d   1      11.751   5.303  -1.876  0.00  0.00    -0.044 A 
ATOM      2  C   UNK d   1      11.513   4.939  -3.182  0.00  0.00    -0.048 A 
ATOM      3  C   UNK d   1      10.364   5.392  -3.834  0.00  0.00     0.037 A 
ATOM      4  C   UNK d   1       9.457   6.213  -3.162  0.00  0.00    -0.048 A 
ATOM      5  C   UNK d   1       9.694   6.576  -1.855  0.00  0.00    -0.044 A 
ATOM      6  C   UNK d   1      10.844   6.124  -1.202  0.00  0.00     0.052 A 
ATOM      7  C   UNK d   1      11.091   6.502   0.157  0.00  0.00     0.099 C 
ATOM      8  N   UNK d   1      11.287   6.801   1.235  0.00  0.00    -0.191 NA
ATOM      9  H   UNK d   1      12.642   4.957  -1.373  0.00  0.00     0.063 H 
ATOM     10  H   UNK d   1      12.215   4.305  -3.702  0.00  0.00     0.062 H 
ATOM     11  H   UNK d   1       8.568   6.562  -3.666  0.00  0.00     0.062 H 
ATOM     12  H   UNK d   1       8.992   7.211  -1.334  0.00  0.00     0.063 H 
ENDROOT
BRANCH   3  13
ATOM     13  C   UNK d   1      10.109   5.003  -5.239  0.00  0.00     0.247 C 
ATOM     14  O   UNK d   1       9.656   3.903  -5.491  0.00  0.00    -0.270 OA
ATOM     15  N   UNK d   1      10.381   5.866  -6.237  0.00  0.00    -0.294 N 
ATOM     16  C   UNK d   1      10.056   5.514  -7.629  0.00  0.00     0.042 C 
ATOM     17  C   UNK d   1      11.006   7.162  -5.944  0.00  0.00     0.031 C 
ATOM     18  C   UNK d   1       9.204   6.652  -8.207  0.00  0.00     0.118 C 
ATOM     19  H   UNK d   1      10.974   5.406  -8.207  0.00  0.00     0.049 H 
ATOM     20  H   UNK d   1       9.493   4.580  -7.653  0.00  0.00     0.049 H 
ATOM     21  N   UNK d   1       9.909   7.914  -7.969  0.00  0.00    -0.286 N 
ATOM     22  H   UNK d   1       8.268   6.678  -7.650  0.00  0.00     0.061 H 
ATOM     23  C   UNK d   1       8.882   6.445  -9.646  0.00  0.00     0.235 C 
ATOM     24  C   UNK d   1      10.159   8.285  -6.565  0.00  0.00     0.031 C 
ATOM     25  C   GLY d   2      10.326   8.692  -8.972  0.00  0.00     0.233 C 
ATOM     26  H   UNK d   1       9.214   8.376  -6.031  0.00  0.00     0.048 H 
ATOM     27  H   UNK d   1      10.703   9.228  -6.520  0.00  0.00     0.048 H 
ATOM     28  CA  GLY d   2      10.472   8.159 -10.370  0.00  0.00     0.088 C 
ATOM     29  O   GLY d   2      10.591   9.856  -8.750  0.00  0.00    -0.274 OA
ATOM     30  N   GLY d   2       9.457   7.144 -10.635  0.00  0.00    -0.305 N 
ATOM     31  HA1 GLY d   2      10.361   8.976 -11.082  0.00  0.00     0.056 H 
ATOM     32  HA2 GLY d   2      11.462   7.718 -10.484  0.00  0.00     0.056 H 
ATOM     33  H   GLY d   2       9.190   6.972 -11.552  0.00  0.00     0.149 HD
ATOM     34  O   UNK d   1       8.060   5.602  -9.938  0.00  0.00    -0.274 OA
ATOM     35  H   UNK d   1      11.063   7.303  -4.865  0.00  0.00     0.048 H 
ATOM     36  H   UNK d   1      12.010   7.186  -6.368  0.00  0.00     0.048 H 
ENDBRANCH   3  13
TORSDOF 1
ENDMDL
MODEL 10
REMARK VINA RESULT:      -5.3      5.154      8.155
REMARK  1 active torsions:
REMARK  status: ('A' for Active; 'I' for Inactive)
REMARK    1  A    between atoms: C_3  and  C_9 
REMARK       I    between atoms: C_9  and  N_11 
ROOT
ATOM      1  C   UNK d   1       9.469   4.922  -4.781  0.00  0.00    -0.044 A 
ATOM      2  C   UNK d   1       9.321   3.636  -5.250  0.00  0.00    -0.048 A 
ATOM      3  C   UNK d   1       9.599   2.552  -4.416  0.00  0.00     0.037 A 
ATOM      4  C   UNK d   1      10.030   2.770  -3.106  0.00  0.00    -0.048 A 
ATOM      5  C   UNK d   1      10.179   4.056  -2.636  0.00  0.00    -0.044 A 
ATOM      6  C   UNK d   1       9.900   5.141  -3.470  0.00  0.00     0.052 A 
ATOM      7  C   UNK d   1      10.055   6.479  -2.982  0.00  0.00     0.099 C 
ATOM      8  N   UNK d   1      10.178   7.540  -2.594  0.00  0.00    -0.191 NA
ATOM      9  H   UNK d   1       9.249   5.760  -5.424  0.00  0.00     0.063 H 
ATOM     10  H   UNK d   1       8.987   3.466  -6.263  0.00  0.00     0.062 H 
ATOM     11  H   UNK d   1      10.246   1.932  -2.461  0.00  0.00     0.062 H 
ATOM     12  H   UNK d   1      10.512   4.226  -1.622  0.00  0.00     0.063 H 
ENDROOT
BRANCH   3  13
ATOM     13  C   UNK d   1       9.438   1.170  -4.920  0.00  0.00     0.247 C 
ATOM     14  O   UNK d   1      10.379   0.597  -5.434  0.00  0.00    -0.270 OA
ATOM     15  N   UNK d   1       8.248   0.548  -4.810  0.00  0.00    -0.294 N 
ATOM     16  C   UNK d   1       8.103  -0.854  -5.239  0.00  0.00     0.042 C 
ATOM     17  C   UNK d   1       7.086   1.263  -4.267  0.00  0.00     0.031 C 
ATOM     18  C   UNK d   1       7.505  -1.637  -4.063  0.00  0.00     0.118 C 
ATOM     19  H   UNK d   1       7.436  -0.910  -6.100  0.00  0.00     0.049 H 
ATOM     20  H   UNK d   1       9.078  -1.264  -5.500  0.00  0.00     0.049 H 
ATOM     21  N   UNK d   1       6.302  -0.933  -3.612  0.00  0.00    -0.286 N 
ATOM     22  H   UNK d   1       8.232  -1.617  -3.250  0.00  0.00     0.061 H 
ATOM     23  C   UNK d   1       7.234  -3.060  -4.408  0.00  0.00     0.235 C 
ATOM     24  C   UNK d   1       6.479   0.443  -3.117  0.00  0.00     0.031 C 
ATOM     25  C   GLY d   2       5.092  -1.498  -3.658  0.00  0.00     0.233 C 
ATOM     26  H   UNK d   1       7.154   0.447  -2.261  0.00  0.00     0.048 H 
ATOM     27  H   UNK d   1       5.515   0.863  -2.830  0.00  0.00     0.048 H 
ATOM     28  CA  GLY d   2       4.817  -2.692  -4.529  0.00  0.00     0.088 C 
ATOM     29  O   GLY d   2       4.195  -1.037  -2.983  0.00  0.00    -0.274 OA
ATOM     30  N   GLY d   2       6.000  -3.544  -4.611  0.00  0.00    -0.305 N 
ATOM     31  HA1 GLY d   2       3.990  -3.263  -4.108  0.00  0.00     0.056 H 
ATOM     32  HA2 GLY d   2       4.546  -2.354  -5.529  0.00  0.00     0.056 H 
ATOM     33  H   GLY d   2       5.890  -4.486  -4.817  0.00  0.00     0.149 HD
ATOM     34  O   UNK d   1       8.175  -3.818  -4.511  0.00  0.00    -0.274 OA
ATOM     35  H   UNK d   1       7.402   2.237  -3.893  0.00  0.00     0.048 H 
ATOM     36  H   UNK d   1       6.342   1.397  -5.051  0.00  0.00     0.048 H 
ENDBRANCH   3  13
TORSDOF 1
ENDMDL
