MODEL 1
REMARK VINA RESULT:      -7.4      0.000      0.000
REMARK  7 active torsions:
REMARK  status: ('A' for Active; 'I' for Inactive)
REMARK    1  A    between atoms: C_3  and  C_8 
REMARK    2  A    between atoms: C_4  and  O_7 
REMARK    3  A    between atoms: N_9  and  C_10 
REMARK    4  A    between atoms: C_10  and  C_11 
REMARK    5  A    between atoms: C_11  and  N_12 
REMARK    6  A    between atoms: C_13  and  C_14 
REMARK    7  A    between atoms: C_15  and  O_20 
ROOT
ATOM      1  C   LIG d   1       4.306   0.056  -7.689  0.00  0.00     0.201 C 
ATOM      2  H   LIG d   1       3.869  -0.629  -8.415  0.00  0.00     0.109 H 
ATOM      3  H   LIG d   1       5.392   0.027  -7.770  0.00  0.00     0.109 H 
ENDROOT
BRANCH   1   4
ATOM      4  N   LIG d   1       3.833   1.417  -7.954  0.00  0.00    -0.241 N 
ATOM      5  C   LIG d   1       3.016   1.638  -8.934  0.00  0.00     0.175 C 
ATOM      6  H   LIG d   1       2.532   2.599  -9.027  0.00  0.00     0.138 H 
ATOM      7  H   LIG d   1       4.130   2.151  -7.394  0.00  0.00     0.445 HD
BRANCH   5   8
ATOM      8  C   LIG d   1       2.748   0.579  -9.923  0.00  0.00     0.079 A 
ATOM      9  C   LIG d   1       1.620  -0.234  -9.792  0.00  0.00    -0.045 A 
ATOM     10  C   LIG d   1       1.374  -1.223 -10.722  0.00  0.00    -0.061 A 
ATOM     11  H   LIG d   1       0.942  -0.091  -8.964  0.00  0.00     0.063 H 
ATOM     12  C   LIG d   1       2.241  -1.412 -11.786  0.00  0.00    -0.058 A 
ATOM     13  H   LIG d   1       0.504  -1.854 -10.618  0.00  0.00     0.062 H 
ATOM     14  C   LIG d   1       3.359  -0.614 -11.927  0.00  0.00    -0.019 A 
ATOM     15  H   LIG d   1       2.040  -2.189 -12.510  0.00  0.00     0.062 H 
ATOM     16  C   LIG d   1       3.622   0.385 -11.002  0.00  0.00     0.130 A 
ATOM     17  H   LIG d   1       4.029  -0.768 -12.760  0.00  0.00     0.065 H 
BRANCH  16  18
ATOM     18  O   LIG d   1       4.720   1.169 -11.139  0.00  0.00    -0.506 OA
ATOM     19  H   LIG d   1       4.955   1.359 -12.057  0.00  0.00     0.292 HD
ENDBRANCH  16  18
ENDBRANCH   5   8
ENDBRANCH   1   4
BRANCH   1  20
ATOM     20  C   LIG d   1       3.889  -0.363  -6.278  0.00  0.00     0.201 C 
ATOM     21  H   LIG d   1       3.868  -1.452  -6.213  0.00  0.00     0.109 H 
ATOM     22  H   LIG d   1       4.604   0.030  -5.556  0.00  0.00     0.109 H 
BRANCH  20  23
ATOM     23  N   LIG d   1       2.556   0.168  -5.985  0.00  0.00    -0.241 N 
ATOM     24  C   LIG d   1       2.079   0.092  -4.784  0.00  0.00     0.175 C 
ATOM     25  H   LIG d   1       1.016   0.192  -4.617  0.00  0.00     0.138 H 
ATOM     26  H   LIG d   1       2.031   0.577  -6.690  0.00  0.00     0.445 HD
BRANCH  24  27
ATOM     27  C   LIG d   1       2.985  -0.130  -3.643  0.00  0.00     0.079 A 
ATOM     28  C   LIG d   1       3.190  -1.420  -3.148  0.00  0.00    -0.045 A 
ATOM     29  C   LIG d   1       4.043  -1.621  -2.085  0.00  0.00    -0.061 A 
ATOM     30  H   LIG d   1       2.684  -2.260  -3.602  0.00  0.00     0.063 H 
ATOM     31  C   LIG d   1       4.689  -0.548  -1.495  0.00  0.00    -0.058 A 
ATOM     32  H   LIG d   1       4.204  -2.620  -1.706  0.00  0.00     0.062 H 
ATOM     33  C   LIG d   1       4.491   0.734  -1.970  0.00  0.00    -0.019 A 
ATOM     34  H   LIG d   1       5.352  -0.714  -0.659  0.00  0.00     0.062 H 
ATOM     35  C   LIG d   1       3.642   0.955  -3.043  0.00  0.00     0.130 A 
ATOM     36  H   LIG d   1       4.999   1.566  -1.505  0.00  0.00     0.065 H 
BRANCH  35  37
ATOM     37  O   LIG d   1       3.446   2.213  -3.511  0.00  0.00    -0.506 OA
ATOM     38  H   LIG d   1       4.096   2.855  -3.195  0.00  0.00     0.292 HD
ENDBRANCH  35  37
ENDBRANCH  24  27
ENDBRANCH  20  23
ENDBRANCH   1  20
TORSDOF 7
ENDMDL
MODEL 2
REMARK VINA RESULT:      -7.3      0.152      7.319
REMARK  7 active torsions:
REMARK  status: ('A' for Active; 'I' for Inactive)
REMARK    1  A    between atoms: C_3  and  C_8 
REMARK    2  A    between atoms: C_4  and  O_7 
REMARK    3  A    between atoms: N_9  and  C_10 
REMARK    4  A    between atoms: C_10  and  C_11 
REMARK    5  A    between atoms: C_11  and  N_12 
REMARK    6  A    between atoms: C_13  and  C_14 
REMARK    7  A    between atoms: C_15  and  O_20 
ROOT
ATOM      1  C   LIG d   1       3.905  -0.434  -6.271  0.00  0.00     0.201 C 
ATOM      2  H   LIG d   1       4.547  -0.040  -5.484  0.00  0.00     0.109 H 
ATOM      3  H   LIG d   1       3.971  -1.521  -6.285  0.00  0.00     0.109 H 
ENDROOT
BRANCH   1   4
ATOM      4  N   LIG d   1       2.519  -0.033  -6.016  0.00  0.00    -0.241 N 
ATOM      5  C   LIG d   1       2.135   0.237  -4.809  0.00  0.00     0.175 C 
ATOM      6  H   LIG d   1       1.172   0.695  -4.638  0.00  0.00     0.138 H 
ATOM      7  H   LIG d   1       1.889   0.032  -6.751  0.00  0.00     0.445 HD
BRANCH   5   8
ATOM      8  C   LIG d   1       3.011  -0.084  -3.668  0.00  0.00     0.079 A 
ATOM      9  C   LIG d   1       3.159  -1.408  -3.247  0.00  0.00    -0.045 A 
ATOM     10  C   LIG d   1       3.980  -1.701  -2.179  0.00  0.00    -0.061 A 
ATOM     11  H   LIG d   1       2.631  -2.200  -3.757  0.00  0.00     0.063 H 
ATOM     12  C   LIG d   1       4.660  -0.689  -1.522  0.00  0.00    -0.058 A 
ATOM     13  H   LIG d   1       4.091  -2.725  -1.852  0.00  0.00     0.062 H 
ATOM     14  C   LIG d   1       4.522   0.624  -1.928  0.00  0.00    -0.019 A 
ATOM     15  H   LIG d   1       5.301  -0.929  -0.686  0.00  0.00     0.062 H 
ATOM     16  C   LIG d   1       3.700   0.937  -3.000  0.00  0.00     0.130 A 
ATOM     17  H   LIG d   1       5.056   1.407  -1.410  0.00  0.00     0.065 H 
BRANCH  16  18
ATOM     18  O   LIG d   1       3.564   2.226  -3.400  0.00  0.00    -0.506 OA
ATOM     19  H   LIG d   1       4.291   2.546  -3.952  0.00  0.00     0.292 HD
ENDBRANCH  16  18
ENDBRANCH   5   8
ENDBRANCH   1   4
BRANCH   1  20
ATOM     20  C   LIG d   1       4.355   0.122  -7.623  0.00  0.00     0.201 C 
ATOM     21  H   LIG d   1       5.438   0.250  -7.621  0.00  0.00     0.109 H 
ATOM     22  H   LIG d   1       4.074  -0.574  -8.414  0.00  0.00     0.109 H 
BRANCH  20  23
ATOM     23  N   LIG d   1       3.711   1.416  -7.859  0.00  0.00    -0.241 N 
ATOM     24  C   LIG d   1       3.164   1.667  -9.004  0.00  0.00     0.175 C 
ATOM     25  H   LIG d   1       2.964   2.688  -9.295  0.00  0.00     0.138 H 
ATOM     26  H   LIG d   1       3.695   2.085  -7.156  0.00  0.00     0.445 HD
BRANCH  24  27
ATOM     27  C   LIG d   1       2.811   0.561  -9.911  0.00  0.00     0.079 A 
ATOM     28  C   LIG d   1       1.704  -0.246  -9.639  0.00  0.00    -0.045 A 
ATOM     29  C   LIG d   1       1.376  -1.275 -10.494  0.00  0.00    -0.061 A 
ATOM     30  H   LIG d   1       1.102  -0.060  -8.761  0.00  0.00     0.063 H 
ATOM     31  C   LIG d   1       2.147  -1.523 -11.617  0.00  0.00    -0.058 A 
ATOM     32  H   LIG d   1       0.516  -1.896 -10.285  0.00  0.00     0.062 H 
ATOM     33  C   LIG d   1       3.248  -0.737 -11.896  0.00  0.00    -0.019 A 
ATOM     34  H   LIG d   1       1.886  -2.335 -12.280  0.00  0.00     0.062 H 
ATOM     35  C   LIG d   1       3.589   0.307 -11.050  0.00  0.00     0.130 A 
ATOM     36  H   LIG d   1       3.844  -0.935 -12.774  0.00  0.00     0.065 H 
BRANCH  35  37
ATOM     37  O   LIG d   1       4.670   1.080 -11.322  0.00  0.00    -0.506 OA
ATOM     38  H   LIG d   1       4.661   1.938 -10.878  0.00  0.00     0.292 HD
ENDBRANCH  35  37
ENDBRANCH  24  27
ENDBRANCH  20  23
ENDBRANCH   1  20
TORSDOF 7
ENDMDL
MODEL 3
REMARK VINA RESULT:      -7.1      1.483      7.405
REMARK  7 active torsions:
REMARK  status: ('A' for Active; 'I' for Inactive)
REMARK    1  A    between atoms: C_3  and  C_8 
REMARK    2  A    between atoms: C_4  and  O_7 
REMARK    3  A    between atoms: N_9  and  C_10 
REMARK    4  A    between atoms: C_10  and  C_11 
REMARK    5  A    between atoms: C_11  and  N_12 
REMARK    6  A    between atoms: C_13  and  C_14 
REMARK    7  A    between atoms: C_15  and  O_20 
ROOT
ATOM      1  C   LIG d   1       4.128  -0.220  -6.361  0.00  0.00     0.201 C 
ATOM      2  H   LIG d   1       4.602   0.357  -5.567  0.00  0.00     0.109 H 
ATOM      3  H   LIG d   1       4.483  -1.249  -6.325  0.00  0.00     0.109 H 
ENDROOT
BRANCH   1   4
ATOM      4  N   LIG d   1       2.674  -0.198  -6.179  0.00  0.00    -0.241 N 
ATOM      5  C   LIG d   1       2.172   0.058  -5.013  0.00  0.00     0.175 C 
ATOM      6  H   LIG d   1       1.113   0.245  -4.911  0.00  0.00     0.138 H 
ATOM      7  H   LIG d   1       2.088  -0.374  -6.932  0.00  0.00     0.445 HD
BRANCH   5   8
ATOM      8  C   LIG d   1       3.044   0.092  -3.826  0.00  0.00     0.079 A 
ATOM      9  C   LIG d   1       3.359   1.311  -3.221  0.00  0.00    -0.045 A 
ATOM     10  C   LIG d   1       4.175   1.336  -2.110  0.00  0.00    -0.061 A 
ATOM     11  H   LIG d   1       2.965   2.233  -3.623  0.00  0.00     0.063 H 
ATOM     12  C   LIG d   1       4.684   0.158  -1.590  0.00  0.00    -0.058 A 
ATOM     13  H   LIG d   1       4.422   2.281  -1.646  0.00  0.00     0.062 H 
ATOM     14  C   LIG d   1       4.381  -1.054  -2.179  0.00  0.00    -0.019 A 
ATOM     15  H   LIG d   1       5.323   0.188  -0.719  0.00  0.00     0.062 H 
ATOM     16  C   LIG d   1       3.562  -1.098  -3.297  0.00  0.00     0.130 A 
ATOM     17  H   LIG d   1       4.781  -1.969  -1.767  0.00  0.00     0.065 H 
BRANCH  16  18
ATOM     18  O   LIG d   1       3.263  -2.288  -3.875  0.00  0.00    -0.506 OA
ATOM     19  H   LIG d   1       4.020  -2.882  -3.969  0.00  0.00     0.292 HD
ENDBRANCH  16  18
ENDBRANCH   5   8
ENDBRANCH   1   4
BRANCH   1  20
ATOM     20  C   LIG d   1       4.481   0.394  -7.717  0.00  0.00     0.201 C 
ATOM     21  H   LIG d   1       5.526   0.707  -7.713  0.00  0.00     0.109 H 
ATOM     22  H   LIG d   1       4.325  -0.345  -8.502  0.00  0.00     0.109 H 
BRANCH  20  23
ATOM     23  N   LIG d   1       3.625   1.557  -7.964  0.00  0.00    -0.241 N 
ATOM     24  C   LIG d   1       3.221   1.819  -9.165  0.00  0.00     0.175 C 
ATOM     25  H   LIG d   1       2.861   2.807  -9.411  0.00  0.00     0.138 H 
ATOM     26  H   LIG d   1       3.362   2.131  -7.228  0.00  0.00     0.445 HD
BRANCH  24  27
ATOM     27  C   LIG d   1       3.251   0.769 -10.199  0.00  0.00     0.079 A 
ATOM     28  C   LIG d   1       4.158   0.851 -11.258  0.00  0.00    -0.045 A 
ATOM     29  C   LIG d   1       4.185  -0.137 -12.219  0.00  0.00    -0.061 A 
ATOM     30  H   LIG d   1       4.841   1.686 -11.322  0.00  0.00     0.063 H 
ATOM     31  C   LIG d   1       3.307  -1.206 -12.146  0.00  0.00    -0.058 A 
ATOM     32  H   LIG d   1       4.890  -0.075 -13.035  0.00  0.00     0.062 H 
ATOM     33  C   LIG d   1       2.402  -1.297 -11.107  0.00  0.00    -0.019 A 
ATOM     34  H   LIG d   1       3.332  -1.973 -12.905  0.00  0.00     0.062 H 
ATOM     35  C   LIG d   1       2.365  -0.316 -10.129  0.00  0.00     0.130 A 
ATOM     36  H   LIG d   1       1.721  -2.134 -11.056  0.00  0.00     0.065 H 
BRANCH  35  37
ATOM     37  O   LIG d   1       1.475  -0.403  -9.108  0.00  0.00    -0.506 OA
ATOM     38  H   LIG d   1       0.912  -1.188  -9.144  0.00  0.00     0.292 HD
ENDBRANCH  35  37
ENDBRANCH  24  27
ENDBRANCH  20  23
ENDBRANCH   1  20
TORSDOF 7
ENDMDL
MODEL 4
REMARK VINA RESULT:      -7.1      2.243      3.333
REMARK  7 active torsions:
REMARK  status: ('A' for Active; 'I' for Inactive)
REMARK    1  A    between atoms: C_3  and  C_8 
REMARK    2  A    between atoms: C_4  and  O_7 
REMARK    3  A    between atoms: N_9  and  C_10 
REMARK    4  A    between atoms: C_10  and  C_11 
REMARK    5  A    between atoms: C_11  and  N_12 
REMARK    6  A    between atoms: C_13  and  C_14 
REMARK    7  A    between atoms: C_15  and  O_20 
ROOT
ATOM      1  C   LIG d   1       5.892  -0.960  -7.406  0.00  0.00     0.201 C 
ATOM      2  H   LIG d   1       6.685  -1.536  -7.881  0.00  0.00     0.109 H 
ATOM      3  H   LIG d   1       5.699  -0.058  -7.987  0.00  0.00     0.109 H 
ENDROOT
BRANCH   1   4
ATOM      4  N   LIG d   1       4.672  -1.769  -7.342  0.00  0.00    -0.241 N 
ATOM      5  C   LIG d   1       3.637  -1.436  -8.046  0.00  0.00     0.175 C 
ATOM      6  H   LIG d   1       2.803  -2.117  -8.136  0.00  0.00     0.138 H 
ATOM      7  H   LIG d   1       4.640  -2.554  -6.773  0.00  0.00     0.445 HD
BRANCH   5   8
ATOM      8  C   LIG d   1       3.596  -0.128  -8.723  0.00  0.00     0.079 A 
ATOM      9  C   LIG d   1       3.889  -0.033 -10.085  0.00  0.00    -0.045 A 
ATOM     10  C   LIG d   1       3.848   1.195 -10.712  0.00  0.00    -0.061 A 
ATOM     11  H   LIG d   1       4.148  -0.918 -10.646  0.00  0.00     0.063 H 
ATOM     12  C   LIG d   1       3.516   2.334  -9.998  0.00  0.00    -0.058 A 
ATOM     13  H   LIG d   1       4.079   1.268 -11.765  0.00  0.00     0.062 H 
ATOM     14  C   LIG d   1       3.224   2.253  -8.651  0.00  0.00    -0.019 A 
ATOM     15  H   LIG d   1       3.486   3.291 -10.499  0.00  0.00     0.062 H 
ATOM     16  C   LIG d   1       3.260   1.028  -8.003  0.00  0.00     0.130 A 
ATOM     17  H   LIG d   1       2.965   3.147  -8.101  0.00  0.00     0.065 H 
BRANCH  16  18
ATOM     18  O   LIG d   1       2.973   0.948  -6.680  0.00  0.00    -0.506 OA
ATOM     19  H   LIG d   1       2.028   0.897  -6.485  0.00  0.00     0.292 HD
ENDBRANCH  16  18
ENDBRANCH   5   8
ENDBRANCH   1   4
BRANCH   1  20
ATOM     20  C   LIG d   1       6.321  -0.572  -5.990  0.00  0.00     0.201 C 
ATOM     21  H   LIG d   1       7.201   0.069  -6.040  0.00  0.00     0.109 H 
ATOM     22  H   LIG d   1       5.509  -0.036  -5.498  0.00  0.00     0.109 H 
BRANCH  20  23
ATOM     23  N   LIG d   1       6.641  -1.781  -5.228  0.00  0.00    -0.241 N 
ATOM     24  C   LIG d   1       6.311  -1.865  -3.979  0.00  0.00     0.175 C 
ATOM     25  H   LIG d   1       6.793  -2.591  -3.341  0.00  0.00     0.138 H 
ATOM     26  H   LIG d   1       7.099  -2.519  -5.659  0.00  0.00     0.445 HD
BRANCH  24  27
ATOM     27  C   LIG d   1       5.277  -0.972  -3.428  0.00  0.00     0.079 A 
ATOM     28  C   LIG d   1       5.640   0.113  -2.626  0.00  0.00    -0.045 A 
ATOM     29  C   LIG d   1       4.668   0.948  -2.118  0.00  0.00    -0.061 A 
ATOM     30  H   LIG d   1       6.681   0.300  -2.408  0.00  0.00     0.063 H 
ATOM     31  C   LIG d   1       3.331   0.709  -2.388  0.00  0.00    -0.058 A 
ATOM     32  H   LIG d   1       4.950   1.790  -1.502  0.00  0.00     0.062 H 
ATOM     33  C   LIG d   1       2.958  -0.363  -3.175  0.00  0.00    -0.019 A 
ATOM     34  H   LIG d   1       2.576   1.365  -1.982  0.00  0.00     0.062 H 
ATOM     35  C   LIG d   1       3.921  -1.210  -3.699  0.00  0.00     0.130 A 
ATOM     36  H   LIG d   1       1.913  -0.543  -3.382  0.00  0.00     0.065 H 
BRANCH  35  37
ATOM     37  O   LIG d   1       3.557  -2.264  -4.472  0.00  0.00    -0.506 OA
ATOM     38  H   LIG d   1       2.742  -2.121  -4.972  0.00  0.00     0.292 HD
ENDBRANCH  35  37
ENDBRANCH  24  27
ENDBRANCH  20  23
ENDBRANCH   1  20
TORSDOF 7
ENDMDL
MODEL 5
REMARK VINA RESULT:      -7.0      1.477      2.119
REMARK  7 active torsions:
REMARK  status: ('A' for Active; 'I' for Inactive)
REMARK    1  A    between atoms: C_3  and  C_8 
REMARK    2  A    between atoms: C_4  and  O_7 
REMARK    3  A    between atoms: N_9  and  C_10 
REMARK    4  A    between atoms: C_10  and  C_11 
REMARK    5  A    between atoms: C_11  and  N_12 
REMARK    6  A    between atoms: C_13  and  C_14 
REMARK    7  A    between atoms: C_15  and  O_20 
ROOT
ATOM      1  C   LIG d   1       4.462   0.120  -7.725  0.00  0.00     0.201 C 
ATOM      2  H   LIG d   1       4.072  -0.558  -8.483  0.00  0.00     0.109 H 
ATOM      3  H   LIG d   1       5.550   0.132  -7.772  0.00  0.00     0.109 H 
ENDROOT
BRANCH   1   4
ATOM      4  N   LIG d   1       3.947   1.471  -7.966  0.00  0.00    -0.241 N 
ATOM      5  C   LIG d   1       3.289   1.728  -9.050  0.00  0.00     0.175 C 
ATOM      6  H   LIG d   1       2.763   2.666  -9.153  0.00  0.00     0.138 H 
ATOM      7  H   LIG d   1       4.099   2.171  -7.312  0.00  0.00     0.445 HD
BRANCH   5   8
ATOM      8  C   LIG d   1       3.258   0.742 -10.145  0.00  0.00     0.079 A 
ATOM      9  C   LIG d   1       4.151   0.852 -11.214  0.00  0.00    -0.045 A 
ATOM     10  C   LIG d   1       4.117  -0.073 -12.236  0.00  0.00    -0.061 A 
ATOM     11  H   LIG d   1       4.865   1.661 -11.241  0.00  0.00     0.063 H 
ATOM     12  C   LIG d   1       3.202  -1.113 -12.206  0.00  0.00    -0.058 A 
ATOM     13  H   LIG d   1       4.805   0.015 -13.064  0.00  0.00     0.062 H 
ATOM     14  C   LIG d   1       2.314  -1.233 -11.156  0.00  0.00    -0.019 A 
ATOM     15  H   LIG d   1       3.184  -1.833 -13.011  0.00  0.00     0.062 H 
ATOM     16  C   LIG d   1       2.334  -0.311 -10.120  0.00  0.00     0.130 A 
ATOM     17  H   LIG d   1       1.604  -2.047 -11.140  0.00  0.00     0.065 H 
BRANCH  16  18
ATOM     18  O   LIG d   1       1.462  -0.429  -9.087  0.00  0.00    -0.506 OA
ATOM     19  H   LIG d   1       0.785  -1.106  -9.218  0.00  0.00     0.292 HD
ENDBRANCH  16  18
ENDBRANCH   5   8
ENDBRANCH   1   4
BRANCH   1  20
ATOM     20  C   LIG d   1       4.017  -0.355  -6.340  0.00  0.00     0.201 C 
ATOM     21  H   LIG d   1       4.147  -1.435  -6.268  0.00  0.00     0.109 H 
ATOM     22  H   LIG d   1       4.620   0.136  -5.576  0.00  0.00     0.109 H 
BRANCH  20  23
ATOM     23  N   LIG d   1       2.606  -0.019  -6.138  0.00  0.00    -0.241 N 
ATOM     24  C   LIG d   1       2.106  -0.013  -4.945  0.00  0.00     0.175 C 
ATOM     25  H   LIG d   1       1.037  -0.070  -4.806  0.00  0.00     0.138 H 
ATOM     26  H   LIG d   1       2.045   0.198  -6.900  0.00  0.00     0.445 HD
BRANCH  24  27
ATOM     27  C   LIG d   1       2.997   0.075  -3.773  0.00  0.00     0.079 A 
ATOM     28  C   LIG d   1       3.290   1.316  -3.204  0.00  0.00    -0.045 A 
ATOM     29  C   LIG d   1       4.119   1.391  -2.106  0.00  0.00    -0.061 A 
ATOM     30  H   LIG d   1       2.863   2.217  -3.622  0.00  0.00     0.063 H 
ATOM     31  C   LIG d   1       4.674   0.240  -1.570  0.00  0.00    -0.058 A 
ATOM     32  H   LIG d   1       4.340   2.351  -1.663  0.00  0.00     0.062 H 
ATOM     33  C   LIG d   1       4.398  -0.993  -2.127  0.00  0.00    -0.019 A 
ATOM     34  H   LIG d   1       5.326   0.308  -0.712  0.00  0.00     0.062 H 
ATOM     35  C   LIG d   1       3.562  -1.088  -3.228  0.00  0.00     0.130 A 
ATOM     36  H   LIG d   1       4.834  -1.886  -1.703  0.00  0.00     0.065 H 
BRANCH  35  37
ATOM     37  O   LIG d   1       3.289  -2.299  -3.776  0.00  0.00    -0.506 OA
ATOM     38  H   LIG d   1       2.452  -2.683  -3.482  0.00  0.00     0.292 HD
ENDBRANCH  35  37
ENDBRANCH  24  27
ENDBRANCH  20  23
ENDBRANCH   1  20
TORSDOF 7
ENDMDL
MODEL 6
REMARK VINA RESULT:      -6.9      2.149      7.164
REMARK  7 active torsions:
REMARK  status: ('A' for Active; 'I' for Inactive)
REMARK    1  A    between atoms: C_3  and  C_8 
REMARK    2  A    between atoms: C_4  and  O_7 
REMARK    3  A    between atoms: N_9  and  C_10 
REMARK    4  A    between atoms: C_10  and  C_11 
REMARK    5  A    between atoms: C_11  and  N_12 
REMARK    6  A    between atoms: C_13  and  C_14 
REMARK    7  A    between atoms: C_15  and  O_20 
ROOT
ATOM      1  C   LIG d   1       5.778  -0.603  -6.193  0.00  0.00     0.201 C 
ATOM      2  H   LIG d   1       5.259   0.087  -5.528  0.00  0.00     0.109 H 
ATOM      3  H   LIG d   1       6.489  -0.051  -6.806  0.00  0.00     0.109 H 
ENDROOT
BRANCH   1   4
ATOM      4  N   LIG d   1       6.494  -1.603  -5.397  0.00  0.00    -0.241 N 
ATOM      5  C   LIG d   1       6.199  -1.766  -4.146  0.00  0.00     0.175 C 
ATOM      6  H   LIG d   1       6.597  -2.611  -3.603  0.00  0.00     0.138 H 
ATOM      7  H   LIG d   1       7.186  -2.145  -5.807  0.00  0.00     0.445 HD
BRANCH   5   8
ATOM      8  C   LIG d   1       5.324  -0.797  -3.463  0.00  0.00     0.079 A 
ATOM      9  C   LIG d   1       5.862   0.368  -2.912  0.00  0.00    -0.045 A 
ATOM     10  C   LIG d   1       5.037   1.270  -2.274  0.00  0.00    -0.061 A 
ATOM     11  H   LIG d   1       6.922   0.562  -2.984  0.00  0.00     0.063 H 
ATOM     12  C   LIG d   1       3.677   1.027  -2.178  0.00  0.00    -0.058 A 
ATOM     13  H   LIG d   1       5.455   2.169  -1.844  0.00  0.00     0.062 H 
ATOM     14  C   LIG d   1       3.133  -0.121  -2.718  0.00  0.00    -0.019 A 
ATOM     15  H   LIG d   1       3.039   1.740  -1.676  0.00  0.00     0.062 H 
ATOM     16  C   LIG d   1       3.947  -1.040  -3.363  0.00  0.00     0.130 A 
ATOM     17  H   LIG d   1       2.071  -0.303  -2.639  0.00  0.00     0.065 H 
BRANCH  16  18
ATOM     18  O   LIG d   1       3.413  -2.168  -3.895  0.00  0.00    -0.506 OA
ATOM     19  H   LIG d   1       2.749  -2.591  -3.334  0.00  0.00     0.292 HD
ENDBRANCH  16  18
ENDBRANCH   5   8
ENDBRANCH   1   4
BRANCH   1  20
ATOM     20  C   LIG d   1       4.761  -1.303  -7.096  0.00  0.00     0.201 C 
ATOM     21  H   LIG d   1       4.893  -0.964  -8.124  0.00  0.00     0.109 H 
ATOM     22  H   LIG d   1       4.913  -2.381  -7.046  0.00  0.00     0.109 H 
BRANCH  20  23
ATOM     23  N   LIG d   1       3.405  -0.980  -6.646  0.00  0.00    -0.241 N 
ATOM     24  C   LIG d   1       2.721  -0.067  -7.256  0.00  0.00     0.175 C 
ATOM     25  H   LIG d   1       1.871   0.389  -6.769  0.00  0.00     0.138 H 
ATOM     26  H   LIG d   1       3.019  -1.451  -5.891  0.00  0.00     0.445 HD
BRANCH  24  27
ATOM     27  C   LIG d   1       3.100   0.352  -8.618  0.00  0.00     0.079 A 
ATOM     28  C   LIG d   1       3.732   1.580  -8.825  0.00  0.00    -0.045 A 
ATOM     29  C   LIG d   1       4.088   1.963 -10.100  0.00  0.00    -0.061 A 
ATOM     30  H   LIG d   1       3.945   2.227  -7.987  0.00  0.00     0.063 H 
ATOM     31  C   LIG d   1       3.812   1.141 -11.180  0.00  0.00    -0.058 A 
ATOM     32  H   LIG d   1       4.582   2.911 -10.259  0.00  0.00     0.062 H 
ATOM     33  C   LIG d   1       3.182  -0.073 -10.990  0.00  0.00    -0.019 A 
ATOM     34  H   LIG d   1       4.091   1.452 -12.176  0.00  0.00     0.062 H 
ATOM     35  C   LIG d   1       2.822  -0.477  -9.714  0.00  0.00     0.130 A 
ATOM     36  H   LIG d   1       2.970  -0.709 -11.837  0.00  0.00     0.065 H 
BRANCH  35  37
ATOM     37  O   LIG d   1       2.203  -1.670  -9.526  0.00  0.00    -0.506 OA
ATOM     38  H   LIG d   1       2.746  -2.436  -9.759  0.00  0.00     0.292 HD
ENDBRANCH  35  37
ENDBRANCH  24  27
ENDBRANCH  20  23
ENDBRANCH   1  20
TORSDOF 7
ENDMDL
MODEL 7
REMARK VINA RESULT:      -6.8      2.003      7.077
REMARK  7 active torsions:
REMARK  status: ('A' for Active; 'I' for Inactive)
REMARK    1  A    between atoms: C_3  and  C_8 
REMARK    2  A    between atoms: C_4  and  O_7 
REMARK    3  A    between atoms: N_9  and  C_10 
REMARK    4  A    between atoms: C_10  and  C_11 
REMARK    5  A    between atoms: C_11  and  N_12 
REMARK    6  A    between atoms: C_13  and  C_14 
REMARK    7  A    between atoms: C_15  and  O_20 
ROOT
ATOM      1  C   LIG d   1       5.660  -0.717  -6.288  0.00  0.00     0.201 C 
ATOM      2  H   LIG d   1       5.207   0.008  -5.612  0.00  0.00     0.109 H 
ATOM      3  H   LIG d   1       6.392  -0.217  -6.921  0.00  0.00     0.109 H 
ENDROOT
BRANCH   1   4
ATOM      4  N   LIG d   1       6.324  -1.764  -5.507  0.00  0.00    -0.241 N 
ATOM      5  C   LIG d   1       6.057  -1.899  -4.247  0.00  0.00     0.175 C 
ATOM      6  H   LIG d   1       6.408  -2.769  -3.711  0.00  0.00     0.138 H 
ATOM      7  H   LIG d   1       6.963  -2.356  -5.934  0.00  0.00     0.445 HD
BRANCH   5   8
ATOM      8  C   LIG d   1       5.276  -0.866  -3.544  0.00  0.00     0.079 A 
ATOM      9  C   LIG d   1       5.919   0.239  -2.983  0.00  0.00    -0.045 A 
ATOM     10  C   LIG d   1       5.182   1.202  -2.326  0.00  0.00    -0.061 A 
ATOM     11  H   LIG d   1       6.991   0.339  -3.061  0.00  0.00     0.063 H 
ATOM     12  C   LIG d   1       3.806   1.079  -2.222  0.00  0.00    -0.058 A 
ATOM     13  H   LIG d   1       5.681   2.055  -1.888  0.00  0.00     0.062 H 
ATOM     14  C   LIG d   1       3.159  -0.009  -2.773  0.00  0.00    -0.019 A 
ATOM     15  H   LIG d   1       3.237   1.839  -1.706  0.00  0.00     0.062 H 
ATOM     16  C   LIG d   1       3.883  -0.987  -3.436  0.00  0.00     0.130 A 
ATOM     17  H   LIG d   1       2.085  -0.098  -2.687  0.00  0.00     0.065 H 
BRANCH  16  18
ATOM     18  O   LIG d   1       3.248  -2.056  -3.978  0.00  0.00    -0.506 OA
ATOM     19  H   LIG d   1       3.836  -2.787  -4.212  0.00  0.00     0.292 HD
ENDBRANCH  16  18
ENDBRANCH   5   8
ENDBRANCH   1   4
BRANCH   1  20
ATOM     20  C   LIG d   1       4.573  -1.346  -7.162  0.00  0.00     0.201 C 
ATOM     21  H   LIG d   1       4.757  -1.095  -8.207  0.00  0.00     0.109 H 
ATOM     22  H   LIG d   1       4.591  -2.429  -7.040  0.00  0.00     0.109 H 
BRANCH  20  23
ATOM     23  N   LIG d   1       3.263  -0.830  -6.759  0.00  0.00    -0.241 N 
ATOM     24  C   LIG d   1       2.636   0.008  -7.520  0.00  0.00     0.175 C 
ATOM     25  H   LIG d   1       1.842   0.617  -7.113  0.00  0.00     0.138 H 
ATOM     26  H   LIG d   1       2.865  -1.117  -5.923  0.00  0.00     0.445 HD
BRANCH  24  27
ATOM     27  C   LIG d   1       3.004   0.132  -8.942  0.00  0.00     0.079 A 
ATOM     28  C   LIG d   1       2.416  -0.703  -9.895  0.00  0.00    -0.045 A 
ATOM     29  C   LIG d   1       2.760  -0.579 -11.223  0.00  0.00    -0.061 A 
ATOM     30  H   LIG d   1       1.689  -1.442  -9.591  0.00  0.00     0.063 H 
ATOM     31  C   LIG d   1       3.696   0.362 -11.618  0.00  0.00    -0.058 A 
ATOM     32  H   LIG d   1       2.301  -1.221 -11.961  0.00  0.00     0.062 H 
ATOM     33  C   LIG d   1       4.290   1.191 -10.685  0.00  0.00    -0.019 A 
ATOM     34  H   LIG d   1       3.964   0.450 -12.660  0.00  0.00     0.062 H 
ATOM     35  C   LIG d   1       3.952   1.084  -9.345  0.00  0.00     0.130 A 
ATOM     36  H   LIG d   1       5.019   1.923 -11.000  0.00  0.00     0.065 H 
BRANCH  35  37
ATOM     37  O   LIG d   1       4.534   1.896  -8.427  0.00  0.00    -0.506 OA
ATOM     38  H   LIG d   1       3.913   2.481  -7.971  0.00  0.00     0.292 HD
ENDBRANCH  35  37
ENDBRANCH  24  27
ENDBRANCH  20  23
ENDBRANCH   1  20
TORSDOF 7
ENDMDL
MODEL 8
REMARK VINA RESULT:      -6.6      1.999      7.050
REMARK  7 active torsions:
REMARK  status: ('A' for Active; 'I' for Inactive)
REMARK    1  A    between atoms: C_3  and  C_8 
REMARK    2  A    between atoms: C_4  and  O_7 
REMARK    3  A    between atoms: N_9  and  C_10 
REMARK    4  A    between atoms: C_10  and  C_11 
REMARK    5  A    between atoms: C_11  and  N_12 
REMARK    6  A    between atoms: C_13  and  C_14 
REMARK    7  A    between atoms: C_15  and  O_20 
ROOT
ATOM      1  C   LIG d   1       5.539  -1.176  -6.173  0.00  0.00     0.201 C 
ATOM      2  H   LIG d   1       5.239  -0.365  -5.510  0.00  0.00     0.109 H 
ATOM      3  H   LIG d   1       6.395  -0.862  -6.769  0.00  0.00     0.109 H 
ENDROOT
BRANCH   1   4
ATOM      4  N   LIG d   1       5.904  -2.349  -5.375  0.00  0.00    -0.241 N 
ATOM      5  C   LIG d   1       5.550  -2.422  -4.132  0.00  0.00     0.175 C 
ATOM      6  H   LIG d   1       5.664  -3.350  -3.591  0.00  0.00     0.138 H 
ATOM      7  H   LIG d   1       6.410  -3.072  -5.778  0.00  0.00     0.445 HD
BRANCH   5   8
ATOM      8  C   LIG d   1       4.993  -1.238  -3.453  0.00  0.00     0.079 A 
ATOM      9  C   LIG d   1       3.616  -1.133  -3.243  0.00  0.00    -0.045 A 
ATOM     10  C   LIG d   1       3.101  -0.023  -2.607  0.00  0.00    -0.061 A 
ATOM     11  H   LIG d   1       2.956  -1.918  -3.579  0.00  0.00     0.063 H 
ATOM     12  C   LIG d   1       3.944   0.988  -2.175  0.00  0.00    -0.058 A 
ATOM     13  H   LIG d   1       2.036   0.060  -2.449  0.00  0.00     0.062 H 
ATOM     14  C   LIG d   1       5.307   0.896  -2.377  0.00  0.00    -0.019 A 
ATOM     15  H   LIG d   1       3.531   1.854  -1.678  0.00  0.00     0.062 H 
ATOM     16  C   LIG d   1       5.842  -0.213  -3.014  0.00  0.00     0.130 A 
ATOM     17  H   LIG d   1       5.957   1.689  -2.036  0.00  0.00     0.065 H 
BRANCH  16  18
ATOM     18  O   LIG d   1       7.180  -0.304  -3.212  0.00  0.00    -0.506 OA
ATOM     19  H   LIG d   1       7.447  -0.238  -4.139  0.00  0.00     0.292 HD
ENDBRANCH  16  18
ENDBRANCH   5   8
ENDBRANCH   1   4
BRANCH   1  20
ATOM     20  C   LIG d   1       4.375  -1.532  -7.099  0.00  0.00     0.201 C 
ATOM     21  H   LIG d   1       4.630  -1.261  -8.124  0.00  0.00     0.109 H 
ATOM     22  H   LIG d   1       4.182  -2.604  -7.044  0.00  0.00     0.109 H 
BRANCH  20  23
ATOM     23  N   LIG d   1       3.177  -0.799  -6.684  0.00  0.00    -0.241 N 
ATOM     24  C   LIG d   1       2.708   0.149  -7.429  0.00  0.00     0.175 C 
ATOM     25  H   LIG d   1       2.035   0.883  -7.010  0.00  0.00     0.138 H 
ATOM     26  H   LIG d   1       2.736  -1.024  -5.850  0.00  0.00     0.445 HD
BRANCH  24  27
ATOM     27  C   LIG d   1       3.091   0.228  -8.850  0.00  0.00     0.079 A 
ATOM     28  C   LIG d   1       2.351  -0.458  -9.816  0.00  0.00    -0.045 A 
ATOM     29  C   LIG d   1       2.710  -0.376 -11.144  0.00  0.00    -0.061 A 
ATOM     30  H   LIG d   1       1.495  -1.049  -9.523  0.00  0.00     0.063 H 
ATOM     31  C   LIG d   1       3.810   0.374 -11.525  0.00  0.00    -0.058 A 
ATOM     32  H   LIG d   1       2.134  -0.903 -11.890  0.00  0.00     0.062 H 
ATOM     33  C   LIG d   1       4.554   1.053 -10.580  0.00  0.00    -0.019 A 
ATOM     34  H   LIG d   1       4.088   0.428 -12.567  0.00  0.00     0.062 H 
ATOM     35  C   LIG d   1       4.204   0.986  -9.240  0.00  0.00     0.130 A 
ATOM     36  H   LIG d   1       5.411   1.636 -10.884  0.00  0.00     0.065 H 
BRANCH  35  37
ATOM     37  O   LIG d   1       4.934   1.653  -8.310  0.00  0.00    -0.506 OA
ATOM     38  H   LIG d   1       5.081   2.585  -8.521  0.00  0.00     0.292 HD
ENDBRANCH  35  37
ENDBRANCH  24  27
ENDBRANCH  20  23
ENDBRANCH   1  20
TORSDOF 7
ENDMDL
MODEL 9
REMARK VINA RESULT:      -6.5      1.992      7.005
REMARK  7 active torsions:
REMARK  status: ('A' for Active; 'I' for Inactive)
REMARK    1  A    between atoms: C_3  and  C_8 
REMARK    2  A    between atoms: C_4  and  O_7 
REMARK    3  A    between atoms: N_9  and  C_10 
REMARK    4  A    between atoms: C_10  and  C_11 
REMARK    5  A    between atoms: C_11  and  N_12 
REMARK    6  A    between atoms: C_13  and  C_14 
REMARK    7  A    between atoms: C_15  and  O_20 
ROOT
ATOM      1  C   LIG d   1       5.797  -0.158  -6.413  0.00  0.00     0.201 C 
ATOM      2  H   LIG d   1       5.776  -1.232  -6.229  0.00  0.00     0.109 H 
ATOM      3  H   LIG d   1       4.811   0.263  -6.221  0.00  0.00     0.109 H 
ENDROOT
BRANCH   1   4
ATOM      4  N   LIG d   1       6.778   0.470  -5.524  0.00  0.00    -0.241 N 
ATOM      5  C   LIG d   1       6.703   0.285  -4.245  0.00  0.00     0.175 C 
ATOM      6  H   LIG d   1       7.516   0.600  -3.606  0.00  0.00     0.138 H 
ATOM      7  H   LIG d   1       7.483   1.023  -5.894  0.00  0.00     0.445 HD
BRANCH   5   8
ATOM      8  C   LIG d   1       5.510  -0.352  -3.660  0.00  0.00     0.079 A 
ATOM      9  C   LIG d   1       5.459  -1.740  -3.508  0.00  0.00    -0.045 A 
ATOM     10  C   LIG d   1       4.340  -2.330  -2.959  0.00  0.00    -0.061 A 
ATOM     11  H   LIG d   1       6.294  -2.349  -3.820  0.00  0.00     0.063 H 
ATOM     12  C   LIG d   1       3.266  -1.553  -2.557  0.00  0.00    -0.058 A 
ATOM     13  H   LIG d   1       4.300  -3.404  -2.846  0.00  0.00     0.062 H 
ATOM     14  C   LIG d   1       3.305  -0.180  -2.702  0.00  0.00    -0.019 A 
ATOM     15  H   LIG d   1       2.394  -2.025  -2.129  0.00  0.00     0.062 H 
ATOM     16  C   LIG d   1       4.421   0.430  -3.252  0.00  0.00     0.130 A 
ATOM     17  H   LIG d   1       2.463   0.419  -2.386  0.00  0.00     0.065 H 
BRANCH  16  18
ATOM     18  O   LIG d   1       4.460   1.779  -3.395  0.00  0.00    -0.506 OA
ATOM     19  H   LIG d   1       5.328   2.168  -3.223  0.00  0.00     0.292 HD
ENDBRANCH  16  18
ENDBRANCH   5   8
ENDBRANCH   1   4
BRANCH   1  20
ATOM     20  C   LIG d   1       6.188   0.101  -7.868  0.00  0.00     0.201 C 
ATOM     21  H   LIG d   1       7.193  -0.283  -8.049  0.00  0.00     0.109 H 
ATOM     22  H   LIG d   1       5.483  -0.403  -8.530  0.00  0.00     0.109 H 
BRANCH  20  23
ATOM     23  N   LIG d   1       6.162   1.541  -8.132  0.00  0.00    -0.241 N 
ATOM     24  C   LIG d   1       5.423   2.011  -9.085  0.00  0.00     0.175 C 
ATOM     25  H   LIG d   1       5.617   2.995  -9.485  0.00  0.00     0.138 H 
ATOM     26  H   LIG d   1       6.699   2.143  -7.594  0.00  0.00     0.445 HD
BRANCH  24  27
ATOM     27  C   LIG d   1       4.313   1.204  -9.623  0.00  0.00     0.079 A 
ATOM     28  C   LIG d   1       4.421   0.612 -10.883  0.00  0.00    -0.045 A 
ATOM     29  C   LIG d   1       3.382  -0.146 -11.378  0.00  0.00    -0.061 A 
ATOM     30  H   LIG d   1       5.320   0.744 -11.467  0.00  0.00     0.063 H 
ATOM     31  C   LIG d   1       2.224  -0.313 -10.637  0.00  0.00    -0.058 A 
ATOM     32  H   LIG d   1       3.469  -0.608 -12.351  0.00  0.00     0.062 H 
ATOM     33  C   LIG d   1       2.101   0.272  -9.392  0.00  0.00    -0.019 A 
ATOM     34  H   LIG d   1       1.412  -0.904 -11.035  0.00  0.00     0.062 H 
ATOM     35  C   LIG d   1       3.138   1.033  -8.876  0.00  0.00     0.130 A 
ATOM     36  H   LIG d   1       1.195   0.138  -8.819  0.00  0.00     0.065 H 
BRANCH  35  37
ATOM     37  O   LIG d   1       3.019   1.609  -7.653  0.00  0.00    -0.506 OA
ATOM     38  H   LIG d   1       3.166   1.000  -6.916  0.00  0.00     0.292 HD
ENDBRANCH  35  37
ENDBRANCH  24  27
ENDBRANCH  20  23
ENDBRANCH   1  20
TORSDOF 7
ENDMDL
