MODEL 1
REMARK VINA RESULT:      -7.5      0.000      0.000
REMARK  10 active torsions:
REMARK  status: ('A' for Active; 'I' for Inactive)
REMARK    1  A    between atoms: C_1  and  C_2 
REMARK    2  A    between atoms: C_3  and  C_36 
REMARK    3  A    between atoms: C_9  and  O_19 
REMARK    4  A    between atoms: C_15  and  C_17 
REMARK    5  A    between atoms: C_15  and  C_18 
REMARK    6  A    between atoms: O_19  and  C_20 
REMARK    7  A    between atoms: C_20  and  C_21 
REMARK       I    between atoms: C_21  and  N_23 
REMARK    8  A    between atoms: N_23  and  C_24 
REMARK    9  A    between atoms: C_27  and  C_30 
REMARK   10  A    between atoms: C_30  and  N_31 
ROOT
ATOM      1  C   LIG d   1       5.570  -1.205  -3.894  0.00  0.00    -0.027 A 
ATOM      2  C   LIG d   1       4.450  -1.112  -3.131  0.00  0.00     0.038 A 
ATOM      3  C   LIG d   1       3.234  -0.704  -3.714  0.00  0.00     0.340 A 
ATOM      4  O   LIG d   1       2.234  -0.624  -3.024  0.00  0.00    -0.245 OA
ATOM      5  O   LIG d   1       3.160  -0.401  -5.022  0.00  0.00    -0.421 OA
ATOM      6  C   LIG d   1       4.251  -0.480  -5.815  0.00  0.00     0.149 A 
ATOM      7  C   LIG d   1       5.483  -0.885  -5.274  0.00  0.00     0.063 A 
ATOM      8  C   LIG d   1       6.616  -0.968  -6.103  0.00  0.00     0.136 A 
ATOM      9  C   LIG d   1       6.504  -0.644  -7.439  0.00  0.00     0.023 A 
ATOM     10  C   LIG d   1       5.278  -0.245  -7.974  0.00  0.00     0.131 A 
ATOM     11  C   LIG d   1       4.158  -0.163  -7.165  0.00  0.00     0.038 A 
ATOM     12  C   LIG d   1       2.821   0.263  -7.716  0.00  0.00    -0.017 C 
ATOM     13  C   LIG d   1       3.016   0.969  -9.059  0.00  0.00    -0.009 C 
ATOM     14  C   LIG d   1       3.947   0.108  -9.924  0.00  0.00     0.105 C 
ATOM     15  O   LIG d   1       5.228   0.063  -9.296  0.00  0.00    -0.486 OA
ATOM     16  H   LIG d   1       7.373  -0.703  -8.078  0.00  0.00     0.069 H 
ATOM     17  H   LIG d   1       2.190  -0.615  -7.855  0.00  0.00     0.032 H 
ATOM     18  H   LIG d   1       2.340   0.945  -7.014  0.00  0.00     0.032 H 
ATOM     19  H   LIG d   1       2.053   1.083  -9.558  0.00  0.00     0.031 H 
ATOM     20  H   LIG d   1       3.464   1.949  -8.898  0.00  0.00     0.031 H 
ENDROOT
BRANCH   8  21
ATOM     21  O   LIG d   1       7.810  -1.360  -5.591  0.00  0.00    -0.482 OA
BRANCH  21  22
ATOM     22  C   LIG d   1       8.984  -0.953  -6.300  0.00  0.00     0.166 C 
ATOM     23  H   LIG d   1       8.770  -0.921  -7.368  0.00  0.00     0.080 H 
ATOM     24  H   LIG d   1       9.787  -1.664  -6.109  0.00  0.00     0.080 H 
BRANCH  22  25
ATOM     25  C   LIG d   1       9.403   0.417  -5.831  0.00  0.00     0.255 C 
ATOM     26  O   LIG d   1       9.553   1.313  -6.636  0.00  0.00    -0.272 OA
ATOM     27  N   LIG d   1       9.617   0.645  -4.521  0.00  0.00    -0.283 N 
ATOM     28  H   LIG d   1       9.435  -0.052  -3.871  0.00  0.00     0.155 HD
BRANCH  27  29
ATOM     29  C   LIG d   1      10.102   1.887  -4.097  0.00  0.00     0.034 A 
ATOM     30  C   LIG d   1       9.216   2.900  -3.755  0.00  0.00    -0.040 A 
ATOM     31  C   LIG d   1       9.698   4.125  -3.337  0.00  0.00    -0.055 A 
ATOM     32  H   LIG d   1       8.151   2.731  -3.818  0.00  0.00     0.064 H 
ATOM     33  C   LIG d   1      11.061   4.343  -3.258  0.00  0.00    -0.026 A 
ATOM     34  H   LIG d   1       9.010   4.914  -3.072  0.00  0.00     0.062 H 
ATOM     35  C   LIG d   1      11.946   3.337  -3.597  0.00  0.00    -0.055 A 
ATOM     36  C   LIG d   1      11.471   2.107  -4.010  0.00  0.00    -0.040 A 
ATOM     37  H   LIG d   1      13.010   3.509  -3.534  0.00  0.00     0.062 H 
ATOM     38  H   LIG d   1      12.162   1.319  -4.270  0.00  0.00     0.064 H 
BRANCH  33  39
ATOM     39  C   LIG d   1      11.583   5.682  -2.802  0.00  0.00     0.068 C 
ATOM     40  H   LIG d   1      12.663   5.718  -2.946  0.00  0.00     0.056 H 
ATOM     41  H   LIG d   1      11.112   6.473  -3.383  0.00  0.00     0.056 H 
BRANCH  39  42
ATOM     42  N   LIG d   1      11.274   5.868  -1.382  0.00  0.00    -0.248 N 
ATOM     43  N   LIG d   1      11.851   5.187  -0.298  0.00  0.00    -0.158 NA
ATOM     44  C   LIG d   1      11.293   5.660   0.786  0.00  0.00     0.138 A 
ATOM     45  N   LIG d   1      10.399   6.587   0.442  0.00  0.00    -0.223 NA
ATOM     46  H   LIG d   1      11.516   5.347   1.794  0.00  0.00     0.106 H 
ATOM     47  C   LIG d   1      10.377   6.723  -0.859  0.00  0.00     0.115 A 
ATOM     48  H   LIG d   1       9.748   7.402  -1.415  0.00  0.00     0.104 H 
ENDBRANCH  39  42
ENDBRANCH  33  39
ENDBRANCH  27  29
ENDBRANCH  22  25
ENDBRANCH  21  22
ENDBRANCH   8  21
BRANCH   1  49
ATOM     49  C   LIG d   1       6.879  -1.640  -3.288  0.00  0.00    -0.038 C 
ATOM     50  H   LIG d   1       7.179  -2.595  -3.716  0.00  0.00     0.028 H 
ATOM     51  H   LIG d   1       7.642  -0.890  -3.499  0.00  0.00     0.028 H 
ATOM     52  H   LIG d   1       6.762  -1.745  -2.210  0.00  0.00     0.028 H 
ENDBRANCH   1  49
BRANCH   2  53
ATOM     53  C   LIG d   1       4.508  -1.446  -1.662  0.00  0.00    -0.033 C 
ATOM     54  H   LIG d   1       4.856  -2.471  -1.536  0.00  0.00     0.028 H 
ATOM     55  H   LIG d   1       5.195  -0.764  -1.162  0.00  0.00     0.028 H 
ATOM     56  H   LIG d   1       3.513  -1.344  -1.228  0.00  0.00     0.028 H 
ENDBRANCH   2  53
BRANCH  14  57
ATOM     57  C   LIG d   1       4.076   0.728 -11.316  0.00  0.00    -0.025 C 
ATOM     58  H   LIG d   1       4.868   1.477 -11.308  0.00  0.00     0.027 H 
ATOM     59  H   LIG d   1       4.320  -0.051 -12.039  0.00  0.00     0.027 H 
ATOM     60  H   LIG d   1       3.133   1.199 -11.594  0.00  0.00     0.027 H 
ENDBRANCH  14  57
BRANCH  14  61
ATOM     61  C   LIG d   1       3.379  -1.308 -10.039  0.00  0.00    -0.025 C 
ATOM     62  H   LIG d   1       2.291  -1.262 -10.066  0.00  0.00     0.027 H 
ATOM     63  H   LIG d   1       3.746  -1.773 -10.954  0.00  0.00     0.027 H 
ATOM     64  H   LIG d   1       3.697  -1.899  -9.180  0.00  0.00     0.027 H 
ENDBRANCH  14  61
TORSDOF 10
ENDMDL
MODEL 2
REMARK VINA RESULT:      -7.4      6.371     11.259
REMARK  10 active torsions:
REMARK  status: ('A' for Active; 'I' for Inactive)
REMARK    1  A    between atoms: C_1  and  C_2 
REMARK    2  A    between atoms: C_3  and  C_36 
REMARK    3  A    between atoms: C_9  and  O_19 
REMARK    4  A    between atoms: C_15  and  C_17 
REMARK    5  A    between atoms: C_15  and  C_18 
REMARK    6  A    between atoms: O_19  and  C_20 
REMARK    7  A    between atoms: C_20  and  C_21 
REMARK       I    between atoms: C_21  and  N_23 
REMARK    8  A    between atoms: N_23  and  C_24 
REMARK    9  A    between atoms: C_27  and  C_30 
REMARK   10  A    between atoms: C_30  and  N_31 
ROOT
ATOM      1  C   LIG d   1       5.064  -4.349  -7.550  0.00  0.00    -0.027 A 
ATOM      2  C   LIG d   1       4.914  -5.598  -7.038  0.00  0.00     0.038 A 
ATOM      3  C   LIG d   1       4.630  -5.767  -5.669  0.00  0.00     0.340 A 
ATOM      4  O   LIG d   1       4.496  -6.891  -5.217  0.00  0.00    -0.245 OA
ATOM      5  O   LIG d   1       4.505  -4.707  -4.850  0.00  0.00    -0.421 OA
ATOM      6  C   LIG d   1       4.647  -3.448  -5.321  0.00  0.00     0.149 A 
ATOM      7  C   LIG d   1       4.929  -3.235  -6.681  0.00  0.00     0.063 A 
ATOM      8  C   LIG d   1       5.075  -1.923  -7.166  0.00  0.00     0.136 A 
ATOM      9  C   LIG d   1       4.946  -0.861  -6.297  0.00  0.00     0.023 A 
ATOM     10  C   LIG d   1       4.663  -1.075  -4.947  0.00  0.00     0.131 A 
ATOM     11  C   LIG d   1       4.515  -2.363  -4.462  0.00  0.00     0.038 A 
ATOM     12  C   LIG d   1       4.208  -2.626  -3.009  0.00  0.00    -0.017 C 
ATOM     13  C   LIG d   1       4.532  -1.382  -2.180  0.00  0.00    -0.009 C 
ATOM     14  C   LIG d   1       3.907  -0.164  -2.874  0.00  0.00     0.105 C 
ATOM     15  O   LIG d   1       4.548   0.009  -4.138  0.00  0.00    -0.486 OA
ATOM     16  H   LIG d   1       5.060   0.148  -6.666  0.00  0.00     0.069 H 
ATOM     17  H   LIG d   1       3.151  -2.869  -2.902  0.00  0.00     0.032 H 
ATOM     18  H   LIG d   1       4.810  -3.463  -2.657  0.00  0.00     0.032 H 
ATOM     19  H   LIG d   1       4.114  -1.488  -1.178  0.00  0.00     0.031 H 
ATOM     20  H   LIG d   1       5.613  -1.255  -2.115  0.00  0.00     0.031 H 
ENDROOT
BRANCH   8  21
ATOM     21  O   LIG d   1       5.345  -1.706  -8.478  0.00  0.00    -0.482 OA
BRANCH  21  22
ATOM     22  C   LIG d   1       4.533  -0.744  -9.156  0.00  0.00     0.166 C 
ATOM     23  H   LIG d   1       5.062  -0.381 -10.037  0.00  0.00     0.080 H 
ATOM     24  H   LIG d   1       4.323   0.089  -8.487  0.00  0.00     0.080 H 
BRANCH  22  25
ATOM     25  C   LIG d   1       3.238  -1.389  -9.579  0.00  0.00     0.255 C 
ATOM     26  O   LIG d   1       2.222  -1.174  -8.952  0.00  0.00    -0.272 OA
ATOM     27  N   LIG d   1       3.211  -2.208 -10.648  0.00  0.00    -0.283 N 
ATOM     28  H   LIG d   1       4.008  -2.330 -11.187  0.00  0.00     0.155 HD
BRANCH  27  29
ATOM     29  C   LIG d   1       2.032  -2.885 -10.981  0.00  0.00     0.034 A 
ATOM     30  C   LIG d   1       1.174  -2.358 -11.937  0.00  0.00    -0.040 A 
ATOM     31  C   LIG d   1       0.011  -3.028 -12.263  0.00  0.00    -0.055 A 
ATOM     32  H   LIG d   1       1.415  -1.425 -12.424  0.00  0.00     0.064 H 
ATOM     33  C   LIG d   1      -0.299  -4.222 -11.639  0.00  0.00    -0.026 A 
ATOM     34  H   LIG d   1      -0.657  -2.620 -13.007  0.00  0.00     0.062 H 
ATOM     35  C   LIG d   1       0.553  -4.750 -10.686  0.00  0.00    -0.055 A 
ATOM     36  C   LIG d   1       1.720  -4.087 -10.359  0.00  0.00    -0.040 A 
ATOM     37  H   LIG d   1       0.308  -5.682 -10.199  0.00  0.00     0.062 H 
ATOM     38  H   LIG d   1       2.388  -4.502  -9.618  0.00  0.00     0.064 H 
BRANCH  33  39
ATOM     39  C   LIG d   1      -1.570  -4.951 -11.997  0.00  0.00     0.068 C 
ATOM     40  H   LIG d   1      -2.277  -4.250 -12.440  0.00  0.00     0.056 H 
ATOM     41  H   LIG d   1      -1.345  -5.742 -12.712  0.00  0.00     0.056 H 
BRANCH  39  42
ATOM     42  N   LIG d   1      -2.154  -5.536 -10.788  0.00  0.00    -0.248 N 
ATOM     43  N   LIG d   1      -1.948  -6.835 -10.297  0.00  0.00    -0.158 NA
ATOM     44  C   LIG d   1      -2.651  -6.941  -9.200  0.00  0.00     0.138 A 
ATOM     45  N   LIG d   1      -3.289  -5.791  -8.983  0.00  0.00    -0.223 NA
ATOM     46  H   LIG d   1      -2.710  -7.819  -8.575  0.00  0.00     0.106 H 
ATOM     47  C   LIG d   1      -2.999  -4.936  -9.930  0.00  0.00     0.115 A 
ATOM     48  H   LIG d   1      -3.373  -3.927 -10.009  0.00  0.00     0.104 H 
ENDBRANCH  39  42
ENDBRANCH  33  39
ENDBRANCH  27  29
ENDBRANCH  22  25
ENDBRANCH  21  22
ENDBRANCH   8  21
BRANCH   1  49
ATOM     49  C   LIG d   1       5.368  -4.149  -9.012  0.00  0.00    -0.038 C 
ATOM     50  H   LIG d   1       6.357  -3.703  -9.120  0.00  0.00     0.028 H 
ATOM     51  H   LIG d   1       5.345  -5.112  -9.522  0.00  0.00     0.028 H 
ATOM     52  H   LIG d   1       4.621  -3.489  -9.451  0.00  0.00     0.028 H 
ENDBRANCH   1  49
BRANCH   2  53
ATOM     53  C   LIG d   1       5.051  -6.802  -7.935  0.00  0.00    -0.033 C 
ATOM     54  H   LIG d   1       5.151  -7.700  -7.325  0.00  0.00     0.028 H 
ATOM     55  H   LIG d   1       4.166  -6.887  -8.566  0.00  0.00     0.028 H 
ATOM     56  H   LIG d   1       5.936  -6.689  -8.562  0.00  0.00     0.028 H 
ENDBRANCH   2  53
BRANCH  14  57
ATOM     57  C   LIG d   1       4.117   1.083  -2.014  0.00  0.00    -0.025 C 
ATOM     58  H   LIG d   1       4.812   1.757  -2.514  0.00  0.00     0.027 H 
ATOM     59  H   LIG d   1       3.162   1.588  -1.868  0.00  0.00     0.027 H 
ATOM     60  H   LIG d   1       4.526   0.793  -1.046  0.00  0.00     0.027 H 
ENDBRANCH  14  57
BRANCH  14  61
ATOM     61  C   LIG d   1       2.410  -0.403  -3.083  0.00  0.00    -0.025 C 
ATOM     62  H   LIG d   1       2.058  -1.147  -2.369  0.00  0.00     0.027 H 
ATOM     63  H   LIG d   1       1.869   0.531  -2.930  0.00  0.00     0.027 H 
ATOM     64  H   LIG d   1       2.237  -0.761  -4.097  0.00  0.00     0.027 H 
ENDBRANCH  14  61
TORSDOF 10
ENDMDL
MODEL 3
REMARK VINA RESULT:      -7.2      5.088      8.548
REMARK  10 active torsions:
REMARK  status: ('A' for Active; 'I' for Inactive)
REMARK    1  A    between atoms: C_1  and  C_2 
REMARK    2  A    between atoms: C_3  and  C_36 
REMARK    3  A    between atoms: C_9  and  O_19 
REMARK    4  A    between atoms: C_15  and  C_17 
REMARK    5  A    between atoms: C_15  and  C_18 
REMARK    6  A    between atoms: O_19  and  C_20 
REMARK    7  A    between atoms: C_20  and  C_21 
REMARK       I    between atoms: C_21  and  N_23 
REMARK    8  A    between atoms: N_23  and  C_24 
REMARK    9  A    between atoms: C_27  and  C_30 
REMARK   10  A    between atoms: C_30  and  N_31 
ROOT
ATOM      1  C   LIG d   1       5.534  -1.125  -3.926  0.00  0.00    -0.027 A 
ATOM      2  C   LIG d   1       4.417  -1.081  -3.153  0.00  0.00     0.038 A 
ATOM      3  C   LIG d   1       3.185  -0.699  -3.720  0.00  0.00     0.340 A 
ATOM      4  O   LIG d   1       2.188  -0.663  -3.021  0.00  0.00    -0.245 OA
ATOM      5  O   LIG d   1       3.092  -0.372  -5.021  0.00  0.00    -0.421 OA
ATOM      6  C   LIG d   1       4.179  -0.402  -5.823  0.00  0.00     0.149 A 
ATOM      7  C   LIG d   1       5.427  -0.780  -5.298  0.00  0.00     0.063 A 
ATOM      8  C   LIG d   1       6.556  -0.812  -6.137  0.00  0.00     0.136 A 
ATOM      9  C   LIG d   1       6.424  -0.464  -7.464  0.00  0.00     0.023 A 
ATOM     10  C   LIG d   1       5.183  -0.092  -7.983  0.00  0.00     0.131 A 
ATOM     11  C   LIG d   1       4.067  -0.061  -7.165  0.00  0.00     0.038 A 
ATOM     12  C   LIG d   1       2.713   0.336  -7.697  0.00  0.00    -0.017 C 
ATOM     13  C   LIG d   1       2.877   1.075  -9.028  0.00  0.00    -0.009 C 
ATOM     14  C   LIG d   1       3.827   0.260  -9.916  0.00  0.00     0.105 C 
ATOM     15  O   LIG d   1       5.114   0.242  -9.297  0.00  0.00    -0.486 OA
ATOM     16  H   LIG d   1       7.289  -0.484  -8.110  0.00  0.00     0.069 H 
ATOM     17  H   LIG d   1       2.108  -0.558  -7.850  0.00  0.00     0.032 H 
ATOM     18  H   LIG d   1       2.218   0.989  -6.979  0.00  0.00     0.032 H 
ATOM     19  H   LIG d   1       1.907   1.170  -9.517  0.00  0.00     0.031 H 
ATOM     20  H   LIG d   1       3.297   2.064  -8.849  0.00  0.00     0.031 H 
ENDROOT
BRANCH   8  21
ATOM     21  O   LIG d   1       7.765  -1.177  -5.641  0.00  0.00    -0.482 OA
BRANCH  21  22
ATOM     22  C   LIG d   1       8.589  -1.993  -6.478  0.00  0.00     0.166 C 
ATOM     23  H   LIG d   1       9.577  -2.090  -6.029  0.00  0.00     0.080 H 
ATOM     24  H   LIG d   1       8.679  -1.530  -7.460  0.00  0.00     0.080 H 
BRANCH  22  25
ATOM     25  C   LIG d   1       7.965  -3.357  -6.620  0.00  0.00     0.255 C 
ATOM     26  O   LIG d   1       7.717  -3.798  -7.723  0.00  0.00    -0.272 OA
ATOM     27  N   LIG d   1       7.679  -4.085  -5.523  0.00  0.00    -0.283 N 
ATOM     28  H   LIG d   1       7.936  -3.761  -4.646  0.00  0.00     0.155 HD
BRANCH  27  29
ATOM     29  C   LIG d   1       7.010  -5.307  -5.649  0.00  0.00     0.034 A 
ATOM     30  C   LIG d   1       5.625  -5.354  -5.562  0.00  0.00    -0.040 A 
ATOM     31  C   LIG d   1       4.967  -6.563  -5.687  0.00  0.00    -0.055 A 
ATOM     32  H   LIG d   1       5.062  -4.448  -5.394  0.00  0.00     0.064 H 
ATOM     33  C   LIG d   1       5.686  -7.724  -5.900  0.00  0.00    -0.026 A 
ATOM     34  H   LIG d   1       3.890  -6.600  -5.619  0.00  0.00     0.062 H 
ATOM     35  C   LIG d   1       7.066  -7.681  -5.988  0.00  0.00    -0.055 A 
ATOM     36  C   LIG d   1       7.729  -6.475  -5.869  0.00  0.00    -0.040 A 
ATOM     37  H   LIG d   1       7.625  -8.590  -6.154  0.00  0.00     0.062 H 
ATOM     38  H   LIG d   1       8.806  -6.441  -5.942  0.00  0.00     0.064 H 
BRANCH  33  39
ATOM     39  C   LIG d   1       4.965  -9.041  -6.036  0.00  0.00     0.068 C 
ATOM     40  H   LIG d   1       4.025  -8.887  -6.565  0.00  0.00     0.056 H 
ATOM     41  H   LIG d   1       5.587  -9.739  -6.596  0.00  0.00     0.056 H 
BRANCH  39  42
ATOM     42  N   LIG d   1       4.693  -9.588  -4.704  0.00  0.00    -0.248 N 
ATOM     43  N   LIG d   1       3.433  -9.823  -4.132  0.00  0.00    -0.158 NA
ATOM     44  C   LIG d   1       3.645 -10.316  -2.940  0.00  0.00     0.138 A 
ATOM     45  N   LIG d   1       4.959 -10.395  -2.733  0.00  0.00    -0.223 NA
ATOM     46  H   LIG d   1       2.880 -10.608  -2.237  0.00  0.00     0.106 H 
ATOM     47  C   LIG d   1       5.602  -9.960  -3.786  0.00  0.00     0.115 A 
ATOM     48  H   LIG d   1       6.675  -9.909  -3.897  0.00  0.00     0.104 H 
ENDBRANCH  39  42
ENDBRANCH  33  39
ENDBRANCH  27  29
ENDBRANCH  22  25
ENDBRANCH  21  22
ENDBRANCH   8  21
BRANCH   1  49
ATOM     49  C   LIG d   1       6.860  -1.532  -3.337  0.00  0.00    -0.038 C 
ATOM     50  H   LIG d   1       7.289  -0.692  -2.793  0.00  0.00     0.028 H 
ATOM     51  H   LIG d   1       6.712  -2.371  -2.656  0.00  0.00     0.028 H 
ATOM     52  H   LIG d   1       7.536  -1.831  -4.138  0.00  0.00     0.028 H 
ENDBRANCH   1  49
BRANCH   2  53
ATOM     53  C   LIG d   1       4.496  -1.443  -1.692  0.00  0.00    -0.033 C 
ATOM     54  H   LIG d   1       3.831  -0.795  -1.121  0.00  0.00     0.028 H 
ATOM     55  H   LIG d   1       4.195  -2.482  -1.558  0.00  0.00     0.028 H 
ATOM     56  H   LIG d   1       5.520  -1.313  -1.341  0.00  0.00     0.028 H 
ENDBRANCH   2  53
BRANCH  14  57
ATOM     57  C   LIG d   1       3.927   0.912 -11.296  0.00  0.00    -0.025 C 
ATOM     58  H   LIG d   1       3.957   1.996 -11.185  0.00  0.00     0.027 H 
ATOM     59  H   LIG d   1       4.837   0.572 -11.792  0.00  0.00     0.027 H 
ATOM     60  H   LIG d   1       3.060   0.632 -11.894  0.00  0.00     0.027 H 
ENDBRANCH  14  57
BRANCH  14  61
ATOM     61  C   LIG d   1       3.301  -1.170 -10.056  0.00  0.00    -0.025 C 
ATOM     62  H   LIG d   1       2.663  -1.408  -9.206  0.00  0.00     0.027 H 
ATOM     63  H   LIG d   1       2.726  -1.256 -10.978  0.00  0.00     0.027 H 
ATOM     64  H   LIG d   1       4.141  -1.865 -10.086  0.00  0.00     0.027 H 
ENDBRANCH  14  61
TORSDOF 10
ENDMDL
MODEL 4
REMARK VINA RESULT:      -7.2      1.812      2.334
REMARK  10 active torsions:
REMARK  status: ('A' for Active; 'I' for Inactive)
REMARK    1  A    between atoms: C_1  and  C_2 
REMARK    2  A    between atoms: C_3  and  C_36 
REMARK    3  A    between atoms: C_9  and  O_19 
REMARK    4  A    between atoms: C_15  and  C_17 
REMARK    5  A    between atoms: C_15  and  C_18 
REMARK    6  A    between atoms: O_19  and  C_20 
REMARK    7  A    between atoms: C_20  and  C_21 
REMARK       I    between atoms: C_21  and  N_23 
REMARK    8  A    between atoms: N_23  and  C_24 
REMARK    9  A    between atoms: C_27  and  C_30 
REMARK   10  A    between atoms: C_30  and  N_31 
ROOT
ATOM      1  C   LIG d   1       5.539  -0.582  -3.930  0.00  0.00    -0.027 A 
ATOM      2  C   LIG d   1       4.410  -0.764  -3.199  0.00  0.00     0.038 A 
ATOM      3  C   LIG d   1       3.149  -0.711  -3.826  0.00  0.00     0.340 A 
ATOM      4  O   LIG d   1       2.141  -0.877  -3.163  0.00  0.00    -0.245 OA
ATOM      5  O   LIG d   1       3.041  -0.478  -5.146  0.00  0.00    -0.421 OA
ATOM      6  C   LIG d   1       4.141  -0.291  -5.909  0.00  0.00     0.149 A 
ATOM      7  C   LIG d   1       5.418  -0.338  -5.323  0.00  0.00     0.063 A 
ATOM      8  C   LIG d   1       6.559  -0.144  -6.121  0.00  0.00     0.136 A 
ATOM      9  C   LIG d   1       6.411   0.097  -7.470  0.00  0.00     0.023 A 
ATOM     10  C   LIG d   1       5.142   0.142  -8.049  0.00  0.00     0.131 A 
ATOM     11  C   LIG d   1       4.013  -0.051  -7.272  0.00  0.00     0.038 A 
ATOM     12  C   LIG d   1       2.630  -0.011  -7.870  0.00  0.00    -0.017 C 
ATOM     13  C   LIG d   1       2.677   0.680  -9.235  0.00  0.00    -0.009 C 
ATOM     14  C   LIG d   1       3.830   0.070 -10.043  0.00  0.00     0.105 C 
ATOM     15  O   LIG d   1       5.057   0.385  -9.383  0.00  0.00    -0.486 OA
ATOM     16  H   LIG d   1       7.285   0.250  -8.085  0.00  0.00     0.069 H 
ATOM     17  H   LIG d   1       2.258  -1.028  -7.991  0.00  0.00     0.032 H 
ATOM     18  H   LIG d   1       1.964   0.542  -7.208  0.00  0.00     0.032 H 
ATOM     19  H   LIG d   1       1.735   0.521  -9.761  0.00  0.00     0.031 H 
ATOM     20  H   LIG d   1       2.846   1.748  -9.100  0.00  0.00     0.031 H 
ENDROOT
BRANCH   8  21
ATOM     21  O   LIG d   1       7.797  -0.190  -5.565  0.00  0.00    -0.482 OA
BRANCH  21  22
ATOM     22  C   LIG d   1       8.757   0.755  -6.043  0.00  0.00     0.166 C 
ATOM     23  H   LIG d   1       8.514   1.032  -7.069  0.00  0.00     0.080 H 
ATOM     24  H   LIG d   1       9.751   0.311  -6.011  0.00  0.00     0.080 H 
BRANCH  22  25
ATOM     25  C   LIG d   1       8.728   1.984  -5.171  0.00  0.00     0.255 C 
ATOM     26  O   LIG d   1       7.680   2.361  -4.689  0.00  0.00    -0.272 OA
ATOM     27  N   LIG d   1       9.864   2.668  -4.932  0.00  0.00    -0.283 N 
ATOM     28  H   LIG d   1      10.711   2.332  -5.264  0.00  0.00     0.155 HD
BRANCH  27  29
ATOM     29  C   LIG d   1       9.822   3.863  -4.206  0.00  0.00     0.034 A 
ATOM     30  C   LIG d   1      10.199   3.879  -2.870  0.00  0.00    -0.040 A 
ATOM     31  C   LIG d   1      10.156   5.061  -2.156  0.00  0.00    -0.055 A 
ATOM     32  H   LIG d   1      10.524   2.969  -2.389  0.00  0.00     0.064 H 
ATOM     33  C   LIG d   1       9.738   6.227  -2.770  0.00  0.00    -0.026 A 
ATOM     34  H   LIG d   1      10.449   5.075  -1.116  0.00  0.00     0.062 H 
ATOM     35  C   LIG d   1       9.362   6.215  -4.101  0.00  0.00    -0.055 A 
ATOM     36  C   LIG d   1       9.408   5.038  -4.822  0.00  0.00    -0.040 A 
ATOM     37  H   LIG d   1       9.036   7.127  -4.579  0.00  0.00     0.062 H 
ATOM     38  H   LIG d   1       9.119   5.029  -5.863  0.00  0.00     0.064 H 
BRANCH  33  39
ATOM     39  C   LIG d   1       9.692   7.515  -1.988  0.00  0.00     0.068 C 
ATOM     40  H   LIG d   1       8.663   7.869  -1.932  0.00  0.00     0.056 H 
ATOM     41  H   LIG d   1      10.072   7.342  -0.982  0.00  0.00     0.056 H 
BRANCH  39  42
ATOM     42  N   LIG d   1      10.520   8.522  -2.656  0.00  0.00    -0.248 N 
ATOM     43  N   LIG d   1      10.068   9.650  -3.360  0.00  0.00    -0.158 NA
ATOM     44  C   LIG d   1      11.132  10.277  -3.791  0.00  0.00     0.138 A 
ATOM     45  N   LIG d   1      12.215   9.605  -3.405  0.00  0.00    -0.223 NA
ATOM     46  H   LIG d   1      11.131  11.189  -4.369  0.00  0.00     0.106 H 
ATOM     47  C   LIG d   1      11.862   8.547  -2.721  0.00  0.00     0.115 A 
ATOM     48  H   LIG d   1      12.533   7.820  -2.286  0.00  0.00     0.104 H 
ENDBRANCH  39  42
ENDBRANCH  33  39
ENDBRANCH  27  29
ENDBRANCH  22  25
ENDBRANCH  21  22
ENDBRANCH   8  21
BRANCH   1  49
ATOM     49  C   LIG d   1       6.895  -0.636  -3.276  0.00  0.00    -0.038 C 
ATOM     50  H   LIG d   1       7.355   0.351  -3.310  0.00  0.00     0.028 H 
ATOM     51  H   LIG d   1       6.785  -0.951  -2.238  0.00  0.00     0.028 H 
ATOM     52  H   LIG d   1       7.526  -1.350  -3.806  0.00  0.00     0.028 H 
ENDBRANCH   1  49
BRANCH   2  53
ATOM     53  C   LIG d   1       4.504  -1.026  -1.717  0.00  0.00    -0.033 C 
ATOM     54  H   LIG d   1       4.907  -2.025  -1.549  0.00  0.00     0.028 H 
ATOM     55  H   LIG d   1       5.162  -0.288  -1.259  0.00  0.00     0.028 H 
ATOM     56  H   LIG d   1       3.511  -0.955  -1.272  0.00  0.00     0.028 H 
ENDBRANCH   2  53
BRANCH  14  57
ATOM     57  C   LIG d   1       3.838   0.660 -11.455  0.00  0.00    -0.025 C 
ATOM     58  H   LIG d   1       2.917   1.217 -11.621  0.00  0.00     0.027 H 
ATOM     59  H   LIG d   1       4.693   1.328 -11.564  0.00  0.00     0.027 H 
ATOM     60  H   LIG d   1       3.912  -0.146 -12.185  0.00  0.00     0.027 H 
ENDBRANCH  14  57
BRANCH  14  61
ATOM     61  C   LIG d   1       3.660  -1.449 -10.118  0.00  0.00    -0.025 C 
ATOM     62  H   LIG d   1       3.944  -1.893  -9.164  0.00  0.00     0.027 H 
ATOM     63  H   LIG d   1       2.618  -1.687 -10.334  0.00  0.00     0.027 H 
ATOM     64  H   LIG d   1       4.295  -1.848 -10.909  0.00  0.00     0.027 H 
ENDBRANCH  14  61
TORSDOF 10
ENDMDL
MODEL 5
REMARK VINA RESULT:      -7.1      6.618     10.055
REMARK  10 active torsions:
REMARK  status: ('A' for Active; 'I' for Inactive)
REMARK    1  A    between atoms: C_1  and  C_2 
REMARK    2  A    between atoms: C_3  and  C_36 
REMARK    3  A    between atoms: C_9  and  O_19 
REMARK    4  A    between atoms: C_15  and  C_17 
REMARK    5  A    between atoms: C_15  and  C_18 
REMARK    6  A    between atoms: O_19  and  C_20 
REMARK    7  A    between atoms: C_20  and  C_21 
REMARK       I    between atoms: C_21  and  N_23 
REMARK    8  A    between atoms: N_23  and  C_24 
REMARK    9  A    between atoms: C_27  and  C_30 
REMARK   10  A    between atoms: C_30  and  N_31 
ROOT
ATOM      1  C   LIG d   1       4.384  -1.681  -4.414  0.00  0.00    -0.027 A 
ATOM      2  C   LIG d   1       4.055  -0.615  -3.640  0.00  0.00     0.038 A 
ATOM      3  C   LIG d   1       3.568   0.565  -4.238  0.00  0.00     0.340 A 
ATOM      4  O   LIG d   1       3.274   1.517  -3.537  0.00  0.00    -0.245 OA
ATOM      5  O   LIG d   1       3.424   0.657  -5.572  0.00  0.00    -0.421 OA
ATOM      6  C   LIG d   1       3.741  -0.382  -6.377  0.00  0.00     0.149 A 
ATOM      7  C   LIG d   1       4.228  -1.577  -5.820  0.00  0.00     0.063 A 
ATOM      8  C   LIG d   1       4.555  -2.655  -6.662  0.00  0.00     0.136 A 
ATOM      9  C   LIG d   1       4.401  -2.523  -8.025  0.00  0.00     0.023 A 
ATOM     10  C   LIG d   1       3.915  -1.336  -8.574  0.00  0.00     0.131 A 
ATOM     11  C   LIG d   1       3.588  -0.271  -7.754  0.00  0.00     0.038 A 
ATOM     12  C   LIG d   1       3.059   1.024  -8.318  0.00  0.00    -0.017 C 
ATOM     13  C   LIG d   1       3.373   1.102  -9.814  0.00  0.00    -0.009 C 
ATOM     14  C   LIG d   1       2.961  -0.227 -10.462  0.00  0.00     0.105 C 
ATOM     15  O   LIG d   1       3.785  -1.263  -9.924  0.00  0.00    -0.486 OA
ATOM     16  H   LIG d   1       4.654  -3.348  -8.674  0.00  0.00     0.069 H 
ATOM     17  H   LIG d   1       1.980   1.069  -8.171  0.00  0.00     0.032 H 
ATOM     18  H   LIG d   1       3.529   1.863  -7.805  0.00  0.00     0.032 H 
ATOM     19  H   LIG d   1       2.812   1.920 -10.266  0.00  0.00     0.031 H 
ATOM     20  H   LIG d   1       4.441   1.266  -9.957  0.00  0.00     0.031 H 
ENDROOT
BRANCH   8  21
ATOM     21  O   LIG d   1       5.024  -3.815  -6.134  0.00  0.00    -0.482 OA
BRANCH  21  22
ATOM     22  C   LIG d   1       4.678  -5.023  -6.816  0.00  0.00     0.166 C 
ATOM     23  H   LIG d   1       5.374  -5.188  -7.638  0.00  0.00     0.080 H 
ATOM     24  H   LIG d   1       3.664  -4.941  -7.207  0.00  0.00     0.080 H 
BRANCH  22  25
ATOM     25  C   LIG d   1       4.753  -6.181  -5.855  0.00  0.00     0.255 C 
ATOM     26  O   LIG d   1       4.082  -6.175  -4.844  0.00  0.00    -0.272 OA
ATOM     27  N   LIG d   1       5.571  -7.221  -6.115  0.00  0.00    -0.283 N 
ATOM     28  H   LIG d   1       6.058  -7.257  -6.952  0.00  0.00     0.155 HD
BRANCH  27  29
ATOM     29  C   LIG d   1       5.716  -8.248  -5.176  0.00  0.00     0.034 A 
ATOM     30  C   LIG d   1       4.688  -9.160  -4.978  0.00  0.00    -0.040 A 
ATOM     31  C   LIG d   1       4.835 -10.173  -4.050  0.00  0.00    -0.055 A 
ATOM     32  H   LIG d   1       3.774  -9.076  -5.547  0.00  0.00     0.064 H 
ATOM     33  C   LIG d   1       6.004 -10.279  -3.319  0.00  0.00    -0.026 A 
ATOM     34  H   LIG d   1       4.035 -10.882  -3.895  0.00  0.00     0.062 H 
ATOM     35  C   LIG d   1       7.030  -9.373  -3.514  0.00  0.00    -0.055 A 
ATOM     36  C   LIG d   1       6.891  -8.361  -4.445  0.00  0.00    -0.040 A 
ATOM     37  H   LIG d   1       7.942  -9.459  -2.943  0.00  0.00     0.062 H 
ATOM     38  H   LIG d   1       7.695  -7.656  -4.600  0.00  0.00     0.064 H 
BRANCH  33  39
ATOM     39  C   LIG d   1       6.160 -11.386  -2.308  0.00  0.00     0.068 C 
ATOM     40  H   LIG d   1       6.394 -10.956  -1.333  0.00  0.00     0.056 H 
ATOM     41  H   LIG d   1       5.231 -11.951  -2.242  0.00  0.00     0.056 H 
BRANCH  39  42
ATOM     42  N   LIG d   1       7.246 -12.277  -2.723  0.00  0.00    -0.248 N 
ATOM     43  N   LIG d   1       7.415 -12.866  -3.986  0.00  0.00    -0.158 NA
ATOM     44  C   LIG d   1       8.509 -13.580  -3.926  0.00  0.00     0.138 A 
ATOM     45  N   LIG d   1       9.025 -13.478  -2.702  0.00  0.00    -0.223 NA
ATOM     46  H   LIG d   1       8.923 -14.162  -4.736  0.00  0.00     0.106 H 
ATOM     47  C   LIG d   1       8.276 -12.697  -1.967  0.00  0.00     0.115 A 
ATOM     48  H   LIG d   1       8.454 -12.436  -0.935  0.00  0.00     0.104 H 
ENDBRANCH  39  42
ENDBRANCH  33  39
ENDBRANCH  27  29
ENDBRANCH  22  25
ENDBRANCH  21  22
ENDBRANCH   8  21
BRANCH   1  49
ATOM     49  C   LIG d   1       4.905  -2.950  -3.791  0.00  0.00    -0.038 C 
ATOM     50  H   LIG d   1       4.371  -3.804  -4.206  0.00  0.00     0.028 H 
ATOM     51  H   LIG d   1       5.970  -3.047  -4.005  0.00  0.00     0.028 H 
ATOM     52  H   LIG d   1       4.754  -2.914  -2.713  0.00  0.00     0.028 H 
ENDBRANCH   1  49
BRANCH   2  53
ATOM     53  C   LIG d   1       4.208  -0.693  -2.142  0.00  0.00    -0.033 C 
ATOM     54  H   LIG d   1       3.347  -0.224  -1.664  0.00  0.00     0.028 H 
ATOM     55  H   LIG d   1       4.268  -1.738  -1.837  0.00  0.00     0.028 H 
ATOM     56  H   LIG d   1       5.118  -0.173  -1.843  0.00  0.00     0.028 H 
ENDBRANCH   2  53
BRANCH  14  57
ATOM     57  C   LIG d   1       3.158  -0.145 -11.976  0.00  0.00    -0.025 C 
ATOM     58  H   LIG d   1       2.190  -0.207 -12.473  0.00  0.00     0.027 H 
ATOM     59  H   LIG d   1       3.636   0.802 -12.229  0.00  0.00     0.027 H 
ATOM     60  H   LIG d   1       3.790  -0.970 -12.306  0.00  0.00     0.027 H 
ENDBRANCH  14  57
BRANCH  14  61
ATOM     61  C   LIG d   1       1.492  -0.520 -10.146  0.00  0.00    -0.025 C 
ATOM     62  H   LIG d   1       1.404  -1.524  -9.731  0.00  0.00     0.027 H 
ATOM     63  H   LIG d   1       1.125   0.207  -9.422  0.00  0.00     0.027 H 
ATOM     64  H   LIG d   1       0.904  -0.451 -11.061  0.00  0.00     0.027 H 
ENDBRANCH  14  61
TORSDOF 10
ENDMDL
MODEL 6
REMARK VINA RESULT:      -7.1      6.431      9.274
REMARK  10 active torsions:
REMARK  status: ('A' for Active; 'I' for Inactive)
REMARK    1  A    between atoms: C_1  and  C_2 
REMARK    2  A    between atoms: C_3  and  C_36 
REMARK    3  A    between atoms: C_9  and  O_19 
REMARK    4  A    between atoms: C_15  and  C_17 
REMARK    5  A    between atoms: C_15  and  C_18 
REMARK    6  A    between atoms: O_19  and  C_20 
REMARK    7  A    between atoms: C_20  and  C_21 
REMARK       I    between atoms: C_21  and  N_23 
REMARK    8  A    between atoms: N_23  and  C_24 
REMARK    9  A    between atoms: C_27  and  C_30 
REMARK   10  A    between atoms: C_30  and  N_31 
ROOT
ATOM      1  C   LIG d   1       6.887  -5.176  -5.803  0.00  0.00    -0.027 A 
ATOM      2  C   LIG d   1       5.802  -5.870  -6.234  0.00  0.00     0.038 A 
ATOM      3  C   LIG d   1       4.507  -5.441  -5.879  0.00  0.00     0.340 A 
ATOM      4  O   LIG d   1       3.538  -6.067  -6.270  0.00  0.00    -0.245 OA
ATOM      5  O   LIG d   1       4.324  -4.350  -5.114  0.00  0.00    -0.421 OA
ATOM      6  C   LIG d   1       5.378  -3.633  -4.665  0.00  0.00     0.149 A 
ATOM      7  C   LIG d   1       6.686  -4.026  -4.997  0.00  0.00     0.063 A 
ATOM      8  C   LIG d   1       7.779  -3.276  -4.528  0.00  0.00     0.136 A 
ATOM      9  C   LIG d   1       7.554  -2.167  -3.741  0.00  0.00     0.023 A 
ATOM     10  C   LIG d   1       6.254  -1.778  -3.415  0.00  0.00     0.131 A 
ATOM     11  C   LIG d   1       5.172  -2.509  -3.874  0.00  0.00     0.038 A 
ATOM     12  C   LIG d   1       3.756  -2.112  -3.540  0.00  0.00    -0.017 C 
ATOM     13  C   LIG d   1       3.756  -1.155  -2.345  0.00  0.00    -0.009 C 
ATOM     14  C   LIG d   1       4.804  -0.064  -2.603  0.00  0.00     0.105 C 
ATOM     15  O   LIG d   1       6.093  -0.678  -2.635  0.00  0.00    -0.486 OA
ATOM     16  H   LIG d   1       8.392  -1.591  -3.377  0.00  0.00     0.069 H 
ATOM     17  H   LIG d   1       3.306  -1.618  -4.401  0.00  0.00     0.032 H 
ATOM     18  H   LIG d   1       3.179  -3.002  -3.291  0.00  0.00     0.032 H 
ATOM     19  H   LIG d   1       2.771  -0.701  -2.238  0.00  0.00     0.031 H 
ATOM     20  H   LIG d   1       4.009  -1.702  -1.437  0.00  0.00     0.031 H 
ENDROOT
BRANCH   8  21
ATOM     21  O   LIG d   1       9.046  -3.645  -4.845  0.00  0.00    -0.482 OA
BRANCH  21  22
ATOM     22  C   LIG d   1      10.044  -3.471  -3.835  0.00  0.00     0.166 C 
ATOM     23  H   LIG d   1       9.836  -2.561  -3.274  0.00  0.00     0.080 H 
ATOM     24  H   LIG d   1      11.025  -3.395  -4.303  0.00  0.00     0.080 H 
BRANCH  22  25
ATOM     25  C   LIG d   1      10.023  -4.653  -2.900  0.00  0.00     0.255 C 
ATOM     26  O   LIG d   1       9.653  -4.512  -1.753  0.00  0.00    -0.272 OA
ATOM     27  N   LIG d   1      10.420  -5.865  -3.337  0.00  0.00    -0.283 N 
ATOM     28  H   LIG d   1      10.654  -5.991  -4.269  0.00  0.00     0.155 HD
BRANCH  27  29
ATOM     29  C   LIG d   1      10.496  -6.939  -2.444  0.00  0.00     0.034 A 
ATOM     30  C   LIG d   1      11.707  -7.263  -1.846  0.00  0.00    -0.040 A 
ATOM     31  C   LIG d   1      11.778  -8.325  -0.966  0.00  0.00    -0.055 A 
ATOM     32  H   LIG d   1      12.592  -6.687  -2.072  0.00  0.00     0.064 H 
ATOM     33  C   LIG d   1      10.646  -9.064  -0.678  0.00  0.00    -0.026 A 
ATOM     34  H   LIG d   1      12.720  -8.578  -0.500  0.00  0.00     0.062 H 
ATOM     35  C   LIG d   1       9.438  -8.744  -1.271  0.00  0.00    -0.055 A 
ATOM     36  C   LIG d   1       9.359  -7.680  -2.148  0.00  0.00    -0.040 A 
ATOM     37  H   LIG d   1       8.555  -9.323  -1.044  0.00  0.00     0.062 H 
ATOM     38  H   LIG d   1       8.415  -7.427  -2.607  0.00  0.00     0.064 H 
BRANCH  33  39
ATOM     39  C   LIG d   1      10.728 -10.222   0.284  0.00  0.00     0.068 C 
ATOM     40  H   LIG d   1       9.768 -10.738   0.314  0.00  0.00     0.056 H 
ATOM     41  H   LIG d   1      11.502 -10.913  -0.046  0.00  0.00     0.056 H 
BRANCH  39  42
ATOM     42  N   LIG d   1      11.056  -9.723   1.622  0.00  0.00    -0.248 N 
ATOM     43  N   LIG d   1      10.921  -8.405   2.085  0.00  0.00    -0.158 NA
ATOM     44  C   LIG d   1      11.322  -8.398   3.330  0.00  0.00     0.138 A 
ATOM     45  N   LIG d   1      11.705  -9.630   3.666  0.00  0.00    -0.223 NA
ATOM     46  H   LIG d   1      11.344  -7.535   3.977  0.00  0.00     0.106 H 
ATOM     47  C   LIG d   1      11.551 -10.437   2.648  0.00  0.00     0.115 A 
ATOM     48  H   LIG d   1      11.780 -11.492   2.635  0.00  0.00     0.104 H 
ENDBRANCH  39  42
ENDBRANCH  33  39
ENDBRANCH  27  29
ENDBRANCH  22  25
ENDBRANCH  21  22
ENDBRANCH   8  21
BRANCH   1  49
ATOM     49  C   LIG d   1       8.279  -5.621  -6.172  0.00  0.00    -0.038 C 
ATOM     50  H   LIG d   1       8.223  -6.519  -6.786  0.00  0.00     0.028 H 
ATOM     51  H   LIG d   1       8.776  -4.827  -6.731  0.00  0.00     0.028 H 
ATOM     52  H   LIG d   1       8.844  -5.834  -5.265  0.00  0.00     0.028 H 
ENDBRANCH   1  49
BRANCH   2  53
ATOM     53  C   LIG d   1       5.981  -7.096  -7.092  0.00  0.00    -0.033 C 
ATOM     54  H   LIG d   1       6.881  -6.987  -7.698  0.00  0.00     0.028 H 
ATOM     55  H   LIG d   1       6.077  -7.975  -6.455  0.00  0.00     0.028 H 
ATOM     56  H   LIG d   1       5.116  -7.212  -7.745  0.00  0.00     0.028 H 
ENDBRANCH   2  53
BRANCH  14  57
ATOM     57  C   LIG d   1       4.754   0.973  -1.480  0.00  0.00    -0.025 C 
ATOM     58  H   LIG d   1       4.507   0.480  -0.540  0.00  0.00     0.027 H 
ATOM     59  H   LIG d   1       5.727   1.458  -1.391  0.00  0.00     0.027 H 
ATOM     60  H   LIG d   1       3.995   1.721  -1.709  0.00  0.00     0.027 H 
ENDBRANCH  14  57
BRANCH  14  61
ATOM     61  C   LIG d   1       4.521   0.614  -3.946  0.00  0.00    -0.025 C 
ATOM     62  H   LIG d   1       5.159   1.491  -4.051  0.00  0.00     0.027 H 
ATOM     63  H   LIG d   1       4.728  -0.086  -4.756  0.00  0.00     0.027 H 
ATOM     64  H   LIG d   1       3.475   0.917  -3.987  0.00  0.00     0.027 H 
ENDBRANCH  14  61
TORSDOF 10
ENDMDL
MODEL 7
REMARK VINA RESULT:      -6.9      6.999     10.830
REMARK  10 active torsions:
REMARK  status: ('A' for Active; 'I' for Inactive)
REMARK    1  A    between atoms: C_1  and  C_2 
REMARK    2  A    between atoms: C_3  and  C_36 
REMARK    3  A    between atoms: C_9  and  O_19 
REMARK    4  A    between atoms: C_15  and  C_17 
REMARK    5  A    between atoms: C_15  and  C_18 
REMARK    6  A    between atoms: O_19  and  C_20 
REMARK    7  A    between atoms: C_20  and  C_21 
REMARK       I    between atoms: C_21  and  N_23 
REMARK    8  A    between atoms: N_23  and  C_24 
REMARK    9  A    between atoms: C_27  and  C_30 
REMARK   10  A    between atoms: C_30  and  N_31 
ROOT
ATOM      1  C   LIG d   1       4.225  -1.080  -4.038  0.00  0.00    -0.027 A 
ATOM      2  C   LIG d   1       3.856   0.075  -3.428  0.00  0.00     0.038 A 
ATOM      3  C   LIG d   1       3.343   1.142  -4.192  0.00  0.00     0.340 A 
ATOM      4  O   LIG d   1       3.013   2.175  -3.637  0.00  0.00    -0.245 OA
ATOM      5  O   LIG d   1       3.214   1.039  -5.527  0.00  0.00    -0.421 OA
ATOM      6  C   LIG d   1       3.571  -0.094  -6.172  0.00  0.00     0.149 A 
ATOM      7  C   LIG d   1       4.085  -1.182  -5.446  0.00  0.00     0.063 A 
ATOM      8  C   LIG d   1       4.453  -2.359  -6.122  0.00  0.00     0.136 A 
ATOM      9  C   LIG d   1       4.312  -2.428  -7.492  0.00  0.00     0.023 A 
ATOM     10  C   LIG d   1       3.800  -1.346  -8.209  0.00  0.00     0.131 A 
ATOM     11  C   LIG d   1       3.432  -0.185  -7.552  0.00  0.00     0.038 A 
ATOM     12  C   LIG d   1       2.873   0.999  -8.300  0.00  0.00    -0.017 C 
ATOM     13  C   LIG d   1       3.204   0.872  -9.789  0.00  0.00    -0.009 C 
ATOM     14  C   LIG d   1       2.839  -0.547 -10.244  0.00  0.00     0.105 C 
ATOM     15  O   LIG d   1       3.685  -1.470  -9.557  0.00  0.00    -0.486 OA
ATOM     16  H   LIG d   1       4.598  -3.329  -8.014  0.00  0.00     0.069 H 
ATOM     17  H   LIG d   1       1.791   1.032  -8.170  0.00  0.00     0.032 H 
ATOM     18  H   LIG d   1       3.313   1.916  -7.909  0.00  0.00     0.032 H 
ATOM     19  H   LIG d   1       2.626   1.601 -10.358  0.00  0.00     0.031 H 
ATOM     20  H   LIG d   1       4.269   1.047  -9.945  0.00  0.00     0.031 H 
ENDROOT
BRANCH   8  21
ATOM     21  O   LIG d   1       4.949  -3.417  -5.431  0.00  0.00    -0.482 OA
BRANCH  21  22
ATOM     22  C   LIG d   1       5.766  -4.340  -6.156  0.00  0.00     0.166 C 
ATOM     23  H   LIG d   1       6.773  -4.336  -5.740  0.00  0.00     0.080 H 
ATOM     24  H   LIG d   1       5.803  -4.045  -7.204  0.00  0.00     0.080 H 
BRANCH  22  25
ATOM     25  C   LIG d   1       5.182  -5.724  -6.043  0.00  0.00     0.255 C 
ATOM     26  O   LIG d   1       4.031  -5.869  -5.686  0.00  0.00    -0.272 OA
ATOM     27  N   LIG d   1       5.939  -6.801  -6.332  0.00  0.00    -0.283 N 
ATOM     28  H   LIG d   1       6.837  -6.683  -6.679  0.00  0.00     0.155 HD
BRANCH  27  29
ATOM     29  C   LIG d   1       5.429  -8.088  -6.132  0.00  0.00     0.034 A 
ATOM     30  C   LIG d   1       4.963  -8.827  -7.212  0.00  0.00    -0.040 A 
ATOM     31  C   LIG d   1       4.460 -10.098  -7.011  0.00  0.00    -0.055 A 
ATOM     32  H   LIG d   1       4.991  -8.408  -8.206  0.00  0.00     0.064 H 
ATOM     33  C   LIG d   1       4.421 -10.635  -5.737  0.00  0.00    -0.026 A 
ATOM     34  H   LIG d   1       4.097 -10.674  -7.849  0.00  0.00     0.062 H 
ATOM     35  C   LIG d   1       4.885  -9.902  -4.660  0.00  0.00    -0.055 A 
ATOM     36  C   LIG d   1       5.394  -8.633  -4.855  0.00  0.00    -0.040 A 
ATOM     37  H   LIG d   1       4.854 -10.323  -3.666  0.00  0.00     0.062 H 
ATOM     38  H   LIG d   1       5.761  -8.062  -4.014  0.00  0.00     0.064 H 
BRANCH  33  39
ATOM     39  C   LIG d   1       3.872 -12.022  -5.522  0.00  0.00     0.068 C 
ATOM     40  H   LIG d   1       3.896 -12.261  -4.458  0.00  0.00     0.056 H 
ATOM     41  H   LIG d   1       2.844 -12.065  -5.880  0.00  0.00     0.056 H 
BRANCH  39  42
ATOM     42  N   LIG d   1       4.687 -12.990  -6.259  0.00  0.00    -0.248 N 
ATOM     43  N   LIG d   1       6.061 -13.230  -6.097  0.00  0.00    -0.158 NA
ATOM     44  C   LIG d   1       6.383 -14.170  -6.947  0.00  0.00     0.138 A 
ATOM     45  N   LIG d   1       5.297 -14.523  -7.632  0.00  0.00    -0.223 NA
ATOM     46  H   LIG d   1       7.370 -14.588  -7.075  0.00  0.00     0.106 H 
ATOM     47  C   LIG d   1       4.269 -13.822  -7.229  0.00  0.00     0.115 A 
ATOM     48  H   LIG d   1       3.261 -13.898  -7.609  0.00  0.00     0.104 H 
ENDBRANCH  39  42
ENDBRANCH  33  39
ENDBRANCH  27  29
ENDBRANCH  22  25
ENDBRANCH  21  22
ENDBRANCH   8  21
BRANCH   1  49
ATOM     49  C   LIG d   1       4.775  -2.231  -3.236  0.00  0.00    -0.038 C 
ATOM     50  H   LIG d   1       5.616  -1.887  -2.636  0.00  0.00     0.028 H 
ATOM     51  H   LIG d   1       3.995  -2.621  -2.582  0.00  0.00     0.028 H 
ATOM     52  H   LIG d   1       5.108  -3.018  -3.913  0.00  0.00     0.028 H 
ENDBRANCH   1  49
BRANCH   2  53
ATOM     53  C   LIG d   1       3.992   0.216  -1.933  0.00  0.00    -0.033 C 
ATOM     54  H   LIG d   1       3.050   0.570  -1.514  0.00  0.00     0.028 H 
ATOM     55  H   LIG d   1       4.242  -0.752  -1.498  0.00  0.00     0.028 H 
ATOM     56  H   LIG d   1       4.782   0.932  -1.706  0.00  0.00     0.028 H 
ENDBRANCH   2  53
BRANCH  14  57
ATOM     57  C   LIG d   1       3.053  -0.676 -11.753  0.00  0.00    -0.025 C 
ATOM     58  H   LIG d   1       3.043   0.314 -12.207  0.00  0.00     0.027 H 
ATOM     59  H   LIG d   1       4.014  -1.154 -11.943  0.00  0.00     0.027 H 
ATOM     60  H   LIG d   1       2.255  -1.281 -12.183  0.00  0.00     0.027 H 
ENDBRANCH  14  57
BRANCH  14  61
ATOM     61  C   LIG d   1       1.375  -0.836  -9.902  0.00  0.00    -0.025 C 
ATOM     62  H   LIG d   1       1.075  -1.779 -10.360  0.00  0.00     0.027 H 
ATOM     63  H   LIG d   1       1.262  -0.905  -8.821  0.00  0.00     0.027 H 
ATOM     64  H   LIG d   1       0.747  -0.031 -10.283  0.00  0.00     0.027 H 
ENDBRANCH  14  61
TORSDOF 10
ENDMDL
MODEL 8
REMARK VINA RESULT:      -6.8      5.994     10.917
REMARK  10 active torsions:
REMARK  status: ('A' for Active; 'I' for Inactive)
REMARK    1  A    between atoms: C_1  and  C_2 
REMARK    2  A    between atoms: C_3  and  C_36 
REMARK    3  A    between atoms: C_9  and  O_19 
REMARK    4  A    between atoms: C_15  and  C_17 
REMARK    5  A    between atoms: C_15  and  C_18 
REMARK    6  A    between atoms: O_19  and  C_20 
REMARK    7  A    between atoms: C_20  and  C_21 
REMARK       I    between atoms: C_21  and  N_23 
REMARK    8  A    between atoms: N_23  and  C_24 
REMARK    9  A    between atoms: C_27  and  C_30 
REMARK   10  A    between atoms: C_30  and  N_31 
ROOT
ATOM      1  C   LIG d   1       5.395  -4.276  -7.395  0.00  0.00    -0.027 A 
ATOM      2  C   LIG d   1       5.077  -5.520  -6.953  0.00  0.00     0.038 A 
ATOM      3  C   LIG d   1       4.621  -5.702  -5.632  0.00  0.00     0.340 A 
ATOM      4  O   LIG d   1       4.337  -6.820  -5.243  0.00  0.00    -0.245 OA
ATOM      5  O   LIG d   1       4.495  -4.659  -4.793  0.00  0.00    -0.421 OA
ATOM      6  C   LIG d   1       4.802  -3.405  -5.195  0.00  0.00     0.149 A 
ATOM      7  C   LIG d   1       5.259  -3.180  -6.505  0.00  0.00     0.063 A 
ATOM      8  C   LIG d   1       5.575  -1.874  -6.918  0.00  0.00     0.136 A 
ATOM      9  C   LIG d   1       5.439  -0.829  -6.030  0.00  0.00     0.023 A 
ATOM     10  C   LIG d   1       4.983  -1.055  -4.730  0.00  0.00     0.131 A 
ATOM     11  C   LIG d   1       4.667  -2.337  -4.315  0.00  0.00     0.038 A 
ATOM     12  C   LIG d   1       4.170  -2.612  -2.918  0.00  0.00    -0.017 C 
ATOM     13  C   LIG d   1       4.504  -1.427  -2.009  0.00  0.00    -0.009 C 
ATOM     14  C   LIG d   1       4.074  -0.138  -2.722  0.00  0.00     0.105 C 
ATOM     15  O   LIG d   1       4.870   0.012  -3.897  0.00  0.00    -0.486 OA
ATOM     16  H   LIG d   1       5.684   0.175  -6.343  0.00  0.00     0.069 H 
ATOM     17  H   LIG d   1       3.090  -2.760  -2.940  0.00  0.00     0.032 H 
ATOM     18  H   LIG d   1       4.651  -3.511  -2.532  0.00  0.00     0.032 H 
ATOM     19  H   LIG d   1       3.964  -1.523  -1.066  0.00  0.00     0.031 H 
ATOM     20  H   LIG d   1       5.576  -1.402  -1.817  0.00  0.00     0.031 H 
ENDROOT
BRANCH   8  21
ATOM     21  O   LIG d   1       6.014  -1.645  -8.182  0.00  0.00    -0.482 OA
BRANCH  21  22
ATOM     22  C   LIG d   1       5.618  -0.415  -8.793  0.00  0.00     0.166 C 
ATOM     23  H   LIG d   1       6.500   0.104  -9.168  0.00  0.00     0.080 H 
ATOM     24  H   LIG d   1       5.113   0.210  -8.057  0.00  0.00     0.080 H 
BRANCH  22  25
ATOM     25  C   LIG d   1       4.681  -0.702  -9.938  0.00  0.00     0.255 C 
ATOM     26  O   LIG d   1       4.833  -0.138 -11.002  0.00  0.00    -0.272 OA
ATOM     27  N   LIG d   1       3.670  -1.579  -9.777  0.00  0.00    -0.283 N 
ATOM     28  H   LIG d   1       3.587  -2.077  -8.949  0.00  0.00     0.155 HD
BRANCH  27  29
ATOM     29  C   LIG d   1       2.741  -1.771 -10.805  0.00  0.00     0.034 A 
ATOM     30  C   LIG d   1       1.609  -0.970 -10.878  0.00  0.00    -0.040 A 
ATOM     31  C   LIG d   1       0.693  -1.163 -11.894  0.00  0.00    -0.055 A 
ATOM     32  H   LIG d   1       1.443  -0.200 -10.139  0.00  0.00     0.064 H 
ATOM     33  C   LIG d   1       0.903  -2.149 -12.839  0.00  0.00    -0.026 A 
ATOM     34  H   LIG d   1      -0.188  -0.541 -11.951  0.00  0.00     0.062 H 
ATOM     35  C   LIG d   1       2.030  -2.948 -12.770  0.00  0.00    -0.055 A 
ATOM     36  C   LIG d   1       2.952  -2.757 -11.760  0.00  0.00    -0.040 A 
ATOM     37  H   LIG d   1       2.192  -3.718 -13.509  0.00  0.00     0.062 H 
ATOM     38  H   LIG d   1       3.835  -3.378 -11.709  0.00  0.00     0.064 H 
BRANCH  33  39
ATOM     39  C   LIG d   1      -0.098  -2.356 -13.946  0.00  0.00     0.068 C 
ATOM     40  H   LIG d   1      -0.237  -1.422 -14.490  0.00  0.00     0.056 H 
ATOM     41  H   LIG d   1       0.268  -3.123 -14.629  0.00  0.00     0.056 H 
BRANCH  39  42
ATOM     42  N   LIG d   1      -1.378  -2.783 -13.374  0.00  0.00    -0.248 N 
ATOM     43  N   LIG d   1      -2.591  -2.077 -13.404  0.00  0.00    -0.158 NA
ATOM     44  C   LIG d   1      -3.473  -2.815 -12.784  0.00  0.00     0.138 A 
ATOM     45  N   LIG d   1      -2.882  -3.933 -12.364  0.00  0.00    -0.223 NA
ATOM     46  H   LIG d   1      -4.511  -2.559 -12.634  0.00  0.00     0.106 H 
ATOM     47  C   LIG d   1      -1.621  -3.927 -12.711  0.00  0.00     0.115 A 
ATOM     48  H   LIG d   1      -0.902  -4.706 -12.503  0.00  0.00     0.104 H 
ENDBRANCH  39  42
ENDBRANCH  33  39
ENDBRANCH  27  29
ENDBRANCH  22  25
ENDBRANCH  21  22
ENDBRANCH   8  21
BRANCH   1  49
ATOM     49  C   LIG d   1       5.884  -4.064  -8.804  0.00  0.00    -0.038 C 
ATOM     50  H   LIG d   1       6.878  -3.617  -8.781  0.00  0.00     0.028 H 
ATOM     51  H   LIG d   1       5.928  -5.023  -9.321  0.00  0.00     0.028 H 
ATOM     52  H   LIG d   1       5.199  -3.399  -9.330  0.00  0.00     0.028 H 
ENDBRANCH   1  49
BRANCH   2  53
ATOM     53  C   LIG d   1       5.211  -6.706  -7.875  0.00  0.00    -0.033 C 
ATOM     54  H   LIG d   1       5.520  -7.580  -7.300  0.00  0.00     0.028 H 
ATOM     55  H   LIG d   1       4.252  -6.905  -8.352  0.00  0.00     0.028 H 
ATOM     56  H   LIG d   1       5.959  -6.490  -8.637  0.00  0.00     0.028 H 
ENDBRANCH   2  53
BRANCH  14  57
ATOM     57  C   LIG d   1       4.291   1.060  -1.796  0.00  0.00    -0.025 C 
ATOM     58  H   LIG d   1       5.320   1.060  -1.437  0.00  0.00     0.027 H 
ATOM     59  H   LIG d   1       4.097   1.982  -2.344  0.00  0.00     0.027 H 
ATOM     60  H   LIG d   1       3.610   0.992  -0.947  0.00  0.00     0.027 H 
ENDBRANCH  14  57
BRANCH  14  61
ATOM     61  C   LIG d   1       2.596  -0.232  -3.108  0.00  0.00    -0.025 C 
ATOM     62  H   LIG d   1       2.332   0.616  -3.740  0.00  0.00     0.027 H 
ATOM     63  H   LIG d   1       2.422  -1.159  -3.653  0.00  0.00     0.027 H 
ATOM     64  H   LIG d   1       1.983  -0.219  -2.207  0.00  0.00     0.027 H 
ENDBRANCH  14  61
TORSDOF 10
ENDMDL
MODEL 9
REMARK VINA RESULT:      -6.7      6.333     11.532
REMARK  10 active torsions:
REMARK  status: ('A' for Active; 'I' for Inactive)
REMARK    1  A    between atoms: C_1  and  C_2 
REMARK    2  A    between atoms: C_3  and  C_36 
REMARK    3  A    between atoms: C_9  and  O_19 
REMARK    4  A    between atoms: C_15  and  C_17 
REMARK    5  A    between atoms: C_15  and  C_18 
REMARK    6  A    between atoms: O_19  and  C_20 
REMARK    7  A    between atoms: C_20  and  C_21 
REMARK       I    between atoms: C_21  and  N_23 
REMARK    8  A    between atoms: N_23  and  C_24 
REMARK    9  A    between atoms: C_27  and  C_30 
REMARK   10  A    between atoms: C_30  and  N_31 
ROOT
ATOM      1  C   LIG d   1       4.470  -0.788  -9.334  0.00  0.00    -0.027 A 
ATOM      2  C   LIG d   1       3.827   0.342  -9.725  0.00  0.00     0.038 A 
ATOM      3  C   LIG d   1       3.246   1.190  -8.762  0.00  0.00     0.340 A 
ATOM      4  O   LIG d   1       2.671   2.203  -9.121  0.00  0.00    -0.245 OA
ATOM      5  O   LIG d   1       3.315   0.900  -7.451  0.00  0.00    -0.421 OA
ATOM      6  C   LIG d   1       3.946  -0.215  -7.020  0.00  0.00     0.149 A 
ATOM      7  C   LIG d   1       4.540  -1.087  -7.949  0.00  0.00     0.063 A 
ATOM      8  C   LIG d   1       5.197  -2.246  -7.496  0.00  0.00     0.136 A 
ATOM      9  C   LIG d   1       5.243  -2.515  -6.145  0.00  0.00     0.023 A 
ATOM     10  C   LIG d   1       4.654  -1.645  -5.225  0.00  0.00     0.131 A 
ATOM     11  C   LIG d   1       4.008  -0.502  -5.662  0.00  0.00     0.038 A 
ATOM     12  C   LIG d   1       3.365   0.456  -4.692  0.00  0.00    -0.017 C 
ATOM     13  C   LIG d   1       3.160  -0.234  -3.342  0.00  0.00    -0.009 C 
ATOM     14  C   LIG d   1       4.472  -0.930  -2.955  0.00  0.00     0.105 C 
ATOM     15  O   LIG d   1       4.730  -1.963  -3.907  0.00  0.00    -0.486 OA
ATOM     16  H   LIG d   1       5.744  -3.405  -5.794  0.00  0.00     0.069 H 
ATOM     17  H   LIG d   1       4.009   1.326  -4.562  0.00  0.00     0.032 H 
ATOM     18  H   LIG d   1       2.399   0.776  -5.085  0.00  0.00     0.032 H 
ATOM     19  H   LIG d   1       2.901   0.507  -2.585  0.00  0.00     0.031 H 
ATOM     20  H   LIG d   1       2.362  -0.971  -3.423  0.00  0.00     0.031 H 
ENDROOT
BRANCH   8  21
ATOM     21  O   LIG d   1       5.776  -3.093  -8.383  0.00  0.00    -0.482 OA
BRANCH  21  22
ATOM     22  C   LIG d   1       5.640  -4.493  -8.126  0.00  0.00     0.166 C 
ATOM     23  H   LIG d   1       5.822  -4.687  -7.069  0.00  0.00     0.080 H 
ATOM     24  H   LIG d   1       6.363  -5.045  -8.727  0.00  0.00     0.080 H 
BRANCH  22  25
ATOM     25  C   LIG d   1       4.246  -4.937  -8.484  0.00  0.00     0.255 C 
ATOM     26  O   LIG d   1       3.452  -5.211  -7.608  0.00  0.00    -0.272 OA
ATOM     27  N   LIG d   1       3.881  -5.035  -9.778  0.00  0.00    -0.283 N 
ATOM     28  H   LIG d   1       4.493  -4.755 -10.477  0.00  0.00     0.155 HD
BRANCH  27  29
ATOM     29  C   LIG d   1       2.621  -5.542 -10.113  0.00  0.00     0.034 A 
ATOM     30  C   LIG d   1       2.399  -6.912 -10.109  0.00  0.00    -0.040 A 
ATOM     31  C   LIG d   1       1.153  -7.409 -10.440  0.00  0.00    -0.055 A 
ATOM     32  H   LIG d   1       3.199  -7.589  -9.848  0.00  0.00     0.064 H 
ATOM     33  C   LIG d   1       0.128  -6.544 -10.776  0.00  0.00    -0.026 A 
ATOM     34  H   LIG d   1       0.979  -8.475 -10.437  0.00  0.00     0.062 H 
ATOM     35  C   LIG d   1       0.346  -5.178 -10.781  0.00  0.00    -0.055 A 
ATOM     36  C   LIG d   1       1.588  -4.675 -10.445  0.00  0.00    -0.040 A 
ATOM     37  H   LIG d   1      -0.456  -4.504 -11.043  0.00  0.00     0.062 H 
ATOM     38  H   LIG d   1       1.756  -3.608 -10.444  0.00  0.00     0.064 H 
BRANCH  33  39
ATOM     39  C   LIG d   1      -1.229  -7.090 -11.137  0.00  0.00     0.068 C 
ATOM     40  H   LIG d   1      -1.406  -6.947 -12.203  0.00  0.00     0.056 H 
ATOM     41  H   LIG d   1      -1.268  -8.153 -10.902  0.00  0.00     0.056 H 
BRANCH  39  42
ATOM     42  N   LIG d   1      -2.259  -6.383 -10.373  0.00  0.00    -0.248 N 
ATOM     43  N   LIG d   1      -3.084  -5.344 -10.832  0.00  0.00    -0.158 NA
ATOM     44  C   LIG d   1      -3.857  -5.005  -9.834  0.00  0.00     0.138 A 
ATOM     45  N   LIG d   1      -3.558  -5.763  -8.780  0.00  0.00    -0.223 NA
ATOM     46  H   LIG d   1      -4.611  -4.233  -9.858  0.00  0.00     0.106 H 
ATOM     47  C   LIG d   1      -2.599  -6.597  -9.089  0.00  0.00     0.115 A 
ATOM     48  H   LIG d   1      -2.157  -7.328  -8.429  0.00  0.00     0.104 H 
ENDBRANCH  39  42
ENDBRANCH  33  39
ENDBRANCH  27  29
ENDBRANCH  22  25
ENDBRANCH  21  22
ENDBRANCH   8  21
BRANCH   1  49
ATOM     49  C   LIG d   1       5.097  -1.707 -10.350  0.00  0.00    -0.038 C 
ATOM     50  H   LIG d   1       5.579  -1.115 -11.127  0.00  0.00     0.028 H 
ATOM     51  H   LIG d   1       5.839  -2.337  -9.860  0.00  0.00     0.028 H 
ATOM     52  H   LIG d   1       4.326  -2.335 -10.796  0.00  0.00     0.028 H 
ENDBRANCH   1  49
BRANCH   2  53
ATOM     53  C   LIG d   1       3.735   0.689 -11.190  0.00  0.00    -0.033 C 
ATOM     54  H   LIG d   1       3.315  -0.154 -11.738  0.00  0.00     0.028 H 
ATOM     55  H   LIG d   1       3.094   1.561 -11.317  0.00  0.00     0.028 H 
ATOM     56  H   LIG d   1       4.732   0.911 -11.573  0.00  0.00     0.028 H 
ENDBRANCH   2  53
BRANCH  14  57
ATOM     57  C   LIG d   1       4.339  -1.539  -1.557  0.00  0.00    -0.025 C 
ATOM     58  H   LIG d   1       3.295  -1.514  -1.248  0.00  0.00     0.027 H 
ATOM     59  H   LIG d   1       4.688  -2.572  -1.577  0.00  0.00     0.027 H 
ATOM     60  H   LIG d   1       4.941  -0.965  -0.853  0.00  0.00     0.027 H 
ENDBRANCH  14  57
BRANCH  14  61
ATOM     61  C   LIG d   1       5.618   0.084  -2.970  0.00  0.00    -0.025 C 
ATOM     62  H   LIG d   1       6.450  -0.317  -3.547  0.00  0.00     0.027 H 
ATOM     63  H   LIG d   1       5.274   1.013  -3.426  0.00  0.00     0.027 H 
ATOM     64  H   LIG d   1       5.944   0.280  -1.949  0.00  0.00     0.027 H 
ENDBRANCH  14  61
TORSDOF 10
ENDMDL
MODEL 10
REMARK VINA RESULT:      -6.7      3.016      4.682
REMARK  10 active torsions:
REMARK  status: ('A' for Active; 'I' for Inactive)
REMARK    1  A    between atoms: C_1  and  C_2 
REMARK    2  A    between atoms: C_3  and  C_36 
REMARK    3  A    between atoms: C_9  and  O_19 
REMARK    4  A    between atoms: C_15  and  C_17 
REMARK    5  A    between atoms: C_15  and  C_18 
REMARK    6  A    between atoms: O_19  and  C_20 
REMARK    7  A    between atoms: C_20  and  C_21 
REMARK       I    between atoms: C_21  and  N_23 
REMARK    8  A    between atoms: N_23  and  C_24 
REMARK    9  A    between atoms: C_27  and  C_30 
REMARK   10  A    between atoms: C_30  and  N_31 
ROOT
ATOM      1  C   LIG d   1       9.490  -2.444  -5.603  0.00  0.00    -0.027 A 
ATOM      2  C   LIG d   1       9.389  -3.784  -5.410  0.00  0.00     0.038 A 
ATOM      3  C   LIG d   1       8.294  -4.311  -4.696  0.00  0.00     0.340 A 
ATOM      4  O   LIG d   1       8.209  -5.514  -4.528  0.00  0.00    -0.245 OA
ATOM      5  O   LIG d   1       7.341  -3.505  -4.195  0.00  0.00    -0.421 OA
ATOM      6  C   LIG d   1       7.406  -2.166  -4.365  0.00  0.00     0.149 A 
ATOM      7  C   LIG d   1       8.480  -1.600  -5.073  0.00  0.00     0.063 A 
ATOM      8  C   LIG d   1       8.543  -0.206  -5.248  0.00  0.00     0.136 A 
ATOM      9  C   LIG d   1       7.551   0.590  -4.716  0.00  0.00     0.023 A 
ATOM     10  C   LIG d   1       6.484   0.024  -4.015  0.00  0.00     0.131 A 
ATOM     11  C   LIG d   1       6.413  -1.346  -3.840  0.00  0.00     0.038 A 
ATOM     12  C   LIG d   1       5.272  -1.986  -3.090  0.00  0.00    -0.017 C 
ATOM     13  C   LIG d   1       4.555  -0.931  -2.245  0.00  0.00    -0.009 C 
ATOM     14  C   LIG d   1       4.283   0.292  -3.131  0.00  0.00     0.105 C 
ATOM     15  O   LIG d   1       5.537   0.858  -3.512  0.00  0.00    -0.486 OA
ATOM     16  H   LIG d   1       7.598   1.661  -4.845  0.00  0.00     0.069 H 
ATOM     17  H   LIG d   1       4.570  -2.421  -3.801  0.00  0.00     0.032 H 
ATOM     18  H   LIG d   1       5.660  -2.769  -2.439  0.00  0.00     0.032 H 
ATOM     19  H   LIG d   1       3.611  -1.335  -1.876  0.00  0.00     0.031 H 
ATOM     20  H   LIG d   1       5.185  -0.644  -1.403  0.00  0.00     0.031 H 
ENDROOT
BRANCH   8  21
ATOM     21  O   LIG d   1       9.575   0.351  -5.932  0.00  0.00    -0.482 OA
BRANCH  21  22
ATOM     22  C   LIG d   1       9.336   1.621  -6.543  0.00  0.00     0.166 C 
ATOM     23  H   LIG d   1       8.263   1.783  -6.636  0.00  0.00     0.080 H 
ATOM     24  H   LIG d   1       9.795   1.640  -7.531  0.00  0.00     0.080 H 
BRANCH  22  25
ATOM     25  C   LIG d   1       9.936   2.709  -5.690  0.00  0.00     0.255 C 
ATOM     26  O   LIG d   1      11.141   2.807  -5.591  0.00  0.00    -0.272 OA
ATOM     27  N   LIG d   1       9.134   3.569  -5.032  0.00  0.00    -0.283 N 
ATOM     28  H   LIG d   1       8.173   3.532  -5.162  0.00  0.00     0.155 HD
BRANCH  27  29
ATOM     29  C   LIG d   1       9.686   4.516  -4.162  0.00  0.00     0.034 A 
ATOM     30  C   LIG d   1       9.958   5.800  -4.614  0.00  0.00    -0.040 A 
ATOM     31  C   LIG d   1      10.504   6.732  -3.753  0.00  0.00    -0.055 A 
ATOM     32  H   LIG d   1       9.745   6.070  -5.638  0.00  0.00     0.064 H 
ATOM     33  C   LIG d   1      10.778   6.387  -2.442  0.00  0.00    -0.026 A 
ATOM     34  H   LIG d   1      10.716   7.732  -4.103  0.00  0.00     0.062 H 
ATOM     35  C   LIG d   1      10.509   5.109  -1.989  0.00  0.00    -0.055 A 
ATOM     36  C   LIG d   1       9.958   4.174  -2.844  0.00  0.00    -0.040 A 
ATOM     37  H   LIG d   1      10.724   4.842  -0.965  0.00  0.00     0.062 H 
ATOM     38  H   LIG d   1       9.742   3.177  -2.488  0.00  0.00     0.064 H 
BRANCH  33  39
ATOM     39  C   LIG d   1      11.374   7.407  -1.505  0.00  0.00     0.068 C 
ATOM     40  H   LIG d   1      11.626   6.927  -0.559  0.00  0.00     0.056 H 
ATOM     41  H   LIG d   1      12.275   7.827  -1.951  0.00  0.00     0.056 H 
BRANCH  39  42
ATOM     42  N   LIG d   1      10.403   8.477  -1.267  0.00  0.00    -0.248 N 
ATOM     43  N   LIG d   1       9.097   8.334  -0.772  0.00  0.00    -0.158 NA
ATOM     44  C   LIG d   1       8.582   9.534  -0.712  0.00  0.00     0.138 A 
ATOM     45  N   LIG d   1       9.483  10.413  -1.146  0.00  0.00    -0.223 NA
ATOM     46  H   LIG d   1       7.586   9.773  -0.370  0.00  0.00     0.106 H 
ATOM     47  C   LIG d   1      10.584   9.792  -1.484  0.00  0.00     0.115 A 
ATOM     48  H   LIG d   1      11.481  10.254  -1.869  0.00  0.00     0.104 H 
ENDBRANCH  39  42
ENDBRANCH  33  39
ENDBRANCH  27  29
ENDBRANCH  22  25
ENDBRANCH  21  22
ENDBRANCH   8  21
BRANCH   1  49
ATOM     49  C   LIG d   1      10.654  -1.863  -6.364  0.00  0.00    -0.038 C 
ATOM     50  H   LIG d   1      11.481  -2.571  -6.359  0.00  0.00     0.028 H 
ATOM     51  H   LIG d   1      10.351  -1.664  -7.392  0.00  0.00     0.028 H 
ATOM     52  H   LIG d   1      10.968  -0.932  -5.892  0.00  0.00     0.028 H 
ENDBRANCH   1  49
BRANCH   2  53
ATOM     53  C   LIG d   1      10.445  -4.708  -5.962  0.00  0.00    -0.033 C 
ATOM     54  H   LIG d   1      10.115  -5.742  -5.855  0.00  0.00     0.028 H 
ATOM     55  H   LIG d   1      10.609  -4.485  -7.016  0.00  0.00     0.028 H 
ATOM     56  H   LIG d   1      11.375  -4.565  -5.411  0.00  0.00     0.028 H 
ENDBRANCH   2  53
BRANCH  14  57
ATOM     57  C   LIG d   1       3.468   1.324  -2.349  0.00  0.00    -0.025 C 
ATOM     58  H   LIG d   1       2.407   1.087  -2.432  0.00  0.00     0.027 H 
ATOM     59  H   LIG d   1       3.764   1.301  -1.300  0.00  0.00     0.027 H 
ATOM     60  H   LIG d   1       3.651   2.317  -2.757  0.00  0.00     0.027 H 
ENDBRANCH  14  57
BRANCH  14  61
ATOM     61  C   LIG d   1       3.510  -0.139  -4.380  0.00  0.00    -0.025 C 
ATOM     62  H   LIG d   1       2.443  -0.152  -4.160  0.00  0.00     0.027 H 
ATOM     63  H   LIG d   1       3.706   0.565  -5.189  0.00  0.00     0.027 H 
ATOM     64  H   LIG d   1       3.832  -1.136  -4.680  0.00  0.00     0.027 H 
ENDBRANCH  14  61
TORSDOF 10
ENDMDL
