MODEL 1
REMARK VINA RESULT:      -5.0      0.000      0.000
REMARK  9 active torsions:
REMARK  status: ('A' for Active; 'I' for Inactive)
REMARK    1  A    between atoms: C_1  and  C_2 
REMARK    2  A    between atoms: C_2  and  C_3 
REMARK    3  A    between atoms: C_2  and  C_4 
REMARK    4  A    between atoms: C_2  and  C_5 
REMARK    5  A    between atoms: C_9  and  C_12 
REMARK    6  A    between atoms: C_10  and  O_11 
REMARK    7  A    between atoms: C_12  and  C_13 
REMARK    8  A    between atoms: C_12  and  C_14 
REMARK    9  A    between atoms: C_12  and  C_15 
ROOT
ATOM      1  C   LIG d   1       3.805  -0.563  -6.307  0.00  0.00    -0.000 A 
ATOM      2  C   LIG d   1       2.705   0.274  -6.323  0.00  0.00    -0.055 A 
ATOM      3  C   LIG d   1       2.303   0.912  -5.165  0.00  0.00    -0.061 A 
ATOM      4  C   LIG d   1       3.000   0.715  -3.986  0.00  0.00    -0.055 A 
ATOM      5  C   LIG d   1       4.099  -0.122  -3.964  0.00  0.00    -0.000 A 
ATOM      6  C   LIG d   1       4.501  -0.767  -5.124  0.00  0.00     0.124 A 
ATOM      7  H   LIG d   1       2.160   0.430  -7.243  0.00  0.00     0.062 H 
ATOM      8  H   LIG d   1       1.444   1.566  -5.180  0.00  0.00     0.062 H 
ATOM      9  H   LIG d   1       2.683   1.214  -3.083  0.00  0.00     0.062 H 
ENDROOT
BRANCH   1  10
ATOM     10  C   LIG d   1       4.243  -1.258  -7.570  0.00  0.00    -0.009 C 
BRANCH  10  11
ATOM     11  C   LIG d   1       3.202  -1.025  -8.667  0.00  0.00    -0.056 C 
ATOM     12  H   LIG d   1       2.717  -1.970  -8.914  0.00  0.00     0.024 H 
ATOM     13  H   LIG d   1       2.454  -0.314  -8.315  0.00  0.00     0.024 H 
ATOM     14  H   LIG d   1       3.693  -0.626  -9.555  0.00  0.00     0.024 H 
ENDBRANCH  10  11
BRANCH  10  15
ATOM     15  C   LIG d   1       4.379  -2.759  -7.306  0.00  0.00    -0.056 C 
ATOM     16  H   LIG d   1       3.546  -3.096  -6.690  0.00  0.00     0.024 H 
ATOM     17  H   LIG d   1       4.371  -3.297  -8.254  0.00  0.00     0.024 H 
ATOM     18  H   LIG d   1       5.317  -2.953  -6.786  0.00  0.00     0.024 H 
ENDBRANCH  10  15
BRANCH  10  19
ATOM     19  C   LIG d   1       5.592  -0.695  -8.020  0.00  0.00    -0.056 C 
ATOM     20  H   LIG d   1       6.326  -1.500  -8.058  0.00  0.00     0.024 H 
ATOM     21  H   LIG d   1       5.490  -0.251  -9.009  0.00  0.00     0.024 H 
ATOM     22  H   LIG d   1       5.924   0.065  -7.312  0.00  0.00     0.024 H 
ENDBRANCH  10  19
ENDBRANCH   1  10
BRANCH   6  23
ATOM     23  O   LIG d   1       5.579  -1.595  -5.104  0.00  0.00    -0.506 OA
ATOM     24  H   LIG d   1       5.464  -2.403  -5.622  0.00  0.00     0.292 HD
ENDBRANCH   6  23
BRANCH   5  25
ATOM     25  C   LIG d   1       4.858  -0.336  -2.680  0.00  0.00    -0.009 C 
BRANCH  25  26
ATOM     26  C   LIG d   1       4.546   0.803  -1.707  0.00  0.00    -0.056 C 
ATOM     27  H   LIG d   1       3.468   0.880  -1.571  0.00  0.00     0.024 H 
ATOM     28  H   LIG d   1       5.021   0.601  -0.748  0.00  0.00     0.024 H 
ATOM     29  H   LIG d   1       4.929   1.741  -2.112  0.00  0.00     0.024 H 
ENDBRANCH  25  26
BRANCH  25  30
ATOM     30  C   LIG d   1       4.437  -1.668  -2.056  0.00  0.00    -0.056 C 
ATOM     31  H   LIG d   1       3.348  -1.730  -2.032  0.00  0.00     0.024 H 
ATOM     32  H   LIG d   1       4.834  -2.490  -2.651  0.00  0.00     0.024 H 
ATOM     33  H   LIG d   1       4.826  -1.733  -1.039  0.00  0.00     0.024 H 
ENDBRANCH  25  30
BRANCH  25  34
ATOM     34  C   LIG d   1       6.359  -0.363  -2.973  0.00  0.00    -0.056 C 
ATOM     35  H   LIG d   1       6.793  -1.274  -2.563  0.00  0.00     0.024 H 
ATOM     36  H   LIG d   1       6.519  -0.338  -4.051  0.00  0.00     0.024 H 
ATOM     37  H   LIG d   1       6.834   0.504  -2.515  0.00  0.00     0.024 H 
ENDBRANCH  25  34
ENDBRANCH   5  25
TORSDOF 9
ENDMDL
MODEL 2
REMARK VINA RESULT:      -5.0      0.014      4.501
REMARK  9 active torsions:
REMARK  status: ('A' for Active; 'I' for Inactive)
REMARK    1  A    between atoms: C_1  and  C_2 
REMARK    2  A    between atoms: C_2  and  C_3 
REMARK    3  A    between atoms: C_2  and  C_4 
REMARK    4  A    between atoms: C_2  and  C_5 
REMARK    5  A    between atoms: C_9  and  C_12 
REMARK    6  A    between atoms: C_10  and  O_11 
REMARK    7  A    between atoms: C_12  and  C_13 
REMARK    8  A    between atoms: C_12  and  C_14 
REMARK    9  A    between atoms: C_12  and  C_15 
ROOT
ATOM      1  C   LIG d   1       4.099  -0.131  -3.965  0.00  0.00    -0.000 A 
ATOM      2  C   LIG d   1       3.003   0.710  -3.986  0.00  0.00    -0.055 A 
ATOM      3  C   LIG d   1       2.308   0.914  -5.164  0.00  0.00    -0.061 A 
ATOM      4  C   LIG d   1       2.708   0.277  -6.324  0.00  0.00    -0.055 A 
ATOM      5  C   LIG d   1       3.804  -0.564  -6.309  0.00  0.00    -0.000 A 
ATOM      6  C   LIG d   1       4.506  -0.766  -5.130  0.00  0.00     0.124 A 
ATOM      7  H   LIG d   1       2.688   1.208  -3.080  0.00  0.00     0.062 H 
ATOM      8  H   LIG d   1       1.452   1.571  -5.177  0.00  0.00     0.062 H 
ATOM      9  H   LIG d   1       2.164   0.438  -7.242  0.00  0.00     0.062 H 
ENDROOT
BRANCH   1  10
ATOM     10  C   LIG d   1       4.855  -0.353  -2.681  0.00  0.00    -0.009 C 
BRANCH  10  11
ATOM     11  C   LIG d   1       6.357  -0.392  -2.974  0.00  0.00    -0.056 C 
ATOM     12  H   LIG d   1       6.562   0.163  -3.890  0.00  0.00     0.024 H 
ATOM     13  H   LIG d   1       6.901   0.060  -2.145  0.00  0.00     0.024 H 
ATOM     14  H   LIG d   1       6.675  -1.427  -3.097  0.00  0.00     0.024 H 
ENDBRANCH  10  11
BRANCH  10  15
ATOM     15  C   LIG d   1       4.422  -1.681  -2.056  0.00  0.00    -0.056 C 
ATOM     16  H   LIG d   1       3.498  -2.018  -2.523  0.00  0.00     0.024 H 
ATOM     17  H   LIG d   1       5.202  -2.427  -2.212  0.00  0.00     0.024 H 
ATOM     18  H   LIG d   1       4.261  -1.544  -0.986  0.00  0.00     0.024 H 
ENDBRANCH  10  15
BRANCH  10  19
ATOM     19  C   LIG d   1       4.555   0.789  -1.709  0.00  0.00    -0.056 C 
ATOM     20  H   LIG d   1       4.283   1.683  -2.271  0.00  0.00     0.024 H 
ATOM     21  H   LIG d   1       3.729   0.506  -1.058  0.00  0.00     0.024 H 
ATOM     22  H   LIG d   1       5.439   0.996  -1.105  0.00  0.00     0.024 H 
ENDBRANCH  10  19
ENDBRANCH   1  10
BRANCH   6  23
ATOM     23  O   LIG d   1       5.587  -1.589  -5.113  0.00  0.00    -0.506 OA
ATOM     24  H   LIG d   1       5.749  -2.042  -5.951  0.00  0.00     0.292 HD
ENDBRANCH   6  23
BRANCH   5  25
ATOM     25  C   LIG d   1       4.240  -1.258  -7.574  0.00  0.00    -0.009 C 
BRANCH  25  26
ATOM     26  C   LIG d   1       4.387  -2.757  -7.309  0.00  0.00    -0.056 C 
ATOM     27  H   LIG d   1       3.408  -3.186  -7.096  0.00  0.00     0.024 H 
ATOM     28  H   LIG d   1       4.813  -3.241  -8.187  0.00  0.00     0.024 H 
ATOM     29  H   LIG d   1       5.045  -2.911  -6.453  0.00  0.00     0.024 H 
ENDBRANCH  25  26
BRANCH  25  30
ATOM     30  C   LIG d   1       3.191  -1.034  -8.665  0.00  0.00    -0.056 C 
ATOM     31  H   LIG d   1       2.210  -0.905  -8.206  0.00  0.00     0.024 H 
ATOM     32  H   LIG d   1       3.445  -0.140  -9.236  0.00  0.00     0.024 H 
ATOM     33  H   LIG d   1       3.169  -1.897  -9.331  0.00  0.00     0.024 H 
ENDBRANCH  25  30
BRANCH  25  34
ATOM     34  C   LIG d   1       5.582  -0.685  -8.033  0.00  0.00    -0.056 C 
ATOM     35  H   LIG d   1       5.535  -0.457  -9.097  0.00  0.00     0.024 H 
ATOM     36  H   LIG d   1       5.797   0.228  -7.476  0.00  0.00     0.024 H 
ATOM     37  H   LIG d   1       6.370  -1.415  -7.851  0.00  0.00     0.024 H 
ENDBRANCH  25  34
ENDBRANCH   5  25
TORSDOF 9
ENDMDL
MODEL 3
REMARK VINA RESULT:      -5.0      0.025      1.581
REMARK  9 active torsions:
REMARK  status: ('A' for Active; 'I' for Inactive)
REMARK    1  A    between atoms: C_1  and  C_2 
REMARK    2  A    between atoms: C_2  and  C_3 
REMARK    3  A    between atoms: C_2  and  C_4 
REMARK    4  A    between atoms: C_2  and  C_5 
REMARK    5  A    between atoms: C_9  and  C_12 
REMARK    6  A    between atoms: C_10  and  O_11 
REMARK    7  A    between atoms: C_12  and  C_13 
REMARK    8  A    between atoms: C_12  and  C_14 
REMARK    9  A    between atoms: C_12  and  C_15 
ROOT
ATOM      1  C   LIG d   1       3.799  -0.559  -6.310  0.00  0.00    -0.000 A 
ATOM      2  C   LIG d   1       2.705   0.285  -6.319  0.00  0.00    -0.055 A 
ATOM      3  C   LIG d   1       2.307   0.917  -5.156  0.00  0.00    -0.061 A 
ATOM      4  C   LIG d   1       3.002   0.705  -3.979  0.00  0.00    -0.055 A 
ATOM      5  C   LIG d   1       4.095  -0.138  -3.964  0.00  0.00    -0.000 A 
ATOM      6  C   LIG d   1       4.494  -0.777  -5.128  0.00  0.00     0.124 A 
ATOM      7  H   LIG d   1       2.161   0.452  -7.238  0.00  0.00     0.062 H 
ATOM      8  H   LIG d   1       1.452   1.576  -5.166  0.00  0.00     0.062 H 
ATOM      9  H   LIG d   1       2.688   1.199  -3.072  0.00  0.00     0.062 H 
ENDROOT
BRANCH   1  10
ATOM     10  C   LIG d   1       4.232  -1.247  -7.578  0.00  0.00    -0.009 C 
BRANCH  10  11
ATOM     11  C   LIG d   1       4.360  -2.751  -7.324  0.00  0.00    -0.056 C 
ATOM     12  H   LIG d   1       5.283  -3.117  -7.774  0.00  0.00     0.024 H 
ATOM     13  H   LIG d   1       4.379  -2.938  -6.251  0.00  0.00     0.024 H 
ATOM     14  H   LIG d   1       3.510  -3.267  -7.769  0.00  0.00     0.024 H 
ENDBRANCH  10  11
BRANCH  10  15
ATOM     15  C   LIG d   1       5.585  -0.688  -8.026  0.00  0.00    -0.056 C 
ATOM     16  H   LIG d   1       5.830  -1.078  -9.013  0.00  0.00     0.024 H 
ATOM     17  H   LIG d   1       5.532   0.400  -8.067  0.00  0.00     0.024 H 
ATOM     18  H   LIG d   1       6.355  -0.988  -7.315  0.00  0.00     0.024 H 
ENDBRANCH  10  15
BRANCH  10  19
ATOM     19  C   LIG d   1       3.192  -1.001  -8.672  0.00  0.00    -0.056 C 
ATOM     20  H   LIG d   1       2.531  -0.190  -8.369  0.00  0.00     0.024 H 
ATOM     21  H   LIG d   1       3.695  -0.731  -9.600  0.00  0.00     0.024 H 
ATOM     22  H   LIG d   1       2.606  -1.908  -8.827  0.00  0.00     0.024 H 
ENDBRANCH  10  19
ENDBRANCH   1  10
BRANCH   6  23
ATOM     23  O   LIG d   1       5.566  -1.612  -5.115  0.00  0.00    -0.506 OA
ATOM     24  H   LIG d   1       5.405  -2.466  -5.539  0.00  0.00     0.292 HD
ENDBRANCH   6  23
BRANCH   5  25
ATOM     25  C   LIG d   1       4.852  -0.368  -2.680  0.00  0.00    -0.009 C 
BRANCH  25  26
ATOM     26  C   LIG d   1       6.353  -0.413  -2.975  0.00  0.00    -0.056 C 
ATOM     27  H   LIG d   1       6.604  -1.368  -3.437  0.00  0.00     0.024 H 
ATOM     28  H   LIG d   1       6.615   0.399  -3.652  0.00  0.00     0.024 H 
ATOM     29  H   LIG d   1       6.909  -0.304  -2.043  0.00  0.00     0.024 H 
ENDBRANCH  25  26
BRANCH  25  30
ATOM     30  C   LIG d   1       4.559   0.772  -1.704  0.00  0.00    -0.056 C 
ATOM     31  H   LIG d   1       4.006   1.559  -2.220  0.00  0.00     0.024 H 
ATOM     32  H   LIG d   1       3.962   0.395  -0.873  0.00  0.00     0.024 H 
ATOM     33  H   LIG d   1       5.498   1.177  -1.324  0.00  0.00     0.024 H 
ENDBRANCH  25  30
BRANCH  25  34
ATOM     34  C   LIG d   1       4.413  -1.696  -2.061  0.00  0.00    -0.056 C 
ATOM     35  H   LIG d   1       5.010  -1.897  -1.171  0.00  0.00     0.024 H 
ATOM     36  H   LIG d   1       3.359  -1.637  -1.784  0.00  0.00     0.024 H 
ATOM     37  H   LIG d   1       4.555  -2.499  -2.783  0.00  0.00     0.024 H 
ENDBRANCH  25  34
ENDBRANCH   5  25
TORSDOF 9
ENDMDL
MODEL 4
REMARK VINA RESULT:      -4.9      2.672      4.986
REMARK  9 active torsions:
REMARK  status: ('A' for Active; 'I' for Inactive)
REMARK    1  A    between atoms: C_1  and  C_2 
REMARK    2  A    between atoms: C_2  and  C_3 
REMARK    3  A    between atoms: C_2  and  C_4 
REMARK    4  A    between atoms: C_2  and  C_5 
REMARK    5  A    between atoms: C_9  and  C_12 
REMARK    6  A    between atoms: C_10  and  O_11 
REMARK    7  A    between atoms: C_12  and  C_13 
REMARK    8  A    between atoms: C_12  and  C_14 
REMARK    9  A    between atoms: C_12  and  C_15 
ROOT
ATOM      1  C   LIG d   1       5.702  -0.852  -3.450  0.00  0.00    -0.000 A 
ATOM      2  C   LIG d   1       6.107  -2.163  -3.618  0.00  0.00    -0.055 A 
ATOM      3  C   LIG d   1       7.338  -2.441  -4.183  0.00  0.00    -0.061 A 
ATOM      4  C   LIG d   1       8.167  -1.408  -4.581  0.00  0.00    -0.055 A 
ATOM      5  C   LIG d   1       7.767  -0.096  -4.416  0.00  0.00    -0.000 A 
ATOM      6  C   LIG d   1       6.530   0.185  -3.854  0.00  0.00     0.124 A 
ATOM      7  H   LIG d   1       5.461  -2.971  -3.307  0.00  0.00     0.062 H 
ATOM      8  H   LIG d   1       7.652  -3.465  -4.313  0.00  0.00     0.062 H 
ATOM      9  H   LIG d   1       9.128  -1.628  -5.022  0.00  0.00     0.062 H 
ENDROOT
BRANCH   1  10
ATOM     10  C   LIG d   1       4.360  -0.550  -2.834  0.00  0.00    -0.009 C 
BRANCH  10  11
ATOM     11  C   LIG d   1       3.740  -1.844  -2.303  0.00  0.00    -0.056 C 
ATOM     12  H   LIG d   1       3.221  -2.357  -3.113  0.00  0.00     0.024 H 
ATOM     13  H   LIG d   1       4.526  -2.489  -1.908  0.00  0.00     0.024 H 
ATOM     14  H   LIG d   1       3.031  -1.607  -1.509  0.00  0.00     0.024 H 
ENDBRANCH  10  11
BRANCH  10  15
ATOM     15  C   LIG d   1       3.439   0.060  -3.893  0.00  0.00    -0.056 C 
ATOM     16  H   LIG d   1       3.225   1.097  -3.633  0.00  0.00     0.024 H 
ATOM     17  H   LIG d   1       3.928   0.022  -4.866  0.00  0.00     0.024 H 
ATOM     18  H   LIG d   1       2.507  -0.504  -3.933  0.00  0.00     0.024 H 
ENDBRANCH  10  15
BRANCH  10  19
ATOM     19  C   LIG d   1       4.540   0.440  -1.682  0.00  0.00    -0.056 C 
ATOM     20  H   LIG d   1       4.874   1.400  -2.077  0.00  0.00     0.024 H 
ATOM     21  H   LIG d   1       3.590   0.572  -1.165  0.00  0.00     0.024 H 
ATOM     22  H   LIG d   1       5.284   0.056  -0.984  0.00  0.00     0.024 H 
ENDBRANCH  10  19
ENDBRANCH   1  10
BRANCH   6  23
ATOM     23  O   LIG d   1       6.132   1.475  -3.696  0.00  0.00    -0.506 OA
ATOM     24  H   LIG d   1       5.218   1.570  -3.395  0.00  0.00     0.292 HD
ENDBRANCH   6  23
BRANCH   5  25
ATOM     25  C   LIG d   1       8.672   1.028  -4.850  0.00  0.00    -0.009 C 
BRANCH  25  26
ATOM     26  C   LIG d   1       8.790   2.054  -3.720  0.00  0.00    -0.056 C 
ATOM     27  H   LIG d   1       9.100   1.551  -2.805  0.00  0.00     0.024 H 
ATOM     28  H   LIG d   1       9.528   2.807  -3.990  0.00  0.00     0.024 H 
ATOM     29  H   LIG d   1       7.822   2.532  -3.562  0.00  0.00     0.024 H 
ENDBRANCH  25  26
BRANCH  25  30
ATOM     30  C   LIG d   1      10.058   0.470  -5.178  0.00  0.00    -0.056 C 
ATOM     31  H   LIG d   1      10.822   1.104  -4.725  0.00  0.00     0.024 H 
ATOM     32  H   LIG d   1      10.145  -0.542  -4.782  0.00  0.00     0.024 H 
ATOM     33  H   LIG d   1      10.196   0.452  -6.259  0.00  0.00     0.024 H 
ENDBRANCH  25  30
BRANCH  25  34
ATOM     34  C   LIG d   1       8.087   1.702  -6.093  0.00  0.00    -0.056 C 
ATOM     35  H   LIG d   1       8.402   1.158  -6.983  0.00  0.00     0.024 H 
ATOM     36  H   LIG d   1       6.998   1.696  -6.030  0.00  0.00     0.024 H 
ATOM     37  H   LIG d   1       8.442   2.730  -6.150  0.00  0.00     0.024 H 
ENDBRANCH  25  34
ENDBRANCH   5  25
TORSDOF 9
ENDMDL
MODEL 5
REMARK VINA RESULT:      -4.9      2.681      4.959
REMARK  9 active torsions:
REMARK  status: ('A' for Active; 'I' for Inactive)
REMARK    1  A    between atoms: C_1  and  C_2 
REMARK    2  A    between atoms: C_2  and  C_3 
REMARK    3  A    between atoms: C_2  and  C_4 
REMARK    4  A    between atoms: C_2  and  C_5 
REMARK    5  A    between atoms: C_9  and  C_12 
REMARK    6  A    between atoms: C_10  and  O_11 
REMARK    7  A    between atoms: C_12  and  C_13 
REMARK    8  A    between atoms: C_12  and  C_14 
REMARK    9  A    between atoms: C_12  and  C_15 
ROOT
ATOM      1  C   LIG d   1       5.669  -0.764  -3.454  0.00  0.00    -0.000 A 
ATOM      2  C   LIG d   1       6.041  -2.087  -3.606  0.00  0.00    -0.055 A 
ATOM      3  C   LIG d   1       7.269  -2.403  -4.158  0.00  0.00    -0.061 A 
ATOM      4  C   LIG d   1       8.128  -1.396  -4.560  0.00  0.00    -0.055 A 
ATOM      5  C   LIG d   1       7.761  -0.073  -4.411  0.00  0.00    -0.000 A 
ATOM      6  C   LIG d   1       6.527   0.247  -3.863  0.00  0.00     0.124 A 
ATOM      7  H   LIG d   1       5.371  -2.874  -3.293  0.00  0.00     0.062 H 
ATOM      8  H   LIG d   1       7.556  -3.436  -4.275  0.00  0.00     0.062 H 
ATOM      9  H   LIG d   1       9.086  -1.646  -4.990  0.00  0.00     0.062 H 
ENDROOT
BRANCH   1  10
ATOM     10  C   LIG d   1       4.331  -0.421  -2.853  0.00  0.00    -0.009 C 
BRANCH  10  11
ATOM     11  C   LIG d   1       4.528   0.565  -1.700  0.00  0.00    -0.056 C 
ATOM     12  H   LIG d   1       4.764   0.016  -0.788  0.00  0.00     0.024 H 
ATOM     13  H   LIG d   1       5.347   1.244  -1.938  0.00  0.00     0.024 H 
ATOM     14  H   LIG d   1       3.612   1.138  -1.552  0.00  0.00     0.024 H 
ENDBRANCH  10  11
BRANCH  10  15
ATOM     15  C   LIG d   1       3.665  -1.695  -2.327  0.00  0.00    -0.056 C 
ATOM     16  H   LIG d   1       2.583  -1.596  -2.401  0.00  0.00     0.024 H 
ATOM     17  H   LIG d   1       3.994  -2.548  -2.920  0.00  0.00     0.024 H 
ATOM     18  H   LIG d   1       3.946  -1.848  -1.285  0.00  0.00     0.024 H 
ENDBRANCH  10  15
BRANCH  10  19
ATOM     19  C   LIG d   1       3.440   0.215  -3.922  0.00  0.00    -0.056 C 
ATOM     20  H   LIG d   1       3.207  -0.525  -4.687  0.00  0.00     0.024 H 
ATOM     21  H   LIG d   1       2.517   0.567  -3.464  0.00  0.00     0.024 H 
ATOM     22  H   LIG d   1       3.964   1.056  -4.378  0.00  0.00     0.024 H 
ENDBRANCH  10  19
ENDBRANCH   1  10
BRANCH   6  23
ATOM     23  O   LIG d   1       6.162   1.548  -3.720  0.00  0.00    -0.506 OA
ATOM     24  H   LIG d   1       6.287   2.081  -4.517  0.00  0.00     0.292 HD
ENDBRANCH   6  23
BRANCH   5  25
ATOM     25  C   LIG d   1       8.698   1.023  -4.849  0.00  0.00    -0.009 C 
BRANCH  25  26
ATOM     26  C   LIG d   1       8.868   2.033  -3.713  0.00  0.00    -0.056 C 
ATOM     27  H   LIG d   1       8.633   3.033  -4.077  0.00  0.00     0.024 H 
ATOM     28  H   LIG d   1       8.196   1.777  -2.895  0.00  0.00     0.024 H 
ATOM     29  H   LIG d   1       9.899   2.010  -3.357  0.00  0.00     0.024 H 
ENDBRANCH  25  26
BRANCH  25  30
ATOM     30  C   LIG d   1      10.059   0.420  -5.202  0.00  0.00    -0.056 C 
ATOM     31  H   LIG d   1      10.851   1.022  -4.755  0.00  0.00     0.024 H 
ATOM     32  H   LIG d   1      10.116  -0.599  -4.817  0.00  0.00     0.024 H 
ATOM     33  H   LIG d   1      10.180   0.406  -6.286  0.00  0.00     0.024 H 
ENDBRANCH  25  30
BRANCH  25  34
ATOM     34  C   LIG d   1       8.119   1.728  -6.077  0.00  0.00    -0.056 C 
ATOM     35  H   LIG d   1       7.323   2.404  -5.766  0.00  0.00     0.024 H 
ATOM     36  H   LIG d   1       8.905   2.298  -6.573  0.00  0.00     0.024 H 
ATOM     37  H   LIG d   1       7.717   0.986  -6.766  0.00  0.00     0.024 H 
ENDBRANCH  25  34
ENDBRANCH   5  25
TORSDOF 9
ENDMDL
MODEL 6
REMARK VINA RESULT:      -4.9      2.670      4.557
REMARK  9 active torsions:
REMARK  status: ('A' for Active; 'I' for Inactive)
REMARK    1  A    between atoms: C_1  and  C_2 
REMARK    2  A    between atoms: C_2  and  C_3 
REMARK    3  A    between atoms: C_2  and  C_4 
REMARK    4  A    between atoms: C_2  and  C_5 
REMARK    5  A    between atoms: C_9  and  C_12 
REMARK    6  A    between atoms: C_10  and  O_11 
REMARK    7  A    between atoms: C_12  and  C_13 
REMARK    8  A    between atoms: C_12  and  C_14 
REMARK    9  A    between atoms: C_12  and  C_15 
ROOT
ATOM      1  C   LIG d   1       7.764  -0.117  -4.409  0.00  0.00    -0.000 A 
ATOM      2  C   LIG d   1       8.165  -1.430  -4.559  0.00  0.00    -0.055 A 
ATOM      3  C   LIG d   1       7.335  -2.459  -4.154  0.00  0.00    -0.061 A 
ATOM      4  C   LIG d   1       6.102  -2.176  -3.597  0.00  0.00    -0.055 A 
ATOM      5  C   LIG d   1       5.696  -0.865  -3.443  0.00  0.00    -0.000 A 
ATOM      6  C   LIG d   1       6.529   0.169  -3.844  0.00  0.00     0.124 A 
ATOM      7  H   LIG d   1       9.129  -1.653  -4.995  0.00  0.00     0.062 H 
ATOM      8  H   LIG d   1       7.651  -3.484  -4.273  0.00  0.00     0.062 H 
ATOM      9  H   LIG d   1       5.456  -2.982  -3.281  0.00  0.00     0.062 H 
ENDROOT
BRANCH   1  10
ATOM     10  C   LIG d   1       8.669   1.004  -4.851  0.00  0.00    -0.009 C 
BRANCH  10  11
ATOM     11  C   LIG d   1       8.801   2.028  -3.722  0.00  0.00    -0.056 C 
ATOM     12  H   LIG d   1       7.808   2.337  -3.394  0.00  0.00     0.024 H 
ATOM     13  H   LIG d   1       9.337   1.580  -2.885  0.00  0.00     0.024 H 
ATOM     14  H   LIG d   1       9.351   2.897  -4.082  0.00  0.00     0.024 H 
ENDBRANCH  10  11
BRANCH  10  15
ATOM     15  C   LIG d   1       8.076   1.682  -6.088  0.00  0.00    -0.056 C 
ATOM     16  H   LIG d   1       6.989   1.646  -6.035  0.00  0.00     0.024 H 
ATOM     17  H   LIG d   1       8.405   2.720  -6.127  0.00  0.00     0.024 H 
ATOM     18  H   LIG d   1       8.414   1.160  -6.984  0.00  0.00     0.024 H 
ENDBRANCH  10  15
BRANCH  10  19
ATOM     19  C   LIG d   1      10.050   0.440  -5.191  0.00  0.00    -0.056 C 
ATOM     20  H   LIG d   1       9.942  -0.574  -5.578  0.00  0.00     0.024 H 
ATOM     21  H   LIG d   1      10.524   1.067  -5.945  0.00  0.00     0.024 H 
ATOM     22  H   LIG d   1      10.667   0.422  -4.292  0.00  0.00     0.024 H 
ENDBRANCH  10  19
ENDBRANCH   1  10
BRANCH   6  23
ATOM     23  O   LIG d   1       6.135   1.461  -3.689  0.00  0.00    -0.506 OA
ATOM     24  H   LIG d   1       6.050   1.738  -2.767  0.00  0.00     0.292 HD
ENDBRANCH   6  23
BRANCH   5  25
ATOM     25  C   LIG d   1       4.351  -0.558  -2.835  0.00  0.00    -0.009 C 
BRANCH  25  26
ATOM     26  C   LIG d   1       4.528   0.427  -1.678  0.00  0.00    -0.056 C 
ATOM     27  H   LIG d   1       3.900   0.120  -0.841  0.00  0.00     0.024 H 
ATOM     28  H   LIG d   1       5.571   0.438  -1.366  0.00  0.00     0.024 H 
ATOM     29  H   LIG d   1       4.235   1.426  -2.004  0.00  0.00     0.024 H 
ENDBRANCH  25  26
BRANCH  25  30
ATOM     30  C   LIG d   1       3.442   0.062  -3.898  0.00  0.00    -0.056 C 
ATOM     31  H   LIG d   1       2.524   0.417  -3.428  0.00  0.00     0.024 H 
ATOM     32  H   LIG d   1       3.954   0.898  -4.372  0.00  0.00     0.024 H 
ATOM     33  H   LIG d   1       3.197  -0.690  -4.650  0.00  0.00     0.024 H 
ENDBRANCH  25  30
BRANCH  25  34
ATOM     34  C   LIG d   1       3.720  -1.851  -2.314  0.00  0.00    -0.056 C 
ATOM     35  H   LIG d   1       2.688  -1.659  -2.023  0.00  0.00     0.024 H 
ATOM     36  H   LIG d   1       3.741  -2.607  -3.100  0.00  0.00     0.024 H 
ATOM     37  H   LIG d   1       4.282  -2.207  -1.451  0.00  0.00     0.024 H 
ENDBRANCH  25  34
ENDBRANCH   5  25
TORSDOF 9
ENDMDL
MODEL 7
REMARK VINA RESULT:      -4.7      1.991      3.595
REMARK  9 active torsions:
REMARK  status: ('A' for Active; 'I' for Inactive)
REMARK    1  A    between atoms: C_1  and  C_2 
REMARK    2  A    between atoms: C_2  and  C_3 
REMARK    3  A    between atoms: C_2  and  C_4 
REMARK    4  A    between atoms: C_2  and  C_5 
REMARK    5  A    between atoms: C_9  and  C_12 
REMARK    6  A    between atoms: C_10  and  O_11 
REMARK    7  A    between atoms: C_12  and  C_13 
REMARK    8  A    between atoms: C_12  and  C_14 
REMARK    9  A    between atoms: C_12  and  C_15 
ROOT
ATOM      1  C   LIG d   1       6.093  -2.242  -4.682  0.00  0.00    -0.000 A 
ATOM      2  C   LIG d   1       7.247  -1.622  -4.244  0.00  0.00    -0.055 A 
ATOM      3  C   LIG d   1       7.170  -0.440  -3.530  0.00  0.00    -0.061 A 
ATOM      4  C   LIG d   1       5.938   0.124  -3.253  0.00  0.00    -0.055 A 
ATOM      5  C   LIG d   1       4.781  -0.492  -3.690  0.00  0.00    -0.000 A 
ATOM      6  C   LIG d   1       4.856  -1.675  -4.411  0.00  0.00     0.124 A 
ATOM      7  H   LIG d   1       8.211  -2.061  -4.458  0.00  0.00     0.062 H 
ATOM      8  H   LIG d   1       8.073   0.043  -3.188  0.00  0.00     0.062 H 
ATOM      9  H   LIG d   1       5.881   1.047  -2.696  0.00  0.00     0.062 H 
ENDROOT
BRANCH   1  10
ATOM     10  C   LIG d   1       6.178  -3.530  -5.460  0.00  0.00    -0.009 C 
BRANCH  10  11
ATOM     11  C   LIG d   1       7.520  -4.209  -5.177  0.00  0.00    -0.056 C 
ATOM     12  H   LIG d   1       8.202  -4.025  -6.007  0.00  0.00     0.024 H 
ATOM     13  H   LIG d   1       7.945  -3.805  -4.259  0.00  0.00     0.024 H 
ATOM     14  H   LIG d   1       7.366  -5.283  -5.065  0.00  0.00     0.024 H 
ENDBRANCH  10  11
BRANCH  10  15
ATOM     15  C   LIG d   1       6.063  -3.231  -6.956  0.00  0.00    -0.056 C 
ATOM     16  H   LIG d   1       6.296  -2.182  -7.136  0.00  0.00     0.024 H 
ATOM     17  H   LIG d   1       6.763  -3.859  -7.508  0.00  0.00     0.024 H 
ATOM     18  H   LIG d   1       5.047  -3.440  -7.292  0.00  0.00     0.024 H 
ENDBRANCH  10  15
BRANCH  10  19
ATOM     19  C   LIG d   1       5.037  -4.457  -5.037  0.00  0.00    -0.056 C 
ATOM     20  H   LIG d   1       5.198  -5.448  -5.462  0.00  0.00     0.024 H 
ATOM     21  H   LIG d   1       5.011  -4.530  -3.950  0.00  0.00     0.024 H 
ATOM     22  H   LIG d   1       4.090  -4.056  -5.397  0.00  0.00     0.024 H 
ENDBRANCH  10  19
ENDBRANCH   1  10
BRANCH   6  23
ATOM     23  O   LIG d   1       3.720  -2.280  -4.847  0.00  0.00    -0.506 OA
ATOM     24  H   LIG d   1       2.907  -1.833  -4.574  0.00  0.00     0.292 HD
ENDBRANCH   6  23
BRANCH   5  25
ATOM     25  C   LIG d   1       3.439   0.123  -3.388  0.00  0.00    -0.009 C 
BRANCH  25  26
ATOM     26  C   LIG d   1       2.784   0.585  -4.691  0.00  0.00    -0.056 C 
ATOM     27  H   LIG d   1       2.685   1.670  -4.683  0.00  0.00     0.024 H 
ATOM     28  H   LIG d   1       3.404   0.283  -5.535  0.00  0.00     0.024 H 
ATOM     29  H   LIG d   1       1.798   0.130  -4.783  0.00  0.00     0.024 H 
ENDBRANCH  25  26
BRANCH  25  30
ATOM     30  C   LIG d   1       2.544  -0.914  -2.708  0.00  0.00    -0.056 C 
ATOM     31  H   LIG d   1       1.809  -0.406  -2.083  0.00  0.00     0.024 H 
ATOM     32  H   LIG d   1       2.030  -1.504  -3.467  0.00  0.00     0.024 H 
ATOM     33  H   LIG d   1       3.156  -1.571  -2.088  0.00  0.00     0.024 H 
ENDBRANCH  25  30
BRANCH  25  34
ATOM     34  C   LIG d   1       3.627   1.324  -2.457  0.00  0.00    -0.056 C 
ATOM     35  H   LIG d   1       2.712   1.488  -1.889  0.00  0.00     0.024 H 
ATOM     36  H   LIG d   1       4.450   1.125  -1.770  0.00  0.00     0.024 H 
ATOM     37  H   LIG d   1       3.852   2.210  -3.049  0.00  0.00     0.024 H 
ENDBRANCH  25  34
ENDBRANCH   5  25
TORSDOF 9
ENDMDL
MODEL 8
REMARK VINA RESULT:      -4.7      2.557      4.052
REMARK  9 active torsions:
REMARK  status: ('A' for Active; 'I' for Inactive)
REMARK    1  A    between atoms: C_1  and  C_2 
REMARK    2  A    between atoms: C_2  and  C_3 
REMARK    3  A    between atoms: C_2  and  C_4 
REMARK    4  A    between atoms: C_2  and  C_5 
REMARK    5  A    between atoms: C_9  and  C_12 
REMARK    6  A    between atoms: C_10  and  O_11 
REMARK    7  A    between atoms: C_12  and  C_13 
REMARK    8  A    between atoms: C_12  and  C_14 
REMARK    9  A    between atoms: C_12  and  C_15 
ROOT
ATOM      1  C   LIG d   1       6.213  -3.899  -5.060  0.00  0.00    -0.000 A 
ATOM      2  C   LIG d   1       7.519  -3.752  -4.632  0.00  0.00    -0.055 A 
ATOM      3  C   LIG d   1       7.852  -2.733  -3.759  0.00  0.00    -0.061 A 
ATOM      4  C   LIG d   1       6.879  -1.858  -3.311  0.00  0.00    -0.055 A 
ATOM      5  C   LIG d   1       5.573  -2.000  -3.736  0.00  0.00    -0.000 A 
ATOM      6  C   LIG d   1       5.237  -3.018  -4.616  0.00  0.00     0.124 A 
ATOM      7  H   LIG d   1       8.281  -4.435  -4.981  0.00  0.00     0.062 H 
ATOM      8  H   LIG d   1       8.873  -2.621  -3.427  0.00  0.00     0.062 H 
ATOM      9  H   LIG d   1       7.142  -1.063  -2.630  0.00  0.00     0.062 H 
ENDROOT
BRANCH   1  10
ATOM     10  C   LIG d   1       5.851  -5.010  -6.011  0.00  0.00    -0.009 C 
BRANCH  10  11
ATOM     11  C   LIG d   1       4.668  -5.799  -5.448  0.00  0.00    -0.056 C 
ATOM     12  H   LIG d   1       3.930  -5.106  -5.043  0.00  0.00     0.024 H 
ATOM     13  H   LIG d   1       4.214  -6.391  -6.242  0.00  0.00     0.024 H 
ATOM     14  H   LIG d   1       5.017  -6.461  -4.655  0.00  0.00     0.024 H 
ENDBRANCH  10  11
BRANCH  10  15
ATOM     15  C   LIG d   1       7.051  -5.944  -6.186  0.00  0.00    -0.056 C 
ATOM     16  H   LIG d   1       7.973  -5.374  -6.080  0.00  0.00     0.024 H 
ATOM     17  H   LIG d   1       7.017  -6.725  -5.427  0.00  0.00     0.024 H 
ATOM     18  H   LIG d   1       7.016  -6.398  -7.177  0.00  0.00     0.024 H 
ENDBRANCH  10  15
BRANCH  10  19
ATOM     19  C   LIG d   1       5.468  -4.414  -7.367  0.00  0.00    -0.056 C 
ATOM     20  H   LIG d   1       4.440  -4.686  -7.606  0.00  0.00     0.024 H 
ATOM     21  H   LIG d   1       5.556  -3.329  -7.326  0.00  0.00     0.024 H 
ATOM     22  H   LIG d   1       6.135  -4.804  -8.138  0.00  0.00     0.024 H 
ENDBRANCH  10  19
ENDBRANCH   1  10
BRANCH   6  23
ATOM     23  O   LIG d   1       3.953  -3.157  -5.040  0.00  0.00    -0.506 OA
ATOM     24  H   LIG d   1       3.803  -2.850  -5.944  0.00  0.00     0.292 HD
ENDBRANCH   6  23
BRANCH   5  25
ATOM     25  C   LIG d   1       4.513  -1.046  -3.247  0.00  0.00    -0.009 C 
BRANCH  25  26
ATOM     26  C   LIG d   1       3.838  -0.376  -4.446  0.00  0.00    -0.056 C 
ATOM     27  H   LIG d   1       4.372   0.540  -4.698  0.00  0.00     0.024 H 
ATOM     28  H   LIG d   1       3.856  -1.054  -5.298  0.00  0.00     0.024 H 
ATOM     29  H   LIG d   1       2.805  -0.136  -4.193  0.00  0.00     0.024 H 
ENDBRANCH  25  26
BRANCH  25  30
ATOM     30  C   LIG d   1       3.468  -1.816  -2.438  0.00  0.00    -0.056 C 
ATOM     31  H   LIG d   1       3.678  -2.884  -2.496  0.00  0.00     0.024 H 
ATOM     32  H   LIG d   1       3.505  -1.494  -1.397  0.00  0.00     0.024 H 
ATOM     33  H   LIG d   1       2.475  -1.618  -2.845  0.00  0.00     0.024 H 
ENDBRANCH  25  30
BRANCH  25  34
ATOM     34  C   LIG d   1       5.159   0.022  -2.361  0.00  0.00    -0.056 C 
ATOM     35  H   LIG d   1       5.424  -0.416  -1.400  0.00  0.00     0.024 H 
ATOM     36  H   LIG d   1       6.058   0.401  -2.847  0.00  0.00     0.024 H 
ATOM     37  H   LIG d   1       4.456   0.840  -2.208  0.00  0.00     0.024 H 
ENDBRANCH  25  34
ENDBRANCH   5  25
TORSDOF 9
ENDMDL
MODEL 9
REMARK VINA RESULT:      -4.7      1.596      5.001
REMARK  9 active torsions:
REMARK  status: ('A' for Active; 'I' for Inactive)
REMARK    1  A    between atoms: C_1  and  C_2 
REMARK    2  A    between atoms: C_2  and  C_3 
REMARK    3  A    between atoms: C_2  and  C_4 
REMARK    4  A    between atoms: C_2  and  C_5 
REMARK    5  A    between atoms: C_9  and  C_12 
REMARK    6  A    between atoms: C_10  and  O_11 
REMARK    7  A    between atoms: C_12  and  C_13 
REMARK    8  A    between atoms: C_12  and  C_14 
REMARK    9  A    between atoms: C_12  and  C_15 
ROOT
ATOM      1  C   LIG d   1       4.521  -0.311  -4.341  0.00  0.00    -0.000 A 
ATOM      2  C   LIG d   1       5.873  -0.593  -4.308  0.00  0.00    -0.055 A 
ATOM      3  C   LIG d   1       6.586  -0.711  -5.488  0.00  0.00    -0.061 A 
ATOM      4  C   LIG d   1       5.947  -0.548  -6.703  0.00  0.00    -0.055 A 
ATOM      5  C   LIG d   1       4.595  -0.266  -6.742  0.00  0.00    -0.000 A 
ATOM      6  C   LIG d   1       3.877  -0.153  -5.560  0.00  0.00     0.124 A 
ATOM      7  H   LIG d   1       6.375  -0.721  -3.360  0.00  0.00     0.062 H 
ATOM      8  H   LIG d   1       7.642  -0.932  -5.459  0.00  0.00     0.062 H 
ATOM      9  H   LIG d   1       6.505  -0.641  -7.622  0.00  0.00     0.062 H 
ENDROOT
BRANCH   1  10
ATOM     10  C   LIG d   1       3.746  -0.183  -3.056  0.00  0.00    -0.009 C 
BRANCH  10  11
ATOM     11  C   LIG d   1       3.555   1.298  -2.721  0.00  0.00    -0.056 C 
ATOM     12  H   LIG d   1       2.749   1.405  -1.994  0.00  0.00     0.024 H 
ATOM     13  H   LIG d   1       4.478   1.698  -2.302  0.00  0.00     0.024 H 
ATOM     14  H   LIG d   1       3.301   1.845  -3.628  0.00  0.00     0.024 H 
ENDBRANCH  10  11
BRANCH  10  15
ATOM     15  C   LIG d   1       4.516  -0.867  -1.924  0.00  0.00    -0.056 C 
ATOM     16  H   LIG d   1       5.527  -0.464  -1.878  0.00  0.00     0.024 H 
ATOM     17  H   LIG d   1       4.008  -0.685  -0.977  0.00  0.00     0.024 H 
ATOM     18  H   LIG d   1       4.560  -1.940  -2.112  0.00  0.00     0.024 H 
ENDBRANCH  10  15
BRANCH  10  19
ATOM     19  C   LIG d   1       2.378  -0.849  -3.217  0.00  0.00    -0.056 C 
ATOM     20  H   LIG d   1       2.097  -0.850  -4.270  0.00  0.00     0.024 H 
ATOM     21  H   LIG d   1       2.428  -1.875  -2.854  0.00  0.00     0.024 H 
ATOM     22  H   LIG d   1       1.634  -0.296  -2.643  0.00  0.00     0.024 H 
ENDBRANCH  10  19
ENDBRANCH   1  10
BRANCH   6  23
ATOM     23  O   LIG d   1       2.546   0.119  -5.595  0.00  0.00    -0.506 OA
ATOM     24  H   LIG d   1       2.338   1.046  -5.773  0.00  0.00     0.292 HD
ENDBRANCH   6  23
BRANCH   5  25
ATOM     25  C   LIG d   1       3.899  -0.088  -8.067  0.00  0.00    -0.009 C 
BRANCH  25  26
ATOM     26  C   LIG d   1       2.996  -1.294  -8.335  0.00  0.00    -0.056 C 
ATOM     27  H   LIG d   1       3.503  -2.205  -8.018  0.00  0.00     0.024 H 
ATOM     28  H   LIG d   1       2.067  -1.182  -7.778  0.00  0.00     0.024 H 
ATOM     29  H   LIG d   1       2.777  -1.353  -9.402  0.00  0.00     0.024 H 
ENDBRANCH  25  26
BRANCH  25  30
ATOM     30  C   LIG d   1       3.052   1.185  -8.031  0.00  0.00    -0.056 C 
ATOM     31  H   LIG d   1       2.062   0.952  -7.639  0.00  0.00     0.024 H 
ATOM     32  H   LIG d   1       3.533   1.923  -7.388  0.00  0.00     0.024 H 
ATOM     33  H   LIG d   1       2.958   1.588  -9.040  0.00  0.00     0.024 H 
ENDBRANCH  25  30
BRANCH  25  34
ATOM     34  C   LIG d   1       4.944   0.026  -9.179  0.00  0.00    -0.056 C 
ATOM     35  H   LIG d   1       4.941  -0.887  -9.774  0.00  0.00     0.024 H 
ATOM     36  H   LIG d   1       4.702   0.876  -9.818  0.00  0.00     0.024 H 
ATOM     37  H   LIG d   1       5.929   0.170  -8.739  0.00  0.00     0.024 H 
ENDBRANCH  25  34
ENDBRANCH   5  25
TORSDOF 9
ENDMDL
MODEL 10
REMARK VINA RESULT:      -4.6      1.403      2.664
REMARK  9 active torsions:
REMARK  status: ('A' for Active; 'I' for Inactive)
REMARK    1  A    between atoms: C_1  and  C_2 
REMARK    2  A    between atoms: C_2  and  C_3 
REMARK    3  A    between atoms: C_2  and  C_4 
REMARK    4  A    between atoms: C_2  and  C_5 
REMARK    5  A    between atoms: C_9  and  C_12 
REMARK    6  A    between atoms: C_10  and  O_11 
REMARK    7  A    between atoms: C_12  and  C_13 
REMARK    8  A    between atoms: C_12  and  C_14 
REMARK    9  A    between atoms: C_12  and  C_15 
ROOT
ATOM      1  C   LIG d   1       5.948  -0.860  -5.907  0.00  0.00    -0.000 A 
ATOM      2  C   LIG d   1       7.068  -0.058  -5.789  0.00  0.00    -0.055 A 
ATOM      3  C   LIG d   1       7.277   0.676  -4.637  0.00  0.00    -0.061 A 
ATOM      4  C   LIG d   1       6.365   0.611  -3.599  0.00  0.00    -0.055 A 
ATOM      5  C   LIG d   1       5.244  -0.187  -3.711  0.00  0.00    -0.000 A 
ATOM      6  C   LIG d   1       5.029  -0.921  -4.868  0.00  0.00     0.124 A 
ATOM      7  H   LIG d   1       7.781  -0.006  -6.599  0.00  0.00     0.062 H 
ATOM      8  H   LIG d   1       8.152   1.301  -4.548  0.00  0.00     0.062 H 
ATOM      9  H   LIG d   1       6.531   1.186  -2.700  0.00  0.00     0.062 H 
ENDROOT
BRANCH   1  10
ATOM     10  C   LIG d   1       5.721  -1.660  -7.163  0.00  0.00    -0.009 C 
BRANCH  10  11
ATOM     11  C   LIG d   1       5.766  -3.153  -6.832  0.00  0.00    -0.056 C 
ATOM     12  H   LIG d   1       5.058  -3.369  -6.032  0.00  0.00     0.024 H 
ATOM     13  H   LIG d   1       5.502  -3.730  -7.718  0.00  0.00     0.024 H 
ATOM     14  H   LIG d   1       6.772  -3.422  -6.509  0.00  0.00     0.024 H 
ENDBRANCH  10  11
BRANCH  10  15
ATOM     15  C   LIG d   1       6.813  -1.329  -8.183  0.00  0.00    -0.056 C 
ATOM     16  H   LIG d   1       6.407  -0.670  -8.949  0.00  0.00     0.024 H 
ATOM     17  H   LIG d   1       7.643  -0.834  -7.679  0.00  0.00     0.024 H 
ATOM     18  H   LIG d   1       7.168  -2.250  -8.647  0.00  0.00     0.024 H 
ENDBRANCH  10  15
BRANCH  10  19
ATOM     19  C   LIG d   1       4.353  -1.308  -7.751  0.00  0.00    -0.056 C 
ATOM     20  H   LIG d   1       4.486  -0.844  -8.728  0.00  0.00     0.024 H 
ATOM     21  H   LIG d   1       3.759  -2.215  -7.857  0.00  0.00     0.024 H 
ATOM     22  H   LIG d   1       3.839  -0.613  -7.086  0.00  0.00     0.024 H 
ENDBRANCH  10  19
ENDBRANCH   1  10
BRANCH   6  23
ATOM     23  O   LIG d   1       3.924  -1.703  -4.984  0.00  0.00    -0.506 OA
ATOM     24  H   LIG d   1       3.915  -2.462  -4.384  0.00  0.00     0.292 HD
ENDBRANCH   6  23
BRANCH   5  25
ATOM     25  C   LIG d   1       4.252  -0.258  -2.579  0.00  0.00    -0.009 C 
BRANCH  25  26
ATOM     26  C   LIG d   1       4.554   0.849  -1.566  0.00  0.00    -0.056 C 
ATOM     27  H   LIG d   1       5.556   0.709  -1.163  0.00  0.00     0.024 H 
ATOM     28  H   LIG d   1       4.492   1.819  -2.059  0.00  0.00     0.024 H 
ATOM     29  H   LIG d   1       3.827   0.807  -0.754  0.00  0.00     0.024 H 
ENDBRANCH  25  26
BRANCH  25  30
ATOM     30  C   LIG d   1       2.837  -0.072  -3.129  0.00  0.00    -0.056 C 
ATOM     31  H   LIG d   1       2.673   0.980  -3.365  0.00  0.00     0.024 H 
ATOM     32  H   LIG d   1       2.717  -0.670  -4.033  0.00  0.00     0.024 H 
ATOM     33  H   LIG d   1       2.111  -0.394  -2.381  0.00  0.00     0.024 H 
ENDBRANCH  25  30
BRANCH  25  34
ATOM     34  C   LIG d   1       4.357  -1.621  -1.892  0.00  0.00    -0.056 C 
ATOM     35  H   LIG d   1       4.647  -1.482  -0.851  0.00  0.00     0.024 H 
ATOM     36  H   LIG d   1       3.391  -2.125  -1.935  0.00  0.00     0.024 H 
ATOM     37  H   LIG d   1       5.106  -2.227  -2.401  0.00  0.00     0.024 H 
ENDBRANCH  25  34
ENDBRANCH   5  25
TORSDOF 9
ENDMDL
