MODEL 1
REMARK VINA RESULT:      -6.0      0.000      0.000
REMARK  8 active torsions:
REMARK  status: ('A' for Active; 'I' for Inactive)
REMARK    1  A    between atoms: C_1  and  C_2 
REMARK    2  A    between atoms: C_2  and  O_3 
REMARK    3  A    between atoms: O_3  and  C_4 
REMARK    4  A    between atoms: C_7  and  C_10 
REMARK    5  A    between atoms: C_16  and  C_19 
REMARK    6  A    between atoms: C_22  and  N_25 
REMARK    7  A    between atoms: N_25  and  C_26 
REMARK    8  A    between atoms: N_25  and  C_27 
ROOT
ATOM      1  C   LIG d   1       3.083   0.437  -6.523  0.00  0.00     0.179 A 
ATOM      2  N   LIG d   1       2.620   1.435  -5.813  0.00  0.00    -0.127 NA
ATOM      3  N   LIG d   1       2.689   1.152  -4.560  0.00  0.00    -0.121 NA
ATOM      4  C   LIG d   1       3.198  -0.036  -4.410  0.00  0.00     0.208 A 
ATOM      5  N   LIG d   1       3.480  -0.565  -5.639  0.00  0.00    -0.231 N 
ATOM      6  N   LIG d   1       4.022  -1.806  -5.733  0.00  0.00    -0.207 NA
ATOM      7  C   LIG d   1       4.281  -2.530  -4.471  0.00  0.00     0.105 A 
ATOM      8  H   LIG d   1       3.697  -3.448  -4.415  0.00  0.00     0.065 H 
ATOM      9  S   LIG d   1       3.692  -1.290  -3.251  0.00  0.00    -0.059 SA
ATOM     10  H   LIG d   1       4.842  -1.800  -6.320  0.00  0.00     0.149 HD
ENDROOT
BRANCH   7  11
ATOM     11  C   LIG d   1       5.751  -2.811  -4.295  0.00  0.00    -0.018 A 
ATOM     12  C   LIG d   1       6.337  -3.865  -4.971  0.00  0.00    -0.054 A 
ATOM     13  C   LIG d   1       7.684  -4.126  -4.812  0.00  0.00    -0.040 A 
ATOM     14  H   LIG d   1       5.741  -4.486  -5.623  0.00  0.00     0.062 H 
ATOM     15  C   LIG d   1       8.451  -3.328  -3.973  0.00  0.00     0.029 A 
ATOM     16  H   LIG d   1       8.141  -4.950  -5.340  0.00  0.00     0.064 H 
ATOM     17  C   LIG d   1       7.858  -2.269  -3.296  0.00  0.00    -0.040 A 
ATOM     18  C   LIG d   1       6.512  -2.010  -3.464  0.00  0.00    -0.054 A 
ATOM     19  H   LIG d   1       8.452  -1.646  -2.644  0.00  0.00     0.064 H 
ATOM     20  H   LIG d   1       6.053  -1.184  -2.941  0.00  0.00     0.062 H 
BRANCH  15  21
ATOM     21  N   LIG d   1       9.813  -3.588  -3.810  0.00  0.00    -0.336 N 
BRANCH  21  22
ATOM     22  C   LIG d   1      10.782  -3.045  -4.767  0.00  0.00     0.000 C 
ATOM     23  H   LIG d   1      10.536  -2.005  -4.983  0.00  0.00     0.043 H 
ATOM     24  H   LIG d   1      11.783  -3.101  -4.341  0.00  0.00     0.043 H 
ATOM     25  H   LIG d   1      10.746  -3.626  -5.689  0.00  0.00     0.043 H 
ENDBRANCH  21  22
BRANCH  21  26
ATOM     26  C   LIG d   1      10.274  -4.402  -2.683  0.00  0.00     0.000 C 
ATOM     27  H   LIG d   1       9.522  -4.390  -1.895  0.00  0.00     0.043 H 
ATOM     28  H   LIG d   1      10.434  -5.427  -3.018  0.00  0.00     0.043 H 
ATOM     29  H   LIG d   1      11.209  -3.994  -2.299  0.00  0.00     0.043 H 
ENDBRANCH  21  26
ENDBRANCH  15  21
ENDBRANCH   7  11
BRANCH   1  30
ATOM     30  C   LIG d   1       3.169   0.383  -7.999  0.00  0.00     0.021 A 
ATOM     31  C   LIG d   1       4.055   1.220  -8.679  0.00  0.00    -0.048 A 
ATOM     32  C   LIG d   1       4.132   1.166 -10.054  0.00  0.00    -0.019 A 
ATOM     33  H   LIG d   1       4.679   1.909  -8.129  0.00  0.00     0.063 H 
ATOM     34  C   LIG d   1       3.331   0.280 -10.762  0.00  0.00     0.120 A 
ATOM     35  H   LIG d   1       4.819   1.813 -10.581  0.00  0.00     0.065 H 
ATOM     36  C   LIG d   1       2.449  -0.554 -10.089  0.00  0.00    -0.019 A 
ATOM     37  C   LIG d   1       2.369  -0.509  -8.713  0.00  0.00    -0.048 A 
ATOM     38  H   LIG d   1       1.826  -1.241 -10.643  0.00  0.00     0.065 H 
ATOM     39  H   LIG d   1       1.685  -1.162  -8.190  0.00  0.00     0.063 H 
BRANCH  34  40
ATOM     40  O   LIG d   1       3.410   0.230 -12.118  0.00  0.00    -0.492 OA
BRANCH  40  41
ATOM     41  C   LIG d   1       4.536  -0.448 -12.677  0.00  0.00     0.087 C 
ATOM     42  H   LIG d   1       5.416   0.192 -12.611  0.00  0.00     0.069 H 
ATOM     43  H   LIG d   1       4.717  -1.370 -12.124  0.00  0.00     0.069 H 
BRANCH  41  44
ATOM     44  C   LIG d   1       4.255  -0.780 -14.144  0.00  0.00    -0.031 C 
ATOM     45  H   LIG d   1       3.424  -0.173 -14.501  0.00  0.00     0.026 H 
ATOM     46  H   LIG d   1       5.142  -0.569 -14.741  0.00  0.00     0.026 H 
ATOM     47  H   LIG d   1       3.999  -1.836 -14.235  0.00  0.00     0.026 H 
ENDBRANCH  41  44
ENDBRANCH  40  41
ENDBRANCH  34  40
ENDBRANCH   1  30
TORSDOF 8
ENDMDL
MODEL 2
REMARK VINA RESULT:      -6.0      4.364      8.767
REMARK  8 active torsions:
REMARK  status: ('A' for Active; 'I' for Inactive)
REMARK    1  A    between atoms: C_1  and  C_2 
REMARK    2  A    between atoms: C_2  and  O_3 
REMARK    3  A    between atoms: O_3  and  C_4 
REMARK    4  A    between atoms: C_7  and  C_10 
REMARK    5  A    between atoms: C_16  and  C_19 
REMARK    6  A    between atoms: C_22  and  N_25 
REMARK    7  A    between atoms: N_25  and  C_26 
REMARK    8  A    between atoms: N_25  and  C_27 
ROOT
ATOM      1  C   LIG d   1       3.608   0.628  -8.034  0.00  0.00     0.179 A 
ATOM      2  N   LIG d   1       3.766   1.869  -8.422  0.00  0.00    -0.127 NA
ATOM      3  N   LIG d   1       3.809   1.925  -9.706  0.00  0.00    -0.121 NA
ATOM      4  C   LIG d   1       3.679   0.729 -10.199  0.00  0.00     0.208 A 
ATOM      5  N   LIG d   1       3.545  -0.169  -9.176  0.00  0.00    -0.231 N 
ATOM      6  N   LIG d   1       3.395  -1.490  -9.451  0.00  0.00    -0.207 NA
ATOM      7  C   LIG d   1       3.386  -1.890 -10.873  0.00  0.00     0.105 A 
ATOM      8  H   LIG d   1       4.218  -2.556 -11.101  0.00  0.00     0.065 H 
ATOM      9  S   LIG d   1       3.603  -0.254 -11.678  0.00  0.00    -0.059 SA
ATOM     10  H   LIG d   1       2.599  -1.873  -8.963  0.00  0.00     0.149 HD
ENDROOT
BRANCH   7  11
ATOM     11  C   LIG d   1       2.070  -2.516 -11.255  0.00  0.00    -0.018 A 
ATOM     12  C   LIG d   1       1.407  -2.089 -12.391  0.00  0.00    -0.054 A 
ATOM     13  C   LIG d   1       0.201  -2.662 -12.744  0.00  0.00    -0.040 A 
ATOM     14  H   LIG d   1       1.833  -1.308 -13.002  0.00  0.00     0.062 H 
ATOM     15  C   LIG d   1      -0.346  -3.667 -11.958  0.00  0.00     0.029 A 
ATOM     16  H   LIG d   1      -0.317  -2.327 -13.632  0.00  0.00     0.064 H 
ATOM     17  C   LIG d   1       0.323  -4.094 -10.818  0.00  0.00    -0.040 A 
ATOM     18  C   LIG d   1       1.532  -3.522 -10.473  0.00  0.00    -0.054 A 
ATOM     19  H   LIG d   1      -0.099  -4.877 -10.205  0.00  0.00     0.064 H 
ATOM     20  H   LIG d   1       2.054  -3.857  -9.589  0.00  0.00     0.062 H 
BRANCH  15  21
ATOM     21  N   LIG d   1      -1.566  -4.249 -12.313  0.00  0.00    -0.336 N 
BRANCH  21  22
ATOM     22  C   LIG d   1      -1.984  -4.275 -13.717  0.00  0.00     0.000 C 
ATOM     23  H   LIG d   1      -1.248  -3.750 -14.325  0.00  0.00     0.043 H 
ATOM     24  H   LIG d   1      -2.062  -5.309 -14.053  0.00  0.00     0.043 H 
ATOM     25  H   LIG d   1      -2.953  -3.787 -13.816  0.00  0.00     0.043 H 
ENDBRANCH  21  22
BRANCH  21  26
ATOM     26  C   LIG d   1      -2.426  -4.833 -11.281  0.00  0.00     0.000 C 
ATOM     27  H   LIG d   1      -3.311  -5.265 -11.747  0.00  0.00     0.043 H 
ATOM     28  H   LIG d   1      -1.878  -5.613 -10.750  0.00  0.00     0.043 H 
ATOM     29  H   LIG d   1      -2.727  -4.058 -10.577  0.00  0.00     0.043 H 
ENDBRANCH  21  26
ENDBRANCH  15  21
ENDBRANCH   7  11
BRANCH   1  30
ATOM     30  C   LIG d   1       3.515   0.158  -6.635  0.00  0.00     0.021 A 
ATOM     31  C   LIG d   1       2.466   0.588  -5.821  0.00  0.00    -0.048 A 
ATOM     32  C   LIG d   1       2.382   0.146  -4.518  0.00  0.00    -0.019 A 
ATOM     33  H   LIG d   1       1.722   1.266  -6.210  0.00  0.00     0.063 H 
ATOM     34  C   LIG d   1       3.339  -0.726  -4.015  0.00  0.00     0.120 A 
ATOM     35  H   LIG d   1       1.571   0.479  -3.887  0.00  0.00     0.065 H 
ATOM     36  C   LIG d   1       4.383  -1.157  -4.823  0.00  0.00    -0.019 A 
ATOM     37  C   LIG d   1       4.471  -0.723  -6.129  0.00  0.00    -0.048 A 
ATOM     38  H   LIG d   1       5.126  -1.835  -4.428  0.00  0.00     0.065 H 
ATOM     39  H   LIG d   1       5.282  -1.062  -6.757  0.00  0.00     0.063 H 
BRANCH  34  40
ATOM     40  O   LIG d   1       3.253  -1.159  -2.730  0.00  0.00    -0.492 OA
BRANCH  40  41
ATOM     41  C   LIG d   1       4.375  -0.904  -1.884  0.00  0.00     0.087 C 
ATOM     42  H   LIG d   1       4.223  -1.392  -0.921  0.00  0.00     0.069 H 
ATOM     43  H   LIG d   1       5.279  -1.296  -2.350  0.00  0.00     0.069 H 
BRANCH  41  44
ATOM     44  C   LIG d   1       4.523   0.604  -1.674  0.00  0.00    -0.031 C 
ATOM     45  H   LIG d   1       5.395   0.800  -1.050  0.00  0.00     0.026 H 
ATOM     46  H   LIG d   1       4.650   1.095  -2.639  0.00  0.00     0.026 H 
ATOM     47  H   LIG d   1       3.631   0.992  -1.184  0.00  0.00     0.026 H 
ENDBRANCH  41  44
ENDBRANCH  40  41
ENDBRANCH  34  40
ENDBRANCH   1  30
TORSDOF 8
ENDMDL
MODEL 3
REMARK VINA RESULT:      -6.0      7.364     10.050
REMARK  8 active torsions:
REMARK  status: ('A' for Active; 'I' for Inactive)
REMARK    1  A    between atoms: C_1  and  C_2 
REMARK    2  A    between atoms: C_2  and  O_3 
REMARK    3  A    between atoms: O_3  and  C_4 
REMARK    4  A    between atoms: C_7  and  C_10 
REMARK    5  A    between atoms: C_16  and  C_19 
REMARK    6  A    between atoms: C_22  and  N_25 
REMARK    7  A    between atoms: N_25  and  C_26 
REMARK    8  A    between atoms: N_25  and  C_27 
ROOT
ATOM      1  C   LIG d   1       9.959   4.807  -4.012  0.00  0.00     0.179 A 
ATOM      2  N   LIG d   1       9.978   5.505  -5.120  0.00  0.00    -0.127 NA
ATOM      3  N   LIG d   1       9.691   4.749  -6.120  0.00  0.00    -0.121 NA
ATOM      4  C   LIG d   1       9.474   3.537  -5.702  0.00  0.00     0.208 A 
ATOM      5  N   LIG d   1       9.629   3.493  -4.344  0.00  0.00    -0.231 N 
ATOM      6  N   LIG d   1       9.451   2.322  -3.680  0.00  0.00    -0.207 NA
ATOM      7  C   LIG d   1       9.093   1.136  -4.484  0.00  0.00     0.105 A 
ATOM      8  H   LIG d   1       9.858   0.363  -4.410  0.00  0.00     0.065 H 
ATOM      9  S   LIG d   1       9.051   1.873  -6.165  0.00  0.00    -0.059 SA
ATOM     10  H   LIG d   1       8.817   2.438  -2.904  0.00  0.00     0.149 HD
ENDROOT
BRANCH   7  11
ATOM     11  C   LIG d   1       7.741   0.599  -4.091  0.00  0.00    -0.018 A 
ATOM     12  C   LIG d   1       6.824   1.426  -3.469  0.00  0.00    -0.054 A 
ATOM     13  C   LIG d   1       5.584   0.936  -3.107  0.00  0.00    -0.040 A 
ATOM     14  H   LIG d   1       7.078   2.455  -3.266  0.00  0.00     0.062 H 
ATOM     15  C   LIG d   1       5.258  -0.388  -3.369  0.00  0.00     0.029 A 
ATOM     16  H   LIG d   1       4.868   1.583  -2.621  0.00  0.00     0.064 H 
ATOM     17  C   LIG d   1       6.183  -1.217  -3.994  0.00  0.00    -0.040 A 
ATOM     18  C   LIG d   1       7.418  -0.720  -4.359  0.00  0.00    -0.054 A 
ATOM     19  H   LIG d   1       5.932  -2.246  -4.200  0.00  0.00     0.064 H 
ATOM     20  H   LIG d   1       8.135  -1.362  -4.848  0.00  0.00     0.062 H 
BRANCH  15  21
ATOM     21  N   LIG d   1       4.006  -0.887  -3.005  0.00  0.00    -0.336 N 
BRANCH  21  22
ATOM     22  C   LIG d   1       2.804  -0.075  -3.219  0.00  0.00     0.000 C 
ATOM     23  H   LIG d   1       2.593   0.505  -2.320  0.00  0.00     0.043 H 
ATOM     24  H   LIG d   1       2.967   0.601  -4.057  0.00  0.00     0.043 H 
ATOM     25  H   LIG d   1       1.959  -0.728  -3.436  0.00  0.00     0.043 H 
ENDBRANCH  21  22
BRANCH  21  26
ATOM     26  C   LIG d   1       3.892  -2.221  -2.412  0.00  0.00     0.000 C 
ATOM     27  H   LIG d   1       2.950  -2.299  -1.869  0.00  0.00     0.043 H 
ATOM     28  H   LIG d   1       3.919  -2.973  -3.201  0.00  0.00     0.043 H 
ATOM     29  H   LIG d   1       4.722  -2.385  -1.725  0.00  0.00     0.043 H 
ENDBRANCH  21  26
ENDBRANCH  15  21
ENDBRANCH   7  11
BRANCH   1  30
ATOM     30  C   LIG d   1      10.237   5.320  -2.653  0.00  0.00     0.021 A 
ATOM     31  C   LIG d   1      11.115   4.634  -1.813  0.00  0.00    -0.048 A 
ATOM     32  C   LIG d   1      11.372   5.117  -0.547  0.00  0.00    -0.019 A 
ATOM     33  H   LIG d   1      11.593   3.728  -2.153  0.00  0.00     0.063 H 
ATOM     34  C   LIG d   1      10.758   6.283  -0.108  0.00  0.00     0.120 A 
ATOM     35  H   LIG d   1      12.052   4.587   0.104  0.00  0.00     0.065 H 
ATOM     36  C   LIG d   1       9.884   6.967  -0.942  0.00  0.00    -0.019 A 
ATOM     37  C   LIG d   1       9.626   6.494  -2.211  0.00  0.00    -0.048 A 
ATOM     38  H   LIG d   1       9.408   7.873  -0.598  0.00  0.00     0.065 H 
ATOM     39  H   LIG d   1       8.949   7.030  -2.861  0.00  0.00     0.063 H 
BRANCH  34  40
ATOM     40  O   LIG d   1      11.014   6.755   1.140  0.00  0.00    -0.492 OA
BRANCH  40  41
ATOM     41  C   LIG d   1      10.968   5.812   2.211  0.00  0.00     0.087 C 
ATOM     42  H   LIG d   1      10.032   5.255   2.166  0.00  0.00     0.069 H 
ATOM     43  H   LIG d   1      11.806   5.121   2.124  0.00  0.00     0.069 H 
BRANCH  41  44
ATOM     44  C   LIG d   1      11.056   6.553   3.547  0.00  0.00    -0.031 C 
ATOM     45  H   LIG d   1      11.747   6.031   4.208  0.00  0.00     0.026 H 
ATOM     46  H   LIG d   1      11.413   7.569   3.376  0.00  0.00     0.026 H 
ATOM     47  H   LIG d   1      10.069   6.589   4.009  0.00  0.00     0.026 H 
ENDBRANCH  41  44
ENDBRANCH  40  41
ENDBRANCH  34  40
ENDBRANCH   1  30
TORSDOF 8
ENDMDL
MODEL 4
REMARK VINA RESULT:      -5.9      5.298      7.270
REMARK  8 active torsions:
REMARK  status: ('A' for Active; 'I' for Inactive)
REMARK    1  A    between atoms: C_1  and  C_2 
REMARK    2  A    between atoms: C_2  and  O_3 
REMARK    3  A    between atoms: O_3  and  C_4 
REMARK    4  A    between atoms: C_7  and  C_10 
REMARK    5  A    between atoms: C_16  and  C_19 
REMARK    6  A    between atoms: C_22  and  N_25 
REMARK    7  A    between atoms: N_25  and  C_26 
REMARK    8  A    between atoms: N_25  and  C_27 
ROOT
ATOM      1  C   LIG d   1       4.823  -4.597  -5.327  0.00  0.00     0.179 A 
ATOM      2  N   LIG d   1       3.729  -4.943  -5.960  0.00  0.00    -0.127 NA
ATOM      3  N   LIG d   1       3.872  -6.113  -6.474  0.00  0.00    -0.121 NA
ATOM      4  C   LIG d   1       5.058  -6.570  -6.197  0.00  0.00     0.208 A 
ATOM      5  N   LIG d   1       5.736  -5.643  -5.455  0.00  0.00    -0.231 N 
ATOM      6  N   LIG d   1       7.004  -5.901  -5.045  0.00  0.00    -0.207 NA
ATOM      7  C   LIG d   1       7.591  -7.199  -5.434  0.00  0.00     0.105 A 
ATOM      8  H   LIG d   1       8.468  -7.062  -6.067  0.00  0.00     0.065 H 
ATOM      9  S   LIG d   1       6.195  -7.924  -6.381  0.00  0.00    -0.059 SA
ATOM     10  H   LIG d   1       7.104  -5.742  -4.053  0.00  0.00     0.149 HD
ENDROOT
BRANCH   7  11
ATOM     11  C   LIG d   1       7.921  -8.034  -4.224  0.00  0.00    -0.018 A 
ATOM     12  C   LIG d   1       9.001  -7.699  -3.428  0.00  0.00    -0.054 A 
ATOM     13  C   LIG d   1       9.306  -8.462  -2.318  0.00  0.00    -0.040 A 
ATOM     14  H   LIG d   1       9.606  -6.840  -3.675  0.00  0.00     0.062 H 
ATOM     15  C   LIG d   1       8.526  -9.567  -2.001  0.00  0.00     0.029 A 
ATOM     16  H   LIG d   1      10.150  -8.200  -1.697  0.00  0.00     0.064 H 
ATOM     17  C   LIG d   1       7.442  -9.901  -2.803  0.00  0.00    -0.040 A 
ATOM     18  C   LIG d   1       7.139  -9.130  -3.908  0.00  0.00    -0.054 A 
ATOM     19  H   LIG d   1       6.834 -10.759  -2.559  0.00  0.00     0.064 H 
ATOM     20  H   LIG d   1       6.293  -9.387  -4.529  0.00  0.00     0.062 H 
BRANCH  15  21
ATOM     21  N   LIG d   1       8.831 -10.341  -0.879  0.00  0.00    -0.336 N 
BRANCH  21  22
ATOM     22  C   LIG d   1       8.016 -11.515  -0.557  0.00  0.00     0.000 C 
ATOM     23  H   LIG d   1       8.667 -12.372  -0.380  0.00  0.00     0.043 H 
ATOM     24  H   LIG d   1       7.428 -11.315   0.338  0.00  0.00     0.043 H 
ATOM     25  H   LIG d   1       7.348 -11.734  -1.389  0.00  0.00     0.043 H 
ENDBRANCH  21  22
BRANCH  21  26
ATOM     26  C   LIG d   1       9.966  -9.980  -0.026  0.00  0.00     0.000 C 
ATOM     27  H   LIG d   1      10.488 -10.884   0.286  0.00  0.00     0.043 H 
ATOM     28  H   LIG d   1      10.650  -9.340  -0.584  0.00  0.00     0.043 H 
ATOM     29  H   LIG d   1       9.604  -9.447   0.853  0.00  0.00     0.043 H 
ENDBRANCH  21  26
ENDBRANCH  15  21
ENDBRANCH   7  11
BRANCH   1  30
ATOM     30  C   LIG d   1       5.048  -3.325  -4.608  0.00  0.00     0.021 A 
ATOM     31  C   LIG d   1       5.991  -2.411  -5.080  0.00  0.00    -0.048 A 
ATOM     32  C   LIG d   1       6.196  -1.225  -4.407  0.00  0.00    -0.019 A 
ATOM     33  H   LIG d   1       6.558  -2.631  -5.972  0.00  0.00     0.063 H 
ATOM     34  C   LIG d   1       5.467  -0.941  -3.260  0.00  0.00     0.120 A 
ATOM     35  H   LIG d   1       6.926  -0.517  -4.772  0.00  0.00     0.065 H 
ATOM     36  C   LIG d   1       4.528  -1.847  -2.787  0.00  0.00    -0.019 A 
ATOM     37  C   LIG d   1       4.312  -3.033  -3.458  0.00  0.00    -0.048 A 
ATOM     38  H   LIG d   1       3.962  -1.623  -1.895  0.00  0.00     0.065 H 
ATOM     39  H   LIG d   1       3.578  -3.736  -3.092  0.00  0.00     0.063 H 
BRANCH  34  40
ATOM     40  O   LIG d   1       5.672   0.229  -2.599  0.00  0.00    -0.492 OA
BRANCH  40  41
ATOM     41  C   LIG d   1       4.626   0.678  -1.736  0.00  0.00     0.087 C 
ATOM     42  H   LIG d   1       4.099  -0.183  -1.324  0.00  0.00     0.069 H 
ATOM     43  H   LIG d   1       5.052   1.266  -0.923  0.00  0.00     0.069 H 
BRANCH  41  44
ATOM     44  C   LIG d   1       3.646   1.543  -2.531  0.00  0.00    -0.031 C 
ATOM     45  H   LIG d   1       2.993   0.903  -3.123  0.00  0.00     0.026 H 
ATOM     46  H   LIG d   1       3.045   2.138  -1.843  0.00  0.00     0.026 H 
ATOM     47  H   LIG d   1       4.202   2.207  -3.193  0.00  0.00     0.026 H 
ENDBRANCH  41  44
ENDBRANCH  40  41
ENDBRANCH  34  40
ENDBRANCH   1  30
TORSDOF 8
ENDMDL
MODEL 5
REMARK VINA RESULT:      -5.9      6.979      8.908
REMARK  8 active torsions:
REMARK  status: ('A' for Active; 'I' for Inactive)
REMARK    1  A    between atoms: C_1  and  C_2 
REMARK    2  A    between atoms: C_2  and  O_3 
REMARK    3  A    between atoms: O_3  and  C_4 
REMARK    4  A    between atoms: C_7  and  C_10 
REMARK    5  A    between atoms: C_16  and  C_19 
REMARK    6  A    between atoms: C_22  and  N_25 
REMARK    7  A    between atoms: N_25  and  C_26 
REMARK    8  A    between atoms: N_25  and  C_27 
ROOT
ATOM      1  C   LIG d   1       9.011   1.143  -5.042  0.00  0.00     0.179 A 
ATOM      2  N   LIG d   1       9.951   0.362  -5.515  0.00  0.00    -0.127 NA
ATOM      3  N   LIG d   1      11.042   1.028  -5.661  0.00  0.00    -0.121 NA
ATOM      4  C   LIG d   1      10.854   2.259  -5.289  0.00  0.00     0.208 A 
ATOM      5  N   LIG d   1       9.561   2.413  -4.874  0.00  0.00    -0.231 N 
ATOM      6  N   LIG d   1       9.130   3.624  -4.436  0.00  0.00    -0.207 NA
ATOM      7  C   LIG d   1      10.108   4.731  -4.435  0.00  0.00     0.105 A 
ATOM      8  H   LIG d   1       9.794   5.536  -5.101  0.00  0.00     0.065 H 
ATOM      9  S   LIG d   1      11.589   3.866  -5.088  0.00  0.00    -0.059 SA
ATOM     10  H   LIG d   1       8.673   3.544  -3.540  0.00  0.00     0.149 HD
ENDROOT
BRANCH   7  11
ATOM     11  C   LIG d   1      10.348   5.246  -3.040  0.00  0.00    -0.018 A 
ATOM     12  C   LIG d   1      11.250   4.603  -2.212  0.00  0.00    -0.054 A 
ATOM     13  C   LIG d   1      11.472   5.072  -0.933  0.00  0.00    -0.040 A 
ATOM     14  H   LIG d   1      11.781   3.733  -2.568  0.00  0.00     0.062 H 
ATOM     15  C   LIG d   1      10.789   6.191  -0.476  0.00  0.00     0.029 A 
ATOM     16  H   LIG d   1      12.177   4.568  -0.287  0.00  0.00     0.064 H 
ATOM     17  C   LIG d   1       9.883   6.835  -1.310  0.00  0.00    -0.040 A 
ATOM     18  C   LIG d   1       9.669   6.365  -2.591  0.00  0.00    -0.054 A 
ATOM     19  H   LIG d   1       9.350   7.706  -0.958  0.00  0.00     0.064 H 
ATOM     20  H   LIG d   1       8.969   6.868  -3.240  0.00  0.00     0.062 H 
BRANCH  15  21
ATOM     21  N   LIG d   1      11.011   6.669   0.817  0.00  0.00    -0.336 N 
BRANCH  21  22
ATOM     22  C   LIG d   1      10.929   5.755   1.960  0.00  0.00     0.000 C 
ATOM     23  H   LIG d   1      10.765   6.328   2.872  0.00  0.00     0.043 H 
ATOM     24  H   LIG d   1      10.102   5.062   1.812  0.00  0.00     0.043 H 
ATOM     25  H   LIG d   1      11.861   5.196   2.045  0.00  0.00     0.043 H 
ENDBRANCH  21  22
BRANCH  21  26
ATOM     26  C   LIG d   1      11.327   8.084   1.032  0.00  0.00     0.000 C 
ATOM     27  H   LIG d   1      11.920   8.190   1.939  0.00  0.00     0.043 H 
ATOM     28  H   LIG d   1      11.894   8.462   0.180  0.00  0.00     0.043 H 
ATOM     29  H   LIG d   1      10.402   8.651   1.134  0.00  0.00     0.043 H 
ENDBRANCH  21  26
ENDBRANCH  15  21
ENDBRANCH   7  11
BRANCH   1  30
ATOM     30  C   LIG d   1       7.619   0.746  -4.740  0.00  0.00     0.021 A 
ATOM     31  C   LIG d   1       6.892  -0.008  -5.661  0.00  0.00    -0.048 A 
ATOM     32  C   LIG d   1       5.594  -0.376  -5.376  0.00  0.00    -0.019 A 
ATOM     33  H   LIG d   1       7.344  -0.304  -6.596  0.00  0.00     0.063 H 
ATOM     34  C   LIG d   1       5.011   0.003  -4.173  0.00  0.00     0.120 A 
ATOM     35  H   LIG d   1       5.030  -0.962  -6.088  0.00  0.00     0.065 H 
ATOM     36  C   LIG d   1       5.732   0.754  -3.255  0.00  0.00    -0.019 A 
ATOM     37  C   LIG d   1       7.032   1.121  -3.531  0.00  0.00    -0.048 A 
ATOM     38  H   LIG d   1       5.276   1.047  -2.321  0.00  0.00     0.065 H 
ATOM     39  H   LIG d   1       7.594   1.702  -2.814  0.00  0.00     0.063 H 
BRANCH  34  40
ATOM     40  O   LIG d   1       3.732  -0.362  -3.895  0.00  0.00    -0.492 OA
BRANCH  40  41
ATOM     41  C   LIG d   1       3.448  -0.758  -2.553  0.00  0.00     0.087 C 
ATOM     42  H   LIG d   1       4.021  -0.139  -1.862  0.00  0.00     0.069 H 
ATOM     43  H   LIG d   1       2.384  -0.635  -2.354  0.00  0.00     0.069 H 
BRANCH  41  44
ATOM     44  C   LIG d   1       3.835  -2.226  -2.362  0.00  0.00    -0.031 C 
ATOM     45  H   LIG d   1       3.483  -2.572  -1.391  0.00  0.00     0.026 H 
ATOM     46  H   LIG d   1       3.379  -2.827  -3.149  0.00  0.00     0.026 H 
ATOM     47  H   LIG d   1       4.919  -2.326  -2.412  0.00  0.00     0.026 H 
ENDBRANCH  41  44
ENDBRANCH  40  41
ENDBRANCH  34  40
ENDBRANCH   1  30
TORSDOF 8
ENDMDL
MODEL 6
REMARK VINA RESULT:      -5.7      3.987      5.888
REMARK  8 active torsions:
REMARK  status: ('A' for Active; 'I' for Inactive)
REMARK    1  A    between atoms: C_1  and  C_2 
REMARK    2  A    between atoms: C_2  and  O_3 
REMARK    3  A    between atoms: O_3  and  C_4 
REMARK    4  A    between atoms: C_7  and  C_10 
REMARK    5  A    between atoms: C_16  and  C_19 
REMARK    6  A    between atoms: C_22  and  N_25 
REMARK    7  A    between atoms: N_25  and  C_26 
REMARK    8  A    between atoms: N_25  and  C_27 
ROOT
ATOM      1  C   LIG d   1       2.538  -0.953 -11.368  0.00  0.00     0.179 A 
ATOM      2  N   LIG d   1       3.434  -0.595 -12.254  0.00  0.00    -0.127 NA
ATOM      3  N   LIG d   1       4.180   0.335 -11.773  0.00  0.00    -0.121 NA
ATOM      4  C   LIG d   1       3.800   0.615 -10.562  0.00  0.00     0.208 A 
ATOM      5  N   LIG d   1       2.739  -0.179 -10.226  0.00  0.00    -0.231 N 
ATOM      6  N   LIG d   1       2.169  -0.063  -8.999  0.00  0.00    -0.207 NA
ATOM      7  C   LIG d   1       2.742   0.938  -8.077  0.00  0.00     0.105 A 
ATOM      8  H   LIG d   1       2.011   1.705  -7.822  0.00  0.00     0.065 H 
ATOM      9  S   LIG d   1       4.087   1.621  -9.124  0.00  0.00    -0.059 SA
ATOM     10  H   LIG d   1       2.089  -0.964  -8.551  0.00  0.00     0.149 HD
ENDROOT
BRANCH   7  11
ATOM     11  C   LIG d   1       3.296   0.284  -6.837  0.00  0.00    -0.018 A 
ATOM     12  C   LIG d   1       2.645   0.437  -5.627  0.00  0.00    -0.054 A 
ATOM     13  C   LIG d   1       3.149  -0.162  -4.489  0.00  0.00    -0.040 A 
ATOM     14  H   LIG d   1       1.741   1.024  -5.572  0.00  0.00     0.062 H 
ATOM     15  C   LIG d   1       4.311  -0.918  -4.561  0.00  0.00     0.029 A 
ATOM     16  H   LIG d   1       2.640  -0.041  -3.544  0.00  0.00     0.064 H 
ATOM     17  C   LIG d   1       4.963  -1.070  -5.779  0.00  0.00    -0.040 A 
ATOM     18  C   LIG d   1       4.450  -0.474  -6.914  0.00  0.00    -0.054 A 
ATOM     19  H   LIG d   1       5.867  -1.658  -5.838  0.00  0.00     0.064 H 
ATOM     20  H   LIG d   1       4.954  -0.595  -7.861  0.00  0.00     0.062 H 
BRANCH  15  21
ATOM     21  N   LIG d   1       4.825  -1.525  -3.413  0.00  0.00    -0.336 N 
BRANCH  21  22
ATOM     22  C   LIG d   1       3.914  -2.019  -2.376  0.00  0.00     0.000 C 
ATOM     23  H   LIG d   1       3.839  -3.104  -2.446  0.00  0.00     0.043 H 
ATOM     24  H   LIG d   1       4.297  -1.744  -1.395  0.00  0.00     0.043 H 
ATOM     25  H   LIG d   1       2.928  -1.578  -2.518  0.00  0.00     0.043 H 
ENDBRANCH  21  22
BRANCH  21  26
ATOM     26  C   LIG d   1       6.273  -1.668  -3.244  0.00  0.00     0.000 C 
ATOM     27  H   LIG d   1       6.619  -0.980  -2.474  0.00  0.00     0.043 H 
ATOM     28  H   LIG d   1       6.504  -2.692  -2.947  0.00  0.00     0.043 H 
ATOM     29  H   LIG d   1       6.773  -1.441  -4.186  0.00  0.00     0.043 H 
ENDBRANCH  21  26
ENDBRANCH  15  21
ENDBRANCH   7  11
BRANCH   1  30
ATOM     30  C   LIG d   1       1.501  -1.991 -11.547  0.00  0.00     0.021 A 
ATOM     31  C   LIG d   1       1.424  -3.064 -10.659  0.00  0.00    -0.048 A 
ATOM     32  C   LIG d   1       0.455  -4.030 -10.829  0.00  0.00    -0.019 A 
ATOM     33  H   LIG d   1       2.122  -3.139  -9.838  0.00  0.00     0.063 H 
ATOM     34  C   LIG d   1      -0.444  -3.935 -11.884  0.00  0.00     0.120 A 
ATOM     35  H   LIG d   1       0.394  -4.861 -10.141  0.00  0.00     0.065 H 
ATOM     36  C   LIG d   1      -0.371  -2.869 -12.769  0.00  0.00    -0.019 A 
ATOM     37  C   LIG d   1       0.593  -1.897 -12.603  0.00  0.00    -0.048 A 
ATOM     38  H   LIG d   1      -1.071  -2.799 -13.589  0.00  0.00     0.065 H 
ATOM     39  H   LIG d   1       0.646  -1.065 -13.290  0.00  0.00     0.063 H 
BRANCH  34  40
ATOM     40  O   LIG d   1      -1.398  -4.889 -12.049  0.00  0.00    -0.492 OA
BRANCH  40  41
ATOM     41  C   LIG d   1      -2.747  -4.512 -11.765  0.00  0.00     0.087 C 
ATOM     42  H   LIG d   1      -2.856  -3.434 -11.886  0.00  0.00     0.069 H 
ATOM     43  H   LIG d   1      -3.420  -5.025 -12.452  0.00  0.00     0.069 H 
BRANCH  41  44
ATOM     44  C   LIG d   1      -3.093  -4.902 -10.326  0.00  0.00    -0.031 C 
ATOM     45  H   LIG d   1      -3.504  -4.039  -9.805  0.00  0.00     0.026 H 
ATOM     46  H   LIG d   1      -3.828  -5.707 -10.335  0.00  0.00     0.026 H 
ATOM     47  H   LIG d   1      -2.191  -5.240  -9.814  0.00  0.00     0.026 H 
ENDBRANCH  41  44
ENDBRANCH  40  41
ENDBRANCH  34  40
ENDBRANCH   1  30
TORSDOF 8
ENDMDL
MODEL 7
REMARK VINA RESULT:      -5.6      3.087      8.126
REMARK  8 active torsions:
REMARK  status: ('A' for Active; 'I' for Inactive)
REMARK    1  A    between atoms: C_1  and  C_2 
REMARK    2  A    between atoms: C_2  and  O_3 
REMARK    3  A    between atoms: O_3  and  C_4 
REMARK    4  A    between atoms: C_7  and  C_10 
REMARK    5  A    between atoms: C_16  and  C_19 
REMARK    6  A    between atoms: C_22  and  N_25 
REMARK    7  A    between atoms: N_25  and  C_26 
REMARK    8  A    between atoms: N_25  and  C_27 
ROOT
ATOM      1  C   LIG d   1       5.042  -1.894  -4.081  0.00  0.00     0.179 A 
ATOM      2  N   LIG d   1       4.336  -1.700  -2.995  0.00  0.00    -0.127 NA
ATOM      3  N   LIG d   1       3.371  -0.887  -3.239  0.00  0.00    -0.121 NA
ATOM      4  C   LIG d   1       3.412  -0.523  -4.487  0.00  0.00     0.208 A 
ATOM      5  N   LIG d   1       4.469  -1.135  -5.100  0.00  0.00    -0.231 N 
ATOM      6  N   LIG d   1       4.713  -0.905  -6.416  0.00  0.00    -0.207 NA
ATOM      7  C   LIG d   1       3.800   0.015  -7.124  0.00  0.00     0.105 A 
ATOM      8  H   LIG d   1       4.331   0.892  -7.494  0.00  0.00     0.065 H 
ATOM      9  S   LIG d   1       2.653   0.458  -5.761  0.00  0.00    -0.059 SA
ATOM     10  H   LIG d   1       4.817  -1.772  -6.922  0.00  0.00     0.149 HD
ENDROOT
BRANCH   7  11
ATOM     11  C   LIG d   1       3.074  -0.689  -8.241  0.00  0.00    -0.018 A 
ATOM     12  C   LIG d   1       3.352  -2.015  -8.518  0.00  0.00    -0.054 A 
ATOM     13  C   LIG d   1       2.688  -2.663  -9.540  0.00  0.00    -0.040 A 
ATOM     14  H   LIG d   1       4.090  -2.544  -7.933  0.00  0.00     0.062 H 
ATOM     15  C   LIG d   1       1.739  -1.982 -10.291  0.00  0.00     0.029 A 
ATOM     16  H   LIG d   1       2.907  -3.698  -9.756  0.00  0.00     0.064 H 
ATOM     17  C   LIG d   1       1.461  -0.650 -10.010  0.00  0.00    -0.040 A 
ATOM     18  C   LIG d   1       2.124  -0.009  -8.982  0.00  0.00    -0.054 A 
ATOM     19  H   LIG d   1       0.723  -0.118 -10.592  0.00  0.00     0.064 H 
ATOM     20  H   LIG d   1       1.906   1.025  -8.761  0.00  0.00     0.062 H 
BRANCH  15  21
ATOM     21  N   LIG d   1       1.065  -2.634 -11.326  0.00  0.00    -0.336 N 
BRANCH  21  22
ATOM     22  C   LIG d   1       0.390  -3.910 -11.072  0.00  0.00     0.000 C 
ATOM     23  H   LIG d   1      -0.259  -4.151 -11.913  0.00  0.00     0.043 H 
ATOM     24  H   LIG d   1       1.134  -4.696 -10.949  0.00  0.00     0.043 H 
ATOM     25  H   LIG d   1      -0.207  -3.830 -10.163  0.00  0.00     0.043 H 
ENDBRANCH  21  22
BRANCH  21  26
ATOM     26  C   LIG d   1       1.031  -2.042 -12.666  0.00  0.00     0.000 C 
ATOM     27  H   LIG d   1       0.480  -1.103 -12.635  0.00  0.00     0.043 H 
ATOM     28  H   LIG d   1       2.051  -1.854 -13.005  0.00  0.00     0.043 H 
ATOM     29  H   LIG d   1       0.540  -2.729 -13.355  0.00  0.00     0.043 H 
ENDBRANCH  21  26
ENDBRANCH  15  21
ENDBRANCH   7  11
BRANCH   1  30
ATOM     30  C   LIG d   1       6.233  -2.762  -4.203  0.00  0.00     0.021 A 
ATOM     31  C   LIG d   1       6.179  -3.918  -4.983  0.00  0.00    -0.048 A 
ATOM     32  C   LIG d   1       7.292  -4.724  -5.095  0.00  0.00    -0.019 A 
ATOM     33  H   LIG d   1       5.268  -4.181  -5.499  0.00  0.00     0.063 H 
ATOM     34  C   LIG d   1       8.465  -4.387  -4.432  0.00  0.00     0.120 A 
ATOM     35  H   LIG d   1       7.251  -5.619  -5.699  0.00  0.00     0.065 H 
ATOM     36  C   LIG d   1       8.522  -3.238  -3.656  0.00  0.00    -0.019 A 
ATOM     37  C   LIG d   1       7.415  -2.424  -3.543  0.00  0.00    -0.048 A 
ATOM     38  H   LIG d   1       9.436  -2.979  -3.142  0.00  0.00     0.065 H 
ATOM     39  H   LIG d   1       7.462  -1.527  -2.942  0.00  0.00     0.063 H 
BRANCH  34  40
ATOM     40  O   LIG d   1       9.560  -5.184  -4.545  0.00  0.00    -0.492 OA
BRANCH  40  41
ATOM     41  C   LIG d   1      10.289  -5.457  -3.347  0.00  0.00     0.087 C 
ATOM     42  H   LIG d   1      11.306  -5.757  -3.600  0.00  0.00     0.069 H 
ATOM     43  H   LIG d   1      10.318  -4.561  -2.727  0.00  0.00     0.069 H 
BRANCH  41  44
ATOM     44  C   LIG d   1       9.600  -6.586  -2.577  0.00  0.00    -0.031 C 
ATOM     45  H   LIG d   1       9.192  -6.195  -1.646  0.00  0.00     0.026 H 
ATOM     46  H   LIG d   1       8.794  -7.000  -3.183  0.00  0.00     0.026 H 
ATOM     47  H   LIG d   1      10.326  -7.369  -2.355  0.00  0.00     0.026 H 
ENDBRANCH  41  44
ENDBRANCH  40  41
ENDBRANCH  34  40
ENDBRANCH   1  30
TORSDOF 8
ENDMDL
MODEL 8
REMARK VINA RESULT:      -5.6      4.374      6.327
REMARK  8 active torsions:
REMARK  status: ('A' for Active; 'I' for Inactive)
REMARK    1  A    between atoms: C_1  and  C_2 
REMARK    2  A    between atoms: C_2  and  O_3 
REMARK    3  A    between atoms: O_3  and  C_4 
REMARK    4  A    between atoms: C_7  and  C_10 
REMARK    5  A    between atoms: C_16  and  C_19 
REMARK    6  A    between atoms: C_22  and  N_25 
REMARK    7  A    between atoms: N_25  and  C_26 
REMARK    8  A    between atoms: N_25  and  C_27 
ROOT
ATOM      1  C   LIG d   1       3.167  -2.616 -10.434  0.00  0.00     0.179 A 
ATOM      2  N   LIG d   1       4.164  -2.485 -11.273  0.00  0.00    -0.127 NA
ATOM      3  N   LIG d   1       4.785  -1.382 -11.048  0.00  0.00    -0.121 NA
ATOM      4  C   LIG d   1       4.219  -0.757 -10.058  0.00  0.00     0.208 A 
ATOM      5  N   LIG d   1       3.161  -1.495  -9.605  0.00  0.00    -0.231 N 
ATOM      6  N   LIG d   1       2.412  -1.039  -8.568  0.00  0.00    -0.207 NA
ATOM      7  C   LIG d   1       2.795   0.259  -7.976  0.00  0.00     0.105 A 
ATOM      8  H   LIG d   1       1.998   0.994  -8.086  0.00  0.00     0.065 H 
ATOM      9  S   LIG d   1       4.243   0.687  -9.021  0.00  0.00    -0.059 SA
ATOM     10  H   LIG d   1       2.312  -1.746  -7.855  0.00  0.00     0.149 HD
ENDROOT
BRANCH   7  11
ATOM     11  C   LIG d   1       3.193   0.104  -6.531  0.00  0.00    -0.018 A 
ATOM     12  C   LIG d   1       2.371   0.593  -5.532  0.00  0.00    -0.054 A 
ATOM     13  C   LIG d   1       2.733   0.452  -4.207  0.00  0.00    -0.040 A 
ATOM     14  H   LIG d   1       1.446   1.087  -5.789  0.00  0.00     0.062 H 
ATOM     15  C   LIG d   1       3.923  -0.183  -3.877  0.00  0.00     0.029 A 
ATOM     16  H   LIG d   1       2.091   0.835  -3.428  0.00  0.00     0.064 H 
ATOM     17  C   LIG d   1       4.746  -0.674  -4.883  0.00  0.00    -0.040 A 
ATOM     18  C   LIG d   1       4.376  -0.535  -6.206  0.00  0.00    -0.054 A 
ATOM     19  H   LIG d   1       5.672  -1.169  -4.630  0.00  0.00     0.064 H 
ATOM     20  H   LIG d   1       5.013  -0.921  -6.988  0.00  0.00     0.062 H 
BRANCH  15  21
ATOM     21  N   LIG d   1       4.292  -0.328  -2.538  0.00  0.00    -0.336 N 
BRANCH  21  22
ATOM     22  C   LIG d   1       4.590   0.856  -1.728  0.00  0.00     0.000 C 
ATOM     23  H   LIG d   1       4.206   1.744  -2.229  0.00  0.00     0.043 H 
ATOM     24  H   LIG d   1       4.117   0.756  -0.752  0.00  0.00     0.043 H 
ATOM     25  H   LIG d   1       5.668   0.948  -1.602  0.00  0.00     0.043 H 
ENDBRANCH  21  22
BRANCH  21  26
ATOM     26  C   LIG d   1       4.381  -1.665  -1.943  0.00  0.00     0.000 C 
ATOM     27  H   LIG d   1       3.613  -1.773  -1.177  0.00  0.00     0.043 H 
ATOM     28  H   LIG d   1       4.230  -2.417  -2.718  0.00  0.00     0.043 H 
ATOM     29  H   LIG d   1       5.365  -1.797  -1.493  0.00  0.00     0.043 H 
ENDBRANCH  21  26
ENDBRANCH  15  21
ENDBRANCH   7  11
BRANCH   1  30
ATOM     30  C   LIG d   1       2.219  -3.749 -10.377  0.00  0.00     0.021 A 
ATOM     31  C   LIG d   1       0.857  -3.534 -10.592  0.00  0.00    -0.048 A 
ATOM     32  C   LIG d   1      -0.023  -4.594 -10.538  0.00  0.00    -0.019 A 
ATOM     33  H   LIG d   1       0.493  -2.540 -10.801  0.00  0.00     0.063 H 
ATOM     34  C   LIG d   1       0.445  -5.875 -10.270  0.00  0.00     0.120 A 
ATOM     35  H   LIG d   1      -1.077  -4.429 -10.706  0.00  0.00     0.065 H 
ATOM     36  C   LIG d   1       1.799  -6.092 -10.056  0.00  0.00    -0.019 A 
ATOM     37  C   LIG d   1       2.686  -5.038 -10.112  0.00  0.00    -0.048 A 
ATOM     38  H   LIG d   1       2.158  -7.088  -9.846  0.00  0.00     0.065 H 
ATOM     39  H   LIG d   1       3.740  -5.209  -9.949  0.00  0.00     0.063 H 
BRANCH  34  40
ATOM     40  O   LIG d   1      -0.426  -6.917 -10.218  0.00  0.00    -0.492 OA
BRANCH  40  41
ATOM     41  C   LIG d   1      -1.718  -6.654  -9.668  0.00  0.00     0.087 C 
ATOM     42  H   LIG d   1      -1.610  -6.239  -8.667  0.00  0.00     0.069 H 
ATOM     43  H   LIG d   1      -2.245  -5.941 -10.302  0.00  0.00     0.069 H 
BRANCH  41  44
ATOM     44  C   LIG d   1      -2.515  -7.959  -9.596  0.00  0.00    -0.031 C 
ATOM     45  H   LIG d   1      -3.159  -7.942  -8.718  0.00  0.00     0.026 H 
ATOM     46  H   LIG d   1      -3.126  -8.061 -10.493  0.00  0.00     0.026 H 
ATOM     47  H   LIG d   1      -1.828  -8.802  -9.528  0.00  0.00     0.026 H 
ENDBRANCH  41  44
ENDBRANCH  40  41
ENDBRANCH  34  40
ENDBRANCH   1  30
TORSDOF 8
ENDMDL
MODEL 9
REMARK VINA RESULT:      -5.5      5.281      8.677
REMARK  8 active torsions:
REMARK  status: ('A' for Active; 'I' for Inactive)
REMARK    1  A    between atoms: C_1  and  C_2 
REMARK    2  A    between atoms: C_2  and  O_3 
REMARK    3  A    between atoms: O_3  and  C_4 
REMARK    4  A    between atoms: C_7  and  C_10 
REMARK    5  A    between atoms: C_16  and  C_19 
REMARK    6  A    between atoms: C_22  and  N_25 
REMARK    7  A    between atoms: N_25  and  C_26 
REMARK    8  A    between atoms: N_25  and  C_27 
ROOT
ATOM      1  C   LIG d   1       3.287  -0.870  -9.328  0.00  0.00     0.179 A 
ATOM      2  N   LIG d   1       3.311   0.072 -10.239  0.00  0.00    -0.127 NA
ATOM      3  N   LIG d   1       3.115  -0.438 -11.403  0.00  0.00    -0.121 NA
ATOM      4  C   LIG d   1       2.956  -1.724 -11.294  0.00  0.00     0.208 A 
ATOM      5  N   LIG d   1       3.054  -2.081  -9.978  0.00  0.00    -0.231 N 
ATOM      6  N   LIG d   1       2.921  -3.384  -9.618  0.00  0.00    -0.207 NA
ATOM      7  C   LIG d   1       2.672  -4.362 -10.697  0.00  0.00     0.105 A 
ATOM      8  H   LIG d   1       3.480  -5.091 -10.763  0.00  0.00     0.065 H 
ATOM      9  S   LIG d   1       2.659  -3.250 -12.157  0.00  0.00    -0.059 SA
ATOM     10  H   LIG d   1       2.247  -3.487  -8.874  0.00  0.00     0.149 HD
ENDROOT
BRANCH   7  11
ATOM     11  C   LIG d   1       1.341  -5.044 -10.518  0.00  0.00    -0.018 A 
ATOM     12  C   LIG d   1       1.287  -6.410 -10.309  0.00  0.00    -0.054 A 
ATOM     13  C   LIG d   1       0.068  -7.038 -10.145  0.00  0.00    -0.040 A 
ATOM     14  H   LIG d   1       2.200  -6.986 -10.274  0.00  0.00     0.062 H 
ATOM     15  C   LIG d   1      -1.105  -6.297 -10.190  0.00  0.00     0.029 A 
ATOM     16  H   LIG d   1       0.028  -8.105  -9.982  0.00  0.00     0.064 H 
ATOM     17  C   LIG d   1      -1.048  -4.924 -10.401  0.00  0.00    -0.040 A 
ATOM     18  C   LIG d   1       0.175  -4.301 -10.558  0.00  0.00    -0.054 A 
ATOM     19  H   LIG d   1      -1.958  -4.345 -10.435  0.00  0.00     0.064 H 
ATOM     20  H   LIG d   1       0.219  -3.234 -10.717  0.00  0.00     0.062 H 
BRANCH  15  21
ATOM     21  N   LIG d   1      -2.340  -6.928 -10.024  0.00  0.00    -0.336 N 
BRANCH  21  22
ATOM     22  C   LIG d   1      -2.460  -8.372 -10.245  0.00  0.00     0.000 C 
ATOM     23  H   LIG d   1      -1.468  -8.801 -10.389  0.00  0.00     0.043 H 
ATOM     24  H   LIG d   1      -2.933  -8.833  -9.380  0.00  0.00     0.043 H 
ATOM     25  H   LIG d   1      -3.066  -8.555 -11.132  0.00  0.00     0.043 H 
ENDBRANCH  21  22
BRANCH  21  26
ATOM     26  C   LIG d   1      -3.515  -6.147  -9.629  0.00  0.00     0.000 C 
ATOM     27  H   LIG d   1      -4.157  -5.993 -10.496  0.00  0.00     0.043 H 
ATOM     28  H   LIG d   1      -4.068  -6.688  -8.860  0.00  0.00     0.043 H 
ATOM     29  H   LIG d   1      -3.195  -5.182  -9.237  0.00  0.00     0.043 H 
ENDBRANCH  21  26
ENDBRANCH  15  21
ENDBRANCH   7  11
BRANCH   1  30
ATOM     30  C   LIG d   1       3.473  -0.681  -7.874  0.00  0.00     0.021 A 
ATOM     31  C   LIG d   1       4.499  -1.351  -7.207  0.00  0.00    -0.048 A 
ATOM     32  C   LIG d   1       4.669  -1.171  -5.850  0.00  0.00    -0.019 A 
ATOM     33  H   LIG d   1       5.159  -2.009  -7.751  0.00  0.00     0.063 H 
ATOM     34  C   LIG d   1       3.821  -0.324  -5.148  0.00  0.00     0.120 A 
ATOM     35  H   LIG d   1       5.464  -1.689  -5.333  0.00  0.00     0.065 H 
ATOM     36  C   LIG d   1       2.800   0.344  -5.809  0.00  0.00    -0.019 A 
ATOM     37  C   LIG d   1       2.626   0.174  -7.166  0.00  0.00    -0.048 A 
ATOM     38  H   LIG d   1       2.142   1.002  -5.260  0.00  0.00     0.065 H 
ATOM     39  H   LIG d   1       1.833   0.698  -7.680  0.00  0.00     0.063 H 
BRANCH  34  40
ATOM     40  O   LIG d   1       3.992  -0.149  -3.812  0.00  0.00    -0.492 OA
BRANCH  40  41
ATOM     41  C   LIG d   1       3.093  -0.845  -2.947  0.00  0.00     0.087 C 
ATOM     42  H   LIG d   1       2.802  -0.193  -2.124  0.00  0.00     0.069 H 
ATOM     43  H   LIG d   1       2.205  -1.141  -3.507  0.00  0.00     0.069 H 
BRANCH  41  44
ATOM     44  C   LIG d   1       3.783  -2.093  -2.391  0.00  0.00    -0.031 C 
ATOM     45  H   LIG d   1       4.688  -2.293  -2.964  0.00  0.00     0.026 H 
ATOM     46  H   LIG d   1       4.044  -1.928  -1.345  0.00  0.00     0.026 H 
ATOM     47  H   LIG d   1       3.109  -2.945  -2.466  0.00  0.00     0.026 H 
ENDBRANCH  41  44
ENDBRANCH  40  41
ENDBRANCH  34  40
ENDBRANCH   1  30
TORSDOF 8
ENDMDL
