MODEL 1
REMARK VINA RESULT:      -6.4      0.000      0.000
REMARK  10 active torsions:
REMARK  status: ('A' for Active; 'I' for Inactive)
REMARK    1  A    between atoms: C_1  and  O_2 
REMARK    2  A    between atoms: O_2  and  C_3 
REMARK    3  A    between atoms: C_8  and  O_9 
REMARK    4  A    between atoms: O_9  and  C_10 
REMARK    5  A    between atoms: C_14  and  C_15 
REMARK    6  A    between atoms: C_14  and  N_50 
REMARK    7  A    between atoms: C_15  and  C_17 
REMARK    8  A    between atoms: C_15  and  O_25 
REMARK    9  A    between atoms: C_17  and  O_18 
REMARK   10  A    between atoms: O_18  and  C_19 
ROOT
ATOM      1  C   LIG d   1      10.090   7.688  -1.610  0.00  0.00     0.162 A 
ATOM      2  C   LIG d   1       9.678   7.296  -2.872  0.00  0.00    -0.013 A 
ATOM      3  C   LIG d   1       9.754   5.964  -3.251  0.00  0.00    -0.030 A 
ATOM      4  C   LIG d   1      10.243   5.023  -2.370  0.00  0.00     0.004 A 
ATOM      5  C   LIG d   1      10.654   5.411  -1.103  0.00  0.00    -0.008 A 
ATOM      6  C   LIG d   1      10.579   6.739  -0.719  0.00  0.00     0.162 A 
ATOM      7  C   LIG d   1      10.348   3.567  -2.741  0.00  0.00    -0.005 C 
ATOM      8  C   LIG d   1       9.820   4.202  -5.004  0.00  0.00    -0.027 C 
ATOM      9  C   LIG d   1       9.285   5.585  -4.634  0.00  0.00     0.013 C 
ATOM     10  H   LIG d   1       9.298   8.031  -3.566  0.00  0.00     0.066 H 
ATOM     11  H   LIG d   1      11.034   4.673  -0.412  0.00  0.00     0.066 H 
ATOM     12  H   LIG d   1      10.020   2.956  -1.898  0.00  0.00     0.087 H 
ATOM     13  H   LIG d   1      11.386   3.329  -2.973  0.00  0.00     0.087 H 
ATOM     14  H   LIG d   1      10.899   4.252  -5.148  0.00  0.00     0.082 H 
ATOM     15  H   LIG d   1       9.341   3.858  -5.922  0.00  0.00     0.082 H 
ATOM     16  H   LIG d   1       8.195   5.569  -4.654  0.00  0.00     0.036 H 
ATOM     17  H   LIG d   1       9.650   6.317  -5.353  0.00  0.00     0.036 H 
ATOM     18  N   LIG d   1       9.489   3.278  -3.900  0.00  0.00     0.241 N 
ATOM     19  H   LIG d   1       8.506   3.415  -3.633  0.00  0.00     0.204 HD
ENDROOT
BRANCH  18  20
ATOM     20  C   LIG d   1       9.678   1.877  -4.336  0.00  0.00    -0.002 C 
ATOM     21  H   LIG d   1       9.372   1.190  -3.547  0.00  0.00     0.084 H 
ATOM     22  H   LIG d   1      10.730   1.714  -4.572  0.00  0.00     0.084 H 
BRANCH  20  23
ATOM     23  C   LIG d   1       8.831   1.625  -5.586  0.00  0.00     0.129 C 
ATOM     24  H   LIG d   1       8.524   2.579  -6.015  0.00  0.00     0.068 H 
BRANCH  23  25
ATOM     25  C   LIG d   1       7.591   0.813  -5.207  0.00  0.00     0.120 C 
ATOM     26  H   LIG d   1       7.890  -0.197  -4.928  0.00  0.00     0.072 H 
ATOM     27  H   LIG d   1       6.913   0.768  -6.058  0.00  0.00     0.072 H 
BRANCH  25  28
ATOM     28  O   LIG d   1       6.932   1.437  -4.104  0.00  0.00    -0.489 OA
BRANCH  28  29
ATOM     29  C   LIG d   1       6.089   0.663  -3.371  0.00  0.00     0.121 A 
ATOM     30  C   LIG d   1       5.159   1.254  -2.528  0.00  0.00    -0.020 A 
ATOM     31  C   LIG d   1       4.303   0.466  -1.785  0.00  0.00    -0.058 A 
ATOM     32  H   LIG d   1       5.106   2.330  -2.453  0.00  0.00     0.065 H 
ATOM     33  C   LIG d   1       4.371  -0.912  -1.880  0.00  0.00    -0.061 A 
ATOM     34  H   LIG d   1       3.579   0.926  -1.128  0.00  0.00     0.062 H 
ATOM     35  C   LIG d   1       5.296  -1.504  -2.720  0.00  0.00    -0.058 A 
ATOM     36  H   LIG d   1       3.697  -1.527  -1.301  0.00  0.00     0.062 H 
ATOM     37  C   LIG d   1       6.155  -0.720  -3.466  0.00  0.00    -0.020 A 
ATOM     38  H   LIG d   1       5.348  -2.580  -2.793  0.00  0.00     0.062 H 
ATOM     39  H   LIG d   1       6.877  -1.183  -4.122  0.00  0.00     0.065 H 
ENDBRANCH  28  29
ENDBRANCH  25  28
ENDBRANCH  23  25
BRANCH  23  40
ATOM     40  O   LIG d   1       9.602   0.899  -6.545  0.00  0.00    -0.383 OA
ATOM     41  H   LIG d   1       9.836   0.003  -6.265  0.00  0.00     0.210 HD
ENDBRANCH  23  40
ENDBRANCH  20  23
ENDBRANCH  18  20
BRANCH   6  42
ATOM     42  O   LIG d   1      10.984   7.114   0.524  0.00  0.00    -0.491 OA
BRANCH  42  43
ATOM     43  C   LIG d   1      11.090   6.084   1.510  0.00  0.00     0.079 C 
ATOM     44  H   LIG d   1      11.465   5.173   1.044  0.00  0.00     0.066 H 
ATOM     45  H   LIG d   1      11.777   6.401   2.294  0.00  0.00     0.066 H 
ATOM     46  H   LIG d   1      10.109   5.893   1.943  0.00  0.00     0.066 H 
ENDBRANCH  42  43
ENDBRANCH   6  42
BRANCH   1  47
ATOM     47  O   LIG d   1      10.014   8.995  -1.242  0.00  0.00    -0.491 OA
BRANCH  47  48
ATOM     48  C   LIG d   1       8.747   9.465  -0.776  0.00  0.00     0.079 C 
ATOM     49  H   LIG d   1       8.808  10.534  -0.574  0.00  0.00     0.066 H 
ATOM     50  H   LIG d   1       7.989   9.281  -1.538  0.00  0.00     0.066 H 
ATOM     51  H   LIG d   1       8.478   8.936   0.138  0.00  0.00     0.066 H 
ENDBRANCH  47  48
ENDBRANCH   1  47
TORSDOF 10
ENDMDL
MODEL 2
REMARK VINA RESULT:      -6.0      1.222      1.568
REMARK  10 active torsions:
REMARK  status: ('A' for Active; 'I' for Inactive)
REMARK    1  A    between atoms: C_1  and  O_2 
REMARK    2  A    between atoms: O_2  and  C_3 
REMARK    3  A    between atoms: C_8  and  O_9 
REMARK    4  A    between atoms: O_9  and  C_10 
REMARK    5  A    between atoms: C_14  and  C_15 
REMARK    6  A    between atoms: C_14  and  N_50 
REMARK    7  A    between atoms: C_15  and  C_17 
REMARK    8  A    between atoms: C_15  and  O_25 
REMARK    9  A    between atoms: C_17  and  O_18 
REMARK   10  A    between atoms: O_18  and  C_19 
ROOT
ATOM      1  C   LIG d   1       9.802   7.224  -2.467  0.00  0.00     0.162 A 
ATOM      2  C   LIG d   1       9.613   6.708  -3.737  0.00  0.00    -0.013 A 
ATOM      3  C   LIG d   1       9.773   5.350  -3.973  0.00  0.00    -0.030 A 
ATOM      4  C   LIG d   1      10.125   4.508  -2.940  0.00  0.00     0.004 A 
ATOM      5  C   LIG d   1      10.314   5.020  -1.664  0.00  0.00    -0.008 A 
ATOM      6  C   LIG d   1      10.153   6.374  -1.423  0.00  0.00     0.162 A 
ATOM      7  C   LIG d   1      10.317   3.029  -3.151  0.00  0.00    -0.005 C 
ATOM      8  C   LIG d   1      10.161   3.442  -5.520  0.00  0.00    -0.027 C 
ATOM      9  C   LIG d   1       9.547   4.835  -5.372  0.00  0.00     0.013 C 
ATOM     10  H   LIG d   1       9.340   7.365  -4.549  0.00  0.00     0.066 H 
ATOM     11  H   LIG d   1      10.587   4.360  -0.855  0.00  0.00     0.066 H 
ATOM     12  H   LIG d   1       9.864   2.485  -2.320  0.00  0.00     0.087 H 
ATOM     13  H   LIG d   1      11.383   2.805  -3.187  0.00  0.00     0.087 H 
ATOM     14  H   LIG d   1      11.248   3.515  -5.489  0.00  0.00     0.082 H 
ATOM     15  H   LIG d   1       9.847   3.003  -6.467  0.00  0.00     0.082 H 
ATOM     16  H   LIG d   1       8.477   4.781  -5.569  0.00  0.00     0.036 H 
ATOM     17  H   LIG d   1      10.014   5.512  -6.086  0.00  0.00     0.036 H 
ATOM     18  N   LIG d   1       9.667   2.610  -4.404  0.00  0.00     0.241 N 
ATOM     19  H   LIG d   1       8.652   2.738  -4.315  0.00  0.00     0.204 HD
ENDROOT
BRANCH  18  20
ATOM     20  C   LIG d   1       9.951   1.183  -4.670  0.00  0.00    -0.002 C 
ATOM     21  H   LIG d   1      10.526   0.751  -3.851  0.00  0.00     0.084 H 
ATOM     22  H   LIG d   1      10.519   1.098  -5.597  0.00  0.00     0.084 H 
BRANCH  20  23
ATOM     23  C   LIG d   1       8.626   0.430  -4.813  0.00  0.00     0.129 C 
ATOM     24  H   LIG d   1       8.304   0.457  -5.854  0.00  0.00     0.068 H 
BRANCH  23  25
ATOM     25  C   LIG d   1       7.565   1.091  -3.932  0.00  0.00     0.120 C 
ATOM     26  H   LIG d   1       7.718   2.170  -3.927  0.00  0.00     0.072 H 
ATOM     27  H   LIG d   1       7.647   0.708  -2.916  0.00  0.00     0.072 H 
BRANCH  25  28
ATOM     28  O   LIG d   1       6.266   0.797  -4.449  0.00  0.00    -0.489 OA
BRANCH  28  29
ATOM     29  C   LIG d   1       5.515  -0.099  -3.757  0.00  0.00     0.121 A 
ATOM     30  C   LIG d   1       5.158  -1.305  -4.343  0.00  0.00    -0.020 A 
ATOM     31  C   LIG d   1       4.396  -2.216  -3.638  0.00  0.00    -0.058 A 
ATOM     32  H   LIG d   1       5.476  -1.532  -5.350  0.00  0.00     0.065 H 
ATOM     33  C   LIG d   1       3.988  -1.926  -2.348  0.00  0.00    -0.061 A 
ATOM     34  H   LIG d   1       4.118  -3.155  -4.093  0.00  0.00     0.062 H 
ATOM     35  C   LIG d   1       4.342  -0.725  -1.762  0.00  0.00    -0.058 A 
ATOM     36  H   LIG d   1       3.396  -2.642  -1.797  0.00  0.00     0.062 H 
ATOM     37  C   LIG d   1       5.105   0.189  -2.463  0.00  0.00    -0.020 A 
ATOM     38  H   LIG d   1       4.023  -0.502  -0.756  0.00  0.00     0.062 H 
ATOM     39  H   LIG d   1       5.382   1.127  -2.005  0.00  0.00     0.065 H 
ENDBRANCH  28  29
ENDBRANCH  25  28
ENDBRANCH  23  25
BRANCH  23  40
ATOM     40  O   LIG d   1       8.804  -0.929  -4.406  0.00  0.00    -0.383 OA
ATOM     41  H   LIG d   1       9.700  -1.267  -4.546  0.00  0.00     0.210 HD
ENDBRANCH  23  40
ENDBRANCH  20  23
ENDBRANCH  18  20
BRANCH   6  42
ATOM     42  O   LIG d   1      10.339   6.871  -0.170  0.00  0.00    -0.491 OA
BRANCH  42  43
ATOM     43  C   LIG d   1      11.153   6.102   0.718  0.00  0.00     0.079 C 
ATOM     44  H   LIG d   1      11.894   6.751   1.185  0.00  0.00     0.066 H 
ATOM     45  H   LIG d   1      10.526   5.654   1.489  0.00  0.00     0.066 H 
ATOM     46  H   LIG d   1      11.660   5.316   0.159  0.00  0.00     0.066 H 
ENDBRANCH  42  43
ENDBRANCH   6  42
BRANCH   1  47
ATOM     47  O   LIG d   1       9.643   8.555  -2.240  0.00  0.00    -0.491 OA
BRANCH  47  48
ATOM     48  C   LIG d   1      10.045   9.443  -3.285  0.00  0.00     0.079 C 
ATOM     49  H   LIG d   1       9.164   9.788  -3.827  0.00  0.00     0.066 H 
ATOM     50  H   LIG d   1      10.565  10.299  -2.855  0.00  0.00     0.066 H 
ATOM     51  H   LIG d   1      10.711   8.919  -3.970  0.00  0.00     0.066 H 
ENDBRANCH  47  48
ENDBRANCH   1  47
TORSDOF 10
ENDMDL
MODEL 3
REMARK VINA RESULT:      -6.0      1.428      2.017
REMARK  10 active torsions:
REMARK  status: ('A' for Active; 'I' for Inactive)
REMARK    1  A    between atoms: C_1  and  O_2 
REMARK    2  A    between atoms: O_2  and  C_3 
REMARK    3  A    between atoms: C_8  and  O_9 
REMARK    4  A    between atoms: O_9  and  C_10 
REMARK    5  A    between atoms: C_14  and  C_15 
REMARK    6  A    between atoms: C_14  and  N_50 
REMARK    7  A    between atoms: C_15  and  C_17 
REMARK    8  A    between atoms: C_15  and  O_25 
REMARK    9  A    between atoms: C_17  and  O_18 
REMARK   10  A    between atoms: O_18  and  C_19 
ROOT
ATOM      1  C   LIG d   1      10.077   8.915  -3.527  0.00  0.00     0.162 A 
ATOM      2  C   LIG d   1      10.050   7.964  -4.533  0.00  0.00    -0.013 A 
ATOM      3  C   LIG d   1      10.045   6.613  -4.221  0.00  0.00    -0.030 A 
ATOM      4  C   LIG d   1      10.070   6.210  -2.903  0.00  0.00     0.004 A 
ATOM      5  C   LIG d   1      10.096   7.159  -1.890  0.00  0.00    -0.008 A 
ATOM      6  C   LIG d   1      10.098   8.509  -2.197  0.00  0.00     0.162 A 
ATOM      7  C   LIG d   1      10.073   4.754  -2.517  0.00  0.00    -0.005 C 
ATOM      8  C   LIG d   1      10.420   4.235  -4.844  0.00  0.00    -0.027 C 
ATOM      9  C   LIG d   1      10.006   5.617  -5.352  0.00  0.00     0.013 C 
ATOM     10  H   LIG d   1      10.033   8.277  -5.567  0.00  0.00     0.066 H 
ATOM     11  H   LIG d   1      10.112   6.843  -0.858  0.00  0.00     0.066 H 
ATOM     12  H   LIG d   1       9.398   4.604  -1.673  0.00  0.00     0.087 H 
ATOM     13  H   LIG d   1      11.081   4.460  -2.226  0.00  0.00     0.087 H 
ATOM     14  H   LIG d   1      11.481   4.239  -4.596  0.00  0.00     0.082 H 
ATOM     15  H   LIG d   1      10.223   3.489  -5.614  0.00  0.00     0.082 H 
ATOM     16  H   LIG d   1       8.994   5.566  -5.754  0.00  0.00     0.036 H 
ATOM     17  H   LIG d   1      10.692   5.933  -6.136  0.00  0.00     0.036 H 
ATOM     18  N   LIG d   1       9.609   3.933  -3.647  0.00  0.00     0.241 N 
ATOM     19  H   LIG d   1       8.626   4.155  -3.843  0.00  0.00     0.204 HD
ENDROOT
BRANCH  18  20
ATOM     20  C   LIG d   1       9.719   2.496  -3.309  0.00  0.00    -0.002 C 
ATOM     21  H   LIG d   1       9.330   2.312  -2.308  0.00  0.00     0.084 H 
ATOM     22  H   LIG d   1      10.766   2.197  -3.353  0.00  0.00     0.084 H 
BRANCH  20  23
ATOM     23  C   LIG d   1       8.914   1.683  -4.325  0.00  0.00     0.129 C 
ATOM     24  H   LIG d   1       8.907   2.203  -5.283  0.00  0.00     0.068 H 
BRANCH  23  25
ATOM     25  C   LIG d   1       7.478   1.516  -3.823  0.00  0.00     0.120 C 
ATOM     26  H   LIG d   1       6.783   1.787  -4.617  0.00  0.00     0.072 H 
ATOM     27  H   LIG d   1       7.318   2.163  -2.962  0.00  0.00     0.072 H 
BRANCH  25  28
ATOM     28  O   LIG d   1       7.262   0.156  -3.445  0.00  0.00    -0.489 OA
BRANCH  28  29
ATOM     29  C   LIG d   1       5.998  -0.190  -3.083  0.00  0.00     0.121 A 
ATOM     30  C   LIG d   1       5.088   0.790  -2.715  0.00  0.00    -0.020 A 
ATOM     31  C   LIG d   1       3.804   0.437  -2.348  0.00  0.00    -0.058 A 
ATOM     32  H   LIG d   1       5.384   1.829  -2.716  0.00  0.00     0.065 H 
ATOM     33  C   LIG d   1       3.425  -0.893  -2.347  0.00  0.00    -0.061 A 
ATOM     34  H   LIG d   1       3.095   1.201  -2.062  0.00  0.00     0.062 H 
ATOM     35  C   LIG d   1       4.330  -1.872  -2.713  0.00  0.00    -0.058 A 
ATOM     36  H   LIG d   1       2.419  -1.166  -2.064  0.00  0.00     0.062 H 
ATOM     37  C   LIG d   1       5.615  -1.524  -3.081  0.00  0.00    -0.020 A 
ATOM     38  H   LIG d   1       4.032  -2.909  -2.711  0.00  0.00     0.062 H 
ATOM     39  H   LIG d   1       6.322  -2.289  -3.367  0.00  0.00     0.065 H 
ENDBRANCH  28  29
ENDBRANCH  25  28
ENDBRANCH  23  25
BRANCH  23  40
ATOM     40  O   LIG d   1       9.515   0.396  -4.488  0.00  0.00    -0.383 OA
ATOM     41  H   LIG d   1       9.631   0.129  -5.410  0.00  0.00     0.210 HD
ENDBRANCH  23  40
ENDBRANCH  20  23
ENDBRANCH  18  20
BRANCH   6  42
ATOM     42  O   LIG d   1      10.123   9.435  -1.201  0.00  0.00    -0.491 OA
BRANCH  42  43
ATOM     43  C   LIG d   1       8.874   9.762  -0.588  0.00  0.00     0.079 C 
ATOM     44  H   LIG d   1       9.026   9.932   0.478  0.00  0.00     0.066 H 
ATOM     45  H   LIG d   1       8.470  10.665  -1.045  0.00  0.00     0.066 H 
ATOM     46  H   LIG d   1       8.174   8.939  -0.728  0.00  0.00     0.066 H 
ENDBRANCH  42  43
ENDBRANCH   6  42
BRANCH   1  47
ATOM     47  O   LIG d   1      10.082  10.238  -3.838  0.00  0.00    -0.491 OA
BRANCH  47  48
ATOM     48  C   LIG d   1       9.375  10.630  -5.018  0.00  0.00     0.079 C 
ATOM     49  H   LIG d   1       9.326   9.787  -5.708  0.00  0.00     0.066 H 
ATOM     50  H   LIG d   1       8.366  10.941  -4.750  0.00  0.00     0.066 H 
ATOM     51  H   LIG d   1       9.897  11.459  -5.494  0.00  0.00     0.066 H 
ENDBRANCH  47  48
ENDBRANCH   1  47
TORSDOF 10
ENDMDL
MODEL 4
REMARK VINA RESULT:      -5.9      2.962      4.139
REMARK  10 active torsions:
REMARK  status: ('A' for Active; 'I' for Inactive)
REMARK    1  A    between atoms: C_1  and  O_2 
REMARK    2  A    between atoms: O_2  and  C_3 
REMARK    3  A    between atoms: C_8  and  O_9 
REMARK    4  A    between atoms: O_9  and  C_10 
REMARK    5  A    between atoms: C_14  and  C_15 
REMARK    6  A    between atoms: C_14  and  N_50 
REMARK    7  A    between atoms: C_15  and  C_17 
REMARK    8  A    between atoms: C_15  and  O_25 
REMARK    9  A    between atoms: C_17  and  O_18 
REMARK   10  A    between atoms: O_18  and  C_19 
ROOT
ATOM      1  C   LIG d   1       9.908   8.780  -7.521  0.00  0.00     0.162 A 
ATOM      2  C   LIG d   1      10.023   7.439  -7.844  0.00  0.00    -0.013 A 
ATOM      3  C   LIG d   1       9.879   6.467  -6.864  0.00  0.00    -0.030 A 
ATOM      4  C   LIG d   1       9.621   6.835  -5.561  0.00  0.00     0.004 A 
ATOM      5  C   LIG d   1       9.502   8.178  -5.233  0.00  0.00    -0.008 A 
ATOM      6  C   LIG d   1       9.643   9.152  -6.207  0.00  0.00     0.162 A 
ATOM      7  C   LIG d   1       9.464   5.815  -4.463  0.00  0.00    -0.005 C 
ATOM      8  C   LIG d   1      10.230   4.152  -6.029  0.00  0.00    -0.027 C 
ATOM      9  C   LIG d   1      10.005   5.020  -7.267  0.00  0.00     0.013 C 
ATOM     10  H   LIG d   1      10.227   7.147  -8.863  0.00  0.00     0.066 H 
ATOM     11  H   LIG d   1       9.298   8.466  -4.212  0.00  0.00     0.066 H 
ATOM     12  H   LIG d   1       8.629   6.103  -3.822  0.00  0.00     0.087 H 
ATOM     13  H   LIG d   1      10.376   5.781  -3.869  0.00  0.00     0.087 H 
ATOM     14  H   LIG d   1      11.220   4.349  -5.618  0.00  0.00     0.082 H 
ATOM     15  H   LIG d   1      10.146   3.099  -6.300  0.00  0.00     0.082 H 
ATOM     16  H   LIG d   1       9.090   4.703  -7.769  0.00  0.00     0.036 H 
ATOM     17  H   LIG d   1      10.849   4.905  -7.946  0.00  0.00     0.036 H 
ATOM     18  N   LIG d   1       9.184   4.491  -5.043  0.00  0.00     0.241 N 
ATOM     19  H   LIG d   1       8.273   4.517  -5.516  0.00  0.00     0.204 HD
ENDROOT
BRANCH  18  20
ATOM     20  C   LIG d   1       9.143   3.468  -3.974  0.00  0.00    -0.002 C 
ATOM     21  H   LIG d   1       8.232   3.574  -3.384  0.00  0.00     0.084 H 
ATOM     22  H   LIG d   1      10.011   3.591  -3.327  0.00  0.00     0.084 H 
BRANCH  20  23
ATOM     23  C   LIG d   1       9.176   2.078  -4.614  0.00  0.00     0.129 C 
ATOM     24  H   LIG d   1       9.588   2.151  -5.620  0.00  0.00     0.068 H 
BRANCH  23  25
ATOM     25  C   LIG d   1       7.755   1.514  -4.684  0.00  0.00     0.120 C 
ATOM     26  H   LIG d   1       7.800   0.445  -4.889  0.00  0.00     0.072 H 
ATOM     27  H   LIG d   1       7.205   2.014  -5.479  0.00  0.00     0.072 H 
BRANCH  25  28
ATOM     28  O   LIG d   1       7.095   1.733  -3.437  0.00  0.00    -0.489 OA
BRANCH  28  29
ATOM     29  C   LIG d   1       6.217   0.779  -3.028  0.00  0.00     0.121 A 
ATOM     30  C   LIG d   1       5.072   1.140  -2.332  0.00  0.00    -0.020 A 
ATOM     31  C   LIG d   1       4.181   0.170  -1.919  0.00  0.00    -0.058 A 
ATOM     32  H   LIG d   1       4.879   2.181  -2.114  0.00  0.00     0.065 H 
ATOM     33  C   LIG d   1       4.428  -1.162  -2.198  0.00  0.00    -0.061 A 
ATOM     34  H   LIG d   1       3.289   0.451  -1.377  0.00  0.00     0.062 H 
ATOM     35  C   LIG d   1       5.568  -1.525  -2.891  0.00  0.00    -0.058 A 
ATOM     36  H   LIG d   1       3.727  -1.919  -1.878  0.00  0.00     0.062 H 
ATOM     37  C   LIG d   1       6.462  -0.558  -3.307  0.00  0.00    -0.020 A 
ATOM     38  H   LIG d   1       5.759  -2.565  -3.108  0.00  0.00     0.062 H 
ATOM     39  H   LIG d   1       7.353  -0.842  -3.849  0.00  0.00     0.065 H 
ENDBRANCH  28  29
ENDBRANCH  25  28
ENDBRANCH  23  25
BRANCH  23  40
ATOM     40  O   LIG d   1       9.995   1.211  -3.826  0.00  0.00    -0.383 OA
ATOM     41  H   LIG d   1      10.857   1.585  -3.598  0.00  0.00     0.210 HD
ENDBRANCH  23  40
ENDBRANCH  20  23
ENDBRANCH  18  20
BRANCH   6  42
ATOM     42  O   LIG d   1       9.526  10.467  -5.879  0.00  0.00    -0.491 OA
BRANCH  42  43
ATOM     43  C   LIG d   1       9.217  10.771  -4.517  0.00  0.00     0.079 C 
ATOM     44  H   LIG d   1       9.808  11.629  -4.194  0.00  0.00     0.066 H 
ATOM     45  H   LIG d   1       8.157  11.006  -4.429  0.00  0.00     0.066 H 
ATOM     46  H   LIG d   1       9.452   9.912  -3.890  0.00  0.00     0.066 H 
ENDBRANCH  42  43
ENDBRANCH   6  42
BRANCH   1  47
ATOM     47  O   LIG d   1      10.049   9.729  -8.484  0.00  0.00    -0.491 OA
BRANCH  47  48
ATOM     48  C   LIG d   1      11.381  10.025  -8.911  0.00  0.00     0.079 C 
ATOM     49  H   LIG d   1      11.969   9.107  -8.929  0.00  0.00     0.066 H 
ATOM     50  H   LIG d   1      11.354  10.459  -9.911  0.00  0.00     0.066 H 
ATOM     51  H   LIG d   1      11.835  10.734  -8.219  0.00  0.00     0.066 H 
ENDBRANCH  47  48
ENDBRANCH   1  47
TORSDOF 10
ENDMDL
MODEL 5
REMARK VINA RESULT:      -5.8      1.665      3.044
REMARK  10 active torsions:
REMARK  status: ('A' for Active; 'I' for Inactive)
REMARK    1  A    between atoms: C_1  and  O_2 
REMARK    2  A    between atoms: O_2  and  C_3 
REMARK    3  A    between atoms: C_8  and  O_9 
REMARK    4  A    between atoms: O_9  and  C_10 
REMARK    5  A    between atoms: C_14  and  C_15 
REMARK    6  A    between atoms: C_14  and  N_50 
REMARK    7  A    between atoms: C_15  and  C_17 
REMARK    8  A    between atoms: C_15  and  O_25 
REMARK    9  A    between atoms: C_17  and  O_18 
REMARK   10  A    between atoms: O_18  and  C_19 
ROOT
ATOM      1  C   LIG d   1      10.383   8.300  -3.419  0.00  0.00     0.162 A 
ATOM      2  C   LIG d   1      10.728   7.153  -2.725  0.00  0.00    -0.013 A 
ATOM      3  C   LIG d   1      10.398   5.903  -3.228  0.00  0.00    -0.030 A 
ATOM      4  C   LIG d   1       9.719   5.798  -4.423  0.00  0.00     0.004 A 
ATOM      5  C   LIG d   1       9.372   6.945  -5.124  0.00  0.00    -0.008 A 
ATOM      6  C   LIG d   1       9.701   8.195  -4.628  0.00  0.00     0.162 A 
ATOM      7  C   LIG d   1       9.333   4.463  -5.004  0.00  0.00    -0.005 C 
ATOM      8  C   LIG d   1      10.012   3.466  -2.918  0.00  0.00    -0.027 C 
ATOM      9  C   LIG d   1      10.804   4.684  -2.440  0.00  0.00     0.013 C 
ATOM     10  H   LIG d   1      11.257   7.231  -1.787  0.00  0.00     0.066 H 
ATOM     11  H   LIG d   1       8.843   6.862  -6.062  0.00  0.00     0.066 H 
ATOM     12  H   LIG d   1       9.521   4.470  -6.079  0.00  0.00     0.087 H 
ATOM     13  H   LIG d   1       8.273   4.286  -4.827  0.00  0.00     0.087 H 
ATOM     14  H   LIG d   1       8.967   3.572  -2.629  0.00  0.00     0.082 H 
ATOM     15  H   LIG d   1      10.428   2.562  -2.473  0.00  0.00     0.082 H 
ATOM     16  H   LIG d   1      11.869   4.500  -2.581  0.00  0.00     0.036 H 
ATOM     17  H   LIG d   1      10.602   4.853  -1.383  0.00  0.00     0.036 H 
ATOM     18  N   LIG d   1      10.137   3.395  -4.388  0.00  0.00     0.241 N 
ATOM     19  H   LIG d   1      11.123   3.524  -4.647  0.00  0.00     0.204 HD
ENDROOT
BRANCH  18  20
ATOM     20  C   LIG d   1       9.682   2.073  -4.873  0.00  0.00    -0.002 C 
ATOM     21  H   LIG d   1      10.077   1.280  -4.237  0.00  0.00     0.084 H 
ATOM     22  H   LIG d   1      10.031   1.927  -5.895  0.00  0.00     0.084 H 
BRANCH  20  23
ATOM     23  C   LIG d   1       8.152   2.032  -4.845  0.00  0.00     0.129 C 
ATOM     24  H   LIG d   1       7.768   3.007  -4.543  0.00  0.00     0.068 H 
BRANCH  23  25
ATOM     25  C   LIG d   1       7.687   0.969  -3.849  0.00  0.00     0.120 C 
ATOM     26  H   LIG d   1       8.505   0.722  -3.173  0.00  0.00     0.072 H 
ATOM     27  H   LIG d   1       7.380   0.074  -4.390  0.00  0.00     0.072 H 
BRANCH  25  28
ATOM     28  O   LIG d   1       6.583   1.473  -3.096  0.00  0.00    -0.489 OA
BRANCH  28  29
ATOM     29  C   LIG d   1       5.530   0.633  -2.907  0.00  0.00     0.121 A 
ATOM     30  C   LIG d   1       5.730  -0.740  -2.897  0.00  0.00    -0.020 A 
ATOM     31  C   LIG d   1       4.659  -1.591  -2.704  0.00  0.00    -0.058 A 
ATOM     32  H   LIG d   1       6.722  -1.142  -3.040  0.00  0.00     0.065 H 
ATOM     33  C   LIG d   1       3.389  -1.076  -2.522  0.00  0.00    -0.061 A 
ATOM     34  H   LIG d   1       4.815  -2.660  -2.697  0.00  0.00     0.062 H 
ATOM     35  C   LIG d   1       3.187   0.292  -2.531  0.00  0.00    -0.058 A 
ATOM     36  H   LIG d   1       2.554  -1.743  -2.367  0.00  0.00     0.062 H 
ATOM     37  C   LIG d   1       4.255   1.148  -2.723  0.00  0.00    -0.020 A 
ATOM     38  H   LIG d   1       2.195   0.692  -2.388  0.00  0.00     0.062 H 
ATOM     39  H   LIG d   1       4.097   2.216  -2.730  0.00  0.00     0.065 H 
ENDBRANCH  28  29
ENDBRANCH  25  28
ENDBRANCH  23  25
BRANCH  23  40
ATOM     40  O   LIG d   1       7.661   1.711  -6.149  0.00  0.00    -0.383 OA
ATOM     41  H   LIG d   1       8.356   1.563  -6.805  0.00  0.00     0.210 HD
ENDBRANCH  23  40
ENDBRANCH  20  23
ENDBRANCH  18  20
BRANCH   6  42
ATOM     42  O   LIG d   1       9.359   9.315  -5.318  0.00  0.00    -0.491 OA
BRANCH  42  43
ATOM     43  C   LIG d   1      10.163   9.650  -6.452  0.00  0.00     0.079 C 
ATOM     44  H   LIG d   1      11.201   9.763  -6.140  0.00  0.00     0.066 H 
ATOM     45  H   LIG d   1      10.092   8.856  -7.195  0.00  0.00     0.066 H 
ATOM     46  H   LIG d   1       9.810  10.585  -6.885  0.00  0.00     0.066 H 
ENDBRANCH  42  43
ENDBRANCH   6  42
BRANCH   1  47
ATOM     47  O   LIG d   1      10.709   9.523  -2.923  0.00  0.00    -0.491 OA
BRANCH  47  48
ATOM     48  C   LIG d   1      10.641   9.686  -1.505  0.00  0.00     0.079 C 
ATOM     49  H   LIG d   1      11.643   9.609  -1.082  0.00  0.00     0.066 H 
ATOM     50  H   LIG d   1      10.223  10.665  -1.272  0.00  0.00     0.066 H 
ATOM     51  H   LIG d   1      10.006   8.909  -1.080  0.00  0.00     0.066 H 
ENDBRANCH  47  48
ENDBRANCH   1  47
TORSDOF 10
ENDMDL
MODEL 6
REMARK VINA RESULT:      -5.6      7.274     11.765
REMARK  10 active torsions:
REMARK  status: ('A' for Active; 'I' for Inactive)
REMARK    1  A    between atoms: C_1  and  O_2 
REMARK    2  A    between atoms: O_2  and  C_3 
REMARK    3  A    between atoms: C_8  and  O_9 
REMARK    4  A    between atoms: O_9  and  C_10 
REMARK    5  A    between atoms: C_14  and  C_15 
REMARK    6  A    between atoms: C_14  and  N_50 
REMARK    7  A    between atoms: C_15  and  C_17 
REMARK    8  A    between atoms: C_15  and  O_25 
REMARK    9  A    between atoms: C_17  and  O_18 
REMARK   10  A    between atoms: O_18  and  C_19 
ROOT
ATOM      1  C   LIG d   1       2.246  -1.742 -13.667  0.00  0.00     0.162 A 
ATOM      2  C   LIG d   1       1.541  -1.666 -12.478  0.00  0.00    -0.013 A 
ATOM      3  C   LIG d   1       2.109  -1.066 -11.364  0.00  0.00    -0.030 A 
ATOM      4  C   LIG d   1       3.382  -0.543 -11.436  0.00  0.00     0.004 A 
ATOM      5  C   LIG d   1       4.092  -0.614 -12.626  0.00  0.00    -0.008 A 
ATOM      6  C   LIG d   1       3.529  -1.210 -13.742  0.00  0.00     0.162 A 
ATOM      7  C   LIG d   1       4.040   0.112 -10.250  0.00  0.00    -0.005 C 
ATOM      8  C   LIG d   1       2.211  -0.698  -8.907  0.00  0.00    -0.027 C 
ATOM      9  C   LIG d   1       1.297  -1.000 -10.094  0.00  0.00     0.013 C 
ATOM     10  H   LIG d   1       0.545  -2.077 -12.417  0.00  0.00     0.066 H 
ATOM     11  H   LIG d   1       5.088  -0.201 -12.683  0.00  0.00     0.066 H 
ATOM     12  H   LIG d   1       4.559   1.014 -10.579  0.00  0.00     0.087 H 
ATOM     13  H   LIG d   1       4.762  -0.577  -9.813  0.00  0.00     0.087 H 
ATOM     14  H   LIG d   1       2.853  -1.557  -8.710  0.00  0.00     0.082 H 
ATOM     15  H   LIG d   1       1.606  -0.479  -8.026  0.00  0.00     0.082 H 
ATOM     16  H   LIG d   1       0.548  -0.213 -10.184  0.00  0.00     0.036 H 
ATOM     17  H   LIG d   1       0.801  -1.956  -9.933  0.00  0.00     0.036 H 
ATOM     18  N   LIG d   1       3.024   0.485  -9.252  0.00  0.00     0.241 N 
ATOM     19  H   LIG d   1       2.412   1.208  -9.650  0.00  0.00     0.204 HD
ENDROOT
BRANCH  18  20
ATOM     20  C   LIG d   1       3.678   1.024  -8.039  0.00  0.00    -0.002 C 
ATOM     21  H   LIG d   1       3.032   0.893  -7.171  0.00  0.00     0.084 H 
ATOM     22  H   LIG d   1       3.882   2.085  -8.183  0.00  0.00     0.084 H 
BRANCH  20  23
ATOM     23  C   LIG d   1       4.995   0.278  -7.810  0.00  0.00     0.129 C 
ATOM     24  H   LIG d   1       5.206  -0.359  -8.669  0.00  0.00     0.068 H 
BRANCH  23  25
ATOM     25  C   LIG d   1       4.882  -0.583  -6.551  0.00  0.00     0.120 C 
ATOM     26  H   LIG d   1       5.873  -0.734  -6.125  0.00  0.00     0.072 H 
ATOM     27  H   LIG d   1       4.446  -1.547  -6.809  0.00  0.00     0.072 H 
BRANCH  25  28
ATOM     28  O   LIG d   1       4.049   0.077  -5.596  0.00  0.00    -0.489 OA
BRANCH  28  29
ATOM     29  C   LIG d   1       4.151  -0.329  -4.303  0.00  0.00     0.121 A 
ATOM     30  C   LIG d   1       4.004  -1.671  -3.982  0.00  0.00    -0.020 A 
ATOM     31  C   LIG d   1       4.110  -2.082  -2.668  0.00  0.00    -0.058 A 
ATOM     32  H   LIG d   1       3.807  -2.394  -4.760  0.00  0.00     0.065 H 
ATOM     33  C   LIG d   1       4.362  -1.156  -1.671  0.00  0.00    -0.061 A 
ATOM     34  H   LIG d   1       3.995  -3.126  -2.418  0.00  0.00     0.062 H 
ATOM     35  C   LIG d   1       4.509   0.181  -1.988  0.00  0.00    -0.058 A 
ATOM     36  H   LIG d   1       4.448  -1.481  -0.644  0.00  0.00     0.062 H 
ATOM     37  C   LIG d   1       4.405   0.597  -3.302  0.00  0.00    -0.020 A 
ATOM     38  H   LIG d   1       4.706   0.901  -1.208  0.00  0.00     0.062 H 
ATOM     39  H   LIG d   1       4.520   1.642  -3.548  0.00  0.00     0.065 H 
ENDBRANCH  28  29
ENDBRANCH  25  28
ENDBRANCH  23  25
BRANCH  23  40
ATOM     40  O   LIG d   1       6.055   1.223  -7.647  0.00  0.00    -0.383 OA
ATOM     41  H   LIG d   1       6.080   1.640  -6.775  0.00  0.00     0.210 HD
ENDBRANCH  23  40
ENDBRANCH  20  23
ENDBRANCH  18  20
BRANCH   6  42
ATOM     42  O   LIG d   1       4.230  -1.277 -14.906  0.00  0.00    -0.491 OA
BRANCH  42  43
ATOM     43  C   LIG d   1       4.337  -0.073 -15.669  0.00  0.00     0.079 C 
ATOM     44  H   LIG d   1       4.665   0.740 -15.020  0.00  0.00     0.066 H 
ATOM     45  H   LIG d   1       5.062  -0.213 -16.470  0.00  0.00     0.066 H 
ATOM     46  H   LIG d   1       3.366   0.174 -16.097  0.00  0.00     0.066 H 
ENDBRANCH  42  43
ENDBRANCH   6  42
BRANCH   1  47
ATOM     47  O   LIG d   1       1.686  -2.330 -14.757  0.00  0.00    -0.491 OA
BRANCH  47  48
ATOM     48  C   LIG d   1       1.280  -3.694 -14.621  0.00  0.00     0.079 C 
ATOM     49  H   LIG d   1       0.647  -3.971 -15.464  0.00  0.00     0.066 H 
ATOM     50  H   LIG d   1       2.161  -4.335 -14.602  0.00  0.00     0.066 H 
ATOM     51  H   LIG d   1       0.723  -3.815 -13.692  0.00  0.00     0.066 H 
ENDBRANCH  47  48
ENDBRANCH   1  47
TORSDOF 10
ENDMDL
MODEL 7
REMARK VINA RESULT:      -5.6      3.157      4.815
REMARK  10 active torsions:
REMARK  status: ('A' for Active; 'I' for Inactive)
REMARK    1  A    between atoms: C_1  and  O_2 
REMARK    2  A    between atoms: O_2  and  C_3 
REMARK    3  A    between atoms: C_8  and  O_9 
REMARK    4  A    between atoms: O_9  and  C_10 
REMARK    5  A    between atoms: C_14  and  C_15 
REMARK    6  A    between atoms: C_14  and  N_50 
REMARK    7  A    between atoms: C_15  and  C_17 
REMARK    8  A    between atoms: C_15  and  O_25 
REMARK    9  A    between atoms: C_17  and  O_18 
REMARK   10  A    between atoms: O_18  and  C_19 
ROOT
ATOM      1  C   LIG d   1       9.544   8.224  -7.745  0.00  0.00     0.162 A 
ATOM      2  C   LIG d   1       9.585   7.999  -6.380  0.00  0.00    -0.013 A 
ATOM      3  C   LIG d   1       9.682   6.707  -5.886  0.00  0.00    -0.030 A 
ATOM      4  C   LIG d   1       9.736   5.638  -6.754  0.00  0.00     0.004 A 
ATOM      5  C   LIG d   1       9.698   5.858  -8.124  0.00  0.00    -0.008 A 
ATOM      6  C   LIG d   1       9.603   7.146  -8.623  0.00  0.00     0.162 A 
ATOM      7  C   LIG d   1       9.835   4.218  -6.262  0.00  0.00    -0.005 C 
ATOM      8  C   LIG d   1       9.422   5.059  -4.042  0.00  0.00    -0.027 C 
ATOM      9  C   LIG d   1       9.732   6.515  -4.391  0.00  0.00     0.013 C 
ATOM     10  H   LIG d   1       9.540   8.834  -5.697  0.00  0.00     0.066 H 
ATOM     11  H   LIG d   1       9.743   5.021  -8.804  0.00  0.00     0.066 H 
ATOM     12  H   LIG d   1      10.552   3.673  -6.878  0.00  0.00     0.087 H 
ATOM     13  H   LIG d   1       8.859   3.740  -6.341  0.00  0.00     0.087 H 
ATOM     14  H   LIG d   1       8.374   4.847  -4.253  0.00  0.00     0.082 H 
ATOM     15  H   LIG d   1       9.629   4.883  -2.986  0.00  0.00     0.082 H 
ATOM     16  H   LIG d   1      10.728   6.769  -4.026  0.00  0.00     0.036 H 
ATOM     17  H   LIG d   1       8.996   7.163  -3.918  0.00  0.00     0.036 H 
ATOM     18  N   LIG d   1      10.298   4.200  -4.865  0.00  0.00     0.241 N 
ATOM     19  H   LIG d   1      11.257   4.564  -4.824  0.00  0.00     0.204 HD
ENDROOT
BRANCH  18  20
ATOM     20  C   LIG d   1      10.286   2.815  -4.344  0.00  0.00    -0.002 C 
ATOM     21  H   LIG d   1      10.223   2.821  -3.255  0.00  0.00     0.084 H 
ATOM     22  H   LIG d   1      11.201   2.309  -4.652  0.00  0.00     0.084 H 
BRANCH  20  23
ATOM     23  C   LIG d   1       9.076   2.076  -4.920  0.00  0.00     0.129 C 
ATOM     24  H   LIG d   1       8.602   2.695  -5.681  0.00  0.00     0.068 H 
BRANCH  23  25
ATOM     25  C   LIG d   1       8.074   1.786  -3.801  0.00  0.00     0.120 C 
ATOM     26  H   LIG d   1       7.830   2.713  -3.283  0.00  0.00     0.072 H 
ATOM     27  H   LIG d   1       8.512   1.080  -3.096  0.00  0.00     0.072 H 
BRANCH  25  28
ATOM     28  O   LIG d   1       6.886   1.225  -4.360  0.00  0.00    -0.489 OA
BRANCH  28  29
ATOM     29  C   LIG d   1       6.064   0.551  -3.513  0.00  0.00     0.121 A 
ATOM     30  C   LIG d   1       5.265   1.248  -2.618  0.00  0.00    -0.020 A 
ATOM     31  C   LIG d   1       4.429   0.562  -1.759  0.00  0.00    -0.058 A 
ATOM     32  H   LIG d   1       5.296   2.328  -2.595  0.00  0.00     0.065 H 
ATOM     33  C   LIG d   1       4.390  -0.821  -1.789  0.00  0.00    -0.061 A 
ATOM     34  H   LIG d   1       3.807   1.104  -1.063  0.00  0.00     0.062 H 
ATOM     35  C   LIG d   1       5.185  -1.518  -2.679  0.00  0.00    -0.058 A 
ATOM     36  H   LIG d   1       3.732  -1.355  -1.119  0.00  0.00     0.062 H 
ATOM     37  C   LIG d   1       6.021  -0.836  -3.542  0.00  0.00    -0.020 A 
ATOM     38  H   LIG d   1       5.152  -2.597  -2.701  0.00  0.00     0.062 H 
ATOM     39  H   LIG d   1       6.643  -1.381  -4.237  0.00  0.00     0.065 H 
ENDBRANCH  28  29
ENDBRANCH  25  28
ENDBRANCH  23  25
BRANCH  23  40
ATOM     40  O   LIG d   1       9.505   0.846  -5.507  0.00  0.00    -0.383 OA
ATOM     41  H   LIG d   1       9.679   0.143  -4.865  0.00  0.00     0.210 HD
ENDBRANCH  23  40
ENDBRANCH  20  23
ENDBRANCH  18  20
BRANCH   6  42
ATOM     42  O   LIG d   1       9.566   7.356  -9.967  0.00  0.00    -0.491 OA
BRANCH  42  43
ATOM     43  C   LIG d   1      10.140   6.345 -10.798  0.00  0.00     0.079 C 
ATOM     44  H   LIG d   1      10.179   6.700 -11.827  0.00  0.00     0.066 H 
ATOM     45  H   LIG d   1      11.149   6.121 -10.452  0.00  0.00     0.066 H 
ATOM     46  H   LIG d   1       9.531   5.443 -10.747  0.00  0.00     0.066 H 
ENDBRANCH  42  43
ENDBRANCH   6  42
BRANCH   1  47
ATOM     47  O   LIG d   1       9.450   9.492  -8.227  0.00  0.00    -0.491 OA
BRANCH  47  48
ATOM     48  C   LIG d   1      10.138  10.514  -7.501  0.00  0.00     0.079 C 
ATOM     49  H   LIG d   1       9.439  11.308  -7.240  0.00  0.00     0.066 H 
ATOM     50  H   LIG d   1      10.563  10.090  -6.591  0.00  0.00     0.066 H 
ATOM     51  H   LIG d   1      10.937  10.922  -8.120  0.00  0.00     0.066 H 
ENDBRANCH  47  48
ENDBRANCH   1  47
TORSDOF 10
ENDMDL
MODEL 8
REMARK VINA RESULT:      -5.3      2.470      3.894
REMARK  10 active torsions:
REMARK  status: ('A' for Active; 'I' for Inactive)
REMARK    1  A    between atoms: C_1  and  O_2 
REMARK    2  A    between atoms: O_2  and  C_3 
REMARK    3  A    between atoms: C_8  and  O_9 
REMARK    4  A    between atoms: O_9  and  C_10 
REMARK    5  A    between atoms: C_14  and  C_15 
REMARK    6  A    between atoms: C_14  and  N_50 
REMARK    7  A    between atoms: C_15  and  C_17 
REMARK    8  A    between atoms: C_15  and  O_25 
REMARK    9  A    between atoms: C_17  and  O_18 
REMARK   10  A    between atoms: O_18  and  C_19 
ROOT
ATOM      1  C   LIG d   1      11.138   3.966  -3.017  0.00  0.00     0.162 A 
ATOM      2  C   LIG d   1       9.797   3.657  -3.169  0.00  0.00    -0.013 A 
ATOM      3  C   LIG d   1       9.416   2.476  -3.788  0.00  0.00    -0.030 A 
ATOM      4  C   LIG d   1      10.373   1.604  -4.259  0.00  0.00     0.004 A 
ATOM      5  C   LIG d   1      11.719   1.908  -4.108  0.00  0.00    -0.008 A 
ATOM      6  C   LIG d   1      12.105   3.085  -3.489  0.00  0.00     0.162 A 
ATOM      7  C   LIG d   1      10.006   0.314  -4.944  0.00  0.00    -0.005 C 
ATOM      8  C   LIG d   1       7.723   1.086  -4.965  0.00  0.00    -0.027 C 
ATOM      9  C   LIG d   1       7.943   2.181  -3.920  0.00  0.00     0.013 C 
ATOM     10  H   LIG d   1       9.045   4.340  -2.803  0.00  0.00     0.066 H 
ATOM     11  H   LIG d   1      12.469   1.224  -4.475  0.00  0.00     0.066 H 
ATOM     12  H   LIG d   1      10.662  -0.481  -4.590  0.00  0.00     0.087 H 
ATOM     13  H   LIG d   1      10.130   0.429  -6.020  0.00  0.00     0.087 H 
ATOM     14  H   LIG d   1       7.956   1.473  -5.956  0.00  0.00     0.082 H 
ATOM     15  H   LIG d   1       6.685   0.753  -4.933  0.00  0.00     0.082 H 
ATOM     16  H   LIG d   1       7.553   1.847  -2.958  0.00  0.00     0.036 H 
ATOM     17  H   LIG d   1       7.419   3.084  -4.230  0.00  0.00     0.036 H 
ATOM     18  N   LIG d   1       8.613  -0.044  -4.629  0.00  0.00     0.241 N 
ATOM     19  H   LIG d   1       8.536  -0.244  -3.624  0.00  0.00     0.204 HD
ENDROOT
BRANCH  18  20
ATOM     20  C   LIG d   1       8.213  -1.248  -5.391  0.00  0.00    -0.002 C 
ATOM     21  H   LIG d   1       8.068  -2.092  -4.716  0.00  0.00     0.084 H 
ATOM     22  H   LIG d   1       8.994  -1.490  -6.112  0.00  0.00     0.084 H 
BRANCH  20  23
ATOM     23  C   LIG d   1       6.906  -0.958  -6.132  0.00  0.00     0.129 C 
ATOM     24  H   LIG d   1       6.643   0.092  -6.006  0.00  0.00     0.068 H 
BRANCH  23  25
ATOM     25  C   LIG d   1       5.790  -1.836  -5.562  0.00  0.00     0.120 C 
ATOM     26  H   LIG d   1       5.961  -2.873  -5.850  0.00  0.00     0.072 H 
ATOM     27  H   LIG d   1       4.831  -1.503  -5.955  0.00  0.00     0.072 H 
BRANCH  25  28
ATOM     28  O   LIG d   1       5.784  -1.733  -4.137  0.00  0.00    -0.489 OA
BRANCH  28  29
ATOM     29  C   LIG d   1       5.022  -0.746  -3.594  0.00  0.00     0.121 A 
ATOM     30  C   LIG d   1       3.880  -0.310  -4.249  0.00  0.00    -0.020 A 
ATOM     31  C   LIG d   1       3.107   0.691  -3.695  0.00  0.00    -0.058 A 
ATOM     32  H   LIG d   1       3.595  -0.754  -5.192  0.00  0.00     0.065 H 
ATOM     33  C   LIG d   1       3.471   1.260  -2.488  0.00  0.00    -0.061 A 
ATOM     34  H   LIG d   1       2.217   1.030  -4.205  0.00  0.00     0.062 H 
ATOM     35  C   LIG d   1       4.608   0.827  -1.833  0.00  0.00    -0.058 A 
ATOM     36  H   LIG d   1       2.862   2.039  -2.054  0.00  0.00     0.062 H 
ATOM     37  C   LIG d   1       5.385  -0.175  -2.383  0.00  0.00    -0.020 A 
ATOM     38  H   LIG d   1       4.891   1.272  -0.891  0.00  0.00     0.062 H 
ATOM     39  H   LIG d   1       6.274  -0.513  -1.871  0.00  0.00     0.065 H 
ENDBRANCH  28  29
ENDBRANCH  25  28
ENDBRANCH  23  25
BRANCH  23  40
ATOM     40  O   LIG d   1       7.074  -1.243  -7.522  0.00  0.00    -0.383 OA
ATOM     41  H   LIG d   1       6.827  -0.513  -8.106  0.00  0.00     0.210 HD
ENDBRANCH  23  40
ENDBRANCH  20  23
ENDBRANCH  18  20
BRANCH   6  42
ATOM     42  O   LIG d   1      13.426   3.378  -3.344  0.00  0.00    -0.491 OA
BRANCH  42  43
ATOM     43  C   LIG d   1      14.362   2.400  -3.803  0.00  0.00     0.079 C 
ATOM     44  H   LIG d   1      14.543   2.542  -4.868  0.00  0.00     0.066 H 
ATOM     45  H   LIG d   1      15.299   2.509  -3.257  0.00  0.00     0.066 H 
ATOM     46  H   LIG d   1      13.957   1.402  -3.633  0.00  0.00     0.066 H 
ENDBRANCH  42  43
ENDBRANCH   6  42
BRANCH   1  47
ATOM     47  O   LIG d   1      11.508   5.124  -2.409  0.00  0.00    -0.491 OA
BRANCH  47  48
ATOM     48  C   LIG d   1      11.442   5.157  -0.982  0.00  0.00     0.079 C 
ATOM     49  H   LIG d   1      10.800   4.349  -0.629  0.00  0.00     0.066 H 
ATOM     50  H   LIG d   1      12.443   5.032  -0.569  0.00  0.00     0.066 H 
ATOM     51  H   LIG d   1      11.032   6.114  -0.659  0.00  0.00     0.066 H 
ENDBRANCH  47  48
ENDBRANCH   1  47
TORSDOF 10
ENDMDL
MODEL 9
REMARK VINA RESULT:      -5.3      3.069      4.741
REMARK  10 active torsions:
REMARK  status: ('A' for Active; 'I' for Inactive)
REMARK    1  A    between atoms: C_1  and  O_2 
REMARK    2  A    between atoms: O_2  and  C_3 
REMARK    3  A    between atoms: C_8  and  O_9 
REMARK    4  A    between atoms: O_9  and  C_10 
REMARK    5  A    between atoms: C_14  and  C_15 
REMARK    6  A    between atoms: C_14  and  N_50 
REMARK    7  A    between atoms: C_15  and  C_17 
REMARK    8  A    between atoms: C_15  and  O_25 
REMARK    9  A    between atoms: C_17  and  O_18 
REMARK   10  A    between atoms: O_18  and  C_19 
ROOT
ATOM      1  C   LIG d   1      10.033   4.701  -5.060  0.00  0.00     0.162 A 
ATOM      2  C   LIG d   1       9.421   3.781  -4.227  0.00  0.00    -0.013 A 
ATOM      3  C   LIG d   1       8.781   2.671  -4.759  0.00  0.00    -0.030 A 
ATOM      4  C   LIG d   1       8.751   2.481  -6.124  0.00  0.00     0.004 A 
ATOM      5  C   LIG d   1       9.365   3.399  -6.963  0.00  0.00    -0.008 A 
ATOM      6  C   LIG d   1      10.007   4.507  -6.438  0.00  0.00     0.162 A 
ATOM      7  C   LIG d   1       8.063   1.294  -6.746  0.00  0.00    -0.005 C 
ATOM      8  C   LIG d   1       7.156   0.798  -4.569  0.00  0.00    -0.027 C 
ATOM      9  C   LIG d   1       8.136   1.693  -3.810  0.00  0.00     0.013 C 
ATOM     10  H   LIG d   1       9.440   3.928  -3.158  0.00  0.00     0.066 H 
ATOM     11  H   LIG d   1       9.344   3.248  -8.032  0.00  0.00     0.066 H 
ATOM     12  H   LIG d   1       8.683   0.900  -7.552  0.00  0.00     0.087 H 
ATOM     13  H   LIG d   1       7.102   1.608  -7.154  0.00  0.00     0.087 H 
ATOM     14  H   LIG d   1       6.297   1.387  -4.891  0.00  0.00     0.082 H 
ATOM     15  H   LIG d   1       6.826  -0.015  -3.922  0.00  0.00     0.082 H 
ATOM     16  H   LIG d   1       8.907   1.075  -3.349  0.00  0.00     0.036 H 
ATOM     17  H   LIG d   1       7.599   2.240  -3.036  0.00  0.00     0.036 H 
ATOM     18  N   LIG d   1       7.866   0.240  -5.738  0.00  0.00     0.241 N 
ATOM     19  H   LIG d   1       8.783  -0.111  -5.436  0.00  0.00     0.204 HD
ENDROOT
BRANCH  18  20
ATOM     20  C   LIG d   1       7.089  -0.879  -6.317  0.00  0.00    -0.002 C 
ATOM     21  H   LIG d   1       6.949  -1.666  -5.576  0.00  0.00     0.084 H 
ATOM     22  H   LIG d   1       7.627  -1.280  -7.176  0.00  0.00     0.084 H 
BRANCH  20  23
ATOM     23  C   LIG d   1       5.724  -0.355  -6.769  0.00  0.00     0.129 C 
ATOM     24  H   LIG d   1       5.567   0.645  -6.366  0.00  0.00     0.068 H 
BRANCH  23  25
ATOM     25  C   LIG d   1       4.625  -1.289  -6.259  0.00  0.00     0.120 C 
ATOM     26  H   LIG d   1       5.061  -2.035  -5.595  0.00  0.00     0.072 H 
ATOM     27  H   LIG d   1       4.152  -1.788  -7.104  0.00  0.00     0.072 H 
BRANCH  25  28
ATOM     28  O   LIG d   1       3.648  -0.530  -5.546  0.00  0.00    -0.489 OA
BRANCH  28  29
ATOM     29  C   LIG d   1       3.871  -0.327  -4.221  0.00  0.00     0.121 A 
ATOM     30  C   LIG d   1       4.359  -1.360  -3.433  0.00  0.00    -0.020 A 
ATOM     31  C   LIG d   1       4.586  -1.152  -2.086  0.00  0.00    -0.058 A 
ATOM     32  H   LIG d   1       4.562  -2.325  -3.873  0.00  0.00     0.065 H 
ATOM     33  C   LIG d   1       4.327   0.084  -1.523  0.00  0.00    -0.061 A 
ATOM     34  H   LIG d   1       4.967  -1.956  -1.473  0.00  0.00     0.062 H 
ATOM     35  C   LIG d   1       3.840   1.114  -2.305  0.00  0.00    -0.058 A 
ATOM     36  H   LIG d   1       4.509   0.245  -0.470  0.00  0.00     0.062 H 
ATOM     37  C   LIG d   1       3.612   0.912  -3.653  0.00  0.00    -0.020 A 
ATOM     38  H   LIG d   1       3.638   2.078  -1.863  0.00  0.00     0.062 H 
ATOM     39  H   LIG d   1       3.231   1.717  -4.264  0.00  0.00     0.065 H 
ENDBRANCH  28  29
ENDBRANCH  25  28
ENDBRANCH  23  25
BRANCH  23  40
ATOM     40  O   LIG d   1       5.682  -0.305  -8.197  0.00  0.00    -0.383 OA
ATOM     41  H   LIG d   1       4.811  -0.088  -8.557  0.00  0.00     0.210 HD
ENDBRANCH  23  40
ENDBRANCH  20  23
ENDBRANCH  18  20
BRANCH   6  42
ATOM     42  O   LIG d   1      10.608   5.405  -7.265  0.00  0.00    -0.491 OA
BRANCH  42  43
ATOM     43  C   LIG d   1       9.752   6.223  -8.066  0.00  0.00     0.079 C 
ATOM     44  H   LIG d   1       9.782   5.878  -9.099  0.00  0.00     0.066 H 
ATOM     45  H   LIG d   1       8.731   6.158  -7.691  0.00  0.00     0.066 H 
ATOM     46  H   LIG d   1      10.091   7.258  -8.019  0.00  0.00     0.066 H 
ENDBRANCH  42  43
ENDBRANCH   6  42
BRANCH   1  47
ATOM     47  O   LIG d   1      10.660   5.787  -4.535  0.00  0.00    -0.491 OA
BRANCH  47  48
ATOM     48  C   LIG d   1      11.884   5.553  -3.834  0.00  0.00     0.079 C 
ATOM     49  H   LIG d   1      12.019   6.322  -3.073  0.00  0.00     0.066 H 
ATOM     50  H   LIG d   1      11.849   4.574  -3.359  0.00  0.00     0.066 H 
ATOM     51  H   LIG d   1      12.716   5.588  -4.537  0.00  0.00     0.066 H 
ENDBRANCH  47  48
ENDBRANCH   1  47
TORSDOF 10
ENDMDL
MODEL 10
REMARK VINA RESULT:      -5.2      7.905     12.724
REMARK  10 active torsions:
REMARK  status: ('A' for Active; 'I' for Inactive)
REMARK    1  A    between atoms: C_1  and  O_2 
REMARK    2  A    between atoms: O_2  and  C_3 
REMARK    3  A    between atoms: C_8  and  O_9 
REMARK    4  A    between atoms: O_9  and  C_10 
REMARK    5  A    between atoms: C_14  and  C_15 
REMARK    6  A    between atoms: C_14  and  N_50 
REMARK    7  A    between atoms: C_15  and  C_17 
REMARK    8  A    between atoms: C_15  and  O_25 
REMARK    9  A    between atoms: C_17  and  O_18 
REMARK   10  A    between atoms: O_18  and  C_19 
ROOT
ATOM      1  C   LIG d   1       1.928  -5.765 -10.880  0.00  0.00     0.162 A 
ATOM      2  C   LIG d   1       3.044  -4.960 -10.725  0.00  0.00    -0.013 A 
ATOM      3  C   LIG d   1       2.900  -3.603 -10.477  0.00  0.00    -0.030 A 
ATOM      4  C   LIG d   1       1.642  -3.048 -10.385  0.00  0.00     0.004 A 
ATOM      5  C   LIG d   1       0.520  -3.851 -10.537  0.00  0.00    -0.008 A 
ATOM      6  C   LIG d   1       0.658  -5.206 -10.783  0.00  0.00     0.162 A 
ATOM      7  C   LIG d   1       1.438  -1.579 -10.123  0.00  0.00    -0.005 C 
ATOM      8  C   LIG d   1       3.806  -1.287 -10.459  0.00  0.00    -0.027 C 
ATOM      9  C   LIG d   1       4.146  -2.770 -10.307  0.00  0.00     0.013 C 
ATOM     10  H   LIG d   1       4.031  -5.391 -10.799  0.00  0.00     0.066 H 
ATOM     11  H   LIG d   1      -0.466  -3.416 -10.462  0.00  0.00     0.066 H 
ATOM     12  H   LIG d   1       0.629  -1.450  -9.403  0.00  0.00     0.087 H 
ATOM     13  H   LIG d   1       1.171  -1.080 -11.055  0.00  0.00     0.087 H 
ATOM     14  H   LIG d   1       3.544  -1.075 -11.495  0.00  0.00     0.082 H 
ATOM     15  H   LIG d   1       4.665  -0.683 -10.164  0.00  0.00     0.082 H 
ATOM     16  H   LIG d   1       4.566  -2.946  -9.317  0.00  0.00     0.036 H 
ATOM     17  H   LIG d   1       4.875  -3.052 -11.066  0.00  0.00     0.036 H 
ATOM     18  N   LIG d   1       2.667  -0.991  -9.566  0.00  0.00     0.241 N 
ATOM     19  H   LIG d   1       2.849  -1.404  -8.643  0.00  0.00     0.204 HD
ENDROOT
BRANCH  18  20
ATOM     20  C   LIG d   1       2.507   0.472  -9.415  0.00  0.00    -0.002 C 
ATOM     21  H   LIG d   1       1.455   0.727  -9.287  0.00  0.00     0.084 H 
ATOM     22  H   LIG d   1       2.896   0.968 -10.304  0.00  0.00     0.084 H 
BRANCH  20  23
ATOM     23  C   LIG d   1       3.296   0.935  -8.188  0.00  0.00     0.129 C 
ATOM     24  H   LIG d   1       4.357   0.980  -8.433  0.00  0.00     0.068 H 
BRANCH  23  25
ATOM     25  C   LIG d   1       3.078  -0.051  -7.039  0.00  0.00     0.120 C 
ATOM     26  H   LIG d   1       3.275  -1.064  -7.388  0.00  0.00     0.072 H 
ATOM     27  H   LIG d   1       2.049   0.019  -6.690  0.00  0.00     0.072 H 
BRANCH  25  28
ATOM     28  O   LIG d   1       3.968   0.264  -5.966  0.00  0.00    -0.489 OA
BRANCH  28  29
ATOM     29  C   LIG d   1       3.868  -0.491  -4.840  0.00  0.00     0.121 A 
ATOM     30  C   LIG d   1       4.688  -1.597  -4.670  0.00  0.00    -0.020 A 
ATOM     31  C   LIG d   1       4.586  -2.362  -3.525  0.00  0.00    -0.058 A 
ATOM     32  H   LIG d   1       5.407  -1.859  -5.433  0.00  0.00     0.065 H 
ATOM     33  C   LIG d   1       3.666  -2.027  -2.548  0.00  0.00    -0.061 A 
ATOM     34  H   LIG d   1       5.225  -3.223  -3.392  0.00  0.00     0.062 H 
ATOM     35  C   LIG d   1       2.848  -0.926  -2.715  0.00  0.00    -0.058 A 
ATOM     36  H   LIG d   1       3.591  -2.624  -1.651  0.00  0.00     0.062 H 
ATOM     37  C   LIG d   1       2.946  -0.156  -3.859  0.00  0.00    -0.020 A 
ATOM     38  H   LIG d   1       2.130  -0.666  -1.951  0.00  0.00     0.062 H 
ATOM     39  H   LIG d   1       2.306   0.704  -3.989  0.00  0.00     0.065 H 
ENDBRANCH  28  29
ENDBRANCH  25  28
ENDBRANCH  23  25
BRANCH  23  40
ATOM     40  O   LIG d   1       2.844   2.233  -7.794  0.00  0.00    -0.383 OA
ATOM     41  H   LIG d   1       3.556   2.842  -7.556  0.00  0.00     0.210 HD
ENDBRANCH  23  40
ENDBRANCH  20  23
ENDBRANCH  18  20
BRANCH   6  42
ATOM     42  O   LIG d   1      -0.445  -5.988 -10.931  0.00  0.00    -0.491 OA
BRANCH  42  43
ATOM     43  C   LIG d   1      -1.138  -6.366  -9.739  0.00  0.00     0.079 C 
ATOM     44  H   LIG d   1      -0.555  -7.114  -9.202  0.00  0.00     0.066 H 
ATOM     45  H   LIG d   1      -1.276  -5.490  -9.106  0.00  0.00     0.066 H 
ATOM     46  H   LIG d   1      -2.110  -6.783 -10.000  0.00  0.00     0.066 H 
ENDBRANCH  42  43
ENDBRANCH   6  42
BRANCH   1  47
ATOM     47  O   LIG d   1       2.073  -7.094 -11.123  0.00  0.00    -0.491 OA
BRANCH  47  48
ATOM     48  C   LIG d   1       3.255  -7.720 -10.618  0.00  0.00     0.079 C 
ATOM     49  H   LIG d   1       2.977  -8.526  -9.938  0.00  0.00     0.066 H 
ATOM     50  H   LIG d   1       3.833  -8.127 -11.448  0.00  0.00     0.066 H 
ATOM     51  H   LIG d   1       3.855  -6.984 -10.084  0.00  0.00     0.066 H 
ENDBRANCH  47  48
ENDBRANCH   1  47
TORSDOF 10
ENDMDL
