MODEL 1
REMARK VINA RESULT:      -6.8      0.000      0.000
REMARK  3 active torsions:
REMARK  status: ('A' for Active; 'I' for Inactive)
REMARK    1  A    between atoms: C_3  and  C_6 
REMARK    2  A    between atoms: C_6  and  N_7 
REMARK    3  A    between atoms: C_17  and  C_18 
ROOT
ATOM      1  N   LIG d   1       6.086  -3.349  -4.783  0.00  0.00    -0.261 N 
ATOM      2  C   LIG d   1       5.668  -2.807  -6.084  0.00  0.00     0.034 C 
ATOM      3  C   LIG d   1       4.955  -3.878  -6.871  0.00  0.00     0.051 A 
ATOM      4  C   LIG d   1       5.077  -5.213  -6.527  0.00  0.00     0.130 A 
ATOM      5  C   LIG d   1       4.415  -6.195  -7.266  0.00  0.00    -0.019 A 
ATOM      6  C   LIG d   1       3.637  -5.847  -8.333  0.00  0.00    -0.044 A 
ATOM      7  C   LIG d   1       3.504  -4.504  -8.687  0.00  0.00     0.068 A 
ATOM      8  C   LIG d   1       4.166  -3.507  -7.954  0.00  0.00     0.147 A 
ATOM      9  O   LIG d   1       3.889  -2.293  -8.480  0.00  0.00    -0.451 OA
ATOM     10  C   LIG d   1       3.064  -2.384  -9.549  0.00  0.00     0.176 A 
ATOM     11  C   LIG d   1       2.601  -1.352 -10.293  0.00  0.00    -0.008 C 
ATOM     12  C   LIG d   1       2.760  -3.813  -9.755  0.00  0.00     0.232 A 
ATOM     13  O   LIG d   1       2.052  -4.309 -10.614  0.00  0.00    -0.283 OA
ATOM     14  O   LIG d   1       5.843  -5.593  -5.467  0.00  0.00    -0.476 OA
ATOM     15  C   LIG d   1       6.779  -4.635  -4.968  0.00  0.00     0.144 C 
ATOM     16  H   LIG d   1       4.990  -1.956  -5.926  0.00  0.00     0.048 H 
ATOM     17  H   LIG d   1       6.554  -2.472  -6.642  0.00  0.00     0.048 H 
ATOM     18  H   LIG d   1       4.519  -7.234  -6.991  0.00  0.00     0.065 H 
ATOM     19  H   LIG d   1       3.126  -6.611  -8.900  0.00  0.00     0.063 H 
ATOM     20  H   LIG d   1       2.001  -1.548 -11.194  0.00  0.00     0.066 H 
ATOM     21  H   LIG d   1       7.602  -4.507  -5.687  0.00  0.00     0.087 H 
ATOM     22  H   LIG d   1       7.184  -4.975  -4.004  0.00  0.00     0.087 H 
ENDROOT
BRANCH  11  23
ATOM     23  C   LIG d   1       2.900   0.033  -9.897  0.00  0.00    -0.019 A 
ATOM     24  C   LIG d   1       2.458   0.543  -8.667  0.00  0.00    -0.036 A 
ATOM     25  C   LIG d   1       2.761   1.848  -8.337  0.00  0.00     0.028 A 
ATOM     26  H   LIG d   1       1.889  -0.075  -7.989  0.00  0.00     0.064 H 
ATOM     27  N   LIG d   1       3.456   2.611  -9.158  0.00  0.00    -0.263 NA
ATOM     28  H   LIG d   1       2.425   2.250  -7.393  0.00  0.00     0.083 H 
ATOM     29  C   LIG d   1       3.891   2.173 -10.325  0.00  0.00     0.028 A 
ATOM     30  C   LIG d   1       3.640   0.880 -10.735  0.00  0.00    -0.036 A 
ATOM     31  H   LIG d   1       4.457   2.834 -10.964  0.00  0.00     0.083 H 
ATOM     32  H   LIG d   1       4.004   0.527 -11.688  0.00  0.00     0.064 H 
ENDBRANCH  11  23
BRANCH   1  33
ATOM     33  C   LIG d   1       6.935  -2.391  -4.063  0.00  0.00     0.034 C 
ATOM     34  H   LIG d   1       7.559  -1.841  -4.782  0.00  0.00     0.048 H 
ATOM     35  H   LIG d   1       7.581  -2.933  -3.357  0.00  0.00     0.048 H 
BRANCH  33  36
ATOM     36  C   LIG d   1       6.067  -1.419  -3.305  0.00  0.00     0.004 A 
ATOM     37  C   LIG d   1       4.991  -1.670  -2.520  0.00  0.00    -0.050 A 
ATOM     38  C   LIG d   1       4.341  -0.610  -1.914  0.00  0.00    -0.054 A 
ATOM     39  H   LIG d   1       4.646  -2.682  -2.368  0.00  0.00     0.063 H 
ATOM     40  C   LIG d   1       4.795   0.650  -2.132  0.00  0.00    -0.024 A 
ATOM     41  H   LIG d   1       3.484  -0.781  -1.281  0.00  0.00     0.062 H 
ATOM     42  S   LIG d   1       6.183   0.360  -3.216  0.00  0.00    -0.100 SA
ATOM     43  H   LIG d   1       4.415   1.585  -1.750  0.00  0.00     0.069 H 
ENDBRANCH  33  36
ENDBRANCH   1  33
TORSDOF 3
ENDMDL
MODEL 2
REMARK VINA RESULT:      -6.8      4.253      7.930
REMARK  3 active torsions:
REMARK  status: ('A' for Active; 'I' for Inactive)
REMARK    1  A    between atoms: C_3  and  C_6 
REMARK    2  A    between atoms: C_6  and  N_7 
REMARK    3  A    between atoms: C_17  and  C_18 
ROOT
ATOM      1  N   LIG d   1       6.789   0.679  -9.712  0.00  0.00    -0.261 N 
ATOM      2  C   LIG d   1       6.824   0.346  -8.281  0.00  0.00     0.034 C 
ATOM      3  C   LIG d   1       7.793   1.260  -7.574  0.00  0.00     0.051 A 
ATOM      4  C   LIG d   1       8.742   1.977  -8.284  0.00  0.00     0.130 A 
ATOM      5  C   LIG d   1       9.635   2.816  -7.618  0.00  0.00    -0.019 A 
ATOM      6  C   LIG d   1       9.582   2.941  -6.259  0.00  0.00    -0.044 A 
ATOM      7  C   LIG d   1       8.629   2.226  -5.533  0.00  0.00     0.068 A 
ATOM      8  C   LIG d   1       7.725   1.377  -6.190  0.00  0.00     0.147 A 
ATOM      9  O   LIG d   1       6.905   0.795  -5.287  0.00  0.00    -0.451 OA
ATOM     10  C   LIG d   1       7.185   1.191  -4.024  0.00  0.00     0.176 A 
ATOM     11  C   LIG d   1       6.546   0.792  -2.899  0.00  0.00    -0.008 C 
ATOM     12  C   LIG d   1       8.314   2.139  -4.096  0.00  0.00     0.232 A 
ATOM     13  O   LIG d   1       8.860   2.719  -3.175  0.00  0.00    -0.283 OA
ATOM     14  O   LIG d   1       8.819   1.877  -9.640  0.00  0.00    -0.476 OA
ATOM     15  C   LIG d   1       8.159   0.765 -10.246  0.00  0.00     0.144 C 
ATOM     16  H   LIG d   1       5.820   0.474  -7.850  0.00  0.00     0.048 H 
ATOM     17  H   LIG d   1       7.147  -0.697  -8.155  0.00  0.00     0.048 H 
ATOM     18  H   LIG d   1      10.372   3.370  -8.180  0.00  0.00     0.065 H 
ATOM     19  H   LIG d   1      10.275   3.593  -5.749  0.00  0.00     0.063 H 
ATOM     20  H   LIG d   1       6.914   1.114  -1.913  0.00  0.00     0.066 H 
ATOM     21  H   LIG d   1       8.701  -0.164 -10.013  0.00  0.00     0.087 H 
ATOM     22  H   LIG d   1       8.119   0.902 -11.337  0.00  0.00     0.087 H 
ENDROOT
BRANCH  11  23
ATOM     23  C   LIG d   1       5.360  -0.074  -2.994  0.00  0.00    -0.019 A 
ATOM     24  C   LIG d   1       4.068   0.471  -2.995  0.00  0.00    -0.036 A 
ATOM     25  C   LIG d   1       2.985  -0.379  -3.086  0.00  0.00     0.028 A 
ATOM     26  H   LIG d   1       3.922   1.538  -2.926  0.00  0.00     0.064 H 
ATOM     27  N   LIG d   1       3.152  -1.684  -3.172  0.00  0.00    -0.263 NA
ATOM     28  H   LIG d   1       1.985   0.031  -3.088  0.00  0.00     0.083 H 
ATOM     29  C   LIG d   1       4.350  -2.239  -3.174  0.00  0.00     0.028 A 
ATOM     30  C   LIG d   1       5.489  -1.467  -3.092  0.00  0.00    -0.036 A 
ATOM     31  H   LIG d   1       4.438  -3.314  -3.246  0.00  0.00     0.083 H 
ATOM     32  H   LIG d   1       6.466  -1.928  -3.100  0.00  0.00     0.064 H 
ENDBRANCH  11  23
BRANCH   1  33
ATOM     33  C   LIG d   1       5.992  -0.302 -10.460  0.00  0.00     0.034 C 
ATOM     34  H   LIG d   1       6.404  -1.309 -10.300  0.00  0.00     0.048 H 
ATOM     35  H   LIG d   1       6.024  -0.058 -11.532  0.00  0.00     0.048 H 
BRANCH  33  36
ATOM     36  C   LIG d   1       4.564  -0.261  -9.979  0.00  0.00     0.004 A 
ATOM     37  C   LIG d   1       3.689   0.774  -9.989  0.00  0.00    -0.050 A 
ATOM     38  C   LIG d   1       2.413   0.579  -9.493  0.00  0.00    -0.054 A 
ATOM     39  H   LIG d   1       3.983   1.736 -10.381  0.00  0.00     0.063 H 
ATOM     40  C   LIG d   1       2.079  -0.640  -9.001  0.00  0.00    -0.024 A 
ATOM     41  H   LIG d   1       1.696   1.385  -9.492  0.00  0.00     0.062 H 
ATOM     42  S   LIG d   1       3.590  -1.561  -9.239  0.00  0.00    -0.100 SA
ATOM     43  H   LIG d   1       1.143  -0.969  -8.575  0.00  0.00     0.069 H 
ENDBRANCH  33  36
ENDBRANCH   1  33
TORSDOF 3
ENDMDL
MODEL 3
REMARK VINA RESULT:      -6.8      6.547      9.084
REMARK  3 active torsions:
REMARK  status: ('A' for Active; 'I' for Inactive)
REMARK    1  A    between atoms: C_3  and  C_6 
REMARK    2  A    between atoms: C_6  and  N_7 
REMARK    3  A    between atoms: C_17  and  C_18 
ROOT
ATOM      1  N   LIG d   1       7.050   0.660  -4.292  0.00  0.00    -0.261 N 
ATOM      2  C   LIG d   1       8.105   1.668  -4.123  0.00  0.00     0.034 C 
ATOM      3  C   LIG d   1       8.506   2.212  -5.471  0.00  0.00     0.051 A 
ATOM      4  C   LIG d   1       8.182   1.535  -6.635  0.00  0.00     0.130 A 
ATOM      5  C   LIG d   1       8.561   2.046  -7.876  0.00  0.00    -0.019 A 
ATOM      6  C   LIG d   1       9.253   3.221  -7.956  0.00  0.00    -0.044 A 
ATOM      7  C   LIG d   1       9.582   3.914  -6.791  0.00  0.00     0.068 A 
ATOM      8  C   LIG d   1       9.208   3.410  -5.535  0.00  0.00     0.147 A 
ATOM      9  O   LIG d   1       9.634   4.245  -4.562  0.00  0.00    -0.451 OA
ATOM     10  C   LIG d   1      10.290   5.315  -5.069  0.00  0.00     0.176 A 
ATOM     11  C   LIG d   1      10.837   6.330  -4.358  0.00  0.00    -0.008 C 
ATOM     12  C   LIG d   1      10.302   5.174  -6.537  0.00  0.00     0.232 A 
ATOM     13  O   LIG d   1      10.794   5.931  -7.355  0.00  0.00    -0.283 OA
ATOM     14  O   LIG d   1       7.491   0.362  -6.590  0.00  0.00    -0.476 OA
ATOM     15  C   LIG d   1       7.438  -0.310  -5.330  0.00  0.00     0.144 C 
ATOM     16  H   LIG d   1       7.730   2.489  -3.494  0.00  0.00     0.048 H 
ATOM     17  H   LIG d   1       8.979   1.207  -3.641  0.00  0.00     0.048 H 
ATOM     18  H   LIG d   1       8.306   1.510  -8.778  0.00  0.00     0.065 H 
ATOM     19  H   LIG d   1       9.543   3.613  -8.920  0.00  0.00     0.063 H 
ATOM     20  H   LIG d   1      11.423   7.107  -4.869  0.00  0.00     0.066 H 
ATOM     21  H   LIG d   1       8.426  -0.729  -5.089  0.00  0.00     0.087 H 
ATOM     22  H   LIG d   1       6.695  -1.121  -5.370  0.00  0.00     0.087 H 
ENDROOT
BRANCH  11  23
ATOM     23  C   LIG d   1      10.647   6.392  -2.900  0.00  0.00    -0.019 A 
ATOM     24  C   LIG d   1       9.753   7.310  -2.328  0.00  0.00    -0.036 A 
ATOM     25  C   LIG d   1       9.607   7.333  -0.956  0.00  0.00     0.028 A 
ATOM     26  H   LIG d   1       9.188   7.987  -2.950  0.00  0.00     0.064 H 
ATOM     27  N   LIG d   1      10.293   6.509  -0.187  0.00  0.00    -0.263 NA
ATOM     28  H   LIG d   1       8.922   8.036  -0.505  0.00  0.00     0.083 H 
ATOM     29  C   LIG d   1      11.144   5.631  -0.683  0.00  0.00     0.028 A 
ATOM     30  C   LIG d   1      11.350   5.533  -2.043  0.00  0.00    -0.036 A 
ATOM     31  H   LIG d   1      11.683   4.976  -0.014  0.00  0.00     0.083 H 
ATOM     32  H   LIG d   1      12.044   4.808  -2.441  0.00  0.00     0.064 H 
ENDBRANCH  11  23
BRANCH   1  33
ATOM     33  C   LIG d   1       6.760  -0.017  -3.021  0.00  0.00     0.034 C 
ATOM     34  H   LIG d   1       6.951   0.672  -2.186  0.00  0.00     0.048 H 
ATOM     35  H   LIG d   1       7.404  -0.902  -2.922  0.00  0.00     0.048 H 
BRANCH  33  36
ATOM     36  C   LIG d   1       5.314  -0.443  -2.998  0.00  0.00     0.004 A 
ATOM     37  C   LIG d   1       4.773  -1.601  -2.546  0.00  0.00    -0.050 A 
ATOM     38  C   LIG d   1       3.404  -1.776  -2.621  0.00  0.00    -0.054 A 
ATOM     39  H   LIG d   1       5.402  -2.375  -2.131  0.00  0.00     0.063 H 
ATOM     40  C   LIG d   1       2.644  -0.788  -3.155  0.00  0.00    -0.024 A 
ATOM     41  H   LIG d   1       2.947  -2.687  -2.266  0.00  0.00     0.062 H 
ATOM     42  S   LIG d   1       3.871   0.442  -3.565  0.00  0.00    -0.100 SA
ATOM     43  H   LIG d   1       1.574  -0.753  -3.296  0.00  0.00     0.069 H 
ENDBRANCH  33  36
ENDBRANCH   1  33
TORSDOF 3
ENDMDL
MODEL 4
REMARK VINA RESULT:      -6.7      2.619      6.177
REMARK  3 active torsions:
REMARK  status: ('A' for Active; 'I' for Inactive)
REMARK    1  A    between atoms: C_3  and  C_6 
REMARK    2  A    between atoms: C_6  and  N_7 
REMARK    3  A    between atoms: C_17  and  C_18 
ROOT
ATOM      1  N   LIG d   1       4.453  -2.159  -9.664  0.00  0.00    -0.261 N 
ATOM      2  C   LIG d   1       4.511  -2.254  -8.199  0.00  0.00     0.034 C 
ATOM      3  C   LIG d   1       5.656  -3.148  -7.797  0.00  0.00     0.051 A 
ATOM      4  C   LIG d   1       6.240  -4.011  -8.709  0.00  0.00     0.130 A 
ATOM      5  C   LIG d   1       7.296  -4.836  -8.324  0.00  0.00    -0.019 A 
ATOM      6  C   LIG d   1       7.768  -4.800  -7.043  0.00  0.00    -0.044 A 
ATOM      7  C   LIG d   1       7.191  -3.933  -6.115  0.00  0.00     0.068 A 
ATOM      8  C   LIG d   1       6.126  -3.098  -6.489  0.00  0.00     0.147 A 
ATOM      9  O   LIG d   1       5.734  -2.355  -5.430  0.00  0.00    -0.451 OA
ATOM     10  C   LIG d   1       6.471  -2.623  -4.327  0.00  0.00     0.176 A 
ATOM     11  C   LIG d   1       6.328  -2.047  -3.109  0.00  0.00    -0.008 C 
ATOM     12  C   LIG d   1       7.457  -3.656  -4.692  0.00  0.00     0.232 A 
ATOM     13  O   LIG d   1       8.303  -4.166  -3.978  0.00  0.00    -0.283 OA
ATOM     14  O   LIG d   1       5.794  -4.070  -9.995  0.00  0.00    -0.476 OA
ATOM     15  C   LIG d   1       4.510  -3.503 -10.263  0.00  0.00     0.144 C 
ATOM     16  H   LIG d   1       4.663  -1.251  -7.772  0.00  0.00     0.048 H 
ATOM     17  H   LIG d   1       3.568  -2.675  -7.821  0.00  0.00     0.048 H 
ATOM     18  H   LIG d   1       7.743  -5.507  -9.043  0.00  0.00     0.065 H 
ATOM     19  H   LIG d   1       8.587  -5.440  -6.750  0.00  0.00     0.063 H 
ATOM     20  H   LIG d   1       6.927  -2.403  -2.258  0.00  0.00     0.066 H 
ATOM     21  H   LIG d   1       3.724  -4.134  -9.821  0.00  0.00     0.087 H 
ATOM     22  H   LIG d   1       4.353  -3.428 -11.349  0.00  0.00     0.087 H 
ENDROOT
BRANCH  11  23
ATOM     23  C   LIG d   1       5.371  -0.944  -2.925  0.00  0.00    -0.019 A 
ATOM     24  C   LIG d   1       4.002  -1.199  -2.756  0.00  0.00    -0.036 A 
ATOM     25  C   LIG d   1       3.140  -0.134  -2.586  0.00  0.00     0.028 A 
ATOM     26  H   LIG d   1       3.627  -2.211  -2.759  0.00  0.00     0.064 H 
ATOM     27  N   LIG d   1       3.589   1.107  -2.581  0.00  0.00    -0.263 NA
ATOM     28  H   LIG d   1       2.084  -0.319  -2.455  0.00  0.00     0.083 H 
ATOM     29  C   LIG d   1       4.868   1.391  -2.737  0.00  0.00     0.028 A 
ATOM     30  C   LIG d   1       5.801   0.390  -2.907  0.00  0.00    -0.036 A 
ATOM     31  H   LIG d   1       5.189   2.423  -2.725  0.00  0.00     0.083 H 
ATOM     32  H   LIG d   1       6.847   0.631  -3.028  0.00  0.00     0.064 H 
ENDBRANCH  11  23
BRANCH   1  33
ATOM     33  C   LIG d   1       3.247  -1.441 -10.097  0.00  0.00     0.034 C 
ATOM     34  H   LIG d   1       2.365  -1.872  -9.601  0.00  0.00     0.048 H 
ATOM     35  H   LIG d   1       3.136  -1.533 -11.187  0.00  0.00     0.048 H 
BRANCH  33  36
ATOM     36  C   LIG d   1       3.368   0.016  -9.726  0.00  0.00     0.004 A 
ATOM     37  C   LIG d   1       2.527   0.781  -8.989  0.00  0.00    -0.050 A 
ATOM     38  C   LIG d   1       2.846   2.109  -8.771  0.00  0.00    -0.054 A 
ATOM     39  H   LIG d   1       1.621   0.361  -8.577  0.00  0.00     0.063 H 
ATOM     40  C   LIG d   1       3.986   2.608  -9.309  0.00  0.00    -0.024 A 
ATOM     41  H   LIG d   1       2.195   2.741  -8.185  0.00  0.00     0.062 H 
ATOM     42  S   LIG d   1       4.653   1.180 -10.148  0.00  0.00    -0.100 SA
ATOM     43  H   LIG d   1       4.388   3.608  -9.246  0.00  0.00     0.069 H 
ENDBRANCH  33  36
ENDBRANCH   1  33
TORSDOF 3
ENDMDL
MODEL 5
REMARK VINA RESULT:      -6.2      3.919      6.017
REMARK  3 active torsions:
REMARK  status: ('A' for Active; 'I' for Inactive)
REMARK    1  A    between atoms: C_3  and  C_6 
REMARK    2  A    between atoms: C_6  and  N_7 
REMARK    3  A    between atoms: C_17  and  C_18 
ROOT
ATOM      1  N   LIG d   1       9.125   0.315  -7.750  0.00  0.00    -0.261 N 
ATOM      2  C   LIG d   1       7.828   0.567  -7.106  0.00  0.00     0.034 C 
ATOM      3  C   LIG d   1       6.722   0.396  -8.116  0.00  0.00     0.051 A 
ATOM      4  C   LIG d   1       6.990   0.405  -9.474  0.00  0.00     0.130 A 
ATOM      5  C   LIG d   1       5.957   0.249 -10.398  0.00  0.00    -0.019 A 
ATOM      6  C   LIG d   1       4.670   0.084  -9.972  0.00  0.00    -0.044 A 
ATOM      7  C   LIG d   1       4.387   0.071  -8.606  0.00  0.00     0.068 A 
ATOM      8  C   LIG d   1       5.417   0.228  -7.666  0.00  0.00     0.147 A 
ATOM      9  O   LIG d   1       4.905   0.183  -6.416  0.00  0.00    -0.451 OA
ATOM     10  C   LIG d   1       3.564   0.001  -6.427  0.00  0.00     0.176 A 
ATOM     11  C   LIG d   1       2.759  -0.087  -5.342  0.00  0.00    -0.008 C 
ATOM     12  C   LIG d   1       3.139  -0.083  -7.837  0.00  0.00     0.232 A 
ATOM     13  O   LIG d   1       2.012  -0.245  -8.268  0.00  0.00    -0.283 OA
ATOM     14  O   LIG d   1       8.264   0.564  -9.931  0.00  0.00    -0.476 OA
ATOM     15  C   LIG d   1       9.224   1.077  -9.006  0.00  0.00     0.144 C 
ATOM     16  H   LIG d   1       7.684  -0.145  -6.281  0.00  0.00     0.048 H 
ATOM     17  H   LIG d   1       7.809   1.594  -6.712  0.00  0.00     0.048 H 
ATOM     18  H   LIG d   1       6.177   0.259 -11.455  0.00  0.00     0.065 H 
ATOM     19  H   LIG d   1       3.874  -0.037 -10.692  0.00  0.00     0.063 H 
ATOM     20  H   LIG d   1       1.668  -0.150  -5.469  0.00  0.00     0.066 H 
ATOM     21  H   LIG d   1       9.021   2.140  -8.807  0.00  0.00     0.087 H 
ATOM     22  H   LIG d   1      10.238   0.969  -9.421  0.00  0.00     0.087 H 
ENDROOT
BRANCH  11  23
ATOM     23  C   LIG d   1       3.343  -0.099  -3.991  0.00  0.00    -0.019 A 
ATOM     24  C   LIG d   1       3.572   1.096  -3.294  0.00  0.00    -0.036 A 
ATOM     25  C   LIG d   1       4.122   1.038  -2.030  0.00  0.00     0.028 A 
ATOM     26  H   LIG d   1       3.322   2.048  -3.739  0.00  0.00     0.064 H 
ATOM     27  N   LIG d   1       4.429  -0.120  -1.477  0.00  0.00    -0.263 NA
ATOM     28  H   LIG d   1       4.302   1.953  -1.485  0.00  0.00     0.083 H 
ATOM     29  C   LIG d   1       4.231  -1.268  -2.097  0.00  0.00     0.028 A 
ATOM     30  C   LIG d   1       3.681  -1.306  -3.361  0.00  0.00    -0.036 A 
ATOM     31  H   LIG d   1       4.499  -2.191  -1.605  0.00  0.00     0.083 H 
ATOM     32  H   LIG d   1       3.517  -2.249  -3.860  0.00  0.00     0.064 H 
ENDBRANCH  11  23
BRANCH   1  33
ATOM     33  C   LIG d   1      10.235   0.643  -6.846  0.00  0.00     0.034 C 
ATOM     34  H   LIG d   1      11.118   0.926  -7.436  0.00  0.00     0.048 H 
ATOM     35  H   LIG d   1      10.473  -0.232  -6.225  0.00  0.00     0.048 H 
BRANCH  33  36
ATOM     36  C   LIG d   1       9.835   1.795  -5.958  0.00  0.00     0.004 A 
ATOM     37  C   LIG d   1       9.412   1.772  -4.670  0.00  0.00    -0.050 A 
ATOM     38  C   LIG d   1       9.099   2.966  -4.046  0.00  0.00    -0.054 A 
ATOM     39  H   LIG d   1       9.321   0.837  -4.139  0.00  0.00     0.063 H 
ATOM     40  C   LIG d   1       9.216   4.123  -4.744  0.00  0.00    -0.024 A 
ATOM     41  H   LIG d   1       8.763   2.977  -3.021  0.00  0.00     0.062 H 
ATOM     42  S   LIG d   1       9.790   3.540  -6.331  0.00  0.00    -0.100 SA
ATOM     43  H   LIG d   1       9.015   5.134  -4.425  0.00  0.00     0.069 H 
ENDBRANCH  33  36
ENDBRANCH   1  33
TORSDOF 3
ENDMDL
MODEL 6
REMARK VINA RESULT:      -6.1      3.251      4.974
REMARK  3 active torsions:
REMARK  status: ('A' for Active; 'I' for Inactive)
REMARK    1  A    between atoms: C_3  and  C_6 
REMARK    2  A    between atoms: C_6  and  N_7 
REMARK    3  A    between atoms: C_17  and  C_18 
ROOT
ATOM      1  N   LIG d   1       8.346  -1.946  -5.023  0.00  0.00    -0.261 N 
ATOM      2  C   LIG d   1       7.067  -1.759  -5.723  0.00  0.00     0.034 C 
ATOM      3  C   LIG d   1       5.976  -1.491  -4.718  0.00  0.00     0.051 A 
ATOM      4  C   LIG d   1       6.154  -1.793  -3.378  0.00  0.00     0.130 A 
ATOM      5  C   LIG d   1       5.135  -1.543  -2.458  0.00  0.00    -0.019 A 
ATOM      6  C   LIG d   1       3.953  -0.997  -2.869  0.00  0.00    -0.044 A 
ATOM      7  C   LIG d   1       3.763  -0.686  -4.216  0.00  0.00     0.068 A 
ATOM      8  C   LIG d   1       4.779  -0.933  -5.152  0.00  0.00     0.147 A 
ATOM      9  O   LIG d   1       4.368  -0.555  -6.383  0.00  0.00    -0.451 OA
ATOM     10  C   LIG d   1       3.112  -0.052  -6.362  0.00  0.00     0.176 A 
ATOM     11  C   LIG d   1       2.417   0.412  -7.428  0.00  0.00    -0.008 C 
ATOM     12  C   LIG d   1       2.637  -0.103  -4.966  0.00  0.00     0.232 A 
ATOM     13  O   LIG d   1       1.557   0.258  -4.532  0.00  0.00    -0.283 OA
ATOM     14  O   LIG d   1       7.322  -2.336  -2.935  0.00  0.00    -0.476 OA
ATOM     15  C   LIG d   1       8.184  -2.908  -3.920  0.00  0.00     0.144 C 
ATOM     16  H   LIG d   1       7.148  -0.906  -6.412  0.00  0.00     0.048 H 
ATOM     17  H   LIG d   1       6.825  -2.668  -6.292  0.00  0.00     0.048 H 
ATOM     18  H   LIG d   1       5.283  -1.784  -1.415  0.00  0.00     0.065 H 
ATOM     19  H   LIG d   1       3.168  -0.805  -2.152  0.00  0.00     0.063 H 
ATOM     20  H   LIG d   1       1.368   0.721  -7.309  0.00  0.00     0.066 H 
ATOM     21  H   LIG d   1       7.744  -3.838  -4.307  0.00  0.00     0.087 H 
ATOM     22  H   LIG d   1       9.167  -3.124  -3.475  0.00  0.00     0.087 H 
ENDROOT
BRANCH  11  23
ATOM     23  C   LIG d   1       3.066   0.505  -8.745  0.00  0.00    -0.019 A 
ATOM     24  C   LIG d   1       3.424  -0.650  -9.456  0.00  0.00    -0.036 A 
ATOM     25  C   LIG d   1       4.030  -0.516 -10.687  0.00  0.00     0.028 A 
ATOM     26  H   LIG d   1       3.227  -1.629  -9.046  0.00  0.00     0.064 H 
ATOM     27  N   LIG d   1       4.274   0.677 -11.197  0.00  0.00    -0.263 NA
ATOM     28  H   LIG d   1       4.309  -1.399 -11.243  0.00  0.00     0.083 H 
ATOM     29  C   LIG d   1       3.955   1.789 -10.563  0.00  0.00     0.028 A 
ATOM     30  C   LIG d   1       3.340   1.751  -9.329  0.00  0.00    -0.036 A 
ATOM     31  H   LIG d   1       4.174   2.743 -11.019  0.00  0.00     0.083 H 
ATOM     32  H   LIG d   1       3.077   2.665  -8.819  0.00  0.00     0.064 H 
ENDBRANCH  11  23
BRANCH   1  33
ATOM     33  C   LIG d   1       9.396  -2.382  -5.953  0.00  0.00     0.034 C 
ATOM     34  H   LIG d   1       9.337  -1.790  -6.878  0.00  0.00     0.048 H 
ATOM     35  H   LIG d   1       9.257  -3.447  -6.190  0.00  0.00     0.048 H 
BRANCH  33  36
ATOM     36  C   LIG d   1      10.747  -2.182  -5.315  0.00  0.00     0.004 A 
ATOM     37  C   LIG d   1      11.394  -1.025  -5.033  0.00  0.00    -0.050 A 
ATOM     38  C   LIG d   1      12.640  -1.082  -4.435  0.00  0.00    -0.054 A 
ATOM     39  H   LIG d   1      10.944  -0.073  -5.270  0.00  0.00     0.063 H 
ATOM     40  C   LIG d   1      13.181  -2.294  -4.158  0.00  0.00    -0.024 A 
ATOM     41  H   LIG d   1      13.176  -0.176  -4.197  0.00  0.00     0.062 H 
ATOM     42  S   LIG d   1      11.913  -3.407  -4.742  0.00  0.00    -0.100 SA
ATOM     43  H   LIG d   1      14.132  -2.527  -3.703  0.00  0.00     0.069 H 
ENDBRANCH  33  36
ENDBRANCH   1  33
TORSDOF 3
ENDMDL
MODEL 7
REMARK VINA RESULT:      -6.1      5.315      7.472
REMARK  3 active torsions:
REMARK  status: ('A' for Active; 'I' for Inactive)
REMARK    1  A    between atoms: C_3  and  C_6 
REMARK    2  A    between atoms: C_6  and  N_7 
REMARK    3  A    between atoms: C_17  and  C_18 
ROOT
ATOM      1  N   LIG d   1      10.018   2.794  -5.477  0.00  0.00    -0.261 N 
ATOM      2  C   LIG d   1       8.914   1.835  -5.336  0.00  0.00     0.034 C 
ATOM      3  C   LIG d   1       9.452   0.429  -5.419  0.00  0.00     0.051 A 
ATOM      4  C   LIG d   1      10.708   0.179  -5.945  0.00  0.00     0.130 A 
ATOM      5  C   LIG d   1      11.194  -1.127  -6.019  0.00  0.00    -0.019 A 
ATOM      6  C   LIG d   1      10.436  -2.171  -5.571  0.00  0.00    -0.044 A 
ATOM      7  C   LIG d   1       9.170  -1.931  -5.036  0.00  0.00     0.068 A 
ATOM      8  C   LIG d   1       8.669  -0.622  -4.957  0.00  0.00     0.147 A 
ATOM      9  O   LIG d   1       7.434  -0.639  -4.409  0.00  0.00    -0.451 OA
ATOM     10  C   LIG d   1       7.038  -1.895  -4.096  0.00  0.00     0.176 A 
ATOM     11  C   LIG d   1       5.857  -2.246  -3.535  0.00  0.00    -0.008 C 
ATOM     12  C   LIG d   1       8.128  -2.812  -4.479  0.00  0.00     0.232 A 
ATOM     13  O   LIG d   1       8.160  -4.024  -4.359  0.00  0.00    -0.283 OA
ATOM     14  O   LIG d   1      11.490   1.198  -6.398  0.00  0.00    -0.476 OA
ATOM     15  C   LIG d   1      10.844   2.448  -6.646  0.00  0.00     0.144 C 
ATOM     16  H   LIG d   1       8.422   1.982  -4.363  0.00  0.00     0.048 H 
ATOM     17  H   LIG d   1       8.184   1.995  -6.144  0.00  0.00     0.048 H 
ATOM     18  H   LIG d   1      12.174  -1.312  -6.433  0.00  0.00     0.065 H 
ATOM     19  H   LIG d   1      10.818  -3.180  -5.629  0.00  0.00     0.063 H 
ATOM     20  H   LIG d   1       5.605  -3.308  -3.402  0.00  0.00     0.066 H 
ATOM     21  H   LIG d   1      10.202   2.367  -7.536  0.00  0.00     0.087 H 
ATOM     22  H   LIG d   1      11.598   3.233  -6.808  0.00  0.00     0.087 H 
ENDROOT
BRANCH  11  23
ATOM     23  C   LIG d   1       4.909  -1.206  -3.103  0.00  0.00    -0.019 A 
ATOM     24  C   LIG d   1       3.555  -1.271  -3.460  0.00  0.00    -0.036 A 
ATOM     25  C   LIG d   1       2.703  -0.273  -3.033  0.00  0.00     0.028 A 
ATOM     26  H   LIG d   1       3.184  -2.088  -4.060  0.00  0.00     0.064 H 
ATOM     27  N   LIG d   1       3.146   0.729  -2.299  0.00  0.00    -0.263 NA
ATOM     28  H   LIG d   1       1.658  -0.314  -3.302  0.00  0.00     0.083 H 
ATOM     29  C   LIG d   1       4.412   0.830  -1.940  0.00  0.00     0.028 A 
ATOM     30  C   LIG d   1       5.334  -0.124  -2.317  0.00  0.00    -0.036 A 
ATOM     31  H   LIG d   1       4.730   1.669  -1.338  0.00  0.00     0.083 H 
ATOM     32  H   LIG d   1       6.367  -0.038  -2.015  0.00  0.00     0.064 H 
ENDBRANCH  11  23
BRANCH   1  33
ATOM     33  C   LIG d   1       9.511   4.169  -5.579  0.00  0.00     0.034 C 
ATOM     34  H   LIG d   1       8.440   4.148  -5.828  0.00  0.00     0.048 H 
ATOM     35  H   LIG d   1      10.061   4.705  -6.365  0.00  0.00     0.048 H 
BRANCH  33  36
ATOM     36  C   LIG d   1       9.705   4.875  -4.260  0.00  0.00     0.004 A 
ATOM     37  C   LIG d   1       9.417   6.157  -3.929  0.00  0.00    -0.050 A 
ATOM     38  C   LIG d   1       9.679   6.592  -2.643  0.00  0.00    -0.054 A 
ATOM     39  H   LIG d   1       8.987   6.829  -4.657  0.00  0.00     0.063 H 
ATOM     40  C   LIG d   1      10.227   5.726  -1.755  0.00  0.00    -0.024 A 
ATOM     41  H   LIG d   1       9.456   7.607  -2.351  0.00  0.00     0.062 H 
ATOM     42  S   LIG d   1      10.380   4.241  -2.734  0.00  0.00    -0.100 SA
ATOM     43  H   LIG d   1      10.499   5.890  -0.723  0.00  0.00     0.069 H 
ENDBRANCH  33  36
ENDBRANCH   1  33
TORSDOF 3
ENDMDL
MODEL 8
REMARK VINA RESULT:      -6.1      3.557      7.438
REMARK  3 active torsions:
REMARK  status: ('A' for Active; 'I' for Inactive)
REMARK    1  A    between atoms: C_3  and  C_6 
REMARK    2  A    between atoms: C_6  and  N_7 
REMARK    3  A    between atoms: C_17  and  C_18 
ROOT
ATOM      1  N   LIG d   1       2.565  -4.727 -10.159  0.00  0.00    -0.261 N 
ATOM      2  C   LIG d   1       3.126  -3.768  -9.197  0.00  0.00     0.034 C 
ATOM      3  C   LIG d   1       2.966  -2.367  -9.730  0.00  0.00     0.051 A 
ATOM      4  C   LIG d   1       2.703  -2.141 -11.070  0.00  0.00     0.130 A 
ATOM      5  C   LIG d   1       2.561  -0.840 -11.552  0.00  0.00    -0.019 A 
ATOM      6  C   LIG d   1       2.677   0.225 -10.705  0.00  0.00    -0.044 A 
ATOM      7  C   LIG d   1       2.940   0.011  -9.352  0.00  0.00     0.068 A 
ATOM      8  C   LIG d   1       3.086  -1.293  -8.854  0.00  0.00     0.147 A 
ATOM      9  O   LIG d   1       3.335  -1.251  -7.527  0.00  0.00    -0.451 OA
ATOM     10  C   LIG d   1       3.370   0.020  -7.062  0.00  0.00     0.176 A 
ATOM     11  C   LIG d   1       3.595   0.398  -5.781  0.00  0.00    -0.008 C 
ATOM     12  C   LIG d   1       3.118   0.918  -8.204  0.00  0.00     0.232 A 
ATOM     13  O   LIG d   1       3.069   2.135  -8.199  0.00  0.00    -0.283 OA
ATOM     14  O   LIG d   1       2.578  -3.182 -11.941  0.00  0.00    -0.476 OA
ATOM     15  C   LIG d   1       3.079  -4.449 -11.511  0.00  0.00     0.144 C 
ATOM     16  H   LIG d   1       2.595  -3.858  -8.238  0.00  0.00     0.048 H 
ATOM     17  H   LIG d   1       4.194  -3.983  -9.046  0.00  0.00     0.048 H 
ATOM     18  H   LIG d   1       2.358  -0.674 -12.600  0.00  0.00     0.065 H 
ATOM     19  H   LIG d   1       2.565   1.231 -11.083  0.00  0.00     0.063 H 
ATOM     20  H   LIG d   1       3.686   1.465  -5.529  0.00  0.00     0.066 H 
ATOM     21  H   LIG d   1       4.179  -4.427 -11.486  0.00  0.00     0.087 H 
ATOM     22  H   LIG d   1       2.743  -5.238 -12.200  0.00  0.00     0.087 H 
ENDROOT
BRANCH  11  23
ATOM     23  C   LIG d   1       3.717  -0.620  -4.724  0.00  0.00    -0.019 A 
ATOM     24  C   LIG d   1       2.925  -0.558  -3.569  0.00  0.00    -0.036 A 
ATOM     25  C   LIG d   1       3.074  -1.533  -2.604  0.00  0.00     0.028 A 
ATOM     26  H   LIG d   1       2.209   0.239  -3.436  0.00  0.00     0.064 H 
ATOM     27  N   LIG d   1       3.945  -2.512  -2.758  0.00  0.00    -0.263 NA
ATOM     28  H   LIG d   1       2.468  -1.496  -1.711  0.00  0.00     0.083 H 
ATOM     29  C   LIG d   1       4.711  -2.607  -3.828  0.00  0.00     0.028 A 
ATOM     30  C   LIG d   1       4.627  -1.681  -4.846  0.00  0.00    -0.036 A 
ATOM     31  H   LIG d   1       5.411  -3.426  -3.910  0.00  0.00     0.083 H 
ATOM     32  H   LIG d   1       5.253  -1.769  -5.721  0.00  0.00     0.064 H 
ENDBRANCH  11  23
BRANCH   1  33
ATOM     33  C   LIG d   1       2.860  -6.109  -9.757  0.00  0.00     0.034 C 
ATOM     34  H   LIG d   1       3.009  -6.151  -8.668  0.00  0.00     0.048 H 
ATOM     35  H   LIG d   1       3.772  -6.452 -10.266  0.00  0.00     0.048 H 
BRANCH  33  36
ATOM     36  C   LIG d   1       1.706  -7.000 -10.140  0.00  0.00     0.004 A 
ATOM     37  C   LIG d   1       1.711  -8.323 -10.435  0.00  0.00    -0.050 A 
ATOM     38  C   LIG d   1       0.518  -8.943 -10.760  0.00  0.00    -0.054 A 
ATOM     39  H   LIG d   1       2.633  -8.886 -10.417  0.00  0.00     0.063 H 
ATOM     40  C   LIG d   1      -0.620  -8.206 -10.781  0.00  0.00    -0.024 A 
ATOM     41  H   LIG d   1       0.494  -9.996 -10.996  0.00  0.00     0.062 H 
ATOM     42  S   LIG d   1      -0.021  -6.587 -10.328  0.00  0.00    -0.100 SA
ATOM     43  H   LIG d   1      -1.628  -8.517 -11.013  0.00  0.00     0.069 H 
ENDBRANCH  33  36
ENDBRANCH   1  33
TORSDOF 3
ENDMDL
MODEL 9
REMARK VINA RESULT:      -6.0      5.703      8.115
REMARK  3 active torsions:
REMARK  status: ('A' for Active; 'I' for Inactive)
REMARK    1  A    between atoms: C_3  and  C_6 
REMARK    2  A    between atoms: C_6  and  N_7 
REMARK    3  A    between atoms: C_17  and  C_18 
ROOT
ATOM      1  N   LIG d   1      10.182   4.195  -4.537  0.00  0.00    -0.261 N 
ATOM      2  C   LIG d   1       9.125   3.190  -4.716  0.00  0.00     0.034 C 
ATOM      3  C   LIG d   1       9.740   1.879  -5.135  0.00  0.00     0.051 A 
ATOM      4  C   LIG d   1      11.030   1.827  -5.636  0.00  0.00     0.130 A 
ATOM      5  C   LIG d   1      11.587   0.608  -6.023  0.00  0.00    -0.019 A 
ATOM      6  C   LIG d   1      10.867  -0.547  -5.909  0.00  0.00    -0.044 A 
ATOM      7  C   LIG d   1       9.567  -0.507  -5.403  0.00  0.00     0.068 A 
ATOM      8  C   LIG d   1       8.994   0.713  -5.011  0.00  0.00     0.147 A 
ATOM      9  O   LIG d   1       7.738   0.503  -4.559  0.00  0.00    -0.451 OA
ATOM     10  C   LIG d   1       7.396  -0.805  -4.611  0.00  0.00     0.176 A 
ATOM     11  C   LIG d   1       6.211  -1.339  -4.230  0.00  0.00    -0.008 C 
ATOM     12  C   LIG d   1       8.549  -1.544  -5.158  0.00  0.00     0.232 A 
ATOM     13  O   LIG d   1       8.640  -2.742  -5.360  0.00  0.00    -0.283 OA
ATOM     14  O   LIG d   1      11.777   2.960  -5.759  0.00  0.00    -0.476 OA
ATOM     15  C   LIG d   1      11.077   4.204  -5.706  0.00  0.00     0.144 C 
ATOM     16  H   LIG d   1       8.584   3.055  -3.769  0.00  0.00     0.048 H 
ATOM     17  H   LIG d   1       8.425   3.530  -5.493  0.00  0.00     0.048 H 
ATOM     18  H   LIG d   1      12.593   0.577  -6.414  0.00  0.00     0.065 H 
ATOM     19  H   LIG d   1      11.303  -1.488  -6.209  0.00  0.00     0.063 H 
ATOM     20  H   LIG d   1       6.010  -2.407  -4.396  0.00  0.00     0.066 H 
ATOM     21  H   LIG d   1      10.481   4.337  -6.622  0.00  0.00     0.087 H 
ATOM     22  H   LIG d   1      11.795   5.033  -5.612  0.00  0.00     0.087 H 
ENDROOT
BRANCH  11  23
ATOM     23  C   LIG d   1       5.191  -0.489  -3.594  0.00  0.00    -0.019 A 
ATOM     24  C   LIG d   1       3.999  -0.172  -4.261  0.00  0.00    -0.036 A 
ATOM     25  C   LIG d   1       3.071   0.629  -3.626  0.00  0.00     0.028 A 
ATOM     26  H   LIG d   1       3.809  -0.549  -5.254  0.00  0.00     0.064 H 
ATOM     27  N   LIG d   1       3.294   1.093  -2.412  0.00  0.00    -0.263 NA
ATOM     28  H   LIG d   1       2.149   0.878  -4.130  0.00  0.00     0.083 H 
ATOM     29  C   LIG d   1       4.402   0.821  -1.749  0.00  0.00     0.028 A 
ATOM     30  C   LIG d   1       5.382   0.024  -2.303  0.00  0.00    -0.036 A 
ATOM     31  H   LIG d   1       4.541   1.223  -0.756  0.00  0.00     0.083 H 
ATOM     32  H   LIG d   1       6.284  -0.199  -1.752  0.00  0.00     0.064 H 
ENDBRANCH  11  23
BRANCH   1  33
ATOM     33  C   LIG d   1       9.609   5.527  -4.302  0.00  0.00     0.034 C 
ATOM     34  H   LIG d   1       8.519   5.488  -4.445  0.00  0.00     0.048 H 
ATOM     35  H   LIG d   1      10.046   6.245  -5.010  0.00  0.00     0.048 H 
BRANCH  33  36
ATOM     36  C   LIG d   1       9.913   5.963  -2.891  0.00  0.00     0.004 A 
ATOM     37  C   LIG d   1       9.488   7.067  -2.229  0.00  0.00    -0.050 A 
ATOM     38  C   LIG d   1       9.896   7.264  -0.923  0.00  0.00    -0.054 A 
ATOM     39  H   LIG d   1       8.838   7.780  -2.713  0.00  0.00     0.063 H 
ATOM     40  C   LIG d   1      10.719   6.353  -0.347  0.00  0.00    -0.024 A 
ATOM     41  H   LIG d   1       9.570   8.133  -0.371  0.00  0.00     0.062 H 
ATOM     42  S   LIG d   1      10.934   5.166  -1.663  0.00  0.00    -0.100 SA
ATOM     43  H   LIG d   1      11.136   6.346   0.649  0.00  0.00     0.069 H 
ENDBRANCH  33  36
ENDBRANCH   1  33
TORSDOF 3
ENDMDL
