MODEL 1
REMARK VINA RESULT:      -3.8      0.000      0.000
REMARK  4 active torsions:
REMARK  status: ('A' for Active; 'I' for Inactive)
REMARK    1  A    between atoms: C_1  and  C_2 
REMARK    2  A    between atoms: C_2  and  C_4 
REMARK    3  A    between atoms: C_2  and  N_16 
REMARK    4  A    between atoms: C_7  and  N_16 
ROOT
ATOM      1  C   LIG d   1       4.304   0.603  -1.840  0.00  0.00     0.077 C 
ATOM      2  C   LIG d   1       5.421   1.110  -2.653  0.00  0.00     0.068 C 
ATOM      3  N   LIG d   1       6.282   1.502  -3.281  0.00  0.00    -0.196 NA
ATOM      4  H   LIG d   1       4.697   0.091  -0.962  0.00  0.00     0.047 H 
ATOM      5  H   LIG d   1       3.676   1.436  -1.524  0.00  0.00     0.047 H 
ENDROOT
BRANCH   1   6
ATOM      6  C   LIG d   1       3.471  -0.376  -2.671  0.00  0.00    -0.013 C 
ATOM      7  H   LIG d   1       2.415  -0.248  -2.432  0.00  0.00     0.086 H 
BRANCH   6   8
ATOM      8  C   LIG d   1       3.896  -1.810  -2.346  0.00  0.00    -0.021 C 
ATOM      9  H   LIG d   1       4.573  -1.803  -1.491  0.00  0.00     0.028 H 
ATOM     10  H   LIG d   1       3.015  -2.405  -2.107  0.00  0.00     0.028 H 
ATOM     11  H   LIG d   1       4.405  -2.242  -3.208  0.00  0.00     0.028 H 
ENDBRANCH   6   8
BRANCH   6  12
ATOM     12  N   LIG d   1       3.695  -0.108  -4.104  0.00  0.00     0.228 N 
ATOM     13  H   LIG d   1       3.984  -0.977  -4.570  0.00  0.00     0.201 HD
ATOM     14  H   LIG d   1       4.435   0.596  -4.205  0.00  0.00     0.201 HD
BRANCH  12  15
ATOM     15  C   LIG d   1       2.457   0.393  -4.731  0.00  0.00    -0.045 C 
ATOM     16  H   LIG d   1       2.036   1.192  -4.120  0.00  0.00     0.078 H 
ATOM     17  H   LIG d   1       2.680   0.774  -5.727  0.00  0.00     0.078 H 
ATOM     18  H   LIG d   1       1.740  -0.424  -4.806  0.00  0.00     0.078 H 
ENDBRANCH  12  15
ENDBRANCH   6  12
ENDBRANCH   1   6
TORSDOF 4
ENDMDL
MODEL 2
REMARK VINA RESULT:      -3.6      2.145      2.690
REMARK  4 active torsions:
REMARK  status: ('A' for Active; 'I' for Inactive)
REMARK    1  A    between atoms: C_1  and  C_2 
REMARK    2  A    between atoms: C_2  and  C_4 
REMARK    3  A    between atoms: C_2  and  N_16 
REMARK    4  A    between atoms: C_7  and  N_16 
ROOT
ATOM      1  C   LIG d   1       3.013   0.135  -2.953  0.00  0.00     0.077 C 
ATOM      2  C   LIG d   1       2.893   0.497  -4.375  0.00  0.00     0.068 C 
ATOM      3  N   LIG d   1       2.798   0.775  -5.472  0.00  0.00    -0.196 NA
ATOM      4  H   LIG d   1       3.862   0.661  -2.516  0.00  0.00     0.047 H 
ATOM      5  H   LIG d   1       2.101   0.418  -2.428  0.00  0.00     0.047 H 
ENDROOT
BRANCH   1   6
ATOM      6  C   LIG d   1       3.229  -1.374  -2.827  0.00  0.00    -0.013 C 
ATOM      7  H   LIG d   1       2.337  -1.834  -2.400  0.00  0.00     0.086 H 
BRANCH   6   8
ATOM      8  C   LIG d   1       4.427  -1.643  -1.913  0.00  0.00    -0.021 C 
ATOM      9  H   LIG d   1       4.094  -2.189  -1.029  0.00  0.00     0.028 H 
ATOM     10  H   LIG d   1       5.167  -2.237  -2.449  0.00  0.00     0.028 H 
ATOM     11  H   LIG d   1       4.871  -0.695  -1.608  0.00  0.00     0.028 H 
ENDBRANCH   6   8
BRANCH   6  12
ATOM     12  N   LIG d   1       3.492  -1.940  -4.163  0.00  0.00     0.228 N 
ATOM     13  H   LIG d   1       3.595  -1.175  -4.840  0.00  0.00     0.201 HD
ATOM     14  H   LIG d   1       2.702  -2.536  -4.439  0.00  0.00     0.201 HD
BRANCH  12  15
ATOM     15  C   LIG d   1       4.726  -2.746  -4.145  0.00  0.00    -0.045 C 
ATOM     16  H   LIG d   1       5.502  -2.215  -3.592  0.00  0.00     0.078 H 
ATOM     17  H   LIG d   1       4.531  -3.706  -3.667  0.00  0.00     0.078 H 
ATOM     18  H   LIG d   1       5.059  -2.912  -5.170  0.00  0.00     0.078 H 
ENDBRANCH  12  15
ENDBRANCH   6  12
ENDBRANCH   1   6
TORSDOF 4
ENDMDL
MODEL 3
REMARK VINA RESULT:      -3.3      1.467      2.095
REMARK  4 active torsions:
REMARK  status: ('A' for Active; 'I' for Inactive)
REMARK    1  A    between atoms: C_1  and  C_2 
REMARK    2  A    between atoms: C_2  and  C_4 
REMARK    3  A    between atoms: C_2  and  N_16 
REMARK    4  A    between atoms: C_7  and  N_16 
ROOT
ATOM      1  C   LIG d   1       2.989   0.028  -2.831  0.00  0.00     0.077 C 
ATOM      2  C   LIG d   1       4.078   0.746  -2.149  0.00  0.00     0.068 C 
ATOM      3  N   LIG d   1       4.919   1.301  -1.624  0.00  0.00    -0.196 NA
ATOM      4  H   LIG d   1       2.217  -0.233  -2.108  0.00  0.00     0.047 H 
ATOM      5  H   LIG d   1       2.561   0.666  -3.605  0.00  0.00     0.047 H 
ENDROOT
BRANCH   1   6
ATOM      6  C   LIG d   1       3.541  -1.249  -3.470  0.00  0.00    -0.013 C 
ATOM      7  H   LIG d   1       2.807  -1.651  -4.169  0.00  0.00     0.086 H 
BRANCH   6   8
ATOM      8  C   LIG d   1       3.826  -2.283  -2.379  0.00  0.00    -0.021 C 
ATOM      9  H   LIG d   1       4.901  -2.338  -2.204  0.00  0.00     0.028 H 
ATOM     10  H   LIG d   1       3.322  -1.989  -1.458  0.00  0.00     0.028 H 
ATOM     11  H   LIG d   1       3.460  -3.259  -2.699  0.00  0.00     0.028 H 
ENDBRANCH   6   8
BRANCH   6  12
ATOM     12  N   LIG d   1       4.790  -0.931  -4.187  0.00  0.00     0.228 N 
ATOM     13  H   LIG d   1       5.176  -0.052  -3.822  0.00  0.00     0.201 HD
ATOM     14  H   LIG d   1       4.588  -0.825  -5.188  0.00  0.00     0.201 HD
BRANCH  12  15
ATOM     15  C   LIG d   1       5.776  -2.011  -4.002  0.00  0.00    -0.045 C 
ATOM     16  H   LIG d   1       5.613  -2.788  -4.750  0.00  0.00     0.078 H 
ATOM     17  H   LIG d   1       6.784  -1.610  -4.107  0.00  0.00     0.078 H 
ATOM     18  H   LIG d   1       5.657  -2.437  -3.005  0.00  0.00     0.078 H 
ENDBRANCH  12  15
ENDBRANCH   6  12
ENDBRANCH   1   6
TORSDOF 4
ENDMDL
MODEL 4
REMARK VINA RESULT:      -3.2      1.740      2.171
REMARK  4 active torsions:
REMARK  status: ('A' for Active; 'I' for Inactive)
REMARK    1  A    between atoms: C_1  and  C_2 
REMARK    2  A    between atoms: C_2  and  C_4 
REMARK    3  A    between atoms: C_2  and  N_16 
REMARK    4  A    between atoms: C_7  and  N_16 
ROOT
ATOM      1  C   LIG d   1       4.318  -1.587  -1.958  0.00  0.00     0.077 C 
ATOM      2  C   LIG d   1       4.124  -0.128  -1.938  0.00  0.00     0.068 C 
ATOM      3  N   LIG d   1       3.973   0.998  -1.924  0.00  0.00    -0.196 NA
ATOM      4  H   LIG d   1       5.249  -1.836  -1.447  0.00  0.00     0.047 H 
ATOM      5  H   LIG d   1       3.484  -2.071  -1.450  0.00  0.00     0.047 H 
ENDROOT
BRANCH   1   6
ATOM      6  C   LIG d   1       4.386  -2.074  -3.407  0.00  0.00    -0.013 C 
ATOM      7  H   LIG d   1       4.043  -3.108  -3.459  0.00  0.00     0.086 H 
BRANCH   6   8
ATOM      8  C   LIG d   1       5.830  -1.991  -3.906  0.00  0.00    -0.021 C 
ATOM      9  H   LIG d   1       6.460  -1.561  -3.126  0.00  0.00     0.028 H 
ATOM     10  H   LIG d   1       6.188  -2.990  -4.152  0.00  0.00     0.028 H 
ATOM     11  H   LIG d   1       5.871  -1.360  -4.794  0.00  0.00     0.028 H 
ENDBRANCH   6   8
BRANCH   6  12
ATOM     12  N   LIG d   1       3.524  -1.220  -4.246  0.00  0.00     0.228 N 
ATOM     13  H   LIG d   1       3.294  -0.362  -3.731  0.00  0.00     0.201 HD
ATOM     14  H   LIG d   1       2.660  -1.727  -4.469  0.00  0.00     0.201 HD
BRANCH  12  15
ATOM     15  C   LIG d   1       4.218  -0.866  -5.499  0.00  0.00    -0.045 C 
ATOM     16  H   LIG d   1       4.797   0.046  -5.351  0.00  0.00     0.078 H 
ATOM     17  H   LIG d   1       4.884  -1.677  -5.790  0.00  0.00     0.078 H 
ATOM     18  H   LIG d   1       3.478  -0.703  -6.282  0.00  0.00     0.078 H 
ENDBRANCH  12  15
ENDBRANCH   6  12
ENDBRANCH   1   6
TORSDOF 4
ENDMDL
MODEL 5
REMARK VINA RESULT:      -3.1      1.967      2.890
REMARK  4 active torsions:
REMARK  status: ('A' for Active; 'I' for Inactive)
REMARK    1  A    between atoms: C_1  and  C_2 
REMARK    2  A    between atoms: C_2  and  C_4 
REMARK    3  A    between atoms: C_2  and  N_16 
REMARK    4  A    between atoms: C_7  and  N_16 
ROOT
ATOM      1  C   LIG d   1       4.368  -2.402  -3.604  0.00  0.00     0.077 C 
ATOM      2  C   LIG d   1       5.805  -2.107  -3.489  0.00  0.00     0.068 C 
ATOM      3  N   LIG d   1       6.915  -1.879  -3.399  0.00  0.00    -0.196 NA
ATOM      4  H   LIG d   1       4.020  -2.130  -4.601  0.00  0.00     0.047 H 
ATOM      5  H   LIG d   1       4.202  -3.467  -3.441  0.00  0.00     0.047 H 
ENDROOT
BRANCH   1   6
ATOM      6  C   LIG d   1       3.595  -1.598  -2.557  0.00  0.00    -0.013 C 
ATOM      7  H   LIG d   1       3.054  -2.281  -1.902  0.00  0.00     0.086 H 
BRANCH   6   8
ATOM      8  C   LIG d   1       2.601  -0.670  -3.258  0.00  0.00    -0.021 C 
ATOM      9  H   LIG d   1       1.914  -1.263  -3.862  0.00  0.00     0.028 H 
ATOM     10  H   LIG d   1       2.038  -0.110  -2.511  0.00  0.00     0.028 H 
ATOM     11  H   LIG d   1       3.144   0.023  -3.901  0.00  0.00     0.028 H 
ENDBRANCH   6   8
BRANCH   6  12
ATOM     12  N   LIG d   1       4.546  -0.796  -1.764  0.00  0.00     0.228 N 
ATOM     13  H   LIG d   1       5.500  -0.970  -2.102  0.00  0.00     0.201 HD
ATOM     14  H   LIG d   1       4.478  -1.069  -0.777  0.00  0.00     0.201 HD
BRANCH  12  15
ATOM     15  C   LIG d   1       4.237   0.640  -1.894  0.00  0.00    -0.045 C 
ATOM     16  H   LIG d   1       5.008   1.128  -2.493  0.00  0.00     0.078 H 
ATOM     17  H   LIG d   1       3.268   0.765  -2.379  0.00  0.00     0.078 H 
ATOM     18  H   LIG d   1       4.208   1.091  -0.902  0.00  0.00     0.078 H 
ENDBRANCH  12  15
ENDBRANCH   6  12
ENDBRANCH   1   6
TORSDOF 4
ENDMDL
MODEL 6
REMARK VINA RESULT:      -3.0      1.650      3.530
REMARK  4 active torsions:
REMARK  status: ('A' for Active; 'I' for Inactive)
REMARK    1  A    between atoms: C_1  and  C_2 
REMARK    2  A    between atoms: C_2  and  C_4 
REMARK    3  A    between atoms: C_2  and  N_16 
REMARK    4  A    between atoms: C_7  and  N_16 
ROOT
ATOM      1  C   LIG d   1       4.658  -0.360  -3.912  0.00  0.00     0.077 C 
ATOM      2  C   LIG d   1       4.261  -1.689  -3.417  0.00  0.00     0.068 C 
ATOM      3  N   LIG d   1       3.954  -2.713  -3.034  0.00  0.00    -0.196 NA
ATOM      4  H   LIG d   1       5.258  -0.474  -4.815  0.00  0.00     0.047 H 
ATOM      5  H   LIG d   1       3.766   0.224  -4.140  0.00  0.00     0.047 H 
ENDROOT
BRANCH   1   6
ATOM      6  C   LIG d   1       5.480   0.360  -2.841  0.00  0.00    -0.013 C 
ATOM      7  H   LIG d   1       6.207  -0.333  -2.415  0.00  0.00     0.086 H 
BRANCH   6   8
ATOM      8  C   LIG d   1       4.549   0.863  -1.736  0.00  0.00    -0.021 C 
ATOM      9  H   LIG d   1       4.765   1.912  -1.529  0.00  0.00     0.028 H 
ATOM     10  H   LIG d   1       3.513   0.763  -2.060  0.00  0.00     0.028 H 
ATOM     11  H   LIG d   1       4.707   0.275  -0.832  0.00  0.00     0.028 H 
ENDBRANCH   6   8
BRANCH   6  12
ATOM     12  N   LIG d   1       6.181   1.503  -3.455  0.00  0.00     0.228 N 
ATOM     13  H   LIG d   1       6.237   2.270  -2.775  0.00  0.00     0.201 HD
ATOM     14  H   LIG d   1       5.657   1.817  -4.281  0.00  0.00     0.201 HD
BRANCH  12  15
ATOM     15  C   LIG d   1       7.543   1.111  -3.862  0.00  0.00    -0.045 C 
ATOM     16  H   LIG d   1       8.261   1.459  -3.119  0.00  0.00     0.078 H 
ATOM     17  H   LIG d   1       7.602   0.026  -3.945  0.00  0.00     0.078 H 
ATOM     18  H   LIG d   1       7.770   1.563  -4.827  0.00  0.00     0.078 H 
ENDBRANCH  12  15
ENDBRANCH   6  12
ENDBRANCH   1   6
TORSDOF 4
ENDMDL
MODEL 7
REMARK VINA RESULT:      -2.9      1.776      3.032
REMARK  4 active torsions:
REMARK  status: ('A' for Active; 'I' for Inactive)
REMARK    1  A    between atoms: C_1  and  C_2 
REMARK    2  A    between atoms: C_2  and  C_4 
REMARK    3  A    between atoms: C_2  and  N_16 
REMARK    4  A    between atoms: C_7  and  N_16 
ROOT
ATOM      1  C   LIG d   1       3.870   0.999  -2.367  0.00  0.00     0.077 C 
ATOM      2  C   LIG d   1       3.216   0.969  -3.685  0.00  0.00     0.068 C 
ATOM      3  N   LIG d   1       2.712   0.945  -4.703  0.00  0.00    -0.196 NA
ATOM      4  H   LIG d   1       4.055   2.034  -2.077  0.00  0.00     0.047 H 
ATOM      5  H   LIG d   1       3.222   0.526  -1.629  0.00  0.00     0.047 H 
ENDROOT
BRANCH   1   6
ATOM      6  C   LIG d   1       5.199   0.245  -2.438  0.00  0.00    -0.013 C 
ATOM      7  H   LIG d   1       5.561   0.051  -1.428  0.00  0.00     0.086 H 
BRANCH   6   8
ATOM      8  C   LIG d   1       6.226   1.091  -3.193  0.00  0.00    -0.021 C 
ATOM      9  H   LIG d   1       5.708   1.772  -3.870  0.00  0.00     0.028 H 
ATOM     10  H   LIG d   1       6.818   1.667  -2.482  0.00  0.00     0.028 H 
ATOM     11  H   LIG d   1       6.882   0.438  -3.769  0.00  0.00     0.028 H 
ENDBRANCH   6   8
BRANCH   6  12
ATOM     12  N   LIG d   1       4.995  -1.032  -3.148  0.00  0.00     0.228 N 
ATOM     13  H   LIG d   1       4.612  -0.842  -4.082  0.00  0.00     0.201 HD
ATOM     14  H   LIG d   1       4.332  -1.611  -2.618  0.00  0.00     0.201 HD
BRANCH  12  15
ATOM     15  C   LIG d   1       6.273  -1.754  -3.281  0.00  0.00    -0.045 C 
ATOM     16  H   LIG d   1       7.098  -1.089  -3.022  0.00  0.00     0.078 H 
ATOM     17  H   LIG d   1       6.278  -2.617  -2.616  0.00  0.00     0.078 H 
ATOM     18  H   LIG d   1       6.387  -2.089  -4.312  0.00  0.00     0.078 H 
ENDBRANCH  12  15
ENDBRANCH   6  12
ENDBRANCH   1   6
TORSDOF 4
ENDMDL
MODEL 8
REMARK VINA RESULT:      -2.7     11.691     12.655
REMARK  4 active torsions:
REMARK  status: ('A' for Active; 'I' for Inactive)
REMARK    1  A    between atoms: C_1  and  C_2 
REMARK    2  A    between atoms: C_2  and  C_4 
REMARK    3  A    between atoms: C_2  and  N_16 
REMARK    4  A    between atoms: C_7  and  N_16 
ROOT
ATOM      1  C   LIG d   1      11.925  -8.319   3.633  0.00  0.00     0.077 C 
ATOM      2  C   LIG d   1      13.159  -7.772   3.045  0.00  0.00     0.068 C 
ATOM      3  N   LIG d   1      14.111  -7.349   2.592  0.00  0.00    -0.196 NA
ATOM      4  H   LIG d   1      12.155  -9.242   4.165  0.00  0.00     0.047 H 
ATOM      5  H   LIG d   1      11.502  -7.594   4.329  0.00  0.00     0.047 H 
ENDROOT
BRANCH   1   6
ATOM      6  C   LIG d   1      10.915  -8.609   2.521  0.00  0.00    -0.013 C 
ATOM      7  H   LIG d   1       9.904  -8.479   2.906  0.00  0.00     0.086 H 
BRANCH   6   8
ATOM      8  C   LIG d   1      11.094 -10.048   2.033  0.00  0.00    -0.021 C 
ATOM      9  H   LIG d   1      12.047 -10.438   2.393  0.00  0.00     0.028 H 
ATOM     10  H   LIG d   1      10.281 -10.666   2.416  0.00  0.00     0.028 H 
ATOM     11  H   LIG d   1      11.082 -10.066   0.943  0.00  0.00     0.028 H 
ENDBRANCH   6   8
BRANCH   6  12
ATOM     12  N   LIG d   1      11.146  -7.677   1.401  0.00  0.00     0.228 N 
ATOM     13  H   LIG d   1      12.060  -7.225   1.520  0.00  0.00     0.201 HD
ATOM     14  H   LIG d   1      10.409  -6.962   1.399  0.00  0.00     0.201 HD
BRANCH  12  15
ATOM     15  C   LIG d   1      11.123  -8.402   0.118  0.00  0.00    -0.045 C 
ATOM     16  H   LIG d   1      11.716  -7.860  -0.620  0.00  0.00     0.078 H 
ATOM     17  H   LIG d   1      11.537  -9.401   0.254  0.00  0.00     0.078 H 
ATOM     18  H   LIG d   1      10.093  -8.480  -0.230  0.00  0.00     0.078 H 
ENDBRANCH  12  15
ENDBRANCH   6  12
ENDBRANCH   1   6
TORSDOF 4
ENDMDL
MODEL 9
REMARK VINA RESULT:      -2.6     14.835     15.551
REMARK  4 active torsions:
REMARK  status: ('A' for Active; 'I' for Inactive)
REMARK    1  A    between atoms: C_1  and  C_2 
REMARK    2  A    between atoms: C_2  and  C_4 
REMARK    3  A    between atoms: C_2  and  N_16 
REMARK    4  A    between atoms: C_7  and  N_16 
ROOT
ATOM      1  C   LIG d   1      -2.382   9.016 -15.209  0.00  0.00     0.077 C 
ATOM      2  C   LIG d   1      -1.052   8.416 -15.008  0.00  0.00     0.068 C 
ATOM      3  N   LIG d   1      -0.027   7.953 -14.854  0.00  0.00    -0.196 NA
ATOM      4  H   LIG d   1      -2.497   9.874 -14.546  0.00  0.00     0.047 H 
ATOM      5  H   LIG d   1      -2.481   9.342 -16.245  0.00  0.00     0.047 H 
ENDROOT
BRANCH   1   6
ATOM      6  C   LIG d   1      -3.463   7.980 -14.894  0.00  0.00    -0.013 C 
ATOM      7  H   LIG d   1      -3.909   7.627 -15.824  0.00  0.00     0.086 H 
BRANCH   6   8
ATOM      8  C   LIG d   1      -4.544   8.620 -14.021  0.00  0.00    -0.021 C 
ATOM      9  H   LIG d   1      -4.509   8.185 -13.022  0.00  0.00     0.028 H 
ATOM     10  H   LIG d   1      -4.370   9.694 -13.956  0.00  0.00     0.028 H 
ATOM     11  H   LIG d   1      -5.523   8.436 -14.463  0.00  0.00     0.028 H 
ENDBRANCH   6   8
BRANCH   6  12
ATOM     12  N   LIG d   1      -2.853   6.847 -14.173  0.00  0.00     0.228 N 
ATOM     13  H   LIG d   1      -2.972   6.986 -13.162  0.00  0.00     0.201 HD
ATOM     14  H   LIG d   1      -1.851   6.804 -14.395  0.00  0.00     0.201 HD
BRANCH  12  15
ATOM     15  C   LIG d   1      -3.495   5.581 -14.570  0.00  0.00    -0.045 C 
ATOM     16  H   LIG d   1      -2.853   5.050 -15.273  0.00  0.00     0.078 H 
ATOM     17  H   LIG d   1      -3.661   4.962 -13.689  0.00  0.00     0.078 H 
ATOM     18  H   LIG d   1      -4.451   5.800 -15.046  0.00  0.00     0.078 H 
ENDBRANCH  12  15
ENDBRANCH   6  12
ENDBRANCH   1   6
TORSDOF 4
ENDMDL
MODEL 10
REMARK VINA RESULT:      -2.6      8.055      9.485
REMARK  4 active torsions:
REMARK  status: ('A' for Active; 'I' for Inactive)
REMARK    1  A    between atoms: C_1  and  C_2 
REMARK    2  A    between atoms: C_2  and  C_4 
REMARK    3  A    between atoms: C_2  and  N_16 
REMARK    4  A    between atoms: C_7  and  N_16 
ROOT
ATOM      1  C   LIG d   1      11.290   7.297   0.097  0.00  0.00     0.077 C 
ATOM      2  C   LIG d   1      11.068   6.365   1.216  0.00  0.00     0.068 C 
ATOM      3  N   LIG d   1      10.897   5.646   2.078  0.00  0.00    -0.196 NA
ATOM      4  H   LIG d   1      10.769   8.233   0.296  0.00  0.00     0.047 H 
ATOM      5  H   LIG d   1      12.358   7.490  -0.008  0.00  0.00     0.047 H 
ENDROOT
BRANCH   1   6
ATOM      6  C   LIG d   1      10.753   6.679  -1.196  0.00  0.00    -0.013 C 
ATOM      7  H   LIG d   1      11.452   6.876  -2.009  0.00  0.00     0.086 H 
BRANCH   6   8
ATOM      8  C   LIG d   1       9.395   7.298  -1.530  0.00  0.00    -0.021 C 
ATOM      9  H   LIG d   1       9.327   8.290  -1.082  0.00  0.00     0.028 H 
ATOM     10  H   LIG d   1       9.289   7.381  -2.612  0.00  0.00     0.028 H 
ATOM     11  H   LIG d   1       8.600   6.666  -1.134  0.00  0.00     0.028 H 
ENDBRANCH   6   8
BRANCH   6  12
ATOM     12  N   LIG d   1      10.600   5.224  -1.011  0.00  0.00     0.228 N 
ATOM     13  H   LIG d   1       9.793   5.043  -0.402  0.00  0.00     0.201 HD
ATOM     14  H   LIG d   1      11.449   4.847  -0.573  0.00  0.00     0.201 HD
BRANCH  12  15
ATOM     15  C   LIG d   1      10.388   4.562  -2.311  0.00  0.00    -0.045 C 
ATOM     16  H   LIG d   1       9.371   4.170  -2.361  0.00  0.00     0.078 H 
ATOM     17  H   LIG d   1      10.542   5.279  -3.117  0.00  0.00     0.078 H 
ATOM     18  H   LIG d   1      11.098   3.742  -2.414  0.00  0.00     0.078 H 
ENDBRANCH  12  15
ENDBRANCH   6  12
ENDBRANCH   1   6
TORSDOF 4
ENDMDL
